# generated using pymatgen
data_HfZrTaTiMo
_symmetry_space_group_name_H-M   'P 1'
_cell_length_a   15.20843803
_cell_length_b   15.21034227
_cell_length_c   16.84120299
_cell_angle_alpha   90.04187553
_cell_angle_beta   89.96221042
_cell_angle_gamma   90.03826772
_symmetry_Int_Tables_number   1
_chemical_formula_structural   HfZrTaTiMo
_chemical_formula_sum   'Hf40 Zr40 Ta40 Ti40 Mo40'
_cell_volume   3895.79775279
_cell_formula_units_Z   40
loop_
 _symmetry_equiv_pos_site_id
 _symmetry_equiv_pos_as_xyz
  1  'x, y, z'
loop_
 _atom_site_type_symbol
 _atom_site_label
 _atom_site_symmetry_multiplicity
 _atom_site_fract_x
 _atom_site_fract_y
 _atom_site_fract_z
 _atom_site_occupancy
  Hf  Hf0  1  0.39898782  0.79879989  0.26425152  1
  Hf  Hf1  1  0.68787943  0.50508553  0.88806580  1
  Hf  Hf2  1  0.00818668  0.21654149  0.01129785  1
  Hf  Hf3  1  0.49270100  0.08372563  0.64212616  1
  Hf  Hf4  1  0.19839915  -0.00441904  0.26048143  1
  Hf  Hf5  1  0.90287183  0.70842182  0.62653703  1
  Hf  Hf6  1  0.09480056  0.89946452  0.11959491  1
  Hf  Hf7  1  0.39432213  -0.00127252  0.26474769  1
  Hf  Hf8  1  0.38904295  0.40686987  0.01558843  1
  Hf  Hf9  1  0.50387738  0.30017759  0.62158521  1
  Hf  Hf10  1  0.29677548  0.09678858  0.86411335  1
  Hf  Hf11  1  0.10691145  0.10137158  0.12238433  1
  Hf  Hf12  1  0.79738524  0.80106999  0.75882125  1
  Hf  Hf13  1  0.38978328  -0.00107982  -0.00596981  1
  Hf  Hf14  1  0.40040996  0.20804280  -0.00829533  1
  Hf  Hf15  1  0.69465384  0.68962611  0.37629554  1
  Hf  Hf16  1  0.30576131  0.29121956  0.36897188  1
  Hf  Hf17  1  0.09002683  0.90888330  0.61966151  1
  Hf  Hf18  1  0.00144855  0.60779739  0.48517485  1
  Hf  Hf19  1  0.20513844  0.79856879  0.74406542  1
  Hf  Hf20  1  0.88874912  0.89330086  0.11924146  1
  Hf  Hf21  1  0.30834619  0.70538222  0.12927315  1
  Hf  Hf22  1  0.39365960  0.21417336  0.74802879  1
  Hf  Hf23  1  0.69413514  0.29336834  0.37453936  1
  Hf  Hf24  1  0.81193198  -0.00036265  0.49955122  1
  Hf  Hf25  1  -0.01631992  -0.00003397  0.26121284  1
  Hf  Hf26  1  0.81617816  0.61461002  0.00858493  1
  Hf  Hf27  1  0.31395547  0.49616931  0.86945908  1
  Hf  Hf28  1  0.78850608  0.60161419  0.74648411  1
  Hf  Hf29  1  0.50453105  0.10480561  0.85398947  1
  Hf  Hf30  1  0.60052258  0.59560446  0.24282524  1
  Hf  Hf31  1  0.41272049  0.60629397  0.01071672  1
  Hf  Hf32  1  0.31460455  0.70087121  0.87383801  1
  Hf  Hf33  1  0.09349014  0.50555883  0.63432662  1
  Hf  Hf34  1  0.40349727  0.18660111  0.50525228  1
  Hf  Hf35  1  0.82177787  -0.00326343  0.74989091  1
  Hf  Hf36  1  0.59130081  0.39391470  0.01686804  1
  Hf  Hf37  1  0.59558572  0.77140358  0.74894079  1
  Hf  Hf38  1  0.00220465  0.81622394  0.75954854  1
  Hf  Hf39  1  0.70154848  0.89175129  0.61972591  1
  Zr  Zr40  1  -0.00226551  0.80812656  0.48923717  1
  Zr  Zr41  1  0.48665814  0.89276844  0.11994783  1
  Zr  Zr42  1  -0.00941043  0.20554388  0.25388529  1
  Zr  Zr43  1  0.19703635  0.58588908  0.49371580  1
  Zr  Zr44  1  0.20152486  0.20627783  0.50335654  1
  Zr  Zr45  1  0.29117689  0.29188029  0.13251473  1
  Zr  Zr46  1  0.40652874  0.39314190  0.24295345  1
  Zr  Zr47  1  0.90159653  0.30489663  0.61207765  1
  Zr  Zr48  1  0.39299670  0.40381107  0.49880028  1
  Zr  Zr49  1  0.80062440  0.58731670  0.49749602  1
  Zr  Zr50  1  0.60202193  0.01242295  0.49985816  1
  Zr  Zr51  1  0.71960509  0.71317939  0.12920570  1
  Zr  Zr52  1  0.58565140  0.41809018  0.74518081  1
  Zr  Zr53  1  0.18350132  0.39798880  0.00664314  1
  Zr  Zr54  1  0.91046566  0.91293965  0.89151479  1
  Zr  Zr55  1  0.69079636  0.30354519  0.87140889  1
  Zr  Zr56  1  0.60204850  -0.02795174  0.75794158  1
  Zr  Zr57  1  0.59401181  0.79943950  0.25200391  1
  Zr  Zr58  1  0.81638133  0.58945514  0.25149865  1
  Zr  Zr59  1  0.90217256  0.31251178  0.88325619  1
  Zr  Zr60  1  0.31773670  0.69468852  0.60727405  1
  Zr  Zr61  1  0.10229374  0.31046968  0.61777040  1
  Zr  Zr62  1  0.89528921  0.50497793  0.87755715  1
  Zr  Zr63  1  0.69775803  0.90426055  0.37194016  1
  Zr  Zr64  1  0.70202533  0.09133530  0.13103610  1
  Zr  Zr65  1  0.10737087  0.49063008  0.86072993  1
  Zr  Zr66  1  0.48370706  0.87541451  0.87965823  1
  Zr  Zr67  1  0.19014347  0.20738962  0.74681344  1
  Zr  Zr68  1  0.70920791  0.10207951  0.86853777  1
  Zr  Zr69  1  0.60315961  -0.01160514  -0.00941840  1
  Zr  Zr70  1  0.09598421  0.08174815  0.88556648  1
  Zr  Zr71  1  0.69442710  0.10923094  0.64068669  1
  Zr  Zr72  1  0.00018288  0.01385277  0.47888083  1
  Zr  Zr73  1  0.10598941  0.31951598  0.36981100  1
  Zr  Zr74  1  0.81338916  0.21310792  0.74724346  1
  Zr  Zr75  1  0.20537080  0.00864205  0.49433894  1
  Zr  Zr76  1  0.59718853  0.19766119  0.00727265  1
  Zr  Zr77  1  0.02020385  0.58997351  -0.00077705  1
  Zr  Zr78  1  -0.00631223  0.78423400  -0.00740719  1
  Zr  Zr79  1  0.80126351  0.79566645  0.49167322  1
  Ta  Ta80  1  0.68570505  0.69131564  0.61312461  1
  Ta  Ta81  1  0.90257420  0.09553021  0.11545848  1
  Ta  Ta82  1  0.70550723  0.10428168  0.36185166  1
  Ta  Ta83  1  0.59342212  0.20589335  0.23999614  1
  Ta  Ta84  1  0.40130690  0.79621068  0.74092276  1
  Ta  Ta85  1  0.11250017  0.69952142  0.13060252  1
  Ta  Ta86  1  0.20530891  0.19410417  0.25245316  1
  Ta  Ta87  1  0.00893187  0.79560677  0.25761193  1
  Ta  Ta88  1  0.60470949  0.59735321  0.02050487  1
  Ta  Ta89  1  0.50766431  0.10968256  0.37401032  1
  Ta  Ta90  1  0.50208620  0.49888747  0.36950721  1
  Ta  Ta91  1  0.70497132  0.70266188  0.88874317  1
  Ta  Ta92  1  0.42544341  0.59646949  0.73991854  1
  Ta  Ta93  1  0.30644742  0.90424674  0.61789062  1
  Ta  Ta94  1  0.40650039  -0.00833744  0.48914814  1
  Ta  Ta95  1  0.91525806  0.09904019  0.62577442  1
  Ta  Ta96  1  -0.00102285  0.61163501  0.75604238  1
  Ta  Ta97  1  -0.00491081  0.39183931  0.74809342  1
  Ta  Ta98  1  0.59103599  0.00486533  0.25391629  1
  Ta  Ta99  1  0.08792833  0.31537988  0.14439104  1
  Ta  Ta100  1  0.29778618  0.88763076  0.38886430  1
  Ta  Ta101  1  0.89027138  0.30397621  0.38154327  1
  Ta  Ta102  1  0.90740170  0.11219285  0.88871880  1
  Ta  Ta103  1  0.21253784  0.59816690  0.00651699  1
  Ta  Ta104  1  0.71370913  0.49157535  0.12131855  1
  Ta  Ta105  1  0.69562404  0.30299920  0.61935127  1
  Ta  Ta106  1  0.59113738  0.78409263  0.00583122  1
  Ta  Ta107  1  0.30063738  0.09069787  0.12281517  1
  Ta  Ta108  1  0.00084913  0.41755065  0.48570960  1
  Ta  Ta109  1  0.39805636  0.60043352  0.25689595  1
  Ta  Ta110  1  0.79356636  0.19268011  0.50001058  1
  Ta  Ta111  1  0.80337988  0.38839176  0.24493726  1
  Ta  Ta112  1  0.20284098  0.79821246  -0.00468223  1
  Ta  Ta113  1  0.80121837  0.21478908  0.01464578  1
  Ta  Ta114  1  0.29682318  0.48931094  0.62567532  1
  Ta  Ta115  1  0.69856242  0.48622018  0.37032191  1
  Ta  Ta116  1  0.49099066  0.09846519  0.12764705  1
  Ta  Ta117  1  0.21442246  0.59954717  0.74265873  1
  Ta  Ta118  1  0.29051658  0.49099919  0.36365458  1
  Ta  Ta119  1  0.60143045  0.40340708  0.49913674  1
  Ti  Ti120  1  0.48484732  0.32132946  0.86934550  1
  Ti  Ti121  1  0.79797679  0.00405185  -0.00371823  1
  Ti  Ti122  1  0.40422288  0.18989794  0.25058748  1
  Ti  Ti123  1  0.19841058  0.60305196  0.25849849  1
  Ti  Ti124  1  0.38739188  0.40443830  0.73973192  1
  Ti  Ti125  1  0.58603601  0.80134188  0.49664153  1
  Ti  Ti126  1  0.29026250  0.90011462  0.11951161  1
  Ti  Ti127  1  0.91524093  0.48415908  0.12016730  1
  Ti  Ti128  1  0.60490649  0.39403839  0.23755773  1
  Ti  Ti129  1  0.09499375  0.10485165  0.62831231  1
  Ti  Ti130  1  0.49233194  0.88393528  0.62062212  1
  Ti  Ti131  1  0.19718374  0.79595228  0.50207444  1
  Ti  Ti132  1  0.11058342  0.69895533  0.87037633  1
  Ti  Ti133  1  0.10162826  0.89343059  0.37538847  1
  Ti  Ti134  1  0.49512428  0.50290163  0.13576453  1
  Ti  Ti135  1  0.20817972  0.19827767  -0.00481688  1
  Ti  Ti136  1  -0.00809560  0.41912831  0.26381848  1
  Ti  Ti137  1  0.80124861  0.19601626  0.24088344  1
  Ti  Ti138  1  0.19228272  -0.00840451  0.74632425  1
  Ti  Ti139  1  0.81019071  0.81072589  0.25996312  1
  Ti  Ti140  1  0.28527402  0.89975604  0.87473412  1
  Ti  Ti141  1  0.79541742  0.40760302  0.74241512  1
  Ti  Ti142  1  0.69633874  0.90237457  0.12945857  1
  Ti  Ti143  1  0.29697497  0.09462772  0.63562401  1
  Ti  Ti144  1  0.51156600  0.67263943  0.87744934  1
  Ti  Ti145  1  0.79876508  0.40001238  0.49862133  1
  Ti  Ti146  1  0.68953313  0.49783540  0.61975554  1
  Ti  Ti147  1  0.29880629  0.69327221  0.38465318  1
  Ti  Ti148  1  0.90763040  0.69936873  0.36326070  1
  Ti  Ti149  1  0.50648919  0.30086709  0.37959992  1
  Ti  Ti150  1  0.92445875  0.69148165  0.14107570  1
  Ti  Ti151  1  0.20270968  0.79841095  0.25684702  1
  Ti  Ti152  1  0.10553726  0.50671342  0.14249166  1
  Ti  Ti153  1  0.10058353  0.29513744  0.86904690  1
  Ti  Ti154  1  0.58783208  0.59219755  0.49716391  1
  Ti  Ti155  1  0.49148068  0.69935297  0.38796912  1
  Ti  Ti156  1  -0.00785001  0.20407317  0.48761893  1
  Ti  Ti157  1  0.90089985  0.50173770  0.62874908  1
  Ti  Ti158  1  0.10217209  0.70013995  0.62833825  1
  Ti  Ti159  1  0.10550466  0.11307838  0.37064619  1
  Mo  Mo160  1  0.11451638  0.71109892  0.36968855  1
  Mo  Mo161  1  -0.00209454  0.19497864  0.75364381  1
  Mo  Mo162  1  0.19946695  0.40607717  0.24180367  1
  Mo  Mo163  1  0.60246854  0.20449564  0.49733705  1
  Mo  Mo164  1  0.30377022  0.09872846  0.37323651  1
  Mo  Mo165  1  0.00979467  0.60475960  0.25442573  1
  Mo  Mo166  1  -0.00448923  0.00405645  0.01081414  1
  Mo  Mo167  1  0.89835633  0.89890356  0.36332680  1
  Mo  Mo168  1  0.29109386  0.30602601  0.87648877  1
  Mo  Mo169  1  0.49717413  0.51361421  0.61223878  1
  Mo  Mo170  1  0.69831516  0.89193337  0.88156905  1
  Mo  Mo171  1  0.70158889  0.30012048  0.13379180  1
  Mo  Mo172  1  0.78246806  0.81375367  -0.00830897  1
  Mo  Mo173  1  0.39875058  0.80133723  0.49240811  1
  Mo  Mo174  1  0.88635969  0.11293838  0.37259002  1
  Mo  Mo175  1  0.79540511  0.00190719  0.24611137  1
  Mo  Mo176  1  0.40067415  0.59358602  0.47964398  1
  Mo  Mo177  1  0.59535027  0.21038099  0.75155580  1
  Mo  Mo178  1  0.50016468  0.90138114  0.38040328  1
  Mo  Mo179  1  0.00060503  0.40013899  0.00980199  1
  Mo  Mo180  1  0.89526943  0.49349591  0.37382020  1
  Mo  Mo181  1  0.90272198  0.90935914  0.62867377  1
  Mo  Mo182  1  0.39251876  0.79671583  -0.00096634  1
  Mo  Mo183  1  0.60641493  0.59794137  0.74650411  1
  Mo  Mo184  1  0.19593541  0.40789505  0.49641349  1
  Mo  Mo185  1  0.29992798  0.30247272  0.62170572  1
  Mo  Mo186  1  0.89767283  0.30405243  0.12950012  1
  Mo  Mo187  1  0.00834531  0.01195781  0.74908625  1
  Mo  Mo188  1  0.20421121  0.40185913  0.75046062  1
  Mo  Mo189  1  0.49663345  0.29177322  0.12986909  1
  Mo  Mo190  1  0.29034028  0.51152299  0.13966803  1
  Mo  Mo191  1  0.80002158  0.40222195  0.01426622  1
  Mo  Mo192  1  0.20127738  -0.00397758  0.00336632  1
  Mo  Mo193  1  0.90066871  0.69769546  0.86892641  1
  Mo  Mo194  1  0.50413746  0.69667894  0.60950530  1
  Mo  Mo195  1  0.11246978  0.89378451  0.88059823  1
  Mo  Mo196  1  0.50403944  0.69560569  0.13016444  1
  Mo  Mo197  1  0.38261061  -0.01738280  0.74726988  1
  Mo  Mo198  1  0.09781547  0.51106280  0.35986168  1
  Mo  Mo199  1  0.49923822  0.50043225  0.88117022  1
