# generated using pymatgen
data_HfZrTaTiMo
_symmetry_space_group_name_H-M   'P 1'
_cell_length_a   15.20344198
_cell_length_b   15.21354312
_cell_length_c   16.83363345
_cell_angle_alpha   90.06722858
_cell_angle_beta   89.96927212
_cell_angle_gamma   90.06855517
_symmetry_Int_Tables_number   1
_chemical_formula_structural   HfZrTaTiMo
_chemical_formula_sum   'Hf40 Zr40 Ta40 Ti40 Mo40'
_cell_volume   3893.58343007
_cell_formula_units_Z   40
loop_
 _symmetry_equiv_pos_site_id
 _symmetry_equiv_pos_as_xyz
  1  'x, y, z'
loop_
 _atom_site_type_symbol
 _atom_site_label
 _atom_site_symmetry_multiplicity
 _atom_site_fract_x
 _atom_site_fract_y
 _atom_site_fract_z
 _atom_site_occupancy
  Hf  Hf0  1  0.89553127  0.10659744  0.36473788  1
  Hf  Hf1  1  0.10366004  0.31326916  0.38066500  1
  Hf  Hf2  1  0.89514664  0.69841966  0.63290918  1
  Hf  Hf3  1  0.41924707  0.40352383  0.25822173  1
  Hf  Hf4  1  0.50025633  0.30344324  0.62408670  1
  Hf  Hf5  1  0.08387025  0.48915554  0.88747824  1
  Hf  Hf6  1  0.80901217  0.41354877  0.01973400  1
  Hf  Hf7  1  0.89494866  0.50156979  0.63328568  1
  Hf  Hf8  1  0.11046605  0.70356817  0.63388590  1
  Hf  Hf9  1  0.60394958  0.78790498  0.25524188  1
  Hf  Hf10  1  0.59556355  0.58910059  0.25257327  1
  Hf  Hf11  1  0.62303078  0.39932892  0.22807623  1
  Hf  Hf12  1  0.30688081  0.08398190  0.62187307  1
  Hf  Hf13  1  0.50506921  0.89901022  0.63446672  1
  Hf  Hf14  1  0.79169320  0.79159820  0.00061051  1
  Hf  Hf15  1  0.39332497  0.80233846  0.25477111  1
  Hf  Hf16  1  0.09265387  0.08167863  0.38787072  1
  Hf  Hf17  1  0.70900541  0.31637303  0.88171598  1
  Hf  Hf18  1  0.50090672  0.08776974  0.11654892  1
  Hf  Hf19  1  0.49121265  0.29910676  0.11923389  1
  Hf  Hf20  1  0.39880011  0.80014060  -0.01247177  1
  Hf  Hf21  1  0.26813142  0.69948977  0.37253478  1
  Hf  Hf22  1  0.80245038  0.79263640  0.49180107  1
  Hf  Hf23  1  0.89823729  0.31521480  0.35984296  1
  Hf  Hf24  1  0.29493797  0.07731094  0.88196512  1
  Hf  Hf25  1  0.70186673  0.30351483  0.37312549  1
  Hf  Hf26  1  0.11581119  0.91378621  0.87711898  1
  Hf  Hf27  1  0.31329349  0.49322611  0.11463898  1
  Hf  Hf28  1  0.59551129  0.19821509  0.24467016  1
  Hf  Hf29  1  0.69383262  0.09955369  0.63555210  1
  Hf  Hf30  1  0.80966510  0.20762774  0.76003438  1
  Hf  Hf31  1  0.60324099  0.20639486  -0.00611254  1
  Hf  Hf32  1  0.91157587  0.90787653  0.63155635  1
  Hf  Hf33  1  0.70094400  0.10320787  0.12146613  1
  Hf  Hf34  1  0.01856423  0.22008333  0.74682557  1
  Hf  Hf35  1  0.69542012  0.89886631  0.13129132  1
  Hf  Hf36  1  0.60855765  0.41422994  0.74978193  1
  Hf  Hf37  1  0.91095061  0.89836277  0.37031145  1
  Hf  Hf38  1  0.30457219  0.10962570  0.11604561  1
  Hf  Hf39  1  0.92254244  0.31197868  0.88148144  1
  Zr  Zr40  1  0.58496920  0.61577053  0.74525947  1
  Zr  Zr41  1  0.17812872  0.79027523  0.22500132  1
  Zr  Zr42  1  0.79352537  0.21176581  0.50335985  1
  Zr  Zr43  1  0.49174706  0.89403304  0.12443512  1
  Zr  Zr44  1  0.00484803  0.80282152  0.76131265  1
  Zr  Zr45  1  0.01788942  0.80445687  0.50508311  1
  Zr  Zr46  1  0.30242247  0.69281838  0.12406509  1
  Zr  Zr47  1  0.21261019  -0.00938202  0.23451218  1
  Zr  Zr48  1  0.69884566  0.50819466  0.61883198  1
  Zr  Zr49  1  0.30589347  0.30095981  0.38504814  1
  Zr  Zr50  1  0.00892433  0.40847236  0.23543664  1
  Zr  Zr51  1  0.09478194  0.07992580  0.61929879  1
  Zr  Zr52  1  0.29264799  0.28141704  0.86651971  1
  Zr  Zr53  1  0.39322415  0.79667656  0.49161174  1
  Zr  Zr54  1  0.50067336  0.52401480  0.88774203  1
  Zr  Zr55  1  0.11529591  0.29070456  0.11700595  1
  Zr  Zr56  1  0.29532958  0.87741851  0.63300927  1
  Zr  Zr57  1  -0.00834671  0.79772820  0.01040322  1
  Zr  Zr58  1  0.80227781  -0.00147980  -0.00469186  1
  Zr  Zr59  1  0.10332240  0.12563112  0.88562276  1
  Zr  Zr60  1  -0.00766654  0.21178877  0.50258115  1
  Zr  Zr61  1  0.01296380  -0.00742669  0.22932006  1
  Zr  Zr62  1  0.39098870  0.59247360  0.26551167  1
  Zr  Zr63  1  0.21038697  0.41311024  0.24511375  1
  Zr  Zr64  1  0.59649504  0.20800121  0.75394741  1
  Zr  Zr65  1  0.60285935  0.81168968  0.49195330  1
  Zr  Zr66  1  0.79877371  -0.00107735  0.49678322  1
  Zr  Zr67  1  0.20360358  0.20037781  0.51059615  1
  Zr  Zr68  1  0.00209026  0.00473345  0.00864131  1
  Zr  Zr69  1  0.40356224  0.39383535  -0.00996296  1
  Zr  Zr70  1  0.19584455  0.19564469  0.25365476  1
  Zr  Zr71  1  0.89531645  0.10529612  0.62842935  1
  Zr  Zr72  1  0.50311124  0.09649447  0.37839080  1
  Zr  Zr73  1  -0.02663615  0.78831991  0.22298771  1
  Zr  Zr74  1  0.21977233  0.78486207  0.77322301  1
  Zr  Zr75  1  0.20046081  0.79675736  0.00004633  1
  Zr  Zr76  1  0.28992445  0.49035205  0.61998336  1
  Zr  Zr77  1  0.40121688  0.40243113  0.75424997  1
  Zr  Zr78  1  0.17930609  0.38670199  0.75593341  1
  Zr  Zr79  1  0.29922749  0.09219110  0.38667750  1
  Ta  Ta80  1  0.49391636  0.10044591  0.87299190  1
  Ta  Ta81  1  0.29141923  0.50358137  0.88036234  1
  Ta  Ta82  1  0.69771312  0.09894411  0.36652885  1
  Ta  Ta83  1  0.11137820  0.88037067  0.36952171  1
  Ta  Ta84  1  0.50843420  0.30137683  0.38208129  1
  Ta  Ta85  1  0.00587369  0.42341881  0.49370011  1
  Ta  Ta86  1  0.40738676  -0.00824715  0.50239531  1
  Ta  Ta87  1  0.09512031  0.68446442  0.88624872  1
  Ta  Ta88  1  0.17708949  0.59306185  0.49772717  1
  Ta  Ta89  1  0.89865933  0.10741464  0.13190410  1
  Ta  Ta90  1  -0.00144288  0.01409037  0.76731874  1
  Ta  Ta91  1  0.49190079  0.50831041  0.61077775  1
  Ta  Ta92  1  0.70502182  0.51259272  0.88505667  1
  Ta  Ta93  1  0.80288560  -0.00208464  0.24394906  1
  Ta  Ta94  1  0.70658585  0.90115386  0.63929882  1
  Ta  Ta95  1  0.60891712  0.41708953  0.01865195  1
  Ta  Ta96  1  0.08838756  0.50456314  0.62914152  1
  Ta  Ta97  1  0.49967325  0.69524155  0.37893946  1
  Ta  Ta98  1  0.39460193  0.59176353  0.48420386  1
  Ta  Ta99  1  0.39676348  0.20226654  0.25054675  1
  Ta  Ta100  1  0.70192922  0.09942041  0.87511552  1
  Ta  Ta101  1  0.81048091  0.41261625  0.49297319  1
  Ta  Ta102  1  0.68776951  0.70039127  0.87485467  1
  Ta  Ta103  1  0.90761629  0.51665261  0.35866525  1
  Ta  Ta104  1  0.69378961  0.89516507  0.86807997  1
  Ta  Ta105  1  0.79498791  0.79820355  0.75723261  1
  Ta  Ta106  1  0.79855464  0.61987218  0.25086794  1
  Ta  Ta107  1  0.60586186  0.40187407  0.49925883  1
  Ta  Ta108  1  0.89249752  0.69002372  0.87537543  1
  Ta  Ta109  1  0.69416982  0.70969414  0.62551075  1
  Ta  Ta110  1  0.70100284  0.90635223  0.36089306  1
  Ta  Ta111  1  0.79071639  0.60059706  0.75591867  1
  Ta  Ta112  1  0.39396022  -0.00531530  0.75601285  1
  Ta  Ta113  1  0.29859228  0.89993952  0.37623327  1
  Ta  Ta114  1  0.59813164  -0.00015576  0.75996881  1
  Ta  Ta115  1  0.49300699  0.69779476  0.61399591  1
  Ta  Ta116  1  0.60075365  0.60328647  0.48983017  1
  Ta  Ta117  1  0.60120769  0.20052997  0.50587839  1
  Ta  Ta118  1  0.81069844  0.20230480  -0.00236617  1
  Ta  Ta119  1  0.19312121  -0.03554733  0.50426169  1
  Ti  Ti120  1  0.00283361  0.40568664  0.02529156  1
  Ti  Ti121  1  0.50165115  0.68260644  0.11845329  1
  Ti  Ti122  1  0.10275105  0.31626616  0.61321458  1
  Ti  Ti123  1  0.70597514  0.49995373  0.37110584  1
  Ti  Ti124  1  0.79754707  0.60276541  0.48559070  1
  Ti  Ti125  1  0.21073344  -0.00909992  0.02000775  1
  Ti  Ti126  1  -0.01470021  0.60618617  0.49776643  1
  Ti  Ti127  1  0.50238157  0.90595341  0.36923295  1
  Ti  Ti128  1  0.49766043  0.09996171  0.63319165  1
  Ti  Ti129  1  0.00314566  0.19620023  0.24204396  1
  Ti  Ti130  1  0.59569919  0.79574977  -0.00087758  1
  Ti  Ti131  1  0.40987360  0.19640848  0.50491389  1
  Ti  Ti132  1  0.89000552  0.49965045  0.86735849  1
  Ti  Ti133  1  0.30470168  0.29276012  0.62932725  1
  Ti  Ti134  1  0.21173299  0.17985193  0.73745260  1
  Ti  Ti135  1  0.41657130  0.78448154  0.76388445  1
  Ti  Ti136  1  0.71173824  0.31224602  0.62738958  1
  Ti  Ti137  1  0.50211561  0.30140663  0.87339968  1
  Ti  Ti138  1  -0.00090938  0.20472322  0.01118020  1
  Ti  Ti139  1  0.00852224  0.60203375  0.22602829  1
  Ti  Ti140  1  0.39616712  0.19620680  -0.00678777  1
  Ti  Ti141  1  0.28082792  0.49524170  0.38612110  1
  Ti  Ti142  1  0.49934878  0.90025436  0.86968255  1
  Ti  Ti143  1  0.89295361  0.30086220  0.13442706  1
  Ti  Ti144  1  0.40221677  0.39882381  0.49647732  1
  Ti  Ti145  1  0.59446703  -0.00555031  -0.01408258  1
  Ti  Ti146  1  0.60271542  0.00524824  0.50324281  1
  Ti  Ti147  1  -0.01808635  0.59426519  0.01192378  1
  Ti  Ti148  1  0.38818230  0.60320705  0.75113282  1
  Ti  Ti149  1  -0.00007896  0.59724213  0.75825007  1
  Ti  Ti150  1  0.40635556  0.00413208  0.25196133  1
  Ti  Ti151  1  0.30268153  0.68144672  0.61590231  1
  Ti  Ti152  1  0.90526020  0.31785176  0.63065645  1
  Ti  Ti153  1  0.19726122  0.59146291  0.76037397  1
  Ti  Ti154  1  0.79234060  0.21299791  0.24126808  1
  Ti  Ti155  1  0.80277440  0.00170584  0.76358604  1
  Ti  Ti156  1  0.19872971  0.59490754  -0.00152138  1
  Ti  Ti157  1  0.20411109  0.38941908  0.00016335  1
  Ti  Ti158  1  0.89833885  0.90157849  0.87270689  1
  Ti  Ti159  1  0.07439797  0.68546110  0.36557762  1
  Mo  Mo160  1  0.80075099  0.40468222  0.75450721  1
  Mo  Mo161  1  0.31108978  0.29757402  0.12461152  1
  Mo  Mo162  1  0.60153705  0.80509113  0.74787037  1
  Mo  Mo163  1  0.71134800  0.52783753  0.12189747  1
  Mo  Mo164  1  0.10546437  0.90119824  0.64401884  1
  Mo  Mo165  1  0.70098960  0.69582479  0.37749365  1
  Mo  Mo166  1  0.20609874  0.19864563  0.00347153  1
  Mo  Mo167  1  0.90147365  0.50735721  0.14019078  1
  Mo  Mo168  1  0.88582315  0.90380108  0.12582129  1
  Mo  Mo169  1  0.40598416  -0.00265050  -0.01015424  1
  Mo  Mo170  1  0.80070174  0.60188369  -0.00514598  1
  Mo  Mo171  1  0.31097543  0.90559983  0.12465496  1
  Mo  Mo172  1  0.31041997  0.89545491  0.86898053  1
  Mo  Mo173  1  0.80192729  0.41425435  0.23913775  1
  Mo  Mo174  1  0.09851451  0.10041670  0.11490708  1
  Mo  Mo175  1  0.60665483  0.61122394  0.00783522  1
  Mo  Mo176  1  0.09858227  0.30919541  0.89954150  1
  Mo  Mo177  1  0.87524865  0.68573114  0.11692974  1
  Mo  Mo178  1  0.19644727  0.40458090  0.50773307  1
  Mo  Mo179  1  0.10087746  0.89566814  0.11333802  1
  Mo  Mo180  1  0.60114492  -0.00144558  0.25381211  1
  Mo  Mo181  1  0.18378766  0.59013645  0.24494302  1
  Mo  Mo182  1  0.68900094  0.70082153  0.12197374  1
  Mo  Mo183  1  0.70782455  0.29815143  0.11273135  1
  Mo  Mo184  1  0.00257332  -0.00790493  0.49510884  1
  Mo  Mo185  1  0.89968610  0.69692047  0.37178914  1
  Mo  Mo186  1  0.19307410  -0.00722586  0.74938113  1
  Mo  Mo187  1  -0.00173316  0.40703799  0.74863321  1
  Mo  Mo188  1  0.10836832  0.50591668  0.10706492  1
  Mo  Mo189  1  0.50656984  0.49210323  0.38971152  1
  Mo  Mo190  1  0.09139772  0.68319675  0.10458128  1
  Mo  Mo191  1  0.50477195  0.70994509  0.87851107  1
  Mo  Mo192  1  0.30845199  0.67957966  0.87947749  1
  Mo  Mo193  1  0.79367674  0.80148168  0.25323807  1
  Mo  Mo194  1  0.19730942  0.78358157  0.49918631  1
  Mo  Mo195  1  0.50486359  0.50752850  0.11567699  1
  Mo  Mo196  1  0.39828641  0.60279552  -0.00302215  1
  Mo  Mo197  1  0.39967983  0.18928752  0.74857578  1
  Mo  Mo198  1  0.09600094  0.51273398  0.37405340  1
  Mo  Mo199  1  0.89928092  0.10450416  0.87363372  1
