# generated using pymatgen
data_HfZrTaTiMo
_symmetry_space_group_name_H-M   'P 1'
_cell_length_a   15.19970096
_cell_length_b   15.21360723
_cell_length_c   16.86885561
_cell_angle_alpha   90.01314411
_cell_angle_beta   89.98024934
_cell_angle_gamma   90.12009646
_symmetry_Int_Tables_number   1
_chemical_formula_structural   HfZrTaTiMo
_chemical_formula_sum   'Hf40 Zr40 Ta40 Ti40 Mo40'
_cell_volume   3900.78373722
_cell_formula_units_Z   40
loop_
 _symmetry_equiv_pos_site_id
 _symmetry_equiv_pos_as_xyz
  1  'x, y, z'
loop_
 _atom_site_type_symbol
 _atom_site_label
 _atom_site_symmetry_multiplicity
 _atom_site_fract_x
 _atom_site_fract_y
 _atom_site_fract_z
 _atom_site_occupancy
  Hf  Hf0  1  0.41007443  0.19252290  0.24375332  1
  Hf  Hf1  1  0.90272717  0.70517470  0.37663375  1
  Hf  Hf2  1  0.59385009  0.79505511  0.23884192  1
  Hf  Hf3  1  0.20093506  0.19485766  0.49031120  1
  Hf  Hf4  1  0.58100886  0.60190613  0.50521001  1
  Hf  Hf5  1  0.29095686  0.29189783  0.89328965  1
  Hf  Hf6  1  0.80477426  0.80683723  0.25130880  1
  Hf  Hf7  1  0.18025817  0.37352026  0.75479387  1
  Hf  Hf8  1  0.71809334  0.11317716  0.12486950  1
  Hf  Hf9  1  0.50367741  0.69926963  0.86739066  1
  Hf  Hf10  1  0.29420595  0.89400982  0.11181653  1
  Hf  Hf11  1  0.90052236  0.90377828  0.88365637  1
  Hf  Hf12  1  0.80707355  0.39279743  0.00563018  1
  Hf  Hf13  1  0.21494808  0.81104919  0.25750686  1
  Hf  Hf14  1  0.89735582  0.50689571  0.87801980  1
  Hf  Hf15  1  0.11116461  0.70400713  0.13287465  1
  Hf  Hf16  1  -0.02819321  0.38320605  0.49945834  1
  Hf  Hf17  1  0.50832543  0.88508912  0.37567093  1
  Hf  Hf18  1  0.18067312  0.20308428  0.01732217  1
  Hf  Hf19  1  0.11208002  0.69766270  0.37340587  1
  Hf  Hf20  1  0.68516337  0.10377036  0.61567737  1
  Hf  Hf21  1  0.69377717  0.69470288  0.37483170  1
  Hf  Hf22  1  0.00321861  0.59925517  0.01036712  1
  Hf  Hf23  1  -0.00493740  0.59513742  0.24997229  1
  Hf  Hf24  1  0.60760163  0.60402353  -0.00465679  1
  Hf  Hf25  1  0.29107983  0.29618209  0.35796130  1
  Hf  Hf26  1  0.31354468  0.30441440  0.11479764  1
  Hf  Hf27  1  0.30327031  0.09638937  0.11558103  1
  Hf  Hf28  1  0.20614722  -0.00705917  0.49335636  1
  Hf  Hf29  1  0.48787596  0.27936462  0.62130215  1
  Hf  Hf30  1  0.60050435  0.00285069  0.24229554  1
  Hf  Hf31  1  0.10276350  0.69617471  0.62339020  1
  Hf  Hf32  1  0.89767091  0.49649672  0.12725506  1
  Hf  Hf33  1  0.19647504  0.00913697  0.25660186  1
  Hf  Hf34  1  0.41730473  0.01173263  0.48642784  1
  Hf  Hf35  1  0.09555676  0.90314463  0.87847894  1
  Hf  Hf36  1  0.08402332  0.48903179  0.63167575  1
  Hf  Hf37  1  0.81300703  0.80468311  0.74455676  1
  Hf  Hf38  1  0.10157855  0.11870303  0.87376368  1
  Hf  Hf39  1  0.81802704  0.00991285  0.49638187  1
  Zr  Zr40  1  0.40047804  -0.01703107  0.25311108  1
  Zr  Zr41  1  0.80907821  0.01090542  0.25715886  1
  Zr  Zr42  1  0.62166352  0.80375581  0.76162865  1
  Zr  Zr43  1  0.59940889  0.39401386  0.00217662  1
  Zr  Zr44  1  0.21375068  0.79520346  0.49943872  1
  Zr  Zr45  1  0.29098097  0.49589468  0.63882556  1
  Zr  Zr46  1  0.49405676  0.49404881  0.87235386  1
  Zr  Zr47  1  0.69541916  0.89632351  0.60779414  1
  Zr  Zr48  1  0.01067232  0.22966936  0.73592486  1
  Zr  Zr49  1  0.29866835  0.51221383  0.11372147  1
  Zr  Zr50  1  0.70869692  0.29109513  0.87513901  1
  Zr  Zr51  1  0.49587643  0.49985886  0.11291191  1
  Zr  Zr52  1  0.49725955  0.90212110  0.89487823  1
  Zr  Zr53  1  0.89835609  0.11036092  0.86590168  1
  Zr  Zr54  1  0.49999998  0.10011570  0.89588301  1
  Zr  Zr55  1  0.78276641  0.41199802  0.24584824  1
  Zr  Zr56  1  -0.00183972  0.59842881  0.49447598  1
  Zr  Zr57  1  0.08193137  0.27971940  0.36015446  1
  Zr  Zr58  1  0.19633205  0.81127677  0.74950106  1
  Zr  Zr59  1  0.50218808  0.30529389  0.37990066  1
  Zr  Zr60  1  0.60152054  0.38888732  0.74462269  1
  Zr  Zr61  1  0.00221001  -0.01413727  0.73520724  1
  Zr  Zr62  1  0.58558757  -0.00228411  0.75047589  1
  Zr  Zr63  1  0.18399258  0.40342063  0.23326627  1
  Zr  Zr64  1  0.89754661  0.10354640  0.63048219  1
  Zr  Zr65  1  0.20094813  0.60927145  -0.00932591  1
  Zr  Zr66  1  0.31151420  0.69368449  0.64491882  1
  Zr  Zr67  1  0.08951201  0.49225302  0.37220041  1
  Zr  Zr68  1  0.41950255  0.79094011  0.50553992  1
  Zr  Zr69  1  0.29941450  0.50979416  0.37058944  1
  Zr  Zr70  1  0.22011900  0.01145621  0.75438883  1
  Zr  Zr71  1  0.50814017  0.71219659  0.64541903  1
  Zr  Zr72  1  0.08738378  0.49064892  0.86841646  1
  Zr  Zr73  1  0.40674086  0.40826160  0.24731624  1
  Zr  Zr74  1  0.39897168  0.40713072  0.50094261  1
  Zr  Zr75  1  0.80782240  0.39809445  0.73898388  1
  Zr  Zr76  1  0.48993791  0.50336134  0.64045343  1
  Zr  Zr77  1  0.18800198  0.39455068  0.49929110  1
  Zr  Zr78  1  0.69815579  0.10721604  0.37981566  1
  Zr  Zr79  1  0.11819858  0.10573261  0.62598471  1
  Ta  Ta80  1  0.70456555  0.89661820  0.38810487  1
  Ta  Ta81  1  0.19711201  0.79730405  -0.00854280  1
  Ta  Ta82  1  0.29771315  0.49526286  0.87650778  1
  Ta  Ta83  1  0.00475253  0.80270766  0.01058167  1
  Ta  Ta84  1  0.30584604  0.09544210  0.90092492  1
  Ta  Ta85  1  0.90613844  0.90652807  0.11961359  1
  Ta  Ta86  1  0.28754532  0.28512587  0.62762672  1
  Ta  Ta87  1  0.61429731  0.79528518  0.00495865  1
  Ta  Ta88  1  0.49172940  0.29133987  0.87867557  1
  Ta  Ta89  1  0.33275316  0.70492003  0.36468839  1
  Ta  Ta90  1  0.80688069  0.00840195  0.00417667  1
  Ta  Ta91  1  0.80066257  0.60925151  0.74887228  1
  Ta  Ta92  1  0.09154655  0.09584471  0.13154073  1
  Ta  Ta93  1  0.00589444  0.80794239  0.24571942  1
  Ta  Ta94  1  0.70571604  0.50602010  0.87233473  1
  Ta  Ta95  1  0.39352617  0.18126282  0.75771127  1
  Ta  Ta96  1  0.38621331  0.37789797  0.75650119  1
  Ta  Ta97  1  0.61445239  0.59920879  0.75515342  1
  Ta  Ta98  1  0.79033356  -0.00256441  0.74788321  1
  Ta  Ta99  1  0.90183259  0.70630512  0.87978699  1
  Ta  Ta100  1  0.31987361  0.91090448  0.62587579  1
  Ta  Ta101  1  0.50556316  0.10161382  0.10972893  1
  Ta  Ta102  1  0.89765694  0.70052511  0.61516341  1
  Ta  Ta103  1  0.49641227  0.89466068  0.10903270  1
  Ta  Ta104  1  0.60509858  0.20864400  0.24557537  1
  Ta  Ta105  1  0.17733213  0.40416397  0.01018157  1
  Ta  Ta106  1  0.69936539  0.31066162  0.38083695  1
  Ta  Ta107  1  0.70764300  0.69271950  0.61668600  1
  Ta  Ta108  1  0.91326231  0.90986950  0.38224790  1
  Ta  Ta109  1  0.79753862  0.22394300  0.50468712  1
  Ta  Ta110  1  0.61455042  -0.00372340  0.01052839  1
  Ta  Ta111  1  -0.00152771  -0.00633213  0.24705488  1
  Ta  Ta112  1  0.57983506  0.18717492  0.49523792  1
  Ta  Ta113  1  0.09781670  0.89687760  0.37848497  1
  Ta  Ta114  1  0.59464129  0.19437297  0.75093594  1
  Ta  Ta115  1  0.70304635  0.09250028  0.87744110  1
  Ta  Ta116  1  0.31561834  0.70280352  0.12667018  1
  Ta  Ta117  1  0.70766779  0.68829946  0.13289813  1
  Ta  Ta118  1  0.91916358  0.30902499  0.87613487  1
  Ta  Ta119  1  0.30380429  0.70037996  0.86119749  1
  Ti  Ti120  1  0.68311792  0.49818042  0.38107096  1
  Ti  Ti121  1  0.79291148  0.59232137  0.49901197  1
  Ti  Ti122  1  0.39700666  0.78272114  -0.00545271  1
  Ti  Ti123  1  0.59570511  0.39792398  0.24035423  1
  Ti  Ti124  1  0.80567294  0.21412391  0.25884821  1
  Ti  Ti125  1  0.00046867  0.79756384  0.73630359  1
  Ti  Ti126  1  0.30650554  0.10309363  0.36885006  1
  Ti  Ti127  1  0.88944654  0.50529666  0.62089575  1
  Ti  Ti128  1  0.49880208  0.69685451  0.11547741  1
  Ti  Ti129  1  0.61075725  0.20163377  0.00458658  1
  Ti  Ti130  1  -0.02407122  0.38651732  0.25402904  1
  Ti  Ti131  1  0.18861656  -0.00491165  0.00268996  1
  Ti  Ti132  1  0.08986078  0.70452698  0.86981302  1
  Ti  Ti133  1  0.80328065  0.79712791  0.00695718  1
  Ti  Ti134  1  0.60905188  0.39167254  0.51445688  1
  Ti  Ti135  1  0.49442175  0.51939606  0.37053485  1
  Ti  Ti136  1  0.07558593  0.30203529  0.13445235  1
  Ti  Ti137  1  0.00084096  0.00898904  0.00883638  1
  Ti  Ti138  1  0.87490653  0.49520493  0.37383740  1
  Ti  Ti139  1  0.00581302  0.81767789  0.51240703  1
  Ti  Ti140  1  0.60376250  0.58949061  0.24296377  1
  Ti  Ti141  1  -0.01167380  0.60566139  0.74641513  1
  Ti  Ti142  1  0.08065286  0.08765796  0.37592498  1
  Ti  Ti143  1  0.79003617  0.20326079  0.73800921  1
  Ti  Ti144  1  0.21155066  0.60311251  0.24752562  1
  Ti  Ti145  1  0.70693380  0.89710266  0.12137802  1
  Ti  Ti146  1  -0.02113570  0.20844577  0.01264098  1
  Ti  Ti147  1  0.89792393  0.70390191  0.13146680  1
  Ti  Ti148  1  0.80778662  0.79846812  0.49915271  1
  Ti  Ti149  1  0.70210217  0.30517158  0.12465555  1
  Ti  Ti150  1  0.79841362  0.60613205  0.00190695  1
  Ti  Ti151  1  0.69893762  0.50143934  0.62517401  1
  Ti  Ti152  1  -0.01427693  0.18593040  0.24499147  1
  Ti  Ti153  1  0.32283763  0.10455134  0.61784922  1
  Ti  Ti154  1  0.21711751  0.59881223  0.50032567  1
  Ti  Ti155  1  -0.00874566  0.18961368  0.50271459  1
  Ti  Ti156  1  0.40599724  0.82548071  0.75381267  1
  Ti  Ti157  1  0.19363300  0.59710908  0.75969496  1
  Ti  Ti158  1  0.70914506  0.89846872  0.88685831  1
  Ti  Ti159  1  0.30412465  0.90293967  0.88690690  1
  Mo  Mo160  1  0.39766044  0.60707066  -0.01545482  1
  Mo  Mo161  1  0.91055926  0.11318264  0.37930611  1
  Mo  Mo162  1  0.10960014  0.89691096  0.61896644  1
  Mo  Mo163  1  0.71792019  0.69873185  0.88106996  1
  Mo  Mo164  1  0.19182654  0.19668500  0.23309160  1
  Mo  Mo165  1  0.61292660  0.79672774  0.49997047  1
  Mo  Mo166  1  0.51054089  0.68893608  0.36698593  1
  Mo  Mo167  1  0.40895673  0.79613509  0.23839654  1
  Mo  Mo168  1  0.49231242  0.08931768  0.62653784  1
  Mo  Mo169  1  0.39311072  0.60109706  0.49952391  1
  Mo  Mo170  1  0.39869044  -0.00721167  0.00957993  1
  Mo  Mo171  1  0.88403911  0.29644876  0.37377235  1
  Mo  Mo172  1  0.09419187  0.50107329  0.13171876  1
  Mo  Mo173  1  0.90422631  0.89461643  0.61588357  1
  Mo  Mo174  1  0.60230911  -0.00351321  0.49298413  1
  Mo  Mo175  1  0.01013547  -0.00120021  0.50596448  1
  Mo  Mo176  1  0.30233073  0.89724381  0.37487628  1
  Mo  Mo177  1  0.69134353  0.29575487  0.61912595  1
  Mo  Mo178  1  0.00173123  0.39425941  0.01112096  1
  Mo  Mo179  1  0.79961585  0.19757777  -0.00435364  1
  Mo  Mo180  1  -0.01071621  0.41108288  0.74306205  1
  Mo  Mo181  1  0.39544110  0.59166519  0.76583604  1
  Mo  Mo182  1  0.09775581  0.29686385  0.61171027  1
  Mo  Mo183  1  0.89188128  0.30488682  0.62151866  1
  Mo  Mo184  1  0.88785306  0.28624536  0.13134166  1
  Mo  Mo185  1  0.40799950  0.20448742  0.00713541  1
  Mo  Mo186  1  0.78393602  0.41206546  0.50424682  1
  Mo  Mo187  1  0.39199792  0.39914441  -0.01046951  1
  Mo  Mo188  1  0.39524102  -0.00007574  0.75747535  1
  Mo  Mo189  1  0.69967134  0.50892724  0.12304394  1
  Mo  Mo190  1  0.50048780  0.91156204  0.62325039  1
  Mo  Mo191  1  0.51175848  0.29091810  0.12307222  1
  Mo  Mo192  1  0.41464675  0.61426139  0.24371259  1
  Mo  Mo193  1  0.90406131  0.10223782  0.12450844  1
  Mo  Mo194  1  0.09777650  0.90225332  0.12054428  1
  Mo  Mo195  1  0.79576056  0.60604220  0.25460113  1
  Mo  Mo196  1  0.09050049  0.29639304  0.88963039  1
  Mo  Mo197  1  0.39142716  0.20001554  0.49115139  1
  Mo  Mo198  1  0.21710301  0.20320325  0.75566572  1
  Mo  Mo199  1  0.50456324  0.10494983  0.36465054  1
