# generated using pymatgen
data_HfZrTaTiMo
_symmetry_space_group_name_H-M   'P 1'
_cell_length_a   15.21616801
_cell_length_b   15.21549847
_cell_length_c   16.83512873
_cell_angle_alpha   89.97946929
_cell_angle_beta   90.04916015
_cell_angle_gamma   90.15541881
_symmetry_Int_Tables_number   1
_chemical_formula_structural   HfZrTaTiMo
_chemical_formula_sum   'Hf40 Zr40 Ta40 Ti40 Mo40'
_cell_volume   3897.67960033
_cell_formula_units_Z   40
loop_
 _symmetry_equiv_pos_site_id
 _symmetry_equiv_pos_as_xyz
  1  'x, y, z'
loop_
 _atom_site_type_symbol
 _atom_site_label
 _atom_site_symmetry_multiplicity
 _atom_site_fract_x
 _atom_site_fract_y
 _atom_site_fract_z
 _atom_site_occupancy
  Hf  Hf0  1  0.01260660  0.19263054  0.73264409  1
  Hf  Hf1  1  0.38510384  -0.00473515  0.49876464  1
  Hf  Hf2  1  0.39924045  0.20965922  0.24197167  1
  Hf  Hf3  1  0.89482983  0.49329335  0.13687999  1
  Hf  Hf4  1  0.81137040  0.40087754  -0.00011710  1
  Hf  Hf5  1  0.48519738  0.08941208  0.12029843  1
  Hf  Hf6  1  0.58840288  -0.00834305  0.00093827  1
  Hf  Hf7  1  0.61009200  0.78575183  0.50435920  1
  Hf  Hf8  1  0.49667757  0.09956281  0.36797392  1
  Hf  Hf9  1  0.69993516  0.89014553  0.11469083  1
  Hf  Hf10  1  0.60725141  0.20873123  0.01736838  1
  Hf  Hf11  1  0.31807568  0.71333355  0.36370492  1
  Hf  Hf12  1  0.88082889  0.50922839  0.59820611  1
  Hf  Hf13  1  0.90324313  0.90187154  0.11977703  1
  Hf  Hf14  1  -0.00410316  0.38807921  0.27134657  1
  Hf  Hf15  1  0.39824231  0.61461929  0.50202854  1
  Hf  Hf16  1  -0.00726288  0.00645059  0.50168177  1
  Hf  Hf17  1  0.00705435  0.19540434  -0.00068736  1
  Hf  Hf18  1  0.49962128  0.68975713  0.63156989  1
  Hf  Hf19  1  0.81147819  0.20354515  -0.00334951  1
  Hf  Hf20  1  0.79581232  0.60654781  0.74583399  1
  Hf  Hf21  1  0.49850783  0.10689631  0.62890823  1
  Hf  Hf22  1  0.60528923  0.19886614  0.23924826  1
  Hf  Hf23  1  0.30161935  0.50439567  0.61578344  1
  Hf  Hf24  1  0.10341420  0.29814578  0.39964616  1
  Hf  Hf25  1  0.40123168  0.20961059  0.75494838  1
  Hf  Hf26  1  0.69673667  0.69754457  0.88856870  1
  Hf  Hf27  1  0.21083279  0.82183687  0.25269643  1
  Hf  Hf28  1  0.00339939  0.40733394  0.72195273  1
  Hf  Hf29  1  0.39165391  0.60257207  0.76339786  1
  Hf  Hf30  1  0.07896020  0.11013024  0.37408231  1
  Hf  Hf31  1  0.69982198  0.48735423  0.87599355  1
  Hf  Hf32  1  0.79526428  -0.01505166  0.49538412  1
  Hf  Hf33  1  0.40356017  0.41453076  0.24982362  1
  Hf  Hf34  1  0.91682377  0.31840017  0.86590044  1
  Hf  Hf35  1  0.49476487  0.89816208  0.63374960  1
  Hf  Hf36  1  0.42174374  0.40549710  0.74554008  1
  Hf  Hf37  1  0.30919462  0.71438039  0.12518997  1
  Hf  Hf38  1  0.19097525  0.62475174  0.72643146  1
  Hf  Hf39  1  0.80273066  0.00438891  -0.01289920  1
  Zr  Zr40  1  0.59258025  -0.00493802  0.50004881  1
  Zr  Zr41  1  0.59337746  0.57659121  0.75052366  1
  Zr  Zr42  1  0.28804148  0.10612125  0.37459390  1
  Zr  Zr43  1  0.31454411  0.32248955  0.88988500  1
  Zr  Zr44  1  0.27948878  0.10966431  0.11793693  1
  Zr  Zr45  1  0.11705862  0.29137114  0.87208856  1
  Zr  Zr46  1  0.48776659  0.88246004  0.37096095  1
  Zr  Zr47  1  0.28852438  0.90675611  0.88470179  1
  Zr  Zr48  1  0.60125116  0.58199955  0.24771999  1
  Zr  Zr49  1  0.59985347  0.58093922  0.49926966  1
  Zr  Zr50  1  0.30102335  0.51880565  0.11215271  1
  Zr  Zr51  1  0.19969313  0.60617940  0.25465525  1
  Zr  Zr52  1  0.68815701  0.10671008  0.87444979  1
  Zr  Zr53  1  -0.00094712  0.59504314  0.27150556  1
  Zr  Zr54  1  0.80592385  0.78899295  0.25577864  1
  Zr  Zr55  1  0.01180151  0.79969273  0.26087421  1
  Zr  Zr56  1  0.70900914  0.68658315  0.11906390  1
  Zr  Zr57  1  0.59586073  -0.00801560  0.76452314  1
  Zr  Zr58  1  -0.00784525  0.60237717  0.73148810  1
  Zr  Zr59  1  0.38405928  0.00331474  0.75791299  1
  Zr  Zr60  1  0.91233661  0.71132613  0.88848086  1
  Zr  Zr61  1  -0.03161239  -0.01061681  0.75089910  1
  Zr  Zr62  1  0.11748331  0.69440705  0.88003454  1
  Zr  Zr63  1  0.30498296  0.30925630  0.38791079  1
  Zr  Zr64  1  0.91160920  0.69880339  0.11730612  1
  Zr  Zr65  1  0.20909337  0.81356215  0.49286359  1
  Zr  Zr66  1  0.60496542  0.78395676  0.75326522  1
  Zr  Zr67  1  0.00706693  0.57903595  -0.00117291  1
  Zr  Zr68  1  0.70033232  0.09450447  0.63861870  1
  Zr  Zr69  1  0.81396613  0.18899977  0.48758531  1
  Zr  Zr70  1  0.71777511  0.88611398  0.62850315  1
  Zr  Zr71  1  0.59061357  -0.01193189  0.23906060  1
  Zr  Zr72  1  0.28443326  0.10345107  0.61933159  1
  Zr  Zr73  1  0.20910583  0.41050910  0.74431477  1
  Zr  Zr74  1  0.71190946  0.29663969  0.62779219  1
  Zr  Zr75  1  0.30060209  0.31718893  0.11220585  1
  Zr  Zr76  1  0.17590936  0.00865934  -0.00039107  1
  Zr  Zr77  1  0.81759955  0.81115828  0.75380501  1
  Zr  Zr78  1  0.12093685  0.29900501  0.60372577  1
  Zr  Zr79  1  0.19697336  0.40807115  0.25871839  1
  Ta  Ta80  1  0.40861026  0.61335138  -0.01186627  1
  Ta  Ta81  1  0.50986130  0.30493008  0.37843630  1
  Ta  Ta82  1  0.59914282  0.78884680  0.24262267  1
  Ta  Ta83  1  0.80510280  0.58688284  0.27569212  1
  Ta  Ta84  1  0.08508284  0.49221595  0.86707070  1
  Ta  Ta85  1  0.60679256  0.19868819  0.49418957  1
  Ta  Ta86  1  0.18644520  0.21059423  0.24880658  1
  Ta  Ta87  1  0.28529109  0.11859475  0.88708377  1
  Ta  Ta88  1  0.81740458  0.19954562  0.26145952  1
  Ta  Ta89  1  0.48982389  0.88313063  0.88308993  1
  Ta  Ta90  1  0.59684863  0.58250483  0.00257925  1
  Ta  Ta91  1  0.69994720  0.09032079  0.36566882  1
  Ta  Ta92  1  0.41849015  0.41064587  0.50154399  1
  Ta  Ta93  1  0.30315892  0.91259367  0.10997081  1
  Ta  Ta94  1  0.71784163  0.30392240  0.13677325  1
  Ta  Ta95  1  0.01515695  0.79339347  0.73885760  1
  Ta  Ta96  1  0.70726056  0.30136075  0.86811112  1
  Ta  Ta97  1  0.00396951  0.80365082  0.48741243  1
  Ta  Ta98  1  0.71295020  0.09737636  0.12872163  1
  Ta  Ta99  1  0.48373606  0.10294405  0.88720985  1
  Ta  Ta100  1  0.80250168  0.59239417  -0.00558598  1
  Ta  Ta101  1  0.51544114  0.30929541  0.61647207  1
  Ta  Ta102  1  0.37937108  -0.01274314  0.24854582  1
  Ta  Ta103  1  0.08449803  0.88954980  0.87415987  1
  Ta  Ta104  1  0.40394286  0.20883763  0.00504340  1
  Ta  Ta105  1  0.09794990  0.90635289  0.62537242  1
  Ta  Ta106  1  0.51934554  0.30537157  0.88692952  1
  Ta  Ta107  1  0.49741724  0.68548873  0.12967459  1
  Ta  Ta108  1  0.79971028  0.39610768  0.27144875  1
  Ta  Ta109  1  0.79301695  0.39481971  0.48052555  1
  Ta  Ta110  1  0.69619200  0.89082667  0.36875552  1
  Ta  Ta111  1  0.18164393  0.41628174  -0.00239132  1
  Ta  Ta112  1  0.29845084  0.51315455  0.38899598  1
  Ta  Ta113  1  0.17834130  0.00500723  0.75410223  1
  Ta  Ta114  1  0.81456603  0.19376433  0.75885894  1
  Ta  Ta115  1  0.09762612  0.30094517  0.12209246  1
  Ta  Ta116  1  0.90028418  0.90170140  0.37349948  1
  Ta  Ta117  1  0.41120712  0.20379693  0.49980200  1
  Ta  Ta118  1  0.79912060  -0.00252278  0.25162211  1
  Ta  Ta119  1  0.09416481  0.49473512  0.12892255  1
  Ti  Ti120  1  0.19172212  0.61697052  0.51665760  1
  Ti  Ti121  1  0.50697193  0.69175207  0.36166011  1
  Ti  Ti122  1  0.89147044  0.08887175  0.62827340  1
  Ti  Ti123  1  0.49424278  0.49938143  0.37227956  1
  Ti  Ti124  1  0.09055773  0.09663931  0.86980572  1
  Ti  Ti125  1  0.70258803  0.49051630  0.12708072  1
  Ti  Ti126  1  0.19498671  0.79951647  0.00797842  1
  Ti  Ti127  1  0.68958515  0.48752491  0.37542874  1
  Ti  Ti128  1  0.18720031  0.00370521  0.49469912  1
  Ti  Ti129  1  0.20792976  0.20003256  0.74490665  1
  Ti  Ti130  1  0.08449398  0.10293596  0.13599726  1
  Ti  Ti131  1  -0.00594375  0.00256932  0.25459532  1
  Ti  Ti132  1  0.28181511  0.51982329  0.88613934  1
  Ti  Ti133  1  0.90948802  0.29846212  0.13236151  1
  Ti  Ti134  1  0.09891094  0.90060768  0.12426252  1
  Ti  Ti135  1  0.10574769  0.69514890  0.12037995  1
  Ti  Ti136  1  0.68688290  0.48764930  0.61957254  1
  Ti  Ti137  1  0.59692597  0.21092766  0.75338818  1
  Ti  Ti138  1  0.18724310  0.00669158  0.25292380  1
  Ti  Ti139  1  0.70144770  0.69413443  0.37446485  1
  Ti  Ti140  1  0.10669425  0.70056914  0.38435241  1
  Ti  Ti141  1  0.59942517  0.38936978  0.24242249  1
  Ti  Ti142  1  0.70268957  0.88927896  0.88707608  1
  Ti  Ti143  1  0.49704704  0.49124096  0.88796019  1
  Ti  Ti144  1  -0.00957030  -0.00151379  -0.00804476  1
  Ti  Ti145  1  0.90074268  0.29415531  0.61689842  1
  Ti  Ti146  1  0.88847698  0.70996798  0.59979440  1
  Ti  Ti147  1  -0.00669894  0.39964922  0.50249906  1
  Ti  Ti148  1  0.58509860  0.78129421  0.00181294  1
  Ti  Ti149  1  0.48482198  0.88168556  0.11819193  1
  Ti  Ti150  1  0.28933006  0.89573832  0.63699192  1
  Ti  Ti151  1  0.69823982  0.28982967  0.36967332  1
  Ti  Ti152  1  0.38903058  0.79626136  0.75159615  1
  Ti  Ti153  1  0.40017527  0.80359285  0.51008875  1
  Ti  Ti154  1  0.31475724  0.30272971  0.60954091  1
  Ti  Ti155  1  0.49909709  0.48737718  0.11390482  1
  Ti  Ti156  1  0.30776043  0.71581229  0.88616910  1
  Ti  Ti157  1  0.80372695  0.40534774  0.74602967  1
  Ti  Ti158  1  0.89962948  0.10258925  0.13192954  1
  Ti  Ti159  1  0.10275732  0.50360376  0.40482699  1
  Mo  Mo160  1  0.90055484  0.89698757  0.88831847  1
  Mo  Mo161  1  0.71506857  0.67764676  0.61664669  1
  Mo  Mo162  1  0.09323523  0.50970197  0.60009473  1
  Mo  Mo163  1  0.90796594  0.29177105  0.38363688  1
  Mo  Mo164  1  0.89328866  0.09353125  0.36841235  1
  Mo  Mo165  1  0.21091087  0.41344610  0.50075136  1
  Mo  Mo166  1  0.39409125  0.00529924  -0.00902679  1
  Mo  Mo167  1  0.08732445  0.72085509  0.61097607  1
  Mo  Mo168  1  0.60860221  0.38831329  0.75112206  1
  Mo  Mo169  1  0.80142569  0.79953114  -0.00355224  1
  Mo  Mo170  1  0.89925390  0.49458266  0.39414126  1
  Mo  Mo171  1  0.29670769  0.91057775  0.37252089  1
  Mo  Mo172  1  0.00146753  0.60591402  0.49554378  1
  Mo  Mo173  1  0.00073021  0.39284479  0.00464020  1
  Mo  Mo174  1  0.01529391  0.81058464  0.00942489  1
  Mo  Mo175  1  0.30101360  0.71577715  0.62783608  1
  Mo  Mo176  1  0.20255551  0.60491810  0.00038935  1
  Mo  Mo177  1  0.50741144  0.30509114  0.12172045  1
  Mo  Mo178  1  0.40295206  0.80462088  0.00066501  1
  Mo  Mo179  1  0.60994756  0.39752948  0.01199495  1
  Mo  Mo180  1  0.20704186  0.19364357  0.50179555  1
  Mo  Mo181  1  0.90035251  0.50164855  0.86638925  1
  Mo  Mo182  1  0.09502594  0.09532276  0.62420488  1
  Mo  Mo183  1  0.00215047  0.19835629  0.24422780  1
  Mo  Mo184  1  0.79251154  0.60006869  0.48033978  1
  Mo  Mo185  1  0.90360370  0.10725389  0.87211806  1
  Mo  Mo186  1  0.60393386  0.38664507  0.49148517  1
  Mo  Mo187  1  0.80079486  0.79509861  0.48358755  1
  Mo  Mo188  1  0.19554933  0.20841211  0.00273041  1
  Mo  Mo189  1  0.40558309  0.59957025  0.25220566  1
  Mo  Mo190  1  0.41074418  0.41314016  -0.00321808  1
  Mo  Mo191  1  -0.00277589  0.19637956  0.51849182  1
  Mo  Mo192  1  0.20087016  0.81452823  0.74881218  1
  Mo  Mo193  1  0.10018570  0.91141408  0.37139576  1
  Mo  Mo194  1  0.91630438  0.88044214  0.60975731  1
  Mo  Mo195  1  0.79062836  0.00569310  0.77849652  1
  Mo  Mo196  1  0.49754729  0.69555110  0.87592039  1
  Mo  Mo197  1  0.49832524  0.49368048  0.62398340  1
  Mo  Mo198  1  0.89941221  0.69753914  0.38961577  1
  Mo  Mo199  1  0.41167696  0.80418323  0.24133370  1
