# generated using pymatgen
data_HfZrTaTiMo
_symmetry_space_group_name_H-M   'P 1'
_cell_length_a   15.21592684
_cell_length_b   15.22286117
_cell_length_c   16.83330922
_cell_angle_alpha   89.95844454
_cell_angle_beta   90.02422525
_cell_angle_gamma   90.04564354
_symmetry_Int_Tables_number   1
_chemical_formula_structural   HfZrTaTiMo
_chemical_formula_sum   'Hf40 Zr40 Ta40 Ti40 Mo40'
_cell_volume   3899.09582441
_cell_formula_units_Z   40
loop_
 _symmetry_equiv_pos_site_id
 _symmetry_equiv_pos_as_xyz
  1  'x, y, z'
loop_
 _atom_site_type_symbol
 _atom_site_label
 _atom_site_symmetry_multiplicity
 _atom_site_fract_x
 _atom_site_fract_y
 _atom_site_fract_z
 _atom_site_occupancy
  Hf  Hf0  1  0.30375481  0.30706268  0.86924263  1
  Hf  Hf1  1  0.79939359  0.80279646  0.49433633  1
  Hf  Hf2  1  0.59204523  0.20757532  0.24617047  1
  Hf  Hf3  1  0.88344926  0.09848445  0.88063006  1
  Hf  Hf4  1  0.40678594  0.40083014  0.00789882  1
  Hf  Hf5  1  0.89238182  0.69361995  0.88407082  1
  Hf  Hf6  1  0.19105029  0.42124721  0.49192527  1
  Hf  Hf7  1  0.70257261  0.31153666  0.37108970  1
  Hf  Hf8  1  0.50532250  0.50883002  0.86020567  1
  Hf  Hf9  1  0.10178142  0.67324663  0.61851470  1
  Hf  Hf10  1  0.40621189  0.19729071  0.74295532  1
  Hf  Hf11  1  0.07934570  0.31456002  0.36430135  1
  Hf  Hf12  1  0.60301116  0.61060466  -0.00043738  1
  Hf  Hf13  1  0.41702915  -0.01512781  0.00521749  1
  Hf  Hf14  1  0.50207160  0.51080416  0.12881266  1
  Hf  Hf15  1  0.49285647  0.90083017  0.60459782  1
  Hf  Hf16  1  0.30806150  0.09621414  0.87542337  1
  Hf  Hf17  1  0.29644260  0.69791889  0.11657849  1
  Hf  Hf18  1  0.59824226  0.00972612  0.74687473  1
  Hf  Hf19  1  0.50233861  0.88836612  0.39373457  1
  Hf  Hf20  1  0.70195561  0.10766488  0.36239131  1
  Hf  Hf21  1  0.80784833  0.38991022  0.73721043  1
  Hf  Hf22  1  0.29561392  0.69688224  0.38275789  1
  Hf  Hf23  1  0.61031979  0.41217636  0.00285040  1
  Hf  Hf24  1  0.81266901  0.59947689  0.73060913  1
  Hf  Hf25  1  0.19305303  0.40131751  0.00713313  1
  Hf  Hf26  1  0.09167860  0.09614038  0.63043073  1
  Hf  Hf27  1  -0.01129209  0.20567784  0.76263785  1
  Hf  Hf28  1  0.21331990  -0.00497735  0.26205704  1
  Hf  Hf29  1  0.61047432  0.20531061  0.73296735  1
  Hf  Hf30  1  0.19717335  0.20672390  0.75605447  1
  Hf  Hf31  1  0.59169128  0.41562462  0.25331434  1
  Hf  Hf32  1  0.49690529  0.10529993  0.38947843  1
  Hf  Hf33  1  -0.00324937  -0.01364377  0.26660565  1
  Hf  Hf34  1  0.29144864  0.29801318  0.13032669  1
  Hf  Hf35  1  0.30519366  0.10811167  0.39101647  1
  Hf  Hf36  1  0.18050971  0.80684772  0.00059548  1
  Hf  Hf37  1  0.80328062  0.19985388  0.49402714  1
  Hf  Hf38  1  0.57855412  0.79782904  0.74516538  1
  Hf  Hf39  1  0.09688667  0.08228219  0.87064047  1
  Zr  Zr40  1  0.38884288  0.62745147  0.74680124  1
  Zr  Zr41  1  0.10392152  0.11014481  0.13746236  1
  Zr  Zr42  1  0.39712432  0.20230473  0.24839283  1
  Zr  Zr43  1  0.20512623  0.78363824  0.75359770  1
  Zr  Zr44  1  0.61879087  0.01199493  -0.00149725  1
  Zr  Zr45  1  0.29914939  0.09174465  0.12407276  1
  Zr  Zr46  1  0.47939842  0.49791121  0.63191142  1
  Zr  Zr47  1  0.39596360  0.79740146  0.25938439  1
  Zr  Zr48  1  0.70318532  0.31470425  0.13610934  1
  Zr  Zr49  1  0.29975080  0.89635603  0.61632339  1
  Zr  Zr50  1  0.09663291  0.89965649  0.13561015  1
  Zr  Zr51  1  0.61148044  0.60520747  0.72912054  1
  Zr  Zr52  1  0.91483834  0.89657668  0.85890521  1
  Zr  Zr53  1  0.71956569  0.29484556  0.87546974  1
  Zr  Zr54  1  0.79689738  0.19000818  0.01677513  1
  Zr  Zr55  1  0.70695643  0.89793104  0.13337152  1
  Zr  Zr56  1  -0.00051866  0.20884895  -0.00272773  1
  Zr  Zr57  1  0.60725994  0.41090720  0.51393275  1
  Zr  Zr58  1  0.29883128  0.89512165  0.87628038  1
  Zr  Zr59  1  0.70072285  0.90469131  0.62338466  1
  Zr  Zr60  1  0.10529723  0.30347286  0.62044495  1
  Zr  Zr61  1  0.40546446  0.19788820  0.00477450  1
  Zr  Zr62  1  0.61938378  0.00059142  0.49067412  1
  Zr  Zr63  1  0.89743967  0.09360149  0.62403635  1
  Zr  Zr64  1  -0.00675411  -0.00610550  0.47747322  1
  Zr  Zr65  1  0.70365511  0.89911747  0.87378925  1
  Zr  Zr66  1  0.19216935  0.60546282  0.24756816  1
  Zr  Zr67  1  0.90607077  0.89864802  0.62911620  1
  Zr  Zr68  1  0.50947394  0.30974498  0.86160300  1
  Zr  Zr69  1  0.29623057  0.11913614  0.60733366  1
  Zr  Zr70  1  0.59732172  0.20839258  0.01163169  1
  Zr  Zr71  1  0.90218932  0.08294705  0.13531202  1
  Zr  Zr72  1  0.71130521  0.51173637  0.37295025  1
  Zr  Zr73  1  0.68711985  0.69997397  0.37967620  1
  Zr  Zr74  1  0.90621884  0.49563520  0.87484837  1
  Zr  Zr75  1  0.93222332  0.49787926  0.62297793  1
  Zr  Zr76  1  0.18960453  0.00227069  0.49172170  1
  Zr  Zr77  1  0.78980314  0.78753721  0.73696326  1
  Zr  Zr78  1  0.29796074  0.50275495  0.86837531  1
  Zr  Zr79  1  0.09667710  0.88961105  0.62363545  1
  Ta  Ta80  1  0.00928210  -0.01119015  0.00175255  1
  Ta  Ta81  1  0.40883872  0.59779938  0.25432664  1
  Ta  Ta82  1  0.01737960  0.40384454  0.75644677  1
  Ta  Ta83  1  0.00534608  0.20410071  0.49193163  1
  Ta  Ta84  1  -0.02736493  0.80233416  0.01112858  1
  Ta  Ta85  1  0.59302912  0.79736730  0.25076355  1
  Ta  Ta86  1  0.81095115  0.21066252  0.24731343  1
  Ta  Ta87  1  0.50801303  0.08834696  0.13485416  1
  Ta  Ta88  1  0.49036196  0.30909363  0.38682973  1
  Ta  Ta89  1  0.81999284  -0.03041366  0.00709264  1
  Ta  Ta90  1  0.30485872  0.49644889  0.36606558  1
  Ta  Ta91  1  0.00070013  0.77421840  0.74610008  1
  Ta  Ta92  1  0.80836583  0.40249006  0.00570814  1
  Ta  Ta93  1  0.58968455  0.80991993  0.00300578  1
  Ta  Ta94  1  0.19847345  0.40270268  0.25256466  1
  Ta  Ta95  1  0.29670024  0.50116355  0.13223666  1
  Ta  Ta96  1  0.80968570  -0.00406633  0.46991455  1
  Ta  Ta97  1  0.60081315  0.21195054  0.50737218  1
  Ta  Ta98  1  0.19546977  0.79923735  0.25019343  1
  Ta  Ta99  1  0.69222778  0.69681587  0.87699500  1
  Ta  Ta100  1  0.10640284  0.11685796  0.36238695  1
  Ta  Ta101  1  0.28966568  0.29875875  0.37749475  1
  Ta  Ta102  1  0.71296079  0.52058210  0.13752130  1
  Ta  Ta103  1  0.50052093  0.50861708  0.38316480  1
  Ta  Ta104  1  0.70714254  0.50369936  0.86862167  1
  Ta  Ta105  1  0.08321765  0.49964530  0.13300721  1
  Ta  Ta106  1  0.88657533  0.68596349  0.12693296  1
  Ta  Ta107  1  0.49334140  0.70575203  0.59953858  1
  Ta  Ta108  1  0.41142017  -0.00761415  0.25356276  1
  Ta  Ta109  1  0.40156979  -0.00509537  0.74344259  1
  Ta  Ta110  1  0.49641215  0.10031812  0.60607679  1
  Ta  Ta111  1  0.49515022  0.71347953  0.12174088  1
  Ta  Ta112  1  0.80623671  0.59810610  0.51514663  1
  Ta  Ta113  1  0.10246417  0.87872227  0.37229352  1
  Ta  Ta114  1  0.19671829  0.20149237  -0.00810214  1
  Ta  Ta115  1  0.31067824  0.89209012  0.12335266  1
  Ta  Ta116  1  0.81396874  0.39829363  0.50700225  1
  Ta  Ta117  1  0.29292048  0.69691548  0.89293561  1
  Ta  Ta118  1  0.89643213  0.67956638  0.37286598  1
  Ta  Ta119  1  0.91610341  0.48827816  0.37701753  1
  Ti  Ti120  1  0.19838950  -0.00561765  0.74907226  1
  Ti  Ti121  1  0.60008947  -0.00891300  0.25954613  1
  Ti  Ti122  1  0.19086277  0.78875276  0.49596322  1
  Ti  Ti123  1  0.61331749  0.40239109  0.73154816  1
  Ti  Ti124  1  -0.00130741  0.41039437  0.00178130  1
  Ti  Ti125  1  0.39969701  0.60087833  -0.00042381  1
  Ti  Ti126  1  0.38450076  0.58701792  0.50299265  1
  Ti  Ti127  1  0.90860508  0.12015320  0.36148034  1
  Ti  Ti128  1  0.49456270  0.90082108  0.86972462  1
  Ti  Ti129  1  0.80484871  -0.01234228  0.26922946  1
  Ti  Ti130  1  0.81914697  0.41602959  0.24760663  1
  Ti  Ti131  1  -0.00678543  0.78167108  0.49554134  1
  Ti  Ti132  1  0.09792248  0.31164168  0.87813889  1
  Ti  Ti133  1  0.80269306  0.79641684  0.25886880  1
  Ti  Ti134  1  0.69429137  0.70274307  0.13111941  1
  Ti  Ti135  1  0.29747057  0.69504264  0.61086889  1
  Ti  Ti136  1  0.39106947  0.39950421  0.49944093  1
  Ti  Ti137  1  0.18728064  0.59593567  0.00840263  1
  Ti  Ti138  1  0.79989825  0.59592112  0.00277285  1
  Ti  Ti139  1  0.30341378  0.89892522  0.39046143  1
  Ti  Ti140  1  0.01562659  0.57876863  0.49046303  1
  Ti  Ti141  1  0.20125891  0.00150450  0.00090870  1
  Ti  Ti142  1  0.49308218  0.29990148  0.62062714  1
  Ti  Ti143  1  0.70507879  0.09431711  0.14565898  1
  Ti  Ti144  1  0.79745459  0.00734099  0.75146628  1
  Ti  Ti145  1  0.30080445  0.32857959  0.63332607  1
  Ti  Ti146  1  -0.00665864  0.78308011  0.24989361  1
  Ti  Ti147  1  0.39970780  0.39965705  0.25125853  1
  Ti  Ti148  1  0.08904659  0.70019137  0.88477216  1
  Ti  Ti149  1  0.09056520  0.68782897  0.37387248  1
  Ti  Ti150  1  0.91112544  0.31101377  0.13055452  1
  Ti  Ti151  1  0.09708306  0.30175531  0.13889300  1
  Ti  Ti152  1  0.79626167  0.19627289  0.74599433  1
  Ti  Ti153  1  0.49658970  0.69052581  0.39541546  1
  Ti  Ti154  1  0.70484639  0.10204379  0.61471706  1
  Ti  Ti155  1  0.10313056  0.51212072  0.87566179  1
  Ti  Ti156  1  0.51023995  0.10135374  0.87246573  1
  Ti  Ti157  1  0.90790551  0.29125189  0.62133346  1
  Ti  Ti158  1  0.48758648  0.71317543  0.88334728  1
  Ti  Ti159  1  0.08220583  0.69525422  0.12236313  1
  Mo  Mo160  1  0.71048089  0.29412562  0.61978509  1
  Mo  Mo161  1  0.71125354  0.49560287  0.61935253  1
  Mo  Mo162  1  0.70095486  0.09766109  0.87211667  1
  Mo  Mo163  1  0.00613683  0.60322857  0.00591310  1
  Mo  Mo164  1  0.69507428  0.69944474  0.60582417  1
  Mo  Mo165  1  0.18285265  0.60231333  0.76140068  1
  Mo  Mo166  1  0.89768477  0.50110060  0.11753116  1
  Mo  Mo167  1  0.78279227  0.78466862  0.00218419  1
  Mo  Mo168  1  0.58941643  0.61430690  0.24792727  1
  Mo  Mo169  1  0.40093712  0.80435510  0.74816654  1
  Mo  Mo170  1  0.50385569  0.90094164  0.13332647  1
  Mo  Mo171  1  0.20132989  0.60004366  0.48928018  1
  Mo  Mo172  1  0.40087090  0.79432165  0.00121330  1
  Mo  Mo173  1  0.59842616  0.59894998  0.51236121  1
  Mo  Mo174  1  0.60270644  0.79352809  0.50113392  1
  Mo  Mo175  1  -0.00355020  0.39336014  0.49897525  1
  Mo  Mo176  1  0.00979730  0.60103790  0.75582552  1
  Mo  Mo177  1  0.19155730  0.21450837  0.49271210  1
  Mo  Mo178  1  0.09460326  0.89002719  0.87216073  1
  Mo  Mo179  1  0.79985907  0.60675909  0.24932277  1
  Mo  Mo180  1  0.09782685  0.50833960  0.36126309  1
  Mo  Mo181  1  0.28175515  0.51246641  0.63256633  1
  Mo  Mo182  1  -0.01265267  0.59828947  0.25122581  1
  Mo  Mo183  1  0.89022387  0.30382831  0.37057179  1
  Mo  Mo184  1  0.90490015  0.87343634  0.36983252  1
  Mo  Mo185  1  0.91117390  0.70013940  0.61064657  1
  Mo  Mo186  1  0.89854243  0.88173260  0.13402322  1
  Mo  Mo187  1  0.70139727  0.89685575  0.36021686  1
  Mo  Mo188  1  -0.00549603  0.40339412  0.24046677  1
  Mo  Mo189  1  0.90548920  0.30632487  0.87991949  1
  Mo  Mo190  1  0.11644645  0.49167827  0.63176002  1
  Mo  Mo191  1  0.49541229  0.30524506  0.13054797  1
  Mo  Mo192  1  0.19964540  0.20789963  0.25750372  1
  Mo  Mo193  1  0.00641154  -0.00769623  0.75361966  1
  Mo  Mo194  1  0.39961493  0.00459333  0.49994021  1
  Mo  Mo195  1  0.38775207  0.79226673  0.49215669  1
  Mo  Mo196  1  0.19945008  0.40429363  0.75498372  1
  Mo  Mo197  1  0.39961402  0.22103312  0.50760709  1
  Mo  Mo198  1  0.40308773  0.40050358  0.74417390  1
  Mo  Mo199  1  -0.00421032  0.20385029  0.24673493  1
