# generated using pymatgen
data_HfZrTaTiMo
_symmetry_space_group_name_H-M   'P 1'
_cell_length_a   15.19265657
_cell_length_b   15.16743046
_cell_length_c   16.80351518
_cell_angle_alpha   90.01171137
_cell_angle_beta   89.94383548
_cell_angle_gamma   90.07147703
_symmetry_Int_Tables_number   1
_chemical_formula_structural   HfZrTaTiMo
_chemical_formula_sum   'Hf40 Zr40 Ta40 Ti40 Mo40'
_cell_volume   3872.08890567
_cell_formula_units_Z   40
loop_
 _symmetry_equiv_pos_site_id
 _symmetry_equiv_pos_as_xyz
  1  'x, y, z'
loop_
 _atom_site_type_symbol
 _atom_site_label
 _atom_site_symmetry_multiplicity
 _atom_site_fract_x
 _atom_site_fract_y
 _atom_site_fract_z
 _atom_site_occupancy
  Hf  Hf0  1  0.70024299  0.29620386  0.89041999  1
  Hf  Hf1  1  0.20291973  0.01051296  0.75659281  1
  Hf  Hf2  1  0.41249993  0.38302160  0.49332408  1
  Hf  Hf3  1  0.68942272  0.50517519  0.39332783  1
  Hf  Hf4  1  0.12165511  0.70263685  0.62722360  1
  Hf  Hf5  1  0.39652257  0.78404126  0.47812142  1
  Hf  Hf6  1  -0.00119144  0.39840602  0.25977376  1
  Hf  Hf7  1  0.80481190  0.80136052  -0.01833234  1
  Hf  Hf8  1  0.50924415  0.49328539  0.63772219  1
  Hf  Hf9  1  0.42362527  0.59295065  0.25576075  1
  Hf  Hf10  1  0.19975865  0.18732394  0.00295063  1
  Hf  Hf11  1  0.30327158  0.88962486  0.13658333  1
  Hf  Hf12  1  0.78912791  0.17104075  0.51240179  1
  Hf  Hf13  1  0.30375726  0.49851487  0.62555364  1
  Hf  Hf14  1  0.90201330  0.30727326  0.11622600  1
  Hf  Hf15  1  0.08829419  0.50032156  0.87660864  1
  Hf  Hf16  1  0.50236798  0.29413389  0.86709513  1
  Hf  Hf17  1  0.08937894  0.89346207  0.63012735  1
  Hf  Hf18  1  0.00879456  0.40118068  0.49610392  1
  Hf  Hf19  1  0.01062694  0.61494121  0.49221294  1
  Hf  Hf20  1  -0.01570926  -0.00440305  0.23797756  1
  Hf  Hf21  1  0.31181447  0.71348707  0.87842045  1
  Hf  Hf22  1  -0.01298925  0.19012073  0.75118678  1
  Hf  Hf23  1  0.39803021  0.40132966  -0.00465849  1
  Hf  Hf24  1  0.40479640  0.59769408  -0.00241967  1
  Hf  Hf25  1  0.70637311  0.71219568  0.11563871  1
  Hf  Hf26  1  0.40220016  0.00134109  0.26737442  1
  Hf  Hf27  1  -0.03025227  -0.00214518  0.50263363  1
  Hf  Hf28  1  0.59774527  0.41803754  0.25001927  1
  Hf  Hf29  1  0.28531896  0.09324764  0.14515561  1
  Hf  Hf30  1  0.10302344  0.28011899  0.37969159  1
  Hf  Hf31  1  0.60029020  0.01799624  0.50367808  1
  Hf  Hf32  1  0.50256300  0.70760636  0.11833086  1
  Hf  Hf33  1  0.41732061  0.59138599  0.49297380  1
  Hf  Hf34  1  0.69864098  0.30309588  0.11464680  1
  Hf  Hf35  1  0.17895912  -0.00575861  0.48448476  1
  Hf  Hf36  1  0.19926810  0.40020472  0.75014702  1
  Hf  Hf37  1  0.29230525  0.89320276  0.60993452  1
  Hf  Hf38  1  0.20039072  0.39412354  -0.00117060  1
  Hf  Hf39  1  0.31032326  0.49403931  0.36719787  1
  Zr  Zr40  1  0.09559593  0.29328107  0.87171358  1
  Zr  Zr41  1  0.91580017  0.72145861  0.63267220  1
  Zr  Zr42  1  0.59618703  0.21283488  0.24614525  1
  Zr  Zr43  1  0.20538851  0.60149948  -0.00094424  1
  Zr  Zr44  1  0.89060372  0.09911263  0.36459319  1
  Zr  Zr45  1  0.80914289  0.80796154  0.25220958  1
  Zr  Zr46  1  0.60785118  0.59963362  -0.00929931  1
  Zr  Zr47  1  0.88669646  0.29191524  0.39142040  1
  Zr  Zr48  1  0.71097833  0.49183942  0.86620218  1
  Zr  Zr49  1  0.58775944  -0.00264327  0.74128538  1
  Zr  Zr50  1  0.89603846  0.50583178  0.38607065  1
  Zr  Zr51  1  0.39093065  0.20356871  0.00903924  1
  Zr  Zr52  1  0.39360161  0.00388321  0.48110230  1
  Zr  Zr53  1  0.89604178  0.32441847  0.88536324  1
  Zr  Zr54  1  0.40974903  0.79595466  0.26719685  1
  Zr  Zr55  1  0.70037943  0.70742896  0.63557773  1
  Zr  Zr56  1  0.49192446  0.89433624  0.88562479  1
  Zr  Zr57  1  -0.01665885  0.40309543  0.73506204  1
  Zr  Zr58  1  0.72304814  0.91681335  0.62151868  1
  Zr  Zr59  1  0.81020323  0.58832190  0.74522080  1
  Zr  Zr60  1  0.78598309  0.21860495  0.74161535  1
  Zr  Zr61  1  -0.00201495  -0.00011277  -0.00551255  1
  Zr  Zr62  1  0.47548876  0.09484936  0.87915664  1
  Zr  Zr63  1  0.77593618  -0.00444924  -0.00693054  1
  Zr  Zr64  1  0.21414145  0.61133194  0.49005170  1
  Zr  Zr65  1  0.79362314  0.39320712  0.25467431  1
  Zr  Zr66  1  -0.00829411  -0.01624760  0.77098025  1
  Zr  Zr67  1  0.02478103  0.79995690  -0.00427294  1
  Zr  Zr68  1  0.00673548  0.61691023  0.25606512  1
  Zr  Zr69  1  0.08327590  0.09954192  0.62285159  1
  Zr  Zr70  1  0.61119287  0.80003517  0.25914004  1
  Zr  Zr71  1  0.10843864  0.49906012  0.13518397  1
  Zr  Zr72  1  0.67615117  0.10430997  0.87542569  1
  Zr  Zr73  1  0.49958964  0.88435350  0.60971118  1
  Zr  Zr74  1  0.78645411  0.60569494  0.25650326  1
  Zr  Zr75  1  0.49387871  0.27132149  0.62693913  1
  Zr  Zr76  1  0.10712174  0.29280053  0.61715337  1
  Zr  Zr77  1  0.80935584  0.81953446  0.76866516  1
  Zr  Zr78  1  0.29461222  0.10920308  0.61024596  1
  Zr  Zr79  1  0.92007736  0.69232938  0.86760429  1
  Ta  Ta80  1  0.58822739  0.19670251  0.01575812  1
  Ta  Ta81  1  0.10643456  0.89764308  0.13883244  1
  Ta  Ta82  1  0.20792522  0.38653811  0.25955052  1
  Ta  Ta83  1  0.80092997  0.01519167  0.76701559  1
  Ta  Ta84  1  0.21027197  0.39391705  0.49041413  1
  Ta  Ta85  1  0.61578030  0.38693597  0.74358171  1
  Ta  Ta86  1  0.51075682  0.90792798  0.12050157  1
  Ta  Ta87  1  0.89852653  0.28977870  0.60492831  1
  Ta  Ta88  1  0.81033332  0.60056765  -0.00580843  1
  Ta  Ta89  1  0.27613372  0.88636183  0.36678081  1
  Ta  Ta90  1  0.10491714  0.29439600  0.13046247  1
  Ta  Ta91  1  0.00091039  0.59189200  0.00705844  1
  Ta  Ta92  1  0.69012341  0.30883224  0.60330343  1
  Ta  Ta93  1  0.30031383  0.30293885  0.13586755  1
  Ta  Ta94  1  0.50618513  0.69779829  0.86980024  1
  Ta  Ta95  1  0.82220814  0.81132547  0.49619789  1
  Ta  Ta96  1  0.60071959  0.00176678  0.25336207  1
  Ta  Ta97  1  0.69436603  0.10334585  0.36904847  1
  Ta  Ta98  1  0.31604958  0.70211274  0.63016546  1
  Ta  Ta99  1  0.30055028  0.69231353  0.13594401  1
  Ta  Ta100  1  0.09224996  0.09571529  0.12958657  1
  Ta  Ta101  1  0.39118575  -0.01053750  0.74100542  1
  Ta  Ta102  1  0.88624592  0.10509689  0.11423185  1
  Ta  Ta103  1  0.39145728  0.20938999  0.25957476  1
  Ta  Ta104  1  0.90866492  0.70147908  0.11895821  1
  Ta  Ta105  1  0.89393596  0.89623307  0.11549870  1
  Ta  Ta106  1  0.01775067  0.59815532  0.74102418  1
  Ta  Ta107  1  -0.00683669  0.20011081  0.23935117  1
  Ta  Ta108  1  0.19640012  -0.01460615  0.00058649  1
  Ta  Ta109  1  0.88843755  0.11901137  0.89202187  1
  Ta  Ta110  1  0.40000577  0.39114322  0.75282700  1
  Ta  Ta111  1  0.59106373  0.40136823  0.00412283  1
  Ta  Ta112  1  0.89786539  0.50696572  0.12742647  1
  Ta  Ta113  1  0.20774286  0.80813645  0.75590817  1
  Ta  Ta114  1  0.21061487  0.60438266  0.75358499  1
  Ta  Ta115  1  0.80080979  0.61781480  0.50445886  1
  Ta  Ta116  1  0.49090139  0.10201029  0.13435888  1
  Ta  Ta117  1  0.00074830  0.20554807  0.00616835  1
  Ta  Ta118  1  0.90209260  0.50418679  0.60705582  1
  Ta  Ta119  1  0.11200708  0.50373746  0.36843681  1
  Ti  Ti120  1  0.11683514  0.70305608  0.87188728  1
  Ti  Ti121  1  0.51299676  0.90310884  0.38438945  1
  Ti  Ti122  1  0.10500087  0.09927800  0.87746447  1
  Ti  Ti123  1  0.70039933  0.51007730  0.12084373  1
  Ti  Ti124  1  0.70477859  0.50050088  0.62116229  1
  Ti  Ti125  1  0.89874153  0.90405077  0.36803891  1
  Ti  Ti126  1  0.50272174  0.49792792  0.12212109  1
  Ti  Ti127  1  0.29883283  0.90564398  0.88501919  1
  Ti  Ti128  1  0.01881602  0.80712740  0.49056637  1
  Ti  Ti129  1  0.38442007  0.18204217  0.74992557  1
  Ti  Ti130  1  0.60505263  0.60519776  0.51157865  1
  Ti  Ti131  1  0.68557889  0.30103687  0.40033372  1
  Ti  Ti132  1  0.68760767  0.09246867  0.12100894  1
  Ti  Ti133  1  0.62028997  0.79512361  0.49418974  1
  Ti  Ti134  1  0.08841910  0.09173034  0.36345633  1
  Ti  Ti135  1  0.50502564  0.69307236  0.63518256  1
  Ti  Ti136  1  0.50907644  0.49726957  0.85881754  1
  Ti  Ti137  1  0.39179559  -0.00103614  0.01165647  1
  Ti  Ti138  1  0.29573773  0.28345604  0.86452659  1
  Ti  Ti139  1  0.27790087  0.11028350  0.36881810  1
  Ti  Ti140  1  0.80350805  0.41702674  0.00586023  1
  Ti  Ti141  1  0.60758126  0.81618959  -0.00750022  1
  Ti  Ti142  1  0.11223175  0.70474959  0.12955921  1
  Ti  Ti143  1  0.10791884  0.50171158  0.61823484  1
  Ti  Ti144  1  0.08772561  0.88845016  0.35312758  1
  Ti  Ti145  1  0.50090926  0.11755543  0.37437444  1
  Ti  Ti146  1  0.40256927  0.80250480  0.74674075  1
  Ti  Ti147  1  0.79412512  0.19608982  0.24348071  1
  Ti  Ti148  1  0.29622963  0.29633267  0.62540891  1
  Ti  Ti149  1  0.53334596  0.68367497  0.37532064  1
  Ti  Ti150  1  0.67282804  0.11695310  0.63711992  1
  Ti  Ti151  1  0.69607713  0.69931751  0.86559176  1
  Ti  Ti152  1  0.30609402  0.49708983  0.13985577  1
  Ti  Ti153  1  0.59742571  0.79958560  0.75559590  1
  Ti  Ti154  1  0.41213049  0.39016005  0.25601332  1
  Ti  Ti155  1  0.70742160  0.90711467  0.38171884  1
  Ti  Ti156  1  0.40602733  0.60027223  0.75450599  1
  Ti  Ti157  1  0.30585366  0.49919536  0.86640959  1
  Ti  Ti158  1  0.78451652  -0.00043326  0.23600279  1
  Ti  Ti159  1  0.90952858  0.71483289  0.37507823  1
  Mo  Mo160  1  -0.00320759  0.80110546  0.23839742  1
  Mo  Mo161  1  0.90597363  0.50195065  0.87835944  1
  Mo  Mo162  1  0.78877164  -0.00605864  0.49131777  1
  Mo  Mo163  1  0.01768712  0.79378979  0.76349298  1
  Mo  Mo164  1  0.80313532  0.39738905  0.72360737  1
  Mo  Mo165  1  0.59862973  0.60025130  0.75528760  1
  Mo  Mo166  1  0.79788207  0.40388781  0.51271753  1
  Mo  Mo167  1  0.50475644  0.30382260  0.37537361  1
  Mo  Mo168  1  0.38883302  0.19688718  0.47928063  1
  Mo  Mo169  1  0.21595432  0.80006930  0.00870814  1
  Mo  Mo170  1  0.69005604  0.89895411  0.86727329  1
  Mo  Mo171  1  0.11480393  0.89224275  0.87603874  1
  Mo  Mo172  1  0.69579862  0.90438463  0.12564973  1
  Mo  Mo173  1  0.30140286  0.29368111  0.37057458  1
  Mo  Mo174  1  0.51067353  0.49712844  0.37933738  1
  Mo  Mo175  1  0.19007311  -0.00388212  0.26202848  1
  Mo  Mo176  1  0.39828977  0.80139840  0.00831634  1
  Mo  Mo177  1  0.29356221  0.09189070  0.87825567  1
  Mo  Mo178  1  0.19420319  0.78794084  0.24670393  1
  Mo  Mo179  1  0.60925762  0.60505046  0.24458629  1
  Mo  Mo180  1  0.19754835  0.79911562  0.49141378  1
  Mo  Mo181  1  0.18930172  0.19636324  0.24623277  1
  Mo  Mo182  1  0.19832763  0.19829356  0.49292658  1
  Mo  Mo183  1  0.90458516  0.90594115  0.63068652  1
  Mo  Mo184  1  0.11415771  0.71317681  0.36857486  1
  Mo  Mo185  1  0.59548568  0.41046885  0.50938046  1
  Mo  Mo186  1  0.20095225  0.20121379  0.75535873  1
  Mo  Mo187  1  -0.00241895  0.18877660  0.50261348  1
  Mo  Mo188  1  0.48493943  0.09142237  0.62272819  1
  Mo  Mo189  1  0.87697307  0.08434316  0.63513722  1
  Mo  Mo190  1  0.71330920  0.70715540  0.39198239  1
  Mo  Mo191  1  0.58324639  0.00493076  0.00892974  1
  Mo  Mo192  1  0.90246621  0.90674893  0.88864317  1
  Mo  Mo193  1  0.21051541  0.59537796  0.25095205  1
  Mo  Mo194  1  0.58621443  0.20319049  0.74959500  1
  Mo  Mo195  1  0.58431516  0.20503131  0.49036983  1
  Mo  Mo196  1  0.29993577  0.69291528  0.35779628  1
  Mo  Mo197  1  0.00225924  0.40703802  0.01222041  1
  Mo  Mo198  1  0.79538994  0.19979301  0.00748720  1
  Mo  Mo199  1  0.49153122  0.30828921  0.12516007  1
