# generated using pymatgen
data_HfZrTaTiMo
_symmetry_space_group_name_H-M   'P 1'
_cell_length_a   15.20126119
_cell_length_b   15.20216359
_cell_length_c   16.86863123
_cell_angle_alpha   90.02243840
_cell_angle_beta   89.98760161
_cell_angle_gamma   90.02703700
_symmetry_Int_Tables_number   1
_chemical_formula_structural   HfZrTaTiMo
_chemical_formula_sum   'Hf40 Zr40 Ta40 Ti40 Mo40'
_cell_volume   3898.20590607
_cell_formula_units_Z   40
loop_
 _symmetry_equiv_pos_site_id
 _symmetry_equiv_pos_as_xyz
  1  'x, y, z'
loop_
 _atom_site_type_symbol
 _atom_site_label
 _atom_site_symmetry_multiplicity
 _atom_site_fract_x
 _atom_site_fract_y
 _atom_site_fract_z
 _atom_site_occupancy
  Hf  Hf0  1  0.09393441  0.30193554  0.36898787  1
  Hf  Hf1  1  -0.02559860  0.60324024  0.75779743  1
  Hf  Hf2  1  0.01287648  -0.01447395  0.47941537  1
  Hf  Hf3  1  0.21102631  0.79999997  0.00798513  1
  Hf  Hf4  1  0.49483698  0.49899841  0.38410884  1
  Hf  Hf5  1  0.40529253  0.80174144  0.00835395  1
  Hf  Hf6  1  0.40348468  0.00349538  0.74926317  1
  Hf  Hf7  1  0.60315707  0.19991697  0.00235109  1
  Hf  Hf8  1  0.59303525  0.60229497  0.24989529  1
  Hf  Hf9  1  0.10547481  0.09354078  0.62129585  1
  Hf  Hf10  1  0.71755565  0.70697031  0.36994169  1
  Hf  Hf11  1  0.39993801  0.80615068  0.49358887  1
  Hf  Hf12  1  0.49294939  0.09352926  0.13354027  1
  Hf  Hf13  1  0.29645938  0.29396404  0.61455365  1
  Hf  Hf14  1  0.19101370  -0.00211649  0.00811695  1
  Hf  Hf15  1  0.51311274  0.30076052  0.13352910  1
  Hf  Hf16  1  0.09576775  0.88149941  0.62410977  1
  Hf  Hf17  1  0.70232890  0.30420635  0.63719108  1
  Hf  Hf18  1  0.69976626  0.10572196  0.13599209  1
  Hf  Hf19  1  0.69466378  0.49851879  0.11826977  1
  Hf  Hf20  1  0.59543792  0.19269758  0.76524246  1
  Hf  Hf21  1  0.51903051  0.69045410  0.60896306  1
  Hf  Hf22  1  0.18717264  0.79910537  0.47981497  1
  Hf  Hf23  1  0.60117865  0.00598941  0.48723794  1
  Hf  Hf24  1  0.19101112  0.59062598  -0.00004070  1
  Hf  Hf25  1  0.39029129  -0.00562428  0.00709704  1
  Hf  Hf26  1  0.71470046  0.31195968  0.88259900  1
  Hf  Hf27  1  0.69925019  0.29503000  0.35453130  1
  Hf  Hf28  1  0.38274673  0.20333874  0.76101365  1
  Hf  Hf29  1  0.30170251  0.09955546  0.61802448  1
  Hf  Hf30  1  0.09169025  0.49499920  0.12982795  1
  Hf  Hf31  1  0.89044559  0.30523358  0.37982685  1
  Hf  Hf32  1  0.50370571  0.29784956  0.35770292  1
  Hf  Hf33  1  0.81071231  0.59164009  0.24538703  1
  Hf  Hf34  1  0.80495689  -0.00125082  0.48705395  1
  Hf  Hf35  1  0.69346401  0.09621277  0.62711945  1
  Hf  Hf36  1  -0.02408275  0.60159965  -0.00583165  1
  Hf  Hf37  1  0.70204378  0.09103207  0.88576816  1
  Hf  Hf38  1  0.29959531  0.29861402  0.36377775  1
  Hf  Hf39  1  0.81086980  0.19868017  0.75392684  1
  Zr  Zr40  1  0.29806840  0.69471171  0.86828314  1
  Zr  Zr41  1  0.89876556  0.09778567  0.61986567  1
  Zr  Zr42  1  0.69706742  0.49746226  0.38051344  1
  Zr  Zr43  1  -0.02639393  0.39598446  0.23945094  1
  Zr  Zr44  1  0.38028082  0.20125822  0.00735362  1
  Zr  Zr45  1  0.49435020  0.50707877  0.88178272  1
  Zr  Zr46  1  0.39820014  0.80042294  0.73694688  1
  Zr  Zr47  1  0.49575699  0.49263791  0.61138004  1
  Zr  Zr48  1  0.49166054  0.30535044  0.88236603  1
  Zr  Zr49  1  0.70451191  0.90241249  0.35961603  1
  Zr  Zr50  1  -0.00356084  0.19977274  0.49672071  1
  Zr  Zr51  1  0.39790350  0.59571271  0.74004897  1
  Zr  Zr52  1  0.70946364  0.88924408  0.88530544  1
  Zr  Zr53  1  0.91761818  0.30189976  0.88323482  1
  Zr  Zr54  1  0.90685429  0.30822288  0.62560959  1
  Zr  Zr55  1  0.00484769  0.81170612  0.01895191  1
  Zr  Zr56  1  0.60461369  0.42090115  0.75971010  1
  Zr  Zr57  1  0.62322188  0.78905989  0.74185664  1
  Zr  Zr58  1  0.50653270  0.90017079  0.87581480  1
  Zr  Zr59  1  0.82047537  0.00660930  0.24568192  1
  Zr  Zr60  1  0.38964461  0.60545552  0.01640660  1
  Zr  Zr61  1  0.51097544  0.90469006  0.61857919  1
  Zr  Zr62  1  0.39318958  0.40684232  0.02014493  1
  Zr  Zr63  1  0.10420101  0.90231635  0.86819497  1
  Zr  Zr64  1  0.41147556  0.80145978  0.25856319  1
  Zr  Zr65  1  0.28197730  0.49552701  0.61597675  1
  Zr  Zr66  1  0.08392515  0.09398050  0.13559075  1
  Zr  Zr67  1  0.80693933  0.61840423  0.50129403  1
  Zr  Zr68  1  0.09228951  0.10404225  0.87847350  1
  Zr  Zr69  1  0.08629250  0.51331731  0.36394628  1
  Zr  Zr70  1  0.90728732  0.89366797  0.88424524  1
  Zr  Zr71  1  0.51419717  0.69912990  0.87313530  1
  Zr  Zr72  1  0.17982005  0.58527648  0.74651889  1
  Zr  Zr73  1  0.50143497  0.09370845  0.35602831  1
  Zr  Zr74  1  0.90087613  0.09605142  0.89011105  1
  Zr  Zr75  1  0.09625933  0.69762826  0.14121123  1
  Zr  Zr76  1  0.08592687  0.70569790  0.87344411  1
  Zr  Zr77  1  0.49971396  0.29394968  0.63060357  1
  Zr  Zr78  1  0.69451774  0.51664116  0.61798129  1
  Zr  Zr79  1  0.29126881  0.49963249  0.37429941  1
  Ta  Ta80  1  0.80094253  0.40052833  0.50462812  1
  Ta  Ta81  1  0.20610572  -0.00023599  0.47744783  1
  Ta  Ta82  1  0.50763602  0.69897870  0.38710092  1
  Ta  Ta83  1  0.61050782  0.79644434  0.01394469  1
  Ta  Ta84  1  0.01055251  0.40730053  0.74943258  1
  Ta  Ta85  1  0.49980777  0.10438962  0.61984469  1
  Ta  Ta86  1  0.72762578  0.30337653  0.12447862  1
  Ta  Ta87  1  0.70458117  0.89570722  0.13161394  1
  Ta  Ta88  1  -0.00704366  -0.00680685  0.74405794  1
  Ta  Ta89  1  0.81496363  0.42431690  0.75659039  1
  Ta  Ta90  1  0.20250815  0.19259741  0.48391206  1
  Ta  Ta91  1  0.91289094  0.71394217  0.62110508  1
  Ta  Ta92  1  0.29125100  0.90474298  0.61621328  1
  Ta  Ta93  1  0.38771336  0.19376297  0.24497496  1
  Ta  Ta94  1  0.29899632  0.90257638  0.86951695  1
  Ta  Ta95  1  0.39615848  0.39188167  0.49434301  1
  Ta  Ta96  1  0.28375579  0.09440679  0.13741445  1
  Ta  Ta97  1  0.19694711  0.37893437  0.74925346  1
  Ta  Ta98  1  0.28279019  0.70603231  0.61517970  1
  Ta  Ta99  1  0.77511450  0.20388070  0.49703505  1
  Ta  Ta100  1  0.41040271  0.19710794  0.48919162  1
  Ta  Ta101  1  0.59995948  -0.00882625  0.01323995  1
  Ta  Ta102  1  0.60413855  0.37819094  0.49729087  1
  Ta  Ta103  1  0.89707059  0.50587818  0.38254950  1
  Ta  Ta104  1  0.28633799  0.10257883  0.87661908  1
  Ta  Ta105  1  0.28478853  0.47801297  0.87551930  1
  Ta  Ta106  1  0.12081807  0.90083239  0.15740154  1
  Ta  Ta107  1  0.49406999  0.09304552  0.88642311  1
  Ta  Ta108  1  0.20694482  0.01233920  0.27311368  1
  Ta  Ta109  1  0.82199154  0.79681838  0.74938582  1
  Ta  Ta110  1  0.39884226  0.59936647  0.24577113  1
  Ta  Ta111  1  0.80578350  -0.00806144  0.02074424  1
  Ta  Ta112  1  0.11924118  0.29731219  0.88370788  1
  Ta  Ta113  1  0.79925519  -0.00943216  0.74764144  1
  Ta  Ta114  1  0.28580903  0.29640166  0.14115453  1
  Ta  Ta115  1  0.20233318  0.00125197  0.74772030  1
  Ta  Ta116  1  0.39828258  0.00308662  0.49225022  1
  Ta  Ta117  1  0.38574812  0.60443335  0.49994721  1
  Ta  Ta118  1  0.91292160  0.87344645  0.36755030  1
  Ta  Ta119  1  0.40061357  0.40983395  0.23675710  1
  Ti  Ti120  1  0.00198980  0.41652450  0.50447580  1
  Ti  Ti121  1  0.60398542  0.40686654  0.00044187  1
  Ti  Ti122  1  0.29763077  0.69470635  0.37294134  1
  Ti  Ti123  1  0.00092285  0.39758501  0.00487665  1
  Ti  Ti124  1  0.78036899  0.61429990  0.74989282  1
  Ti  Ti125  1  0.29528346  0.71538488  0.14399799  1
  Ti  Ti126  1  0.88572638  0.49269351  0.11218706  1
  Ti  Ti127  1  0.70468819  0.70013578  0.12953844  1
  Ti  Ti128  1  0.10531123  0.30036476  0.61918736  1
  Ti  Ti129  1  0.60348857  0.40782120  0.24285913  1
  Ti  Ti130  1  0.81912283  0.79298636  0.23594543  1
  Ti  Ti131  1  0.60372529  -0.00279675  0.75190640  1
  Ti  Ti132  1  0.70262296  0.10997877  0.35259007  1
  Ti  Ti133  1  0.08884371  0.48734243  0.88072281  1
  Ti  Ti134  1  0.59297928  -0.01199763  0.24784743  1
  Ti  Ti135  1  0.89606606  0.12341463  0.10987809  1
  Ti  Ti136  1  0.90414034  0.51004775  0.61992116  1
  Ti  Ti137  1  0.80731811  0.78692733  0.01455265  1
  Ti  Ti138  1  0.19054333  0.39811597  0.49563304  1
  Ti  Ti139  1  0.70950695  0.52161047  0.88627211  1
  Ti  Ti140  1  0.50079018  0.89457352  0.12995940  1
  Ti  Ti141  1  0.17678058  0.60296605  0.49986301  1
  Ti  Ti142  1  -0.01012717  0.19219016  0.25284130  1
  Ti  Ti143  1  0.62246304  0.79798297  0.49619729  1
  Ti  Ti144  1  0.31407132  0.90657843  0.36626729  1
  Ti  Ti145  1  0.60032076  0.60776535  0.00711712  1
  Ti  Ti146  1  0.71644687  0.89238010  0.61805411  1
  Ti  Ti147  1  0.20014718  0.38596494  0.00931015  1
  Ti  Ti148  1  0.39028097  0.40019900  0.75121306  1
  Ti  Ti149  1  0.19428705  0.39830077  0.24594433  1
  Ti  Ti150  1  0.19852446  0.60679091  0.25494456  1
  Ti  Ti151  1  0.90323519  0.89816305  0.61627224  1
  Ti  Ti152  1  0.19649313  0.79579844  0.74455352  1
  Ti  Ti153  1  0.92142484  0.91173922  0.13604780  1
  Ti  Ti154  1  0.09409912  0.28811035  0.12577126  1
  Ti  Ti155  1  0.50353339  0.69681131  0.12796097  1
  Ti  Ti156  1  0.01870447  0.20608225  0.74601107  1
  Ti  Ti157  1  0.60445652  0.79703135  0.24954144  1
  Ti  Ti158  1  0.89752374  0.10535536  0.37314558  1
  Ti  Ti159  1  0.29029406  0.50660132  0.13627975  1
  Mo  Mo160  1  0.39783853  -0.00509644  0.24481421  1
  Mo  Mo161  1  0.71460942  0.71381299  0.61980134  1
  Mo  Mo162  1  0.87746733  0.69969867  0.87735786  1
  Mo  Mo163  1  -0.00323936  -0.00205724  0.01471631  1
  Mo  Mo164  1  0.81529329  0.21065769  0.24454045  1
  Mo  Mo165  1  0.09929631  0.68955182  0.62574352  1
  Mo  Mo166  1  0.81326619  0.81149997  0.49676174  1
  Mo  Mo167  1  -0.00163476  0.78535456  0.49252630  1
  Mo  Mo168  1  0.01135089  0.20589961  0.00542100  1
  Mo  Mo169  1  0.08731326  0.70643510  0.35797658  1
  Mo  Mo170  1  0.91565813  0.69033145  0.36835610  1
  Mo  Mo171  1  0.59737933  0.60418273  0.49025320  1
  Mo  Mo172  1  0.19176592  0.19684303  0.74672492  1
  Mo  Mo173  1  0.79967458  0.20270737  0.00101900  1
  Mo  Mo174  1  0.80500780  0.41136701  -0.00703535  1
  Mo  Mo175  1  0.90798192  0.30040741  0.10590561  1
  Mo  Mo176  1  0.29305843  0.30115060  0.87895193  1
  Mo  Mo177  1  0.20788220  0.79761297  0.27068889  1
  Mo  Mo178  1  0.00529922  0.60583422  0.50459157  1
  Mo  Mo179  1  0.19959689  0.20063523  0.01027566  1
  Mo  Mo180  1  0.89261761  0.49561607  0.87965013  1
  Mo  Mo181  1  0.78817812  0.60642518  0.00697711  1
  Mo  Mo182  1  0.60247652  0.20046969  0.23597398  1
  Mo  Mo183  1  0.50090799  0.50580247  0.12689590  1
  Mo  Mo184  1  0.50878756  0.89155924  0.37809176  1
  Mo  Mo185  1  0.08694654  0.48793382  0.62253483  1
  Mo  Mo186  1  0.70711466  0.70139188  0.88652400  1
  Mo  Mo187  1  0.60849048  0.59935493  0.75323426  1
  Mo  Mo188  1  0.00432947  -0.00035240  0.27058655  1
  Mo  Mo189  1  -0.00960278  0.60018051  0.24217980  1
  Mo  Mo190  1  0.89426915  0.69881290  0.12493652  1
  Mo  Mo191  1  0.09628774  0.10577018  0.36859099  1
  Mo  Mo192  1  0.18978810  0.20415786  0.25502188  1
  Mo  Mo193  1  -0.00048992  0.80175094  0.74605875  1
  Mo  Mo194  1  0.79783586  0.40234305  0.24536126  1
  Mo  Mo195  1  0.60006206  0.19785243  0.49564175  1
  Mo  Mo196  1  0.30456132  0.10375234  0.37493431  1
  Mo  Mo197  1  -0.00163650  0.80163544  0.23961189  1
  Mo  Mo198  1  0.10541208  0.89666869  0.35699548  1
  Mo  Mo199  1  0.30217772  0.90481490  0.14320688  1
