# generated using pymatgen
data_HfZrTaTiMo
_symmetry_space_group_name_H-M   'P 1'
_cell_length_a   15.23077042
_cell_length_b   15.21370128
_cell_length_c   16.86142604
_cell_angle_alpha   89.94160093
_cell_angle_beta   90.01909382
_cell_angle_gamma   90.03179614
_symmetry_Int_Tables_number   1
_chemical_formula_structural   HfZrTaTiMo
_chemical_formula_sum   'Hf40 Zr40 Ta40 Ti40 Mo40'
_cell_volume   3907.06594853
_cell_formula_units_Z   40
loop_
 _symmetry_equiv_pos_site_id
 _symmetry_equiv_pos_as_xyz
  1  'x, y, z'
loop_
 _atom_site_type_symbol
 _atom_site_label
 _atom_site_symmetry_multiplicity
 _atom_site_fract_x
 _atom_site_fract_y
 _atom_site_fract_z
 _atom_site_occupancy
  Hf  Hf0  1  0.88935908  0.89379761  0.86671161  1
  Hf  Hf1  1  0.10275760  0.09301888  0.87101901  1
  Hf  Hf2  1  0.59611956  0.01087046  0.24133055  1
  Hf  Hf3  1  0.21639471  0.80265487  0.23538009  1
  Hf  Hf4  1  0.90372813  0.31646929  0.86726879  1
  Hf  Hf5  1  0.89754621  0.48999703  0.13785171  1
  Hf  Hf6  1  0.41862531  0.41123793  0.74994564  1
  Hf  Hf7  1  0.58999200  -0.00245789  0.01427456  1
  Hf  Hf8  1  0.81621903  0.00383072  0.25695688  1
  Hf  Hf9  1  0.91086074  0.30692679  0.63106431  1
  Hf  Hf10  1  0.49573077  0.50383754  0.36302512  1
  Hf  Hf11  1  0.59587409  0.60206090  0.51029516  1
  Hf  Hf12  1  0.11052531  0.10175611  0.62770545  1
  Hf  Hf13  1  0.19142198  0.58533746  0.49396140  1
  Hf  Hf14  1  0.89901298  0.28088783  0.38281634  1
  Hf  Hf15  1  -0.00061067  0.19444448  0.75021795  1
  Hf  Hf16  1  0.60546645  0.19974958  0.50689490  1
  Hf  Hf17  1  -0.00311709  0.80504317  0.25020541  1
  Hf  Hf18  1  0.59685365  0.22470656  0.23877582  1
  Hf  Hf19  1  0.70164049  0.33090204  0.11799783  1
  Hf  Hf20  1  0.90338091  0.70381346  0.37566333  1
  Hf  Hf21  1  0.30332570  0.29511990  0.63032127  1
  Hf  Hf22  1  0.29128395  0.69921616  0.62854183  1
  Hf  Hf23  1  0.29979808  0.50384457  0.35180708  1
  Hf  Hf24  1  0.80058611  0.39159244  0.49918104  1
  Hf  Hf25  1  -0.00718111  0.16752210  0.24900134  1
  Hf  Hf26  1  0.70903630  0.89960086  0.12742640  1
  Hf  Hf27  1  0.09627693  0.69105212  0.12194737  1
  Hf  Hf28  1  0.49686796  0.89647398  0.88402927  1
  Hf  Hf29  1  0.57667995  0.59755682  0.73618745  1
  Hf  Hf30  1  0.79323032  0.78839877  -0.00166008  1
  Hf  Hf31  1  0.59102729  0.78182657  0.01919596  1
  Hf  Hf32  1  0.90072006  0.89838324  0.11640969  1
  Hf  Hf33  1  0.10534078  0.89788860  0.37308513  1
  Hf  Hf34  1  0.09503875  0.28771645  0.11589069  1
  Hf  Hf35  1  0.90013530  0.09428211  0.10101498  1
  Hf  Hf36  1  0.20086880  0.79877227  0.49649755  1
  Hf  Hf37  1  0.80264008  0.60227996  0.49712557  1
  Hf  Hf38  1  0.11424329  0.30537060  0.86882148  1
  Hf  Hf39  1  0.21399483  0.00090753  0.50782678  1
  Zr  Zr40  1  0.09482347  0.48843772  0.62931084  1
  Zr  Zr41  1  0.49735627  0.70924026  0.36978916  1
  Zr  Zr42  1  0.58534272  0.21587524  0.01100272  1
  Zr  Zr43  1  0.51283633  0.30789030  0.37769960  1
  Zr  Zr44  1  0.39557698  0.60120484  0.49844488  1
  Zr  Zr45  1  0.70889314  0.50985400  0.86705628  1
  Zr  Zr46  1  0.10192856  0.68561567  0.89139797  1
  Zr  Zr47  1  0.00357669  0.78877740  0.75252456  1
  Zr  Zr48  1  0.30887043  0.89288810  0.63297158  1
  Zr  Zr49  1  -0.01912460  0.57904722  0.75275564  1
  Zr  Zr50  1  0.30264830  0.49648817  0.63411015  1
  Zr  Zr51  1  0.09365125  0.89689730  0.10986444  1
  Zr  Zr52  1  0.00181958  0.37394574  0.25770795  1
  Zr  Zr53  1  0.88203744  0.89147803  0.63842077  1
  Zr  Zr54  1  0.19348612  0.20424735  0.24978162  1
  Zr  Zr55  1  0.70888104  0.10955044  0.11276891  1
  Zr  Zr56  1  0.30442141  0.30158126  0.37406036  1
  Zr  Zr57  1  0.19381537  0.60042897  0.75663730  1
  Zr  Zr58  1  -0.01908658  0.58974979  0.00154223  1
  Zr  Zr59  1  0.02096769  0.39536718  0.48899331  1
  Zr  Zr60  1  0.11750915  0.48734015  0.13930537  1
  Zr  Zr61  1  0.70594557  0.29235391  0.63406132  1
  Zr  Zr62  1  0.40257055  0.40144788  0.00379998  1
  Zr  Zr63  1  0.79707585  0.20419215  0.25051299  1
  Zr  Zr64  1  0.29374012  0.49000816  0.87409877  1
  Zr  Zr65  1  0.20420184  -0.01092551  0.74984844  1
  Zr  Zr66  1  0.67812359  0.70555332  0.86509904  1
  Zr  Zr67  1  0.49956967  0.10035892  0.36858333  1
  Zr  Zr68  1  0.69966585  0.72021257  0.62869428  1
  Zr  Zr69  1  0.68371862  0.10855634  0.88336913  1
  Zr  Zr70  1  0.30259961  0.71468661  0.36790506  1
  Zr  Zr71  1  0.10240908  0.88867193  0.88221805  1
  Zr  Zr72  1  0.51856940  0.29859210  0.86533242  1
  Zr  Zr73  1  0.21279993  0.20016262  -0.00689360  1
  Zr  Zr74  1  0.68989282  0.49137491  0.38173511  1
  Zr  Zr75  1  -0.01680048  -0.00408400  0.51739627  1
  Zr  Zr76  1  0.09102875  0.09982703  0.38844964  1
  Zr  Zr77  1  0.30478013  0.08887129  0.37068668  1
  Zr  Zr78  1  0.31845957  0.69590357  0.88955101  1
  Zr  Zr79  1  0.48610110  0.71796580  0.61831418  1
  Ta  Ta80  1  0.59027123  0.82573247  0.49463414  1
  Ta  Ta81  1  0.79280597  0.81290585  0.49306831  1
  Ta  Ta82  1  0.39929187  0.80735246  0.02809519  1
  Ta  Ta83  1  0.20907476  -0.00036552  -0.00090890  1
  Ta  Ta84  1  0.10747496  0.49238198  0.35730593  1
  Ta  Ta85  1  0.21444003  0.19587320  0.75227970  1
  Ta  Ta86  1  0.89484673  0.29475593  0.11331372  1
  Ta  Ta87  1  0.69422285  0.71034440  0.37810507  1
  Ta  Ta88  1  0.59182203  0.81960301  0.74960390  1
  Ta  Ta89  1  0.60705699  0.42062477  -0.00755876  1
  Ta  Ta90  1  0.88254835  0.69358254  0.13354711  1
  Ta  Ta91  1  0.50035496  0.92187945  0.63114832  1
  Ta  Ta92  1  0.89529438  0.69158407  0.62389615  1
  Ta  Ta93  1  0.78931786  0.39854059  0.26127639  1
  Ta  Ta94  1  0.00102625  0.19735864  0.51409451  1
  Ta  Ta95  1  0.40309101  0.39895165  0.50662437  1
  Ta  Ta96  1  0.90563246  0.49782644  0.36845591  1
  Ta  Ta97  1  0.41059453  0.39427592  0.23389695  1
  Ta  Ta98  1  0.89927926  0.90828695  0.38063052  1
  Ta  Ta99  1  0.79806237  0.21865810  -0.01725648  1
  Ta  Ta100  1  0.81823514  0.42262315  0.74376991  1
  Ta  Ta101  1  0.29018340  0.31658912  0.12409165  1
  Ta  Ta102  1  0.09067884  0.69678911  0.62054284  1
  Ta  Ta103  1  0.60771222  0.60598032  0.24699222  1
  Ta  Ta104  1  0.32977321  0.09564304  0.63579811  1
  Ta  Ta105  1  0.19086670  0.00292094  0.23901136  1
  Ta  Ta106  1  0.79797078  0.60034604  0.26247793  1
  Ta  Ta107  1  0.59534464  0.80387139  0.24208624  1
  Ta  Ta108  1  0.00415220  0.39480149  0.00170232  1
  Ta  Ta109  1  0.31671564  0.28971383  0.86464262  1
  Ta  Ta110  1  0.39531970  0.00888815  0.01778672  1
  Ta  Ta111  1  0.30722109  0.90041550  0.88504883  1
  Ta  Ta112  1  -0.00284402  0.19830827  -0.01380310  1
  Ta  Ta113  1  0.39925885  0.19616984  0.22548109  1
  Ta  Ta114  1  0.09672100  0.09037596  0.11000391  1
  Ta  Ta115  1  0.87521768  0.68575998  0.86531437  1
  Ta  Ta116  1  0.51619581  0.50007553  0.12966548  1
  Ta  Ta117  1  0.80481602  0.17630859  0.50504578  1
  Ta  Ta118  1  0.89194306  0.09792597  0.87543487  1
  Ta  Ta119  1  0.78068145  0.00764201  0.75842896  1
  Ti  Ti120  1  0.48034129  0.90100118  0.35963966  1
  Ti  Ti121  1  0.09865128  0.88827847  0.62761267  1
  Ti  Ti122  1  0.79342278  0.79824318  0.25964201  1
  Ti  Ti123  1  0.20181925  0.79436578  0.75855840  1
  Ti  Ti124  1  0.80736536  0.41720701  -0.00790371  1
  Ti  Ti125  1  0.78858618  0.20885494  0.76470717  1
  Ti  Ti126  1  0.70972338  0.52339916  0.12116933  1
  Ti  Ti127  1  0.21553150  0.57966996  0.01307546  1
  Ti  Ti128  1  0.40187986  0.79381597  0.75959399  1
  Ti  Ti129  1  0.20194932  0.21300290  0.50201974  1
  Ti  Ti130  1  0.39398460  0.61425523  0.22897508  1
  Ti  Ti131  1  0.70802425  0.10740311  0.37514969  1
  Ti  Ti132  1  0.31242664  0.09290691  0.86648114  1
  Ti  Ti133  1  0.49695239  0.29080825  0.63136740  1
  Ti  Ti134  1  0.69191366  0.90628365  0.37017657  1
  Ti  Ti135  1  0.48831989  0.09792871  0.87355955  1
  Ti  Ti136  1  0.09266705  0.48777473  0.87728303  1
  Ti  Ti137  1  -0.00465641  -0.00599686  -0.01576459  1
  Ti  Ti138  1  0.69518493  0.90515817  0.87822743  1
  Ti  Ti139  1  0.40370222  0.19292516  0.50472950  1
  Ti  Ti140  1  0.38666073  -0.00822917  0.22407004  1
  Ti  Ti141  1  0.20864991  0.79370866  0.00845962  1
  Ti  Ti142  1  0.61525287  0.39661833  0.74503632  1
  Ti  Ti143  1  -0.00457947  0.79353775  0.50274420  1
  Ti  Ti144  1  0.10421721  0.68910245  0.36486914  1
  Ti  Ti145  1  0.69207891  0.91787446  0.62871809  1
  Ti  Ti146  1  -0.00002155  0.59857209  0.25094261  1
  Ti  Ti147  1  -0.01133825  0.78712630  -0.00583406  1
  Ti  Ti148  1  0.49793308  0.52855785  0.88320262  1
  Ti  Ti149  1  0.11260948  0.30172309  0.63634185  1
  Ti  Ti150  1  0.41755204  0.60862226  0.02159675  1
  Ti  Ti151  1  0.41460954  -0.00952870  0.49729631  1
  Ti  Ti152  1  0.59503131  0.17829876  0.73779870  1
  Ti  Ti153  1  0.59647129  0.40235259  0.51794577  1
  Ti  Ti154  1  0.88062199  0.09995002  0.63928776  1
  Ti  Ti155  1  -0.00099413  0.59752483  0.49461841  1
  Ti  Ti156  1  0.60940352  0.00822081  0.49794993  1
  Ti  Ti157  1  0.39846082  0.19593055  0.01639910  1
  Ti  Ti158  1  -0.00506138  -0.00366008  0.74676167  1
  Ti  Ti159  1  0.70924407  0.50509144  0.62903430  1
  Mo  Mo160  1  0.78180764  -0.00698150  0.49563920  1
  Mo  Mo161  1  0.70126375  0.29493706  0.38387193  1
  Mo  Mo162  1  0.40169563  0.60606943  0.75244977  1
  Mo  Mo163  1  0.78990996  0.60198544  0.00383411  1
  Mo  Mo164  1  0.19923195  0.40095418  -0.00074857  1
  Mo  Mo165  1  0.40456544  0.80713691  0.22831344  1
  Mo  Mo166  1  0.21299110  0.39496896  0.49392780  1
  Mo  Mo167  1  0.90212976  0.50247727  0.87868898  1
  Mo  Mo168  1  0.29101418  0.90569392  0.11498481  1
  Mo  Mo169  1  0.50321780  0.69630340  0.13849883  1
  Mo  Mo170  1  0.60782557  0.41353778  0.24520413  1
  Mo  Mo171  1  0.49670919  0.31149728  0.11835969  1
  Mo  Mo172  1  0.50627144  0.48681360  0.62289992  1
  Mo  Mo173  1  0.49429492  0.10406366  0.12946801  1
  Mo  Mo174  1  0.28764676  0.10631236  0.12563783  1
  Mo  Mo175  1  0.59507282  0.00084576  0.75802263  1
  Mo  Mo176  1  0.89632136  0.50203126  0.61215136  1
  Mo  Mo177  1  0.79918317  0.00176218  -0.01919944  1
  Mo  Mo178  1  0.41252126  -0.00465789  0.75915408  1
  Mo  Mo179  1  0.00828752  0.39637389  0.74856542  1
  Mo  Mo180  1  0.30781456  0.91158155  0.36827467  1
  Mo  Mo181  1  0.31082976  0.50279218  0.13669732  1
  Mo  Mo182  1  0.40849884  0.19487140  0.75067947  1
  Mo  Mo183  1  0.29655669  0.69348117  0.11421210  1
  Mo  Mo184  1  0.49393535  0.70259886  0.87966932  1
  Mo  Mo185  1  0.70167813  0.09146804  0.62974433  1
  Mo  Mo186  1  0.60110311  0.59813833  0.00794538  1
  Mo  Mo187  1  0.50564568  0.09799265  0.61896011  1
  Mo  Mo188  1  0.20737481  0.39527305  0.25059682  1
  Mo  Mo189  1  0.70513835  0.31283509  0.86738937  1
  Mo  Mo190  1  0.00612851  -0.00576087  0.24705279  1
  Mo  Mo191  1  0.89773792  0.08937268  0.38652817  1
  Mo  Mo192  1  0.19542000  0.60618997  0.24745753  1
  Mo  Mo193  1  0.70598506  0.70021403  0.13974371  1
  Mo  Mo194  1  0.78832668  0.80616845  0.75253423  1
  Mo  Mo195  1  0.20628954  0.38961723  0.75424283  1
  Mo  Mo196  1  0.39965786  0.82106165  0.49522295  1
  Mo  Mo197  1  0.10585443  0.29450829  0.38378938  1
  Mo  Mo198  1  0.79146234  0.60528811  0.73601116  1
  Mo  Mo199  1  0.49896045  0.90387757  0.13329119  1
