# generated using pymatgen
data_HfZrTaTiMo
_symmetry_space_group_name_H-M   'P 1'
_cell_length_a   15.21711353
_cell_length_b   15.21766281
_cell_length_c   16.83208110
_cell_angle_alpha   90.03194530
_cell_angle_beta   90.10708192
_cell_angle_gamma   90.01845712
_symmetry_Int_Tables_number   1
_chemical_formula_structural   HfZrTaTiMo
_chemical_formula_sum   'Hf40 Zr40 Ta40 Ti40 Mo40'
_cell_volume   3897.77893339
_cell_formula_units_Z   40
loop_
 _symmetry_equiv_pos_site_id
 _symmetry_equiv_pos_as_xyz
  1  'x, y, z'
loop_
 _atom_site_type_symbol
 _atom_site_label
 _atom_site_symmetry_multiplicity
 _atom_site_fract_x
 _atom_site_fract_y
 _atom_site_fract_z
 _atom_site_occupancy
  Hf  Hf0  1  0.19122258  0.79064459  0.73707044  1
  Hf  Hf1  1  0.81599410  0.40959696  0.01479470  1
  Hf  Hf2  1  0.20157453  0.79578021  0.00650613  1
  Hf  Hf3  1  0.38687645  0.80869025  0.73537881  1
  Hf  Hf4  1  0.70119001  0.89342700  0.87366996  1
  Hf  Hf5  1  0.50364027  0.29742283  0.11241332  1
  Hf  Hf6  1  0.39549369  -0.00496330  0.25906223  1
  Hf  Hf7  1  0.20163622  -0.01520882  0.50207945  1
  Hf  Hf8  1  0.50682493  0.69873454  0.37066936  1
  Hf  Hf9  1  0.20223116  0.20827564  0.50249319  1
  Hf  Hf10  1  0.50806259  0.30425326  0.88144128  1
  Hf  Hf11  1  0.59767317  0.61669327  0.23313664  1
  Hf  Hf12  1  0.70195478  0.11605322  0.62738665  1
  Hf  Hf13  1  0.68805321  0.69739952  0.87200124  1
  Hf  Hf14  1  0.47572652  0.50482138  0.10959848  1
  Hf  Hf15  1  0.00363305  0.40097051  0.72913746  1
  Hf  Hf16  1  0.40027124  0.59188262  0.50052742  1
  Hf  Hf17  1  0.28671406  0.71109791  0.37599912  1
  Hf  Hf18  1  0.20308277  0.21027488  0.75489759  1
  Hf  Hf19  1  0.49724048  0.88737600  0.87876024  1
  Hf  Hf20  1  0.50213840  0.51004524  0.88630422  1
  Hf  Hf21  1  0.17962500  0.60234076  0.25780452  1
  Hf  Hf22  1  0.50596055  0.30650706  0.36398756  1
  Hf  Hf23  1  -0.00745333  0.58373136  -0.00183663  1
  Hf  Hf24  1  0.30216606  0.30671915  0.37321637  1
  Hf  Hf25  1  0.58618488  0.00342017  0.76040651  1
  Hf  Hf26  1  0.80475603  0.00306107  0.74234843  1
  Hf  Hf27  1  0.39781273  0.19657220  0.25325063  1
  Hf  Hf28  1  0.20795306  -0.00558050  0.74565445  1
  Hf  Hf29  1  0.68758996  0.90945717  0.62190358  1
  Hf  Hf30  1  0.30851230  0.29814015  0.11068031  1
  Hf  Hf31  1  0.79329186  0.78956382  0.72773409  1
  Hf  Hf32  1  0.88844863  0.68056030  0.86710813  1
  Hf  Hf33  1  0.60376884  0.00085407  0.00052566  1
  Hf  Hf34  1  0.40083313  -0.00169624  -0.00227417  1
  Hf  Hf35  1  0.69706328  0.51069974  0.36846398  1
  Hf  Hf36  1  0.60003888  0.61820422  0.02069906  1
  Hf  Hf37  1  0.40825126  0.19838281  0.49039952  1
  Hf  Hf38  1  0.89864363  0.08998355  0.12847058  1
  Hf  Hf39  1  0.62131337  0.41343998  0.75370034  1
  Zr  Zr40  1  0.89258811  0.89315223  0.87687496  1
  Zr  Zr41  1  0.38549573  0.80115268  0.51029140  1
  Zr  Zr42  1  -0.00632138  0.00428436  -0.00030271  1
  Zr  Zr43  1  0.19960272  0.01885746  -0.00262921  1
  Zr  Zr44  1  0.10067002  0.10966914  0.62084392  1
  Zr  Zr45  1  0.49716739  0.10104685  0.12339186  1
  Zr  Zr46  1  -0.00567622  -0.00732892  0.25725259  1
  Zr  Zr47  1  0.20531598  0.40374152  0.23098466  1
  Zr  Zr48  1  0.79103365  0.57476869  0.72887042  1
  Zr  Zr49  1  0.00455174  0.61554906  0.51350102  1
  Zr  Zr50  1  -0.01436692  0.78702537  -0.00014461  1
  Zr  Zr51  1  0.20235316  0.40588321  0.00075943  1
  Zr  Zr52  1  0.60724690  0.60195092  0.50654728  1
  Zr  Zr53  1  0.31501331  0.09148325  0.62489443  1
  Zr  Zr54  1  0.79552830  -0.00600730  0.49960280  1
  Zr  Zr55  1  0.00925984  0.39180647  0.01141738  1
  Zr  Zr56  1  0.01149857  0.19738771  0.25933513  1
  Zr  Zr57  1  0.60675217  0.20632291  0.49371510  1
  Zr  Zr58  1  0.29723607  0.69664325  0.88037809  1
  Zr  Zr59  1  0.40122220  0.59952582  0.75170251  1
  Zr  Zr60  1  0.09133883  0.90225732  0.12378424  1
  Zr  Zr61  1  0.80480498  0.40798484  0.24429412  1
  Zr  Zr62  1  -0.00821433  0.80305031  0.73344062  1
  Zr  Zr63  1  0.50491245  0.30158521  0.63886487  1
  Zr  Zr64  1  0.91342473  0.50733658  0.38227647  1
  Zr  Zr65  1  0.70197824  0.31054209  0.36332924  1
  Zr  Zr66  1  0.19594459  0.00530012  0.25154827  1
  Zr  Zr67  1  0.10157305  0.32205200  0.37896878  1
  Zr  Zr68  1  0.40411101  0.79099772  0.24078750  1
  Zr  Zr69  1  0.61745896  0.40462114  0.00531032  1
  Zr  Zr70  1  0.01124683  0.42330508  0.23372995  1
  Zr  Zr71  1  0.90820622  0.28969425  0.13365118  1
  Zr  Zr72  1  0.10015963  0.88044336  0.37939132  1
  Zr  Zr73  1  0.50459431  0.09851319  0.62565731  1
  Zr  Zr74  1  0.73659233  0.30572986  0.87261254  1
  Zr  Zr75  1  0.59248314  0.80336726  0.51011323  1
  Zr  Zr76  1  0.79963040  0.40320939  0.51518487  1
  Zr  Zr77  1  0.58338446  0.77989639  0.72914778  1
  Zr  Zr78  1  0.09918236  0.89728526  0.87561011  1
  Zr  Zr79  1  0.89500839  0.11200154  0.87429704  1
  Ta  Ta80  1  -0.01168773  0.20979537  0.74124987  1
  Ta  Ta81  1  0.88201835  0.88635751  0.12643022  1
  Ta  Ta82  1  0.59978065  -0.00242730  0.25898777  1
  Ta  Ta83  1  0.79618074  -0.00525564  0.26109417  1
  Ta  Ta84  1  0.29438842  0.09660418  0.37835187  1
  Ta  Ta85  1  0.80331573  0.19741799  0.00697210  1
  Ta  Ta86  1  0.69986041  0.09802007  0.37267027  1
  Ta  Ta87  1  0.59397352  0.40541496  0.50475473  1
  Ta  Ta88  1  0.30235535  0.89909295  0.87826937  1
  Ta  Ta89  1  0.29834433  0.49769975  0.37469507  1
  Ta  Ta90  1  0.69697112  0.89089054  0.37510914  1
  Ta  Ta91  1  0.49797203  0.49759263  0.36633996  1
  Ta  Ta92  1  0.38764419  0.59258012  0.24915699  1
  Ta  Ta93  1  0.40429431  0.18693765  0.77230082  1
  Ta  Ta94  1  0.80328669  0.19044339  0.26066512  1
  Ta  Ta95  1  0.90220877  0.09827057  0.38747628  1
  Ta  Ta96  1  0.90474965  0.30203059  0.37995959  1
  Ta  Ta97  1  0.09770130  0.50429876  0.86346258  1
  Ta  Ta98  1  0.90432059  0.09950681  0.61300795  1
  Ta  Ta99  1  0.19655788  0.59421238  0.49254571  1
  Ta  Ta100  1  0.61138086  0.19468815  -0.00736304  1
  Ta  Ta101  1  0.28524112  0.67702591  0.62523363  1
  Ta  Ta102  1  0.89550586  0.89095537  0.38350182  1
  Ta  Ta103  1  0.30573371  0.48650793  0.62939084  1
  Ta  Ta104  1  0.09400286  0.68984226  0.86857654  1
  Ta  Ta105  1  0.40138155  0.40553657  0.24360551  1
  Ta  Ta106  1  0.00221831  0.00449422  0.74121035  1
  Ta  Ta107  1  0.30460454  0.89952688  0.12137688  1
  Ta  Ta108  1  0.70276006  0.28713181  0.13184957  1
  Ta  Ta109  1  -0.00250321  0.78425661  0.24999167  1
  Ta  Ta110  1  0.01243838  0.40636622  0.52104881  1
  Ta  Ta111  1  0.30657103  0.29906181  0.62998960  1
  Ta  Ta112  1  0.18259595  0.78644604  0.52054464  1
  Ta  Ta113  1  0.50350051  0.50371569  0.63420891  1
  Ta  Ta114  1  0.38744956  0.19559424  -0.02288952  1
  Ta  Ta115  1  0.09665105  0.10876933  0.86285316  1
  Ta  Ta116  1  0.80457367  0.20418911  0.49412808  1
  Ta  Ta117  1  0.61037158  0.20378848  0.76447885  1
  Ta  Ta118  1  0.19975886  0.79975669  0.23731800  1
  Ta  Ta119  1  0.40198037  -0.00582708  0.47908030  1
  Ti  Ti120  1  0.28824021  0.10661666  0.12176746  1
  Ti  Ti121  1  -0.00802810  0.81412379  0.52347361  1
  Ti  Ti122  1  0.20013683  0.19959670  0.25199039  1
  Ti  Ti123  1  0.79919343  0.79084012  0.51507122  1
  Ti  Ti124  1  0.70028125  0.90102333  0.13539100  1
  Ti  Ti125  1  0.70176326  0.09833833  0.13237968  1
  Ti  Ti126  1  0.20700106  0.40723513  0.50889831  1
  Ti  Ti127  1  0.29776788  0.67980137  0.11705196  1
  Ti  Ti128  1  0.58973770  0.00534531  0.48259351  1
  Ti  Ti129  1  0.71013311  0.50991818  0.13076734  1
  Ti  Ti130  1  0.70995930  0.70685941  0.37627655  1
  Ti  Ti131  1  0.00124656  0.21153661  0.50210667  1
  Ti  Ti132  1  0.20659543  0.40341578  0.75310466  1
  Ti  Ti133  1  0.09714305  0.10031196  0.38981351  1
  Ti  Ti134  1  0.01388677  0.19779301  0.00027717  1
  Ti  Ti135  1  0.59658940  0.40850626  0.23366647  1
  Ti  Ti136  1  0.60295518  0.19362710  0.25085879  1
  Ti  Ti137  1  0.79906457  0.79902457  0.25439873  1
  Ti  Ti138  1  0.79361306  -0.00429635  0.00473437  1
  Ti  Ti139  1  -0.00084338  0.60224973  0.73374016  1
  Ti  Ti140  1  0.49859304  0.89349004  0.37098657  1
  Ti  Ti141  1  0.09412507  0.69092798  0.12178470  1
  Ti  Ti142  1  0.12085228  0.51255469  0.63398420  1
  Ti  Ti143  1  0.29716287  0.49943028  0.88103863  1
  Ti  Ti144  1  0.90254424  0.70787129  0.38213197  1
  Ti  Ti145  1  0.48097816  0.91448190  0.62273097  1
  Ti  Ti146  1  0.81062531  0.61052377  0.24863394  1
  Ti  Ti147  1  0.49561031  0.69959670  0.88291328  1
  Ti  Ti148  1  0.50688564  0.89564074  0.13324061  1
  Ti  Ti149  1  0.80188167  0.60250796  0.52049777  1
  Ti  Ti150  1  0.39657900  0.39130141  0.76217968  1
  Ti  Ti151  1  0.40925996  0.79020014  0.01582105  1
  Ti  Ti152  1  0.09455106  0.30509861  0.87129643  1
  Ti  Ti153  1  0.71063013  0.51122415  0.88414317  1
  Ti  Ti154  1  0.89585356  0.69576732  0.12856535  1
  Ti  Ti155  1  0.40393236  0.39834179  0.50188048  1
  Ti  Ti156  1  0.79617281  0.61348560  0.01174493  1
  Ti  Ti157  1  0.70304309  0.10205071  0.87370171  1
  Ti  Ti158  1  0.60765578  0.80336063  0.01622582  1
  Ti  Ti159  1  0.89851265  0.47171415  0.86178600  1
  Mo  Mo160  1  0.29532306  0.50739995  0.11962246  1
  Mo  Mo161  1  0.29569421  0.89611691  0.62159809  1
  Mo  Mo162  1  0.38806002  0.60366199  -0.00490788  1
  Mo  Mo163  1  0.89720185  0.90984739  0.61679089  1
  Mo  Mo164  1  0.81745686  0.37590027  0.72550909  1
  Mo  Mo165  1  0.10709045  0.50393226  0.38462151  1
  Mo  Mo166  1  0.10183346  0.11324269  0.12502225  1
  Mo  Mo167  1  0.48561950  0.68986022  0.62279251  1
  Mo  Mo168  1  0.78693398  0.79545430  0.00733127  1
  Mo  Mo169  1  0.11736448  0.31208292  0.62342468  1
  Mo  Mo170  1  0.90063374  0.51565134  0.12957029  1
  Mo  Mo171  1  -0.00114634  0.00358922  0.49484238  1
  Mo  Mo172  1  0.50485498  0.09511501  0.36927389  1
  Mo  Mo173  1  0.18755500  0.60140844  -0.00510230  1
  Mo  Mo174  1  0.59829910  0.59750382  0.75003866  1
  Mo  Mo175  1  0.90770451  0.28734540  0.61228208  1
  Mo  Mo176  1  0.80429394  0.20234430  0.74353004  1
  Mo  Mo177  1  0.11521107  0.27533172  0.12150337  1
  Mo  Mo178  1  0.89301011  0.69986116  0.62283125  1
  Mo  Mo179  1  -0.00859868  0.61238746  0.25389942  1
  Mo  Mo180  1  0.08758738  0.70235186  0.37867463  1
  Mo  Mo181  1  0.60921769  0.80921180  0.25306573  1
  Mo  Mo182  1  0.29918511  0.09492761  0.86717338  1
  Mo  Mo183  1  0.30000966  0.30656831  0.87341894  1
  Mo  Mo184  1  0.19517039  0.58838969  0.75490764  1
  Mo  Mo185  1  0.10664581  0.52095564  0.11799931  1
  Mo  Mo186  1  0.39769780  -0.00280816  0.76258144  1
  Mo  Mo187  1  0.39822301  0.39768364  -0.01501693  1
  Mo  Mo188  1  0.49514161  0.70737425  0.12504234  1
  Mo  Mo189  1  0.70222132  0.29765354  0.63181738  1
  Mo  Mo190  1  0.90785384  0.49878314  0.61844500  1
  Mo  Mo191  1  0.71327951  0.71781523  0.13158083  1
  Mo  Mo192  1  0.50748046  0.10097922  0.88229735  1
  Mo  Mo193  1  0.09286713  0.90823384  0.62120083  1
  Mo  Mo194  1  0.29683823  0.89552782  0.37178997  1
  Mo  Mo195  1  0.69233085  0.48943212  0.62072470  1
  Mo  Mo196  1  0.91685748  0.29927873  0.87639364  1
  Mo  Mo197  1  0.19450996  0.20429297  -0.02007545  1
  Mo  Mo198  1  0.09774254  0.69582152  0.63209686  1
  Mo  Mo199  1  0.69242026  0.69302795  0.62126840  1
