# generated using pymatgen
data_HfZrTaTiMo
_symmetry_space_group_name_H-M   'P 1'
_cell_length_a   15.20179212
_cell_length_b   15.20259972
_cell_length_c   16.83443820
_cell_angle_alpha   89.98753865
_cell_angle_beta   90.03197457
_cell_angle_gamma   90.03898123
_symmetry_Int_Tables_number   1
_chemical_formula_structural   HfZrTaTiMo
_chemical_formula_sum   'Hf40 Zr40 Ta40 Ti40 Mo40'
_cell_volume   3890.55088018
_cell_formula_units_Z   40
loop_
 _symmetry_equiv_pos_site_id
 _symmetry_equiv_pos_as_xyz
  1  'x, y, z'
loop_
 _atom_site_type_symbol
 _atom_site_label
 _atom_site_symmetry_multiplicity
 _atom_site_fract_x
 _atom_site_fract_y
 _atom_site_fract_z
 _atom_site_occupancy
  Hf  Hf0  1  0.68591101  0.69250299  0.12400696  1
  Hf  Hf1  1  0.59238315  0.00861496  0.50005506  1
  Hf  Hf2  1  0.11393807  0.29730731  0.11308314  1
  Hf  Hf3  1  0.00680261  0.60159061  0.49923137  1
  Hf  Hf4  1  0.20165660  0.39152760  0.25329281  1
  Hf  Hf5  1  0.89666506  0.89076830  0.13334798  1
  Hf  Hf6  1  0.20021390  0.39237670  0.77165632  1
  Hf  Hf7  1  -0.01985256  0.58628073  0.26436290  1
  Hf  Hf8  1  0.40670326  0.20205035  0.23097721  1
  Hf  Hf9  1  0.40191682  0.60436030  0.49224316  1
  Hf  Hf10  1  0.08760710  0.50047912  0.13337393  1
  Hf  Hf11  1  0.10462731  0.09186974  0.38345588  1
  Hf  Hf12  1  0.58563278  0.79716964  -0.00355857  1
  Hf  Hf13  1  0.09912387  0.09811428  0.89085655  1
  Hf  Hf14  1  0.09323834  0.69399544  0.87278873  1
  Hf  Hf15  1  0.29625901  0.09905896  0.61211868  1
  Hf  Hf16  1  0.08826479  0.89233554  0.11005076  1
  Hf  Hf17  1  0.88538149  0.11130932  0.63448960  1
  Hf  Hf18  1  0.48906577  0.89983876  0.13091143  1
  Hf  Hf19  1  0.20162144  0.19299712  0.76366295  1
  Hf  Hf20  1  0.51630146  0.51095262  0.36135303  1
  Hf  Hf21  1  0.28289108  0.90813200  0.12115312  1
  Hf  Hf22  1  0.42397952  0.19953426  0.50674196  1
  Hf  Hf23  1  0.90292906  0.49072730  0.63480335  1
  Hf  Hf24  1  0.90460976  0.10606643  0.36545223  1
  Hf  Hf25  1  0.40087859  -0.00367484  0.74895909  1
  Hf  Hf26  1  0.59946422  0.00048967  0.00563080  1
  Hf  Hf27  1  0.69789840  0.11369276  0.36382734  1
  Hf  Hf28  1  0.91095155  0.32160070  0.11746660  1
  Hf  Hf29  1  0.28296113  0.69566886  0.13358168  1
  Hf  Hf30  1  0.70076406  0.32425140  0.11260212  1
  Hf  Hf31  1  0.39859185  0.80099785  0.48041187  1
  Hf  Hf32  1  0.19810460  0.19012005  0.24864646  1
  Hf  Hf33  1  0.58300494  0.78363437  0.25849869  1
  Hf  Hf34  1  0.30080105  0.89408609  0.88370630  1
  Hf  Hf35  1  0.20336457  0.59080054  0.49744215  1
  Hf  Hf36  1  0.81228656  0.42121104  0.25326550  1
  Hf  Hf37  1  -0.01910852  0.00284040  0.50004395  1
  Hf  Hf38  1  0.19640446  -0.00312336  0.75621627  1
  Hf  Hf39  1  0.09114660  0.89171085  0.60813640  1
  Zr  Zr40  1  0.41017125  0.20124660  0.74422119  1
  Zr  Zr41  1  0.79078515  0.80152335  0.49642437  1
  Zr  Zr42  1  0.68976297  0.90505252  0.37381239  1
  Zr  Zr43  1  0.69114650  0.47854268  0.63252283  1
  Zr  Zr44  1  0.29378153  0.89714908  0.61495078  1
  Zr  Zr45  1  0.31681789  0.29685911  0.37659027  1
  Zr  Zr46  1  0.38419734  0.81135790  0.25895333  1
  Zr  Zr47  1  0.39496499  0.01337373  -0.00459783  1
  Zr  Zr48  1  0.79252536  0.78232683  0.26199620  1
  Zr  Zr49  1  0.79587888  0.80236067  0.74045516  1
  Zr  Zr50  1  0.30919611  0.09136831  0.37687231  1
  Zr  Zr51  1  0.60485126  0.59281909  -0.01562532  1
  Zr  Zr52  1  0.41266281  0.40812432  -0.00181034  1
  Zr  Zr53  1  0.30339636  0.30650953  0.62546797  1
  Zr  Zr54  1  0.89396496  0.67816976  0.12599472  1
  Zr  Zr55  1  0.17166055  0.80679834  0.25414793  1
  Zr  Zr56  1  0.59574140  0.20093461  0.00426159  1
  Zr  Zr57  1  0.90256535  0.70635116  0.61499107  1
  Zr  Zr58  1  0.41787843  0.41333484  0.50282497  1
  Zr  Zr59  1  0.88904690  0.10375154  0.87521198  1
  Zr  Zr60  1  0.79455147  0.79761705  -0.00179443  1
  Zr  Zr61  1  0.80655511  0.21149303  0.23675661  1
  Zr  Zr62  1  0.19317454  0.58859946  -0.00403895  1
  Zr  Zr63  1  0.53034011  0.30695299  0.37120651  1
  Zr  Zr64  1  0.41668337  0.61060606  0.23881004  1
  Zr  Zr65  1  0.70400487  0.69572137  0.86841528  1
  Zr  Zr66  1  0.09913791  0.30294246  0.62864453  1
  Zr  Zr67  1  0.53340619  0.50001673  0.12849156  1
  Zr  Zr68  1  0.09337608  0.10586417  0.61296146  1
  Zr  Zr69  1  0.20594574  0.79540949  0.75776517  1
  Zr  Zr70  1  0.20814037  0.40289590  0.49002734  1
  Zr  Zr71  1  0.52570083  0.31422377  0.63714569  1
  Zr  Zr72  1  0.00184125  0.40057724  0.49720300  1
  Zr  Zr73  1  0.58725671  0.79356987  0.73879877  1
  Zr  Zr74  1  0.70924898  0.47604143  0.39707707  1
  Zr  Zr75  1  0.79738837  0.38563894  0.76995129  1
  Zr  Zr76  1  0.89283666  0.89765835  0.87544424  1
  Zr  Zr77  1  0.31562996  0.69817142  0.62891033  1
  Zr  Zr78  1  -0.00210572  0.00419634  0.74890377  1
  Zr  Zr79  1  0.00139822  0.41930683  -0.01719653  1
  Ta  Ta80  1  0.60147476  0.21207945  0.22910476  1
  Ta  Ta81  1  0.10721035  0.69609101  0.62857789  1
  Ta  Ta82  1  0.10352298  0.08902030  0.11450606  1
  Ta  Ta83  1  0.49529800  0.51824543  0.64804580  1
  Ta  Ta84  1  0.90183726  0.89763395  0.36608255  1
  Ta  Ta85  1  0.10611795  0.50062943  0.64259043  1
  Ta  Ta86  1  0.50395035  0.10612520  0.36446404  1
  Ta  Ta87  1  0.30095146  0.50038219  0.64125199  1
  Ta  Ta88  1  0.40262008  0.60890682  0.00899966  1
  Ta  Ta89  1  0.41353680  0.39633914  0.23353570  1
  Ta  Ta90  1  0.29632174  0.49124001  0.12953671  1
  Ta  Ta91  1  0.29556429  0.09809649  0.12831999  1
  Ta  Ta92  1  0.09379093  0.89715520  0.89052972  1
  Ta  Ta93  1  0.49842310  0.10784373  0.87110381  1
  Ta  Ta94  1  0.08916215  0.89731571  0.38839770  1
  Ta  Ta95  1  0.59123869  0.00795346  0.24120130  1
  Ta  Ta96  1  0.69129393  0.90927990  0.87126263  1
  Ta  Ta97  1  -0.00142688  0.60652061  0.74419488  1
  Ta  Ta98  1  0.28812804  0.69167645  0.36213426  1
  Ta  Ta99  1  0.01143975  -0.00527573  0.24818636  1
  Ta  Ta100  1  0.69449186  0.89828787  0.13518051  1
  Ta  Ta101  1  0.31662712  0.28921273  0.88063868  1
  Ta  Ta102  1  0.90330571  0.29882448  0.63260191  1
  Ta  Ta103  1  0.60995397  0.39758420  -0.03197925  1
  Ta  Ta104  1  0.40455469  0.20869593  0.01489115  1
  Ta  Ta105  1  0.48768210  0.91699143  0.36756805  1
  Ta  Ta106  1  0.69055170  0.90926492  0.61973829  1
  Ta  Ta107  1  0.21695040  0.19079205  -0.00366118  1
  Ta  Ta108  1  0.80977509  0.20361974  0.49724900  1
  Ta  Ta109  1  0.50024721  0.90112145  0.87170077  1
  Ta  Ta110  1  0.59479287  0.59767718  0.51392130  1
  Ta  Ta111  1  0.89505008  0.31151682  0.37743724  1
  Ta  Ta112  1  0.80431660  0.20085857  0.00928370  1
  Ta  Ta113  1  0.70440818  0.09791039  0.12760124  1
  Ta  Ta114  1  0.80033202  -0.00037403  0.24425483  1
  Ta  Ta115  1  0.20929669  0.39224614  -0.01448239  1
  Ta  Ta116  1  0.00150383  0.80290981  0.74982808  1
  Ta  Ta117  1  0.89082847  0.90691895  0.62367684  1
  Ta  Ta118  1  0.19197294  0.78613103  0.48867222  1
  Ta  Ta119  1  0.19627534  0.79015115  -0.00333520  1
  Ti  Ti120  1  0.78893047  0.60610969  0.73570913  1
  Ti  Ti121  1  0.89503009  0.52683040  0.86233404  1
  Ti  Ti122  1  0.89312099  0.69348108  0.38573526  1
  Ti  Ti123  1  0.58976000  0.79455643  0.50302066  1
  Ti  Ti124  1  0.59961931  0.00439294  0.75038818  1
  Ti  Ti125  1  0.62115413  0.20997006  0.50330812  1
  Ti  Ti126  1  0.90724809  0.29858224  0.88252595  1
  Ti  Ti127  1  0.40354631  0.40446364  0.76240065  1
  Ti  Ti128  1  0.10031054  0.49597118  0.36378931  1
  Ti  Ti129  1  0.49140557  0.89530457  0.62258261  1
  Ti  Ti130  1  0.00116355  0.20118729  0.00305096  1
  Ti  Ti131  1  0.47814967  0.70215381  0.86586631  1
  Ti  Ti132  1  0.68542875  0.67865297  0.38397992  1
  Ti  Ti133  1  0.52072178  0.10263520  0.63242543  1
  Ti  Ti134  1  0.00569513  0.20683589  0.24188648  1
  Ti  Ti135  1  -0.01291360  -0.00109996  0.00251921  1
  Ti  Ti136  1  0.79456568  0.00112876  0.01120320  1
  Ti  Ti137  1  0.78801439  0.00847806  0.50146608  1
  Ti  Ti138  1  0.28034481  0.90868100  0.37662766  1
  Ti  Ti139  1  0.08488525  0.69555440  0.12969542  1
  Ti  Ti140  1  0.62279366  0.20520689  0.76506174  1
  Ti  Ti141  1  0.79655954  0.58996259  0.51197293  1
  Ti  Ti142  1  0.90762110  0.09723128  0.12796464  1
  Ti  Ti143  1  0.72971248  0.51140709  0.12001893  1
  Ti  Ti144  1  0.09027574  0.29010814  0.37622533  1
  Ti  Ti145  1  0.40149184  0.00021681  0.50083470  1
  Ti  Ti146  1  0.30642585  0.50310671  0.35252484  1
  Ti  Ti147  1  0.19880407  0.20269900  0.49396043  1
  Ti  Ti148  1  0.20860073  0.59921996  0.75788012  1
  Ti  Ti149  1  0.39373632  0.79344456  0.00373986  1
  Ti  Ti150  1  -0.00902328  0.78056446  -0.00703184  1
  Ti  Ti151  1  0.09331131  0.49941741  0.86024170  1
  Ti  Ti152  1  0.00153120  0.21841066  0.76308398  1
  Ti  Ti153  1  0.50583612  0.51044944  0.85774908  1
  Ti  Ti154  1  0.70004446  0.09834356  0.88117186  1
  Ti  Ti155  1  0.80057191  0.41645195  -0.01949423  1
  Ti  Ti156  1  0.09038218  0.69810294  0.36886044  1
  Ti  Ti157  1  0.31091954  0.51272336  0.87366989  1
  Ti  Ti158  1  0.71624223  0.27960946  0.63353377  1
  Ti  Ti159  1  0.78374769  0.00573643  0.74474577  1
  Mo  Mo160  1  -0.00632708  0.20514783  0.49684491  1
  Mo  Mo161  1  0.00475106  0.38642998  0.26175144  1
  Mo  Mo162  1  0.50105052  0.70506826  0.62235168  1
  Mo  Mo163  1  0.80056493  0.38298486  0.51418642  1
  Mo  Mo164  1  0.71365350  0.28654279  0.88987917  1
  Mo  Mo165  1  0.79208624  0.59956604  0.26413823  1
  Mo  Mo166  1  0.89941473  0.49782784  0.11989451  1
  Mo  Mo167  1  -0.00428252  0.79605650  0.49055637  1
  Mo  Mo168  1  0.61392055  0.40031011  0.24439894  1
  Mo  Mo169  1  0.00092437  0.40281750  0.76615113  1
  Mo  Mo170  1  0.69351650  0.10165742  0.62695927  1
  Mo  Mo171  1  0.90266582  0.70017881  0.86212422  1
  Mo  Mo172  1  0.50665725  0.30993584  0.12082819  1
  Mo  Mo173  1  0.39400471  0.00639176  0.24959399  1
  Mo  Mo174  1  0.50419736  0.29827401  0.86849827  1
  Mo  Mo175  1  0.40040338  0.80640294  0.75424306  1
  Mo  Mo176  1  0.50051287  0.09939212  0.12955851  1
  Mo  Mo177  1  -0.00623729  0.60292147  -0.00690158  1
  Mo  Mo178  1  0.59692465  0.39460834  0.77394611  1
  Mo  Mo179  1  0.19273588  -0.00037700  0.24855828  1
  Mo  Mo180  1  0.68998165  0.69331300  0.61549934  1
  Mo  Mo181  1  0.10232093  0.29432334  0.89003114  1
  Mo  Mo182  1  0.39803182  0.60742822  0.75621748  1
  Mo  Mo183  1  0.20160449  -0.00870512  0.49714455  1
  Mo  Mo184  1  0.50352398  0.70417355  0.38052411  1
  Mo  Mo185  1  0.90302873  0.50275818  0.39385829  1
  Mo  Mo186  1  0.81325932  0.59249120  -0.01176208  1
  Mo  Mo187  1  0.30263445  0.69427785  0.88426021  1
  Mo  Mo188  1  0.19511258  0.59435579  0.25257110  1
  Mo  Mo189  1  0.30059144  0.30630433  0.11591540  1
  Mo  Mo190  1  0.80394982  0.19271862  0.75945031  1
  Mo  Mo191  1  0.49351489  0.70225058  0.11904257  1
  Mo  Mo192  1  0.60251878  0.39675147  0.51176416  1
  Mo  Mo193  1  -0.00960094  0.79682210  0.25873003  1
  Mo  Mo194  1  0.62516665  0.59562795  0.25456844  1
  Mo  Mo195  1  0.70254823  0.50101121  0.85821376  1
  Mo  Mo196  1  0.30830592  0.10078691  0.87716609  1
  Mo  Mo197  1  0.70944354  0.29108056  0.37442806  1
  Mo  Mo198  1  0.60024666  0.59925094  0.75040258  1
  Mo  Mo199  1  0.19264969  -0.00276364  -0.00512131  1
