# generated using pymatgen
data_HfZrTaTiMo
_symmetry_space_group_name_H-M   'P 1'
_cell_length_a   15.18007544
_cell_length_b   15.15799242
_cell_length_c   16.81621369
_cell_angle_alpha   89.98932360
_cell_angle_beta   90.04430124
_cell_angle_gamma   90.14663098
_symmetry_Int_Tables_number   1
_chemical_formula_structural   HfZrTaTiMo
_chemical_formula_sum   'Hf40 Zr40 Ta40 Ti40 Mo40'
_cell_volume   3869.38793852
_cell_formula_units_Z   40
loop_
 _symmetry_equiv_pos_site_id
 _symmetry_equiv_pos_as_xyz
  1  'x, y, z'
loop_
 _atom_site_type_symbol
 _atom_site_label
 _atom_site_symmetry_multiplicity
 _atom_site_fract_x
 _atom_site_fract_y
 _atom_site_fract_z
 _atom_site_occupancy
  Hf  Hf0  1  -0.01356185  0.81380003  -0.01432775  1
  Hf  Hf1  1  0.30792604  0.29710776  0.36411362  1
  Hf  Hf2  1  0.78939619  0.00735357  0.75917322  1
  Hf  Hf3  1  0.70151710  0.68292075  0.38123585  1
  Hf  Hf4  1  0.19671506  0.41455626  0.48595991  1
  Hf  Hf5  1  0.91464320  0.50753286  0.89154398  1
  Hf  Hf6  1  0.10484225  0.09880776  0.37317619  1
  Hf  Hf7  1  0.40400044  0.59974796  0.48297555  1
  Hf  Hf8  1  0.79428503  0.61787983  0.00562941  1
  Hf  Hf9  1  0.61561572  0.38307793  0.74804671  1
  Hf  Hf10  1  0.51013713  0.08564532  0.10973124  1
  Hf  Hf11  1  0.00640824  0.21459201  0.75169264  1
  Hf  Hf12  1  0.88686711  0.31214017  0.89831076  1
  Hf  Hf13  1  0.30450042  0.70106709  0.61760247  1
  Hf  Hf14  1  0.30149932  0.30660365  0.87238449  1
  Hf  Hf15  1  0.51371849  0.09316402  0.89597624  1
  Hf  Hf16  1  0.00622896  0.01159332  -0.00940421  1
  Hf  Hf17  1  0.30500298  0.31078386  0.13377612  1
  Hf  Hf18  1  0.59206528  0.79852425  0.50753404  1
  Hf  Hf19  1  0.41079987  0.19516615  0.76759424  1
  Hf  Hf20  1  0.19286206  0.81575687  0.73562790  1
  Hf  Hf21  1  0.59523752  0.58376001  0.74851099  1
  Hf  Hf22  1  0.08599803  0.70484627  0.11440184  1
  Hf  Hf23  1  0.79979797  0.56946716  0.73691870  1
  Hf  Hf24  1  0.88944408  0.51059548  0.37132312  1
  Hf  Hf25  1  0.32515916  0.10519229  0.62575795  1
  Hf  Hf26  1  0.40972205  0.19749886  0.23436264  1
  Hf  Hf27  1  0.29417174  0.90189283  0.36846716  1
  Hf  Hf28  1  -0.00956779  0.20711965  0.24556481  1
  Hf  Hf29  1  0.70897338  0.48906602  0.88790030  1
  Hf  Hf30  1  0.29361473  0.68966286  0.13654365  1
  Hf  Hf31  1  0.19051490  0.80163347  0.50858467  1
  Hf  Hf32  1  0.10316346  0.12457645  0.62496575  1
  Hf  Hf33  1  0.09816009  0.10119612  0.13187531  1
  Hf  Hf34  1  0.40535996  0.39405488  0.48948495  1
  Hf  Hf35  1  0.00505259  0.00237746  0.51081896  1
  Hf  Hf36  1  0.61037367  0.58482735  0.50385877  1
  Hf  Hf37  1  0.29229633  0.88999218  0.12875161  1
  Hf  Hf38  1  0.80533570  0.00098700  0.24499687  1
  Hf  Hf39  1  0.18209077  0.79581908  0.25530165  1
  Zr  Zr40  1  0.70622413  0.89194733  0.12483355  1
  Zr  Zr41  1  0.22219150  0.40876692  0.00403978  1
  Zr  Zr42  1  0.01036512  0.59515883  0.74469915  1
  Zr  Zr43  1  0.48271334  0.68528288  0.86571124  1
  Zr  Zr44  1  0.39794127  0.20914766  -0.00009904  1
  Zr  Zr45  1  0.28254589  0.09222338  0.87585647  1
  Zr  Zr46  1  0.90467660  0.89791230  0.64519467  1
  Zr  Zr47  1  0.78469012  0.00250611  0.51041098  1
  Zr  Zr48  1  0.40825937  0.41039871  0.75097843  1
  Zr  Zr49  1  0.89057650  0.11202568  0.62656638  1
  Zr  Zr50  1  0.49825361  0.48617907  0.14903196  1
  Zr  Zr51  1  0.39732297  0.81209295  0.49776122  1
  Zr  Zr52  1  0.21327944  -0.00730676  0.51852244  1
  Zr  Zr53  1  0.70073127  0.10035072  0.36553406  1
  Zr  Zr54  1  0.90770198  0.31128590  0.61467855  1
  Zr  Zr55  1  0.50192620  0.68644302  0.13111882  1
  Zr  Zr56  1  0.50302428  0.88490933  0.12694635  1
  Zr  Zr57  1  0.90281644  0.11309140  0.38197642  1
  Zr  Zr58  1  0.29798129  0.50541037  0.62093738  1
  Zr  Zr59  1  0.90746129  0.51708481  0.11941069  1
  Zr  Zr60  1  0.90736553  0.10909188  0.87511754  1
  Zr  Zr61  1  0.79478734  0.79609571  0.51588078  1
  Zr  Zr62  1  0.50612867  0.90380992  0.36449594  1
  Zr  Zr63  1  0.17373032  0.40906961  0.75581155  1
  Zr  Zr64  1  0.02056102  0.41669479  0.01126757  1
  Zr  Zr65  1  0.09276883  0.29482518  0.88654542  1
  Zr  Zr66  1  0.68377377  0.28906302  0.90160001  1
  Zr  Zr67  1  0.89089456  0.70545478  0.85843887  1
  Zr  Zr68  1  0.39465937  0.57935943  0.00503428  1
  Zr  Zr69  1  0.59986688  0.18225731  0.50192296  1
  Zr  Zr70  1  0.70068903  0.89676568  0.37132189  1
  Zr  Zr71  1  0.39626786  -0.02394165  -0.00533173  1
  Zr  Zr72  1  0.19842909  0.21109048  0.49501394  1
  Zr  Zr73  1  0.31277700  0.09601013  0.37842668  1
  Zr  Zr74  1  -0.00755187  0.62129490  0.25303004  1
  Zr  Zr75  1  0.21087797  0.61273591  0.75786713  1
  Zr  Zr76  1  0.49463381  0.28116968  0.62083586  1
  Zr  Zr77  1  0.50811025  0.09802901  0.36192513  1
  Zr  Zr78  1  0.28127979  0.29929600  0.63659195  1
  Zr  Zr79  1  0.19106425  0.60310437  -0.01199603  1
  Ta  Ta80  1  0.10044390  0.51442174  0.37023346  1
  Ta  Ta81  1  0.50913508  0.49683966  0.35762684  1
  Ta  Ta82  1  0.60510566  0.38947215  0.49720474  1
  Ta  Ta83  1  0.29678732  0.09643639  0.12203984  1
  Ta  Ta84  1  0.60978978  0.78011018  0.25190450  1
  Ta  Ta85  1  0.60673332  0.18342317  0.75556354  1
  Ta  Ta86  1  0.70722903  0.29301666  0.62286622  1
  Ta  Ta87  1  0.09627579  0.71018206  0.87476121  1
  Ta  Ta88  1  -0.00227750  0.80218341  0.50811718  1
  Ta  Ta89  1  0.80803646  0.79593179  0.25350654  1
  Ta  Ta90  1  0.68512546  0.70294046  0.86225419  1
  Ta  Ta91  1  0.08880516  0.90272510  0.12359018  1
  Ta  Ta92  1  0.19679469  0.40375026  0.26196453  1
  Ta  Ta93  1  0.49922035  0.69523021  0.63349862  1
  Ta  Ta94  1  0.51644622  0.88542339  0.86540636  1
  Ta  Ta95  1  0.79303852  0.21584340  0.75742757  1
  Ta  Ta96  1  0.50412531  0.49583774  0.61963134  1
  Ta  Ta97  1  0.59762670  0.59625187  -0.00367458  1
  Ta  Ta98  1  0.90282396  0.90148211  0.38229987  1
  Ta  Ta99  1  0.78675738  0.61144782  0.23681258  1
  Ta  Ta100  1  0.90162153  0.30109681  0.11152830  1
  Ta  Ta101  1  0.18732544  0.19745925  0.00920934  1
  Ta  Ta102  1  0.90051480  0.69409285  0.63113627  1
  Ta  Ta103  1  0.11591276  0.50986395  0.14180515  1
  Ta  Ta104  1  -0.00116983  -0.00461581  0.25033217  1
  Ta  Ta105  1  0.51725237  0.29871441  0.36330610  1
  Ta  Ta106  1  0.28289878  0.68706686  0.37676393  1
  Ta  Ta107  1  0.10444571  0.91247455  0.86551123  1
  Ta  Ta108  1  0.09146660  0.90065752  0.37690621  1
  Ta  Ta109  1  0.39897712  0.78658012  0.26330195  1
  Ta  Ta110  1  0.80065759  0.40002027  0.23288518  1
  Ta  Ta111  1  0.89893619  0.09375226  0.11880983  1
  Ta  Ta112  1  0.08805579  0.30362729  0.36660855  1
  Ta  Ta113  1  0.19962126  0.20065321  0.24732703  1
  Ta  Ta114  1  0.79109705  0.41585581  0.49830113  1
  Ta  Ta115  1  0.89524419  0.70899700  0.38457137  1
  Ta  Ta116  1  0.70712542  0.30089656  0.36574739  1
  Ta  Ta117  1  0.39928810  -0.00593799  0.23733561  1
  Ta  Ta118  1  0.61443750  0.19888180  0.22773605  1
  Ta  Ta119  1  0.78516299  0.81241891  -0.01904942  1
  Ti  Ti120  1  0.49665526  0.90418123  0.64027141  1
  Ti  Ti121  1  0.80063732  0.21365053  0.49616758  1
  Ti  Ti122  1  -0.00666287  0.60094023  0.50245695  1
  Ti  Ti123  1  0.79903242  0.20807943  0.23414761  1
  Ti  Ti124  1  0.39580586  0.79577209  0.74841955  1
  Ti  Ti125  1  0.08807323  0.70399926  0.38600206  1
  Ti  Ti126  1  0.81026138  -0.01227212  -0.01106151  1
  Ti  Ti127  1  0.69024889  0.50354481  0.12400776  1
  Ti  Ti128  1  -0.02134859  0.40792633  0.74958295  1
  Ti  Ti129  1  0.30090260  0.88795402  0.86839535  1
  Ti  Ti130  1  0.51138928  0.30232833  0.11493214  1
  Ti  Ti131  1  0.69760695  0.68907365  0.63244290  1
  Ti  Ti132  1  0.88646993  0.72872107  0.11751339  1
  Ti  Ti133  1  0.30936805  0.51297001  0.86728302  1
  Ti  Ti134  1  0.30650413  0.50198011  0.15694464  1
  Ti  Ti135  1  0.70016106  0.09101205  0.89112063  1
  Ti  Ti136  1  -0.00286166  0.40702715  0.24627140  1
  Ti  Ti137  1  0.39212426  0.78265683  -0.00746718  1
  Ti  Ti138  1  -0.01203769  0.81209650  0.25035413  1
  Ti  Ti139  1  0.01286893  0.00345332  0.75025846  1
  Ti  Ti140  1  -0.00190710  0.40240948  0.48986934  1
  Ti  Ti141  1  0.19813266  0.80809977  -0.00736546  1
  Ti  Ti142  1  0.09299617  0.69924007  0.62229280  1
  Ti  Ti143  1  0.89347910  0.31239508  0.37298154  1
  Ti  Ti144  1  0.70114072  0.30571893  0.10840880  1
  Ti  Ti145  1  0.20531383  0.01136643  0.73732031  1
  Ti  Ti146  1  0.08970076  0.49654812  0.61261224  1
  Ti  Ti147  1  0.78827859  0.79769884  0.74892448  1
  Ti  Ti148  1  0.68574534  0.09470964  0.63203256  1
  Ti  Ti149  1  0.42953947  0.00926800  0.50899673  1
  Ti  Ti150  1  0.50455902  0.47654024  0.88243062  1
  Ti  Ti151  1  0.40633493  -0.00628386  0.75801545  1
  Ti  Ti152  1  0.80518335  0.19060379  0.00904530  1
  Ti  Ti153  1  0.19815405  -0.00009429  0.24641774  1
  Ti  Ti154  1  0.10268798  0.30761354  0.13200714  1
  Ti  Ti155  1  0.69692532  0.48670159  0.35791381  1
  Ti  Ti156  1  0.68197153  0.89885524  0.64222931  1
  Ti  Ti157  1  0.70249376  0.08976945  0.11198418  1
  Ti  Ti158  1  0.19670598  -0.00302298  0.00132847  1
  Ti  Ti159  1  0.59979560  0.78896201  -0.00431911  1
  Mo  Mo160  1  0.59994070  -0.01517358  0.51139900  1
  Mo  Mo161  1  0.09866619  0.90618019  0.63139442  1
  Mo  Mo162  1  0.69975112  0.89385885  0.86754851  1
  Mo  Mo163  1  0.40604028  0.40264949  0.00063601  1
  Mo  Mo164  1  0.60838807  0.59415622  0.25344087  1
  Mo  Mo165  1  0.50912141  0.08579052  0.63716265  1
  Mo  Mo166  1  0.60901029  0.19104069  0.01862534  1
  Mo  Mo167  1  0.90347603  0.90286386  0.85313493  1
  Mo  Mo168  1  0.40886506  0.20150988  0.49623494  1
  Mo  Mo169  1  0.79793254  0.40826089  0.02337613  1
  Mo  Mo170  1  0.19151697  0.60363951  0.25441314  1
  Mo  Mo171  1  0.29852514  0.50225316  0.36573837  1
  Mo  Mo172  1  0.59163450  0.40695111  0.00846633  1
  Mo  Mo173  1  0.18608082  0.60414193  0.49860888  1
  Mo  Mo174  1  0.69829521  0.48249714  0.62226698  1
  Mo  Mo175  1  0.19948469  0.20050806  0.74975818  1
  Mo  Mo176  1  0.10266492  0.50365346  0.87304185  1
  Mo  Mo177  1  0.60003663  -0.00192525  0.23925439  1
  Mo  Mo178  1  0.62148522  -0.02488332  -0.01096349  1
  Mo  Mo179  1  0.00052912  0.80470111  0.75423135  1
  Mo  Mo180  1  0.80578866  0.38926656  0.75410581  1
  Mo  Mo181  1  0.61470954  0.38401880  0.24318285  1
  Mo  Mo182  1  0.29441315  0.71369829  0.87261101  1
  Mo  Mo183  1  0.00224616  0.61923486  -0.00014135  1
  Mo  Mo184  1  0.50234657  0.69557956  0.36927856  1
  Mo  Mo185  1  0.39844823  0.60118009  0.27288344  1
  Mo  Mo186  1  0.90303281  0.90356214  0.12083453  1
  Mo  Mo187  1  0.40423583  0.59927655  0.74456998  1
  Mo  Mo188  1  0.00126952  0.20333253  0.01460871  1
  Mo  Mo189  1  0.59603401  0.00021830  0.76079046  1
  Mo  Mo190  1  0.10742639  0.10117671  0.86929597  1
  Mo  Mo191  1  0.40442839  0.39318438  0.26297646  1
  Mo  Mo192  1  0.80478370  0.59765476  0.51358593  1
  Mo  Mo193  1  0.59640235  0.79292124  0.73987975  1
  Mo  Mo194  1  0.50601648  0.29725102  0.88476478  1
  Mo  Mo195  1  0.09144755  0.31772738  0.61862684  1
  Mo  Mo196  1  0.69689588  0.69909289  0.11864400  1
  Mo  Mo197  1  0.31371454  0.90720192  0.63513061  1
  Mo  Mo198  1  0.90473041  0.50122683  0.61155580  1
  Mo  Mo199  1  -0.00130226  0.21424847  0.48611791  1
