# generated using pymatgen
data_HfZrTaTiMo
_symmetry_space_group_name_H-M   'P 1'
_cell_length_a   15.22004916
_cell_length_b   15.20885878
_cell_length_c   16.83578671
_cell_angle_alpha   90.04325130
_cell_angle_beta   89.99080808
_cell_angle_gamma   90.02659845
_symmetry_Int_Tables_number   1
_chemical_formula_structural   HfZrTaTiMo
_chemical_formula_sum   'Hf40 Zr40 Ta40 Ti40 Mo40'
_cell_volume   3897.13922943
_cell_formula_units_Z   40
loop_
 _symmetry_equiv_pos_site_id
 _symmetry_equiv_pos_as_xyz
  1  'x, y, z'
loop_
 _atom_site_type_symbol
 _atom_site_label
 _atom_site_symmetry_multiplicity
 _atom_site_fract_x
 _atom_site_fract_y
 _atom_site_fract_z
 _atom_site_occupancy
  Hf  Hf0  1  0.61247797  0.39627805  0.25543309  1
  Hf  Hf1  1  0.59972334  0.40264738  -0.01394056  1
  Hf  Hf2  1  0.39868475  -0.00272266  0.48742493  1
  Hf  Hf3  1  0.40967686  0.61109283  0.73551055  1
  Hf  Hf4  1  -0.00156106  0.38352355  0.51596620  1
  Hf  Hf5  1  0.28992589  0.89779929  0.88551377  1
  Hf  Hf6  1  0.39127294  0.41217548  -0.00881874  1
  Hf  Hf7  1  0.50675923  0.70168126  0.14590344  1
  Hf  Hf8  1  0.61372475  0.60927453  -0.00138588  1
  Hf  Hf9  1  0.28994886  0.90258375  0.61925604  1
  Hf  Hf10  1  0.20098362  0.80218118  0.74388898  1
  Hf  Hf11  1  0.29519060  0.50678899  0.86912769  1
  Hf  Hf12  1  0.80477235  -0.01428208  0.74131410  1
  Hf  Hf13  1  0.19089785  0.00430224  0.75736001  1
  Hf  Hf14  1  -0.00278917  0.80067613  0.48967493  1
  Hf  Hf15  1  0.89803952  0.88730081  0.12728863  1
  Hf  Hf16  1  0.61801369  0.01112639  0.25214738  1
  Hf  Hf17  1  -0.00019017  0.00092011  -0.01117651  1
  Hf  Hf18  1  0.49316231  0.88720174  0.61887405  1
  Hf  Hf19  1  0.61186664  -0.00117014  0.51105201  1
  Hf  Hf20  1  0.29304755  0.32117679  0.12390583  1
  Hf  Hf21  1  0.78918741  0.19422889  0.24537213  1
  Hf  Hf22  1  0.89689443  0.87952642  0.87204970  1
  Hf  Hf23  1  0.80308179  0.76823058  0.00228926  1
  Hf  Hf24  1  0.18846211  0.00551652  0.48643633  1
  Hf  Hf25  1  0.70340171  0.29988080  0.11715901  1
  Hf  Hf26  1  0.70795128  0.49341275  0.38588063  1
  Hf  Hf27  1  0.39596573  0.79802005  0.01134146  1
  Hf  Hf28  1  0.79673596  0.38348580  0.50994104  1
  Hf  Hf29  1  0.20160021  0.21768042  0.25488153  1
  Hf  Hf30  1  0.71576122  0.50377724  0.12181304  1
  Hf  Hf31  1  0.18460979  0.42311084  0.24991302  1
  Hf  Hf32  1  0.09529791  0.90727098  0.13794205  1
  Hf  Hf33  1  0.89845803  0.28764174  0.37585252  1
  Hf  Hf34  1  0.29001608  0.52535010  0.38844801  1
  Hf  Hf35  1  0.50330614  0.49927460  0.13157351  1
  Hf  Hf36  1  0.68434249  0.69724889  0.36225235  1
  Hf  Hf37  1  0.50593394  0.51402077  0.37689313  1
  Hf  Hf38  1  0.29334841  0.90415504  0.13576588  1
  Hf  Hf39  1  0.59544242  0.19625649  -0.01733404  1
  Zr  Zr40  1  0.10734287  0.68909828  0.37655285  1
  Zr  Zr41  1  0.60678165  -0.00725560  0.73033305  1
  Zr  Zr42  1  0.89545365  0.30146404  0.85541225  1
  Zr  Zr43  1  0.08843437  0.49673521  0.39315150  1
  Zr  Zr44  1  0.79707972  -0.01381127  -0.00025073  1
  Zr  Zr45  1  0.89431209  0.28060560  0.64557360  1
  Zr  Zr46  1  0.38782535  0.39920320  0.26652370  1
  Zr  Zr47  1  0.50782904  0.89544710  0.36557726  1
  Zr  Zr48  1  0.00577075  0.78787000  0.74854731  1
  Zr  Zr49  1  -0.00186726  0.42013755  0.73804005  1
  Zr  Zr50  1  0.58763177  0.19701473  0.75810939  1
  Zr  Zr51  1  0.59828475  0.41189467  0.75513809  1
  Zr  Zr52  1  0.19797345  0.21100536  0.49640436  1
  Zr  Zr53  1  -0.00323578  0.17628607  0.23463376  1
  Zr  Zr54  1  -0.00781188  0.59792793  0.01668421  1
  Zr  Zr55  1  0.40872644  0.20840427  0.49544993  1
  Zr  Zr56  1  0.22310489  0.79740920  0.48481545  1
  Zr  Zr57  1  0.29961420  0.11295921  0.62668170  1
  Zr  Zr58  1  0.50672503  0.90701182  0.14008095  1
  Zr  Zr59  1  0.50630955  0.91244840  0.87023527  1
  Zr  Zr60  1  0.40182478  0.01308458  0.75032515  1
  Zr  Zr61  1  0.49899853  0.29906357  0.13010560  1
  Zr  Zr62  1  0.40043960  0.21485778  -0.01883281  1
  Zr  Zr63  1  -0.00996463  0.39417782  -0.00908734  1
  Zr  Zr64  1  0.18771997  0.21471871  -0.00980146  1
  Zr  Zr65  1  -0.00326829  0.19325831  -0.00412440  1
  Zr  Zr66  1  0.61110469  0.81053231  0.00884687  1
  Zr  Zr67  1  0.10381232  0.70549213  0.60417189  1
  Zr  Zr68  1  0.20377039  0.60715446  0.02043649  1
  Zr  Zr69  1  0.19201315  0.60021418  0.73367051  1
  Zr  Zr70  1  0.79028583  0.79235872  0.50441297  1
  Zr  Zr71  1  0.18754269  0.02034935  0.25881770  1
  Zr  Zr72  1  0.29760340  0.11159474  0.12378882  1
  Zr  Zr73  1  0.39678380  0.40840142  0.49870527  1
  Zr  Zr74  1  0.51087611  0.71195159  0.87039494  1
  Zr  Zr75  1  0.08731076  0.51648037  0.87221278  1
  Zr  Zr76  1  0.70632606  0.50315197  0.61955635  1
  Zr  Zr77  1  0.40600584  0.01111969  0.00103305  1
  Zr  Zr78  1  0.70468309  0.08707149  0.87153705  1
  Zr  Zr79  1  0.30204114  0.69865962  0.87896668  1
  Ta  Ta80  1  0.50310363  0.51689149  0.87168618  1
  Ta  Ta81  1  0.50388331  0.50975859  0.61988999  1
  Ta  Ta82  1  0.81058333  0.00205240  0.24185647  1
  Ta  Ta83  1  0.40176561  0.63230405  0.50770168  1
  Ta  Ta84  1  0.38899086  0.59830274  0.24516976  1
  Ta  Ta85  1  0.39783110  0.40819522  0.75027926  1
  Ta  Ta86  1  0.58845054  0.78927080  0.50111337  1
  Ta  Ta87  1  0.80624802  0.59040329  0.25623375  1
  Ta  Ta88  1  0.70730568  0.90434541  0.37738452  1
  Ta  Ta89  1  0.30307678  0.11014120  0.37425692  1
  Ta  Ta90  1  -0.00599344  0.78503934  0.25882177  1
  Ta  Ta91  1  0.09416071  0.09522069  0.63073761  1
  Ta  Ta92  1  0.79767623  0.80138688  0.25433810  1
  Ta  Ta93  1  0.00142096  0.57931627  0.24310790  1
  Ta  Ta94  1  0.51134913  0.30017667  0.37726057  1
  Ta  Ta95  1  0.71177334  0.09797392  0.38655677  1
  Ta  Ta96  1  0.40613346  0.20326812  0.26442170  1
  Ta  Ta97  1  0.40310479  0.01449787  0.25887963  1
  Ta  Ta98  1  0.09312298  0.29702132  0.37216769  1
  Ta  Ta99  1  0.91258060  0.88975255  0.62662579  1
  Ta  Ta100  1  0.80614091  0.19996936  -0.00204885  1
  Ta  Ta101  1  0.70252782  0.70047921  0.14601114  1
  Ta  Ta102  1  0.29352872  0.10517108  0.87678077  1
  Ta  Ta103  1  0.50709525  0.11145254  0.13408187  1
  Ta  Ta104  1  0.70126077  0.09642186  0.11545813  1
  Ta  Ta105  1  0.00874241  0.79581340  -0.00027657  1
  Ta  Ta106  1  0.39391714  0.21796491  0.76803079  1
  Ta  Ta107  1  0.79872301  0.78084125  0.73526213  1
  Ta  Ta108  1  0.08062826  0.31322935  0.13125393  1
  Ta  Ta109  1  0.89889711  0.67527655  0.61614649  1
  Ta  Ta110  1  0.08971490  0.90445991  0.36023933  1
  Ta  Ta111  1  0.69991353  0.87688657  0.86462274  1
  Ta  Ta112  1  0.30109915  0.30884818  0.63547256  1
  Ta  Ta113  1  0.90577905  0.67330497  0.86959934  1
  Ta  Ta114  1  0.90225096  0.08538587  0.37825663  1
  Ta  Ta115  1  -0.00320432  -0.00290898  0.50084516  1
  Ta  Ta116  1  0.00190446  0.18627118  0.50295746  1
  Ta  Ta117  1  0.00348396  -0.00691991  0.76350846  1
  Ta  Ta118  1  0.89526408  0.89644714  0.37085398  1
  Ta  Ta119  1  0.70858286  0.30249612  0.86725398  1
  Ti  Ti120  1  0.90161081  0.49287423  0.38108748  1
  Ti  Ti121  1  0.18675201  0.40905682  -0.00071733  1
  Ti  Ti122  1  0.01023252  0.18560266  0.76663547  1
  Ti  Ti123  1  0.89479406  0.68326018  0.13654053  1
  Ti  Ti124  1  0.60053605  0.00175831  0.00400254  1
  Ti  Ti125  1  0.30239659  0.89346448  0.35395674  1
  Ti  Ti126  1  0.09611987  0.71114680  0.13505114  1
  Ti  Ti127  1  0.49534575  0.30587802  0.62969335  1
  Ti  Ti128  1  0.19610497  0.61029931  0.23922612  1
  Ti  Ti129  1  0.89430829  0.68477982  0.37585587  1
  Ti  Ti130  1  0.48605936  0.70501204  0.35745624  1
  Ti  Ti131  1  0.20111630  0.39794878  0.50623796  1
  Ti  Ti132  1  0.40548633  0.60238233  0.01180512  1
  Ti  Ti133  1  0.69464526  0.29342668  0.64010956  1
  Ti  Ti134  1  0.61222257  0.20513978  0.51009762  1
  Ti  Ti135  1  0.90706983  0.47247732  0.13001886  1
  Ti  Ti136  1  0.10531943  0.28919924  0.63491428  1
  Ti  Ti137  1  0.81265706  0.57960407  0.74480257  1
  Ti  Ti138  1  0.39870690  0.80568647  0.74822548  1
  Ti  Ti139  1  0.29732976  0.71129925  0.14026372  1
  Ti  Ti140  1  0.60109410  0.60529845  0.50047559  1
  Ti  Ti141  1  0.69428885  0.69033327  0.62609280  1
  Ti  Ti142  1  0.51680607  0.10765344  0.37720360  1
  Ti  Ti143  1  0.90872089  0.09051671  0.63388847  1
  Ti  Ti144  1  0.49960658  0.11000483  0.62040792  1
  Ti  Ti145  1  0.29862412  0.50834848  0.61768245  1
  Ti  Ti146  1  0.09099641  0.51055184  0.60855800  1
  Ti  Ti147  1  0.80731792  0.18491837  0.50588213  1
  Ti  Ti148  1  0.19755131  0.20750731  0.76332110  1
  Ti  Ti149  1  0.71275154  0.10481028  0.62901389  1
  Ti  Ti150  1  0.59554705  0.39442820  0.50610641  1
  Ti  Ti151  1  0.81473230  0.39415570  0.25305730  1
  Ti  Ti152  1  0.80763336  -0.00774747  0.51309260  1
  Ti  Ti153  1  0.72051424  0.49985272  0.87458602  1
  Ti  Ti154  1  0.18892174  0.00536491  -0.00113178  1
  Ti  Ti155  1  0.19933926  0.39838740  0.74613415  1
  Ti  Ti156  1  0.60388479  0.79014034  0.73561276  1
  Ti  Ti157  1  0.10524101  0.71087659  0.88254496  1
  Ti  Ti158  1  0.69790023  0.28716338  0.38000084  1
  Ti  Ti159  1  0.71177680  0.68714462  0.86181298  1
  Mo  Mo160  1  0.09793562  0.49856226  0.12785630  1
  Mo  Mo161  1  0.80392541  0.58889108  0.00280520  1
  Mo  Mo162  1  0.79235194  0.39618769  0.74227684  1
  Mo  Mo163  1  0.89881614  0.09514518  0.86075256  1
  Mo  Mo164  1  0.08844667  0.10667347  0.37906111  1
  Mo  Mo165  1  0.29542530  0.30860524  0.37563180  1
  Mo  Mo166  1  0.28837732  0.31617603  0.86489768  1
  Mo  Mo167  1  0.79717440  0.18615490  0.74902828  1
  Mo  Mo168  1  -0.01188173  0.59570559  0.49573624  1
  Mo  Mo169  1  0.30753026  0.70461342  0.35782746  1
  Mo  Mo170  1  0.10254395  0.89162473  0.88469205  1
  Mo  Mo171  1  0.09227647  0.91245916  0.61970566  1
  Mo  Mo172  1  -0.00778639  0.39021366  0.25479792  1
  Mo  Mo173  1  0.89069707  0.29616567  0.12336672  1
  Mo  Mo174  1  0.89994554  0.49832555  0.61346314  1
  Mo  Mo175  1  0.40640529  0.80531346  0.48903698  1
  Mo  Mo176  1  -0.00328400  0.60701659  0.74177698  1
  Mo  Mo177  1  0.20755984  0.59542109  0.51316026  1
  Mo  Mo178  1  0.29977620  0.51284068  0.12620322  1
  Mo  Mo179  1  0.49405250  0.10430159  0.87172021  1
  Mo  Mo180  1  0.60104207  0.59412243  0.25253708  1
  Mo  Mo181  1  0.49686778  0.31899038  0.86896499  1
  Mo  Mo182  1  0.88881792  0.50049563  0.87220015  1
  Mo  Mo183  1  0.89317559  0.09616813  0.11828706  1
  Mo  Mo184  1  0.10636553  0.30799585  0.86123403  1
  Mo  Mo185  1  0.51055730  0.69734072  0.62723025  1
  Mo  Mo186  1  0.79836162  0.39434979  -0.00438613  1
  Mo  Mo187  1  0.70473321  0.89701027  0.13082140  1
  Mo  Mo188  1  0.61495576  0.60602621  0.75623206  1
  Mo  Mo189  1  0.19381320  0.79938121  0.25819040  1
  Mo  Mo190  1  0.59877754  0.19756883  0.25596927  1
  Mo  Mo191  1  0.60759460  0.80461506  0.25304125  1
  Mo  Mo192  1  0.10291164  0.09655726  0.87109011  1
  Mo  Mo193  1  0.70629187  0.88512103  0.61939096  1
  Mo  Mo194  1  0.18922468  0.80868646  0.00852492  1
  Mo  Mo195  1  0.79863914  0.59686081  0.48915696  1
  Mo  Mo196  1  0.39411445  0.80349471  0.24588038  1
  Mo  Mo197  1  0.10009879  0.10124249  0.11896942  1
  Mo  Mo198  1  -0.01126463  -0.00821987  0.25069064  1
  Mo  Mo199  1  0.31413490  0.71138708  0.62415323  1
