# generated using pymatgen
data_HfZrTaTiMo
_symmetry_space_group_name_H-M   'P 1'
_cell_length_a   15.20618675
_cell_length_b   15.22143433
_cell_length_c   16.85540306
_cell_angle_alpha   90.02888766
_cell_angle_beta   90.05829178
_cell_angle_gamma   90.00421833
_symmetry_Int_Tables_number   1
_chemical_formula_structural   HfZrTaTiMo
_chemical_formula_sum   'Hf40 Zr40 Ta40 Ti40 Mo40'
_cell_volume   3901.34860900
_cell_formula_units_Z   40
loop_
 _symmetry_equiv_pos_site_id
 _symmetry_equiv_pos_as_xyz
  1  'x, y, z'
loop_
 _atom_site_type_symbol
 _atom_site_label
 _atom_site_symmetry_multiplicity
 _atom_site_fract_x
 _atom_site_fract_y
 _atom_site_fract_z
 _atom_site_occupancy
  Hf  Hf0  1  0.79605994  0.38393035  0.24050906  1
  Hf  Hf1  1  0.72032627  0.68961384  0.62191160  1
  Hf  Hf2  1  0.19524782  -0.00129027  0.51488794  1
  Hf  Hf3  1  0.01167574  0.01019722  0.24112521  1
  Hf  Hf4  1  0.69404803  0.28458882  0.38185717  1
  Hf  Hf5  1  0.10333440  0.48817572  0.63678227  1
  Hf  Hf6  1  0.30394392  0.71580481  0.61941943  1
  Hf  Hf7  1  0.49877964  0.09514069  0.10903687  1
  Hf  Hf8  1  0.80557251  0.60588279  -0.01497658  1
  Hf  Hf9  1  0.18993169  0.40363108  0.49358721  1
  Hf  Hf10  1  0.09741574  0.68892564  0.62481892  1
  Hf  Hf11  1  0.70727255  0.69174363  0.13323453  1
  Hf  Hf12  1  0.48829826  0.08877525  0.88497384  1
  Hf  Hf13  1  0.57838646  0.58862147  0.26269971  1
  Hf  Hf14  1  0.38735147  0.40379548  0.75790000  1
  Hf  Hf15  1  0.49317605  0.88906277  0.37942389  1
  Hf  Hf16  1  0.61058880  0.79801346  0.49506611  1
  Hf  Hf17  1  0.70047068  0.49369777  0.12653031  1
  Hf  Hf18  1  0.90442707  0.89606048  0.36427753  1
  Hf  Hf19  1  0.80052680  0.40521540  0.51341747  1
  Hf  Hf20  1  0.38830839  0.00372130  0.49429738  1
  Hf  Hf21  1  0.59841663  0.78440741  0.74658263  1
  Hf  Hf22  1  -0.00464227  0.41473178  0.25224726  1
  Hf  Hf23  1  0.50054783  0.69346402  0.60211715  1
  Hf  Hf24  1  0.30958495  0.11643404  0.63456804  1
  Hf  Hf25  1  0.80396241  -0.01913329  0.00303487  1
  Hf  Hf26  1  0.59914314  -0.00116128  0.50196327  1
  Hf  Hf27  1  0.90013699  0.51509885  0.63655686  1
  Hf  Hf28  1  0.47823908  0.28649931  0.63382480  1
  Hf  Hf29  1  0.79486637  -0.00324385  0.49873701  1
  Hf  Hf30  1  0.89343449  0.30586536  0.38148282  1
  Hf  Hf31  1  0.49557211  0.49381707  0.61854273  1
  Hf  Hf32  1  0.00835471  0.60843383  0.25932962  1
  Hf  Hf33  1  0.91348278  0.88962054  0.13418694  1
  Hf  Hf34  1  0.00316863  0.61255039  0.76715041  1
  Hf  Hf35  1  0.59438606  0.18905034  0.75347290  1
  Hf  Hf36  1  0.71395964  0.90017659  0.63802080  1
  Hf  Hf37  1  0.70881254  0.69299699  0.37298046  1
  Hf  Hf38  1  0.59900120  0.79580506  0.25830898  1
  Hf  Hf39  1  0.71937487  0.88914483  0.85924676  1
  Zr  Zr40  1  -0.00210959  0.79126117  0.50390307  1
  Zr  Zr41  1  0.19542306  0.81541231  -0.00786867  1
  Zr  Zr42  1  0.38547126  0.39490800  -0.00758166  1
  Zr  Zr43  1  0.08714416  0.10906115  0.63001666  1
  Zr  Zr44  1  0.28683422  0.89750012  0.13886967  1
  Zr  Zr45  1  0.81662506  0.39769636  -0.00881054  1
  Zr  Zr46  1  0.11265439  0.70958643  0.37578213  1
  Zr  Zr47  1  0.87678763  0.11270515  0.62002493  1
  Zr  Zr48  1  0.42767858  0.40402721  0.25540993  1
  Zr  Zr49  1  0.60802973  0.39925959  -0.01337818  1
  Zr  Zr50  1  -0.00576334  0.21071685  0.24547354  1
  Zr  Zr51  1  0.89661617  0.10814107  0.11188005  1
  Zr  Zr52  1  0.29498993  0.49888514  0.12777162  1
  Zr  Zr53  1  0.58905280  0.38198952  0.50810759  1
  Zr  Zr54  1  0.30316141  0.30361491  0.36877876  1
  Zr  Zr55  1  0.40746119  0.61823885  0.74907950  1
  Zr  Zr56  1  0.69201276  0.09058242  0.11082255  1
  Zr  Zr57  1  0.49839331  0.50526899  0.88037315  1
  Zr  Zr58  1  0.48041337  0.89250736  0.62344030  1
  Zr  Zr59  1  0.90519285  0.10563995  0.38699584  1
  Zr  Zr60  1  0.31161234  0.70722298  0.88072195  1
  Zr  Zr61  1  0.50030203  0.89138329  0.87472205  1
  Zr  Zr62  1  0.50273457  0.69490627  0.11159104  1
  Zr  Zr63  1  0.50277102  0.89643814  0.12609223  1
  Zr  Zr64  1  0.61077866  0.39628153  0.75040668  1
  Zr  Zr65  1  0.00561300  0.79093321  -0.00199410  1
  Zr  Zr66  1  0.71356658  0.28301921  0.62633905  1
  Zr  Zr67  1  0.29201881  0.29804233  0.13752055  1
  Zr  Zr68  1  0.10486862  0.91352438  0.37115080  1
  Zr  Zr69  1  0.59913557  0.20872390  0.24738898  1
  Zr  Zr70  1  0.20083051  0.20219572  0.50047674  1
  Zr  Zr71  1  0.39904237  0.19259680  0.25143386  1
  Zr  Zr72  1  0.38106311  0.19286455  -0.00482764  1
  Zr  Zr73  1  0.09937731  0.09528373  0.86398060  1
  Zr  Zr74  1  0.68940178  0.09366830  0.89454033  1
  Zr  Zr75  1  0.69783760  0.48289220  0.36789645  1
  Zr  Zr76  1  0.49816328  0.50477639  0.10853555  1
  Zr  Zr77  1  0.30082894  0.69290772  0.11312151  1
  Zr  Zr78  1  0.18963549  0.20434829  -0.00575047  1
  Zr  Zr79  1  0.39936239  -0.00499106  0.25964251  1
  Ta  Ta80  1  0.81618459  0.58787388  0.25645325  1
  Ta  Ta81  1  0.81445815  0.78692992  0.25005400  1
  Ta  Ta82  1  0.51860110  0.69415671  0.89145887  1
  Ta  Ta83  1  0.39371347  0.77038272  0.26067514  1
  Ta  Ta84  1  0.19707988  0.00247362  0.74027686  1
  Ta  Ta85  1  0.39936578  0.00541743  0.74812686  1
  Ta  Ta86  1  0.50891133  0.29771544  0.11139558  1
  Ta  Ta87  1  -0.02673829  -0.00867709  0.74335403  1
  Ta  Ta88  1  0.59971542  -0.00288303  0.74523682  1
  Ta  Ta89  1  -0.00812079  0.21110139  -0.01503295  1
  Ta  Ta90  1  0.49622999  0.28956457  0.87304710  1
  Ta  Ta91  1  0.18560876  0.60439097  -0.00776005  1
  Ta  Ta92  1  0.79849468  0.60788655  0.76351277  1
  Ta  Ta93  1  0.01414983  -0.00418427  0.00053878  1
  Ta  Ta94  1  -0.01258385  0.20607360  0.75672525  1
  Ta  Ta95  1  0.09364221  0.30445157  0.37295313  1
  Ta  Ta96  1  0.21455376  0.61214422  0.25681033  1
  Ta  Ta97  1  0.29638650  0.91608377  0.86353045  1
  Ta  Ta98  1  0.09272621  0.31418455  0.12387359  1
  Ta  Ta99  1  0.10696006  0.49424478  0.86984581  1
  Ta  Ta100  1  0.81002568  0.79899392  0.49828736  1
  Ta  Ta101  1  0.29758833  0.50777456  0.37670323  1
  Ta  Ta102  1  0.79936553  0.19809443  0.76481483  1
  Ta  Ta103  1  0.62285299  0.80158458  -0.00236110  1
  Ta  Ta104  1  0.20262518  0.79570980  0.75300908  1
  Ta  Ta105  1  0.18868941  0.21954043  0.75073199  1
  Ta  Ta106  1  0.70501202  0.09401635  0.37210326  1
  Ta  Ta107  1  0.08937461  0.89377837  0.85531761  1
  Ta  Ta108  1  0.61691581  0.58621513  0.50078013  1
  Ta  Ta109  1  0.60393603  0.00240445  0.25698193  1
  Ta  Ta110  1  0.82541238  0.60241462  0.49066058  1
  Ta  Ta111  1  0.89474955  0.09246483  0.87958898  1
  Ta  Ta112  1  0.09816458  0.51634709  0.12036492  1
  Ta  Ta113  1  0.28213909  0.31647832  0.63142308  1
  Ta  Ta114  1  0.09627947  0.89226615  0.63842224  1
  Ta  Ta115  1  0.70389340  0.28488952  0.10580100  1
  Ta  Ta116  1  0.48513933  0.49978387  0.40045479  1
  Ta  Ta117  1  0.60913569  0.59304556  0.74306648  1
  Ta  Ta118  1  0.80709890  0.79292114  0.00484174  1
  Ta  Ta119  1  0.29935671  0.50948171  0.61882769  1
  Ti  Ti120  1  0.40591159  0.20933192  0.49133116  1
  Ti  Ti121  1  0.18946687  0.40330138  0.00000242  1
  Ti  Ti122  1  0.28946493  0.09318903  0.13155600  1
  Ti  Ti123  1  0.70632895  0.89980692  0.36613664  1
  Ti  Ti124  1  0.70231137  0.89328641  0.13356749  1
  Ti  Ti125  1  0.40416482  0.80476510  -0.00062364  1
  Ti  Ti126  1  0.19305689  0.59986359  0.49621730  1
  Ti  Ti127  1  0.70605658  0.29432308  0.87894734  1
  Ti  Ti128  1  0.50192101  0.09734940  0.62432525  1
  Ti  Ti129  1  0.90111019  0.30220412  0.11446837  1
  Ti  Ti130  1  0.50829817  0.10860028  0.37837782  1
  Ti  Ti131  1  0.20075713  0.00576001  -0.00536392  1
  Ti  Ti132  1  0.18815202  0.41267418  0.25626153  1
  Ti  Ti133  1  0.28309509  0.30253672  0.86701814  1
  Ti  Ti134  1  0.09574828  0.11001581  0.38330056  1
  Ti  Ti135  1  0.18558536  0.19750482  0.25191733  1
  Ti  Ti136  1  0.89801452  0.72880819  0.86649058  1
  Ti  Ti137  1  0.00782811  0.40446371  -0.00756972  1
  Ti  Ti138  1  0.90739148  0.50198683  0.11773754  1
  Ti  Ti139  1  0.20615585  0.81039727  0.50676893  1
  Ti  Ti140  1  0.00094367  0.59823912  -0.01647354  1
  Ti  Ti141  1  0.70078177  0.50899504  0.87246439  1
  Ti  Ti142  1  0.10373788  0.10541735  0.11821565  1
  Ti  Ti143  1  -0.00520660  -0.00733324  0.51375682  1
  Ti  Ti144  1  0.10597564  0.72020014  0.13854376  1
  Ti  Ti145  1  0.29465147  0.50604134  0.88242128  1
  Ti  Ti146  1  0.80614789  0.39832665  0.74845752  1
  Ti  Ti147  1  0.28932160  0.89044128  0.36614987  1
  Ti  Ti148  1  0.90374466  0.49242564  0.86544531  1
  Ti  Ti149  1  0.79849728  0.18936685  0.24455928  1
  Ti  Ti150  1  0.60551509  0.18598914  0.50619939  1
  Ti  Ti151  1  0.91212502  0.68890997  0.12575933  1
  Ti  Ti152  1  0.31741243  0.69782303  0.39348323  1
  Ti  Ti153  1  -0.00527284  0.22671291  0.51196655  1
  Ti  Ti154  1  -0.00375792  0.42114365  0.49508445  1
  Ti  Ti155  1  0.00758608  0.38823945  0.75653457  1
  Ti  Ti156  1  0.38553188  -0.00938810  0.00023881  1
  Ti  Ti157  1  0.28480891  0.09375894  0.36984463  1
  Ti  Ti158  1  0.79832379  -0.00161290  0.24606435  1
  Ti  Ti159  1  0.20747006  0.59729281  0.75665092  1
  Mo  Mo160  1  0.70545939  0.70022470  0.86779261  1
  Mo  Mo161  1  0.90224391  0.90072472  0.62029499  1
  Mo  Mo162  1  0.79552941  0.00988131  0.75415110  1
  Mo  Mo163  1  0.39856954  0.59903042  0.26205870  1
  Mo  Mo164  1  0.39104572  0.80725302  0.49031320  1
  Mo  Mo165  1  0.60070524  0.38922066  0.24166002  1
  Mo  Mo166  1  0.20568963  0.80172588  0.25378952  1
  Mo  Mo167  1  0.10639358  0.69675585  0.86993158  1
  Mo  Mo168  1  0.39835880  0.80832717  0.75266953  1
  Mo  Mo169  1  0.79757129  0.20040011  0.50101841  1
  Mo  Mo170  1  0.38361417  0.39387310  0.50497555  1
  Mo  Mo171  1  0.39069690  0.59525016  0.50545249  1
  Mo  Mo172  1  0.59391221  0.20224491  -0.00793800  1
  Mo  Mo173  1  0.90909816  0.90845898  0.87870153  1
  Mo  Mo174  1  0.70493207  0.50347975  0.63113862  1
  Mo  Mo175  1  0.19953833  0.40881328  0.75451579  1
  Mo  Mo176  1  0.50030994  0.68853758  0.39560880  1
  Mo  Mo177  1  0.90237948  0.70511991  0.63101275  1
  Mo  Mo178  1  0.29384439  0.10136188  0.85688836  1
  Mo  Mo179  1  0.61590100  0.60644234  -0.00324913  1
  Mo  Mo180  1  0.20001557  0.01879417  0.25312304  1
  Mo  Mo181  1  0.50198495  0.29727055  0.38878494  1
  Mo  Mo182  1  0.00723533  0.79958997  0.24360827  1
  Mo  Mo183  1  0.39589970  0.60417470  -0.01010250  1
  Mo  Mo184  1  0.00264221  0.80116386  0.74453657  1
  Mo  Mo185  1  0.82386497  0.80388304  0.74261862  1
  Mo  Mo186  1  0.10673858  0.50082937  0.37330908  1
  Mo  Mo187  1  0.08922542  0.30429933  0.62585136  1
  Mo  Mo188  1  0.59668300  -0.01934298  0.00181038  1
  Mo  Mo189  1  0.91415893  0.30930125  0.63186729  1
  Mo  Mo190  1  0.90209041  0.70202803  0.37084822  1
  Mo  Mo191  1  0.38938334  0.20164352  0.76237542  1
  Mo  Mo192  1  0.10661314  0.91403759  0.12730130  1
  Mo  Mo193  1  0.29050247  0.90595651  0.63560158  1
  Mo  Mo194  1  0.09416099  0.30706798  0.87682355  1
  Mo  Mo195  1  0.68768126  0.09444853  0.63188236  1
  Mo  Mo196  1  0.00640502  0.59131756  0.49359424  1
  Mo  Mo197  1  0.89956054  0.50282180  0.37584916  1
  Mo  Mo198  1  0.89992267  0.30118516  0.86728740  1
  Mo  Mo199  1  0.80323060  0.20182420  -0.01409893  1
