# generated using pymatgen
data_HfZrTaTiMo
_symmetry_space_group_name_H-M   'P 1'
_cell_length_a   15.22067838
_cell_length_b   15.22188487
_cell_length_c   16.85675953
_cell_angle_alpha   89.94079112
_cell_angle_beta   89.98223540
_cell_angle_gamma   90.14145688
_symmetry_Int_Tables_number   1
_chemical_formula_structural   HfZrTaTiMo
_chemical_formula_sum   'Hf40 Zr40 Ta40 Ti40 Mo40'
_cell_volume   3905.48484352
_cell_formula_units_Z   40
loop_
 _symmetry_equiv_pos_site_id
 _symmetry_equiv_pos_as_xyz
  1  'x, y, z'
loop_
 _atom_site_type_symbol
 _atom_site_label
 _atom_site_symmetry_multiplicity
 _atom_site_fract_x
 _atom_site_fract_y
 _atom_site_fract_z
 _atom_site_occupancy
  Hf  Hf0  1  0.29699927  0.30241412  0.88934293  1
  Hf  Hf1  1  0.40682470  0.80793232  0.25132286  1
  Hf  Hf2  1  0.28584452  0.30390976  0.38032600  1
  Hf  Hf3  1  0.60256045  0.19431030  0.26033982  1
  Hf  Hf4  1  0.89495982  0.91000476  0.37853689  1
  Hf  Hf5  1  0.19492548  0.80286314  0.74540858  1
  Hf  Hf6  1  0.00987698  0.60808409  -0.00383606  1
  Hf  Hf7  1  0.00193716  0.20360408  0.23938684  1
  Hf  Hf8  1  0.69206854  0.29528227  0.13231208  1
  Hf  Hf9  1  -0.00746843  0.57365619  0.50913214  1
  Hf  Hf10  1  0.69425004  0.70416906  0.13310858  1
  Hf  Hf11  1  0.30508451  0.08928838  0.63455405  1
  Hf  Hf12  1  0.59563104  0.81226307  0.74185173  1
  Hf  Hf13  1  0.18777904  0.19742740  0.51213974  1
  Hf  Hf14  1  0.78421699  0.19595461  0.00493726  1
  Hf  Hf15  1  0.49242076  0.30038922  0.12307751  1
  Hf  Hf16  1  0.21186596  0.00094004  0.24739977  1
  Hf  Hf17  1  0.49292865  0.70176982  0.12956941  1
  Hf  Hf18  1  0.59666934  0.60493240  -0.00344766  1
  Hf  Hf19  1  0.09217809  0.30545140  0.88097923  1
  Hf  Hf20  1  -0.01716003  0.18268226  0.75281371  1
  Hf  Hf21  1  0.56929738  0.60157386  0.26823429  1
  Hf  Hf22  1  0.22066016  -0.00212441  0.49989920  1
  Hf  Hf23  1  0.79290696  0.80739442  0.25549320  1
  Hf  Hf24  1  0.10570233  0.50896131  0.12396143  1
  Hf  Hf25  1  0.70885697  0.11104317  0.62199532  1
  Hf  Hf26  1  0.00975224  0.60731949  0.26255551  1
  Hf  Hf27  1  0.68495279  0.30449204  0.60902357  1
  Hf  Hf28  1  0.80999036  0.60064638  0.25613607  1
  Hf  Hf29  1  0.09545927  0.30399575  0.09989586  1
  Hf  Hf30  1  0.88488747  0.29914131  0.87581095  1
  Hf  Hf31  1  0.49095505  0.70021459  0.86564209  1
  Hf  Hf32  1  0.59448349  0.19945197  0.75032667  1
  Hf  Hf33  1  0.19825130  0.59032693  0.51476810  1
  Hf  Hf34  1  0.79732143  0.80784752  0.00245949  1
  Hf  Hf35  1  0.89178792  0.30609762  0.11216454  1
  Hf  Hf36  1  0.60636189  0.40262118  -0.00143737  1
  Hf  Hf37  1  0.88754014  0.29719906  0.63016210  1
  Hf  Hf38  1  0.38923733  0.80377850  -0.00237950  1
  Hf  Hf39  1  0.10809470  0.89844611  0.37936809  1
  Zr  Zr40  1  -0.00560337  0.40409337  0.25715223  1
  Zr  Zr41  1  0.29798120  0.29202619  0.09829292  1
  Zr  Zr42  1  0.79705035  0.37977250  0.27312560  1
  Zr  Zr43  1  0.92014040  0.90505743  0.86615135  1
  Zr  Zr44  1  0.70288730  0.50757878  0.37839620  1
  Zr  Zr45  1  0.30657171  0.50378486  0.12991660  1
  Zr  Zr46  1  0.48886406  0.29055172  0.88994166  1
  Zr  Zr47  1  0.49752267  0.69204042  0.62640001  1
  Zr  Zr48  1  0.01235625  0.01041005  0.50607256  1
  Zr  Zr49  1  0.92413731  0.89552752  0.62683522  1
  Zr  Zr50  1  0.32228399  0.91044796  0.37335182  1
  Zr  Zr51  1  0.89936169  0.91231810  0.12977780  1
  Zr  Zr52  1  0.71125715  0.50152217  0.60823131  1
  Zr  Zr53  1  -0.00709803  0.60435703  0.73525673  1
  Zr  Zr54  1  0.90285422  0.49917669  0.11836760  1
  Zr  Zr55  1  0.39795796  0.81068522  0.74491252  1
  Zr  Zr56  1  0.19666940  0.39031638  0.24630820  1
  Zr  Zr57  1  0.82729601  0.40053226  0.48149061  1
  Zr  Zr58  1  0.39481384  0.59454913  -0.00325241  1
  Zr  Zr59  1  0.71041314  0.90936642  0.63066494  1
  Zr  Zr60  1  0.59138626  0.59977355  0.49131519  1
  Zr  Zr61  1  0.30895597  0.30435973  0.62287628  1
  Zr  Zr62  1  0.90141190  0.69803415  0.87829925  1
  Zr  Zr63  1  0.69217037  0.49366172  0.14372600  1
  Zr  Zr64  1  0.81451730  0.78774051  0.73997730  1
  Zr  Zr65  1  0.40503690  0.41447568  0.26121741  1
  Zr  Zr66  1  0.59885851  0.80511329  0.51071757  1
  Zr  Zr67  1  0.79431286  0.58815954  0.00284049  1
  Zr  Zr68  1  0.18572858  0.80420389  -0.00632736  1
  Zr  Zr69  1  0.60121610  0.59033537  0.74552521  1
  Zr  Zr70  1  0.69891979  0.69853630  0.86918718  1
  Zr  Zr71  1  0.30976168  0.09589541  0.88857376  1
  Zr  Zr72  1  0.59374838  0.39487950  0.74924797  1
  Zr  Zr73  1  0.00240351  0.80207619  0.26140838  1
  Zr  Zr74  1  0.31061274  0.07773084  0.10522147  1
  Zr  Zr75  1  0.70904102  0.90922257  0.86373477  1
  Zr  Zr76  1  0.29550406  0.70554305  0.61715217  1
  Zr  Zr77  1  0.19225743  0.19024564  0.75527245  1
  Zr  Zr78  1  -0.01505662  0.17894424  -0.00398978  1
  Zr  Zr79  1  0.49010561  0.07904741  0.36634205  1
  Ta  Ta80  1  0.59488803  0.18547489  0.00210532  1
  Ta  Ta81  1  0.20193271  0.60872279  -0.00675959  1
  Ta  Ta82  1  0.10607753  0.49175515  0.38274818  1
  Ta  Ta83  1  0.02194247  -0.00609335  0.00488098  1
  Ta  Ta84  1  0.09925524  0.70723383  0.12775882  1
  Ta  Ta85  1  0.00255350  0.01219723  0.24685591  1
  Ta  Ta86  1  0.09121159  0.29452533  0.38177241  1
  Ta  Ta87  1  0.11288800  0.90290156  0.13065935  1
  Ta  Ta88  1  0.10337767  0.51019034  0.86582168  1
  Ta  Ta89  1  0.09373797  0.71020453  0.86451013  1
  Ta  Ta90  1  0.61109476  0.00069866  -0.00237062  1
  Ta  Ta91  1  0.39900737  0.82674790  0.51146429  1
  Ta  Ta92  1  0.19495487  0.59608334  0.73297319  1
  Ta  Ta93  1  0.08560200  0.71833423  0.61021589  1
  Ta  Ta94  1  0.90617144  0.10542278  0.37412971  1
  Ta  Ta95  1  0.80183220  0.80199871  0.49984974  1
  Ta  Ta96  1  0.49462616  0.91042782  0.12176790  1
  Ta  Ta97  1  0.59551488  0.00025669  0.50180988  1
  Ta  Ta98  1  0.81220029  0.01023686  -0.00133377  1
  Ta  Ta99  1  0.11120683  0.91670375  0.86369804  1
  Ta  Ta100  1  0.70735164  0.08664070  0.37440754  1
  Ta  Ta101  1  0.28955058  0.70237027  0.13053499  1
  Ta  Ta102  1  0.59006339  0.81154059  -0.00443921  1
  Ta  Ta103  1  0.41706989  0.00675682  0.75982371  1
  Ta  Ta104  1  0.59416757  0.19281552  0.48536298  1
  Ta  Ta105  1  0.49102623  0.47818310  0.61243164  1
  Ta  Ta106  1  0.48302593  0.28752994  0.37565312  1
  Ta  Ta107  1  0.20510512  0.79113288  0.25501769  1
  Ta  Ta108  1  0.29850240  0.49904355  0.86631050  1
  Ta  Ta109  1  0.40575283  0.20142055  0.74981857  1
  Ta  Ta110  1  0.49110638  0.49302168  0.87455298  1
  Ta  Ta111  1  0.71020745  0.10807847  0.86798129  1
  Ta  Ta112  1  0.90662229  0.70771903  0.12107083  1
  Ta  Ta113  1  0.29904152  0.11404750  0.37133903  1
  Ta  Ta114  1  0.89753864  0.69470817  0.39264805  1
  Ta  Ta115  1  0.28876524  0.69044042  0.86191318  1
  Ta  Ta116  1  0.20054023  0.40510667  0.74544037  1
  Ta  Ta117  1  0.58865166  0.38895330  0.47932032  1
  Ta  Ta118  1  0.82478490  0.02648442  0.74412115  1
  Ta  Ta119  1  -0.00933772  0.20628252  0.50553247  1
  Ti  Ti120  1  0.70763213  0.49287830  0.87262392  1
  Ti  Ti121  1  0.69564794  0.71089647  0.37668353  1
  Ti  Ti122  1  0.19802597  0.42090266  -0.00784783  1
  Ti  Ti123  1  0.48489526  0.71345844  0.38278441  1
  Ti  Ti124  1  0.39941533  0.39416982  0.74720172  1
  Ti  Ti125  1  0.69069202  0.90019341  0.12738935  1
  Ti  Ti126  1  0.12124277  0.91345022  0.62967140  1
  Ti  Ti127  1  0.50282402  0.10684042  0.62008236  1
  Ti  Ti128  1  0.39654481  0.59741727  0.49807716  1
  Ti  Ti129  1  0.80541021  0.18650634  0.25370039  1
  Ti  Ti130  1  0.20333973  0.60636933  0.26375025  1
  Ti  Ti131  1  0.49967018  0.49867744  0.12558771  1
  Ti  Ti132  1  0.39197659  0.58290513  0.74122035  1
  Ti  Ti133  1  0.19012273  0.40201389  0.51601111  1
  Ti  Ti134  1  0.19455136  0.19469912  0.23758027  1
  Ti  Ti135  1  0.89237733  0.69168335  0.60502189  1
  Ti  Ti136  1  0.90447005  0.49043045  0.88000966  1
  Ti  Ti137  1  0.69534859  0.30196515  0.87621084  1
  Ti  Ti138  1  -0.00141367  0.40522530  0.74734608  1
  Ti  Ti139  1  0.38826302  0.19589786  0.24303022  1
  Ti  Ti140  1  0.39253141  0.40334579  0.49410968  1
  Ti  Ti141  1  0.59927342  -0.01916242  0.25102848  1
  Ti  Ti142  1  0.69212917  0.90191697  0.37800774  1
  Ti  Ti143  1  0.80411652  0.00656614  0.50451259  1
  Ti  Ti144  1  0.59345294  0.39342237  0.27580928  1
  Ti  Ti145  1  0.10187302  0.70030871  0.39919796  1
  Ti  Ti146  1  0.18040400  0.16809832  -0.00450550  1
  Ti  Ti147  1  0.50682967  0.09607354  0.12840630  1
  Ti  Ti148  1  0.79705070  0.39949931  0.74844925  1
  Ti  Ti149  1  0.39909995  0.19555648  0.50078637  1
  Ti  Ti150  1  0.29807882  0.51058986  0.37682962  1
  Ti  Ti151  1  0.70703896  0.08513839  0.13510930  1
  Ti  Ti152  1  0.10442638  0.10542165  0.37150689  1
  Ti  Ti153  1  0.30592541  0.90206948  0.87322502  1
  Ti  Ti154  1  0.80345799  0.58554655  0.74487219  1
  Ti  Ti155  1  0.70599168  0.69626841  0.62116967  1
  Ti  Ti156  1  0.09167250  0.29894480  0.63426721  1
  Ti  Ti157  1  0.79744180  0.19965004  0.48546407  1
  Ti  Ti158  1  0.60095181  0.00754415  0.75048630  1
  Ti  Ti159  1  0.29132342  0.71196763  0.39365496  1
  Mo  Mo160  1  0.60071790  0.80148606  0.25602232  1
  Mo  Mo161  1  0.79572183  0.39885778  -0.00808462  1
  Mo  Mo162  1  0.30710353  0.49882097  0.62788093  1
  Mo  Mo163  1  0.51448402  0.89233539  0.37665105  1
  Mo  Mo164  1  0.90572438  0.28556266  0.37486144  1
  Mo  Mo165  1  0.01764766  0.38632599  0.50617171  1
  Mo  Mo166  1  0.41187283  0.19100424  0.00584554  1
  Mo  Mo167  1  0.30762358  0.90679251  0.62971351  1
  Mo  Mo168  1  0.79827569  0.60895455  0.49466538  1
  Mo  Mo169  1  -0.00024673  0.79701492  0.49094924  1
  Mo  Mo170  1  0.89540667  0.10398065  0.61427314  1
  Mo  Mo171  1  0.69416003  0.28402447  0.38207730  1
  Mo  Mo172  1  0.89604463  0.09055183  0.87582346  1
  Mo  Mo173  1  0.51394129  0.09220800  0.87660207  1
  Mo  Mo174  1  0.19899231  0.80482599  0.50423416  1
  Mo  Mo175  1  0.00363513  0.40895508  -0.01621070  1
  Mo  Mo176  1  0.10032412  0.49096470  0.63614487  1
  Mo  Mo177  1  0.49745386  0.92485412  0.62781438  1
  Mo  Mo178  1  0.50486107  0.90525158  0.87899153  1
  Mo  Mo179  1  0.49551861  0.29292962  0.60880476  1
  Mo  Mo180  1  0.41354289  0.01207565  0.50505250  1
  Mo  Mo181  1  0.09759699  0.10180910  0.62816038  1
  Mo  Mo182  1  0.37541907  0.61931667  0.26986253  1
  Mo  Mo183  1  0.09682911  0.08997631  0.87473570  1
  Mo  Mo184  1  0.39865872  0.40589968  -0.00095892  1
  Mo  Mo185  1  0.21643278  -0.00187957  0.75231913  1
  Mo  Mo186  1  0.40867725  0.00744813  0.24056311  1
  Mo  Mo187  1  0.20792473  -0.01402821  0.00035563  1
  Mo  Mo188  1  0.02155540  0.00799730  0.73963339  1
  Mo  Mo189  1  0.00198599  0.80607064  0.00661816  1
  Mo  Mo190  1  0.79334709  0.00588909  0.25472338  1
  Mo  Mo191  1  0.89854441  0.49098690  0.63209528  1
  Mo  Mo192  1  0.89508194  0.09669236  0.13146640  1
  Mo  Mo193  1  0.48468739  0.49715796  0.38751856  1
  Mo  Mo194  1  0.09880407  0.09179542  0.12672480  1
  Mo  Mo195  1  0.78648210  0.21025365  0.75187038  1
  Mo  Mo196  1  0.42332635  -0.01077227  -0.01018123  1
  Mo  Mo197  1  0.00965881  0.80244272  0.74225404  1
  Mo  Mo198  1  0.91546989  0.49924910  0.37358745  1
  Mo  Mo199  1  0.30349335  0.88642431  0.12740080  1
