# generated using pymatgen
data_HfZrTaTiMo
_symmetry_space_group_name_H-M   'P 1'
_cell_length_a   15.20222591
_cell_length_b   15.21235619
_cell_length_c   16.86321831
_cell_angle_alpha   90.03902892
_cell_angle_beta   89.93496040
_cell_angle_gamma   90.06269741
_symmetry_Int_Tables_number   1
_chemical_formula_structural   HfZrTaTiMo
_chemical_formula_sum   'Hf40 Zr40 Ta40 Ti40 Mo40'
_cell_volume   3899.81036903
_cell_formula_units_Z   40
loop_
 _symmetry_equiv_pos_site_id
 _symmetry_equiv_pos_as_xyz
  1  'x, y, z'
loop_
 _atom_site_type_symbol
 _atom_site_label
 _atom_site_symmetry_multiplicity
 _atom_site_fract_x
 _atom_site_fract_y
 _atom_site_fract_z
 _atom_site_occupancy
  Hf  Hf0  1  0.89728429  0.30154147  0.38443410  1
  Hf  Hf1  1  0.81196943  0.62319557  0.75171246  1
  Hf  Hf2  1  0.40577626  0.18484953  0.75123346  1
  Hf  Hf3  1  0.39807811  0.19006054  0.51159747  1
  Hf  Hf4  1  0.09988913  0.10290789  0.37958428  1
  Hf  Hf5  1  0.70767509  0.71915322  0.88323866  1
  Hf  Hf6  1  0.10995705  0.50177305  0.87532828  1
  Hf  Hf7  1  0.18806163  0.18763724  -0.00197698  1
  Hf  Hf8  1  0.60713802  0.81288758  0.75124644  1
  Hf  Hf9  1  0.20200171  0.19363057  0.24799698  1
  Hf  Hf10  1  0.20332839  0.60556113  0.27707126  1
  Hf  Hf11  1  0.20657288  0.40315224  -0.00123001  1
  Hf  Hf12  1  -0.00558123  0.01001509  0.74114039  1
  Hf  Hf13  1  0.88527543  0.09676878  0.62173167  1
  Hf  Hf14  1  0.90522298  0.31515546  0.61188930  1
  Hf  Hf15  1  0.69447713  0.91457120  0.13473571  1
  Hf  Hf16  1  0.38812654  0.78880266  0.76033108  1
  Hf  Hf17  1  0.78905951  0.82338993  0.49959084  1
  Hf  Hf18  1  0.27833082  0.08442325  0.86769479  1
  Hf  Hf19  1  0.18898220  -0.02375253  -0.00149888  1
  Hf  Hf20  1  0.20172570  0.40127010  0.25870631  1
  Hf  Hf21  1  0.71172677  0.71473945  0.36376673  1
  Hf  Hf22  1  0.61357545  0.60283471  0.75749962  1
  Hf  Hf23  1  0.20180848  0.58478055  0.48607441  1
  Hf  Hf24  1  0.30820434  0.69517058  0.60428957  1
  Hf  Hf25  1  0.91423683  0.70952993  0.88665288  1
  Hf  Hf26  1  0.69695218  0.29836151  0.37794098  1
  Hf  Hf27  1  0.87515534  0.91053391  0.87255646  1
  Hf  Hf28  1  0.91086699  0.52056841  0.61367334  1
  Hf  Hf29  1  0.58710508  0.18864765  0.22973969  1
  Hf  Hf30  1  0.80976977  0.60354890  0.23477828  1
  Hf  Hf31  1  0.40366344  -0.01437458  0.76059466  1
  Hf  Hf32  1  0.09252482  0.08513422  0.12867743  1
  Hf  Hf33  1  0.49623043  0.30098653  0.63398107  1
  Hf  Hf34  1  0.68949471  0.11017528  0.87006890  1
  Hf  Hf35  1  0.59801951  0.02013245  0.00351895  1
  Hf  Hf36  1  0.31255154  0.29972503  0.12336077  1
  Hf  Hf37  1  0.60574541  0.39912068  0.75819849  1
  Hf  Hf38  1  0.30456749  0.50737446  0.13284367  1
  Hf  Hf39  1  0.40745650  0.59687091  0.26626500  1
  Zr  Zr40  1  0.00640367  0.20168908  0.50765699  1
  Zr  Zr41  1  0.30295045  0.89257463  0.61535156  1
  Zr  Zr42  1  0.78826353  0.18946634  0.01150545  1
  Zr  Zr43  1  0.50941170  0.70070190  0.61857193  1
  Zr  Zr44  1  0.21712817  0.61368298  -0.00225395  1
  Zr  Zr45  1  0.01299405  0.60757154  0.00418536  1
  Zr  Zr46  1  0.61094935  -0.00404502  0.50027693  1
  Zr  Zr47  1  0.51282691  0.70179287  0.37784215  1
  Zr  Zr48  1  0.08412052  0.29369255  0.87626143  1
  Zr  Zr49  1  -0.01193849  0.19857525  0.24465233  1
  Zr  Zr50  1  0.30054927  0.30415282  0.86180934  1
  Zr  Zr51  1  0.70272162  0.49445227  0.11724073  1
  Zr  Zr52  1  0.59005093  0.80171855  0.00974338  1
  Zr  Zr53  1  0.69779889  0.30421607  0.61411689  1
  Zr  Zr54  1  0.30734888  0.07985465  0.12455305  1
  Zr  Zr55  1  0.70251397  0.51475260  0.61823353  1
  Zr  Zr56  1  0.00880488  0.59496945  0.75386506  1
  Zr  Zr57  1  0.52576496  0.28234879  0.87270704  1
  Zr  Zr58  1  0.59799167  0.39507605  0.25660762  1
  Zr  Zr59  1  0.09123397  0.68898223  0.60649284  1
  Zr  Zr60  1  0.68968946  0.09861970  0.36511327  1
  Zr  Zr61  1  0.21122092  0.60542540  0.74057172  1
  Zr  Zr62  1  0.80434541  0.80928099  0.01953962  1
  Zr  Zr63  1  -0.00464509  0.40503723  0.26025784  1
  Zr  Zr64  1  0.40563121  0.18510207  -0.00913013  1
  Zr  Zr65  1  0.80367506  0.41612096  0.75387191  1
  Zr  Zr66  1  0.79112738  0.21279091  0.75035065  1
  Zr  Zr67  1  0.50055253  0.48810794  0.12279606  1
  Zr  Zr68  1  0.41247895  0.58233120  0.74899273  1
  Zr  Zr69  1  0.91917249  0.90888623  0.13105647  1
  Zr  Zr70  1  0.10891626  0.70656878  0.13487732  1
  Zr  Zr71  1  0.09273721  0.30970977  0.12062850  1
  Zr  Zr72  1  0.29057726  0.30260704  0.63747181  1
  Zr  Zr73  1  0.90203560  0.48602256  0.89454578  1
  Zr  Zr74  1  0.58832833  0.40616397  0.48980107  1
  Zr  Zr75  1  -0.00703751  0.79659441  0.73775388  1
  Zr  Zr76  1  0.09111257  0.91233914  0.86405029  1
  Zr  Zr77  1  0.88192300  0.90160293  0.36438757  1
  Zr  Zr78  1  0.47762794  0.90613783  0.12418566  1
  Zr  Zr79  1  0.00270949  0.59903037  0.26283257  1
  Ta  Ta80  1  0.00206498  0.79320303  0.26739681  1
  Ta  Ta81  1  0.00514455  -0.00133312  0.26197438  1
  Ta  Ta82  1  0.02072035  0.81487172  0.00246256  1
  Ta  Ta83  1  0.39243936  0.80697581  0.26198131  1
  Ta  Ta84  1  0.48968749  0.27984813  0.37767511  1
  Ta  Ta85  1  0.30757074  0.70947616  0.13628070  1
  Ta  Ta86  1  0.40808984  0.60181102  -0.00232944  1
  Ta  Ta87  1  0.61540789  0.60608670  0.49489384  1
  Ta  Ta88  1  0.09502071  0.89652467  0.61059140  1
  Ta  Ta89  1  0.80243670  0.60925955  0.01707274  1
  Ta  Ta90  1  0.12871985  0.72269302  0.87001954  1
  Ta  Ta91  1  0.41133422  0.39844451  -0.00695270  1
  Ta  Ta92  1  0.41713802  0.58287533  0.49163583  1
  Ta  Ta93  1  0.40724676  -0.00400640  0.49479972  1
  Ta  Ta94  1  0.50156549  0.69484451  0.88021329  1
  Ta  Ta95  1  0.70372221  0.51230909  0.37165214  1
  Ta  Ta96  1  0.00154707  0.39434115  0.74649724  1
  Ta  Ta97  1  0.78810411  0.19465945  0.50205685  1
  Ta  Ta98  1  0.91157780  0.48951015  0.11264181  1
  Ta  Ta99  1  -0.01817984  0.20749310  0.00844754  1
  Ta  Ta100  1  0.49211799  0.69579523  0.12857931  1
  Ta  Ta101  1  0.09483116  0.90220915  0.38386234  1
  Ta  Ta102  1  0.80390056  0.41877500  0.49010300  1
  Ta  Ta103  1  0.39408569  0.39196909  0.49453671  1
  Ta  Ta104  1  -0.01456451  0.79070064  0.49118525  1
  Ta  Ta105  1  0.10308063  0.47815625  0.61398912  1
  Ta  Ta106  1  0.31048254  0.10009776  0.37713947  1
  Ta  Ta107  1  -0.01185577  -0.00911850  0.50063528  1
  Ta  Ta108  1  0.89059452  0.10179058  0.37984608  1
  Ta  Ta109  1  0.20542321  0.19554647  0.50738302  1
  Ta  Ta110  1  0.20204271  0.00344145  0.49617638  1
  Ta  Ta111  1  0.80345607  0.02033641  0.23860222  1
  Ta  Ta112  1  0.18064909  0.18401306  0.74457719  1
  Ta  Ta113  1  0.59219551  0.79796615  0.23794738  1
  Ta  Ta114  1  0.39319216  -0.01753437  -0.02171382  1
  Ta  Ta115  1  0.90205514  0.11122516  0.87127072  1
  Ta  Ta116  1  0.20245885  0.79967177  0.27833496  1
  Ta  Ta117  1  0.21163936  -0.01207986  0.26732664  1
  Ta  Ta118  1  0.79304933  0.21226662  0.23333082  1
  Ta  Ta119  1  0.19678706  0.80187563  0.48456634  1
  Ti  Ti120  1  0.19570521  0.40050447  0.74852993  1
  Ti  Ti121  1  0.88100270  0.89955886  0.62937046  1
  Ti  Ti122  1  0.50520956  0.90538181  0.62320306  1
  Ti  Ti123  1  0.70228373  0.49973003  0.89839629  1
  Ti  Ti124  1  0.68720774  0.30612684  0.11232913  1
  Ti  Ti125  1  0.59770062  0.00855718  0.75181054  1
  Ti  Ti126  1  0.10267873  0.09356030  0.61782497  1
  Ti  Ti127  1  0.69036387  0.90622792  0.34881741  1
  Ti  Ti128  1  0.58897182  0.18918580  0.50599932  1
  Ti  Ti129  1  0.10696693  0.50320209  0.12553418  1
  Ti  Ti130  1  0.11050467  0.89355626  0.14485781  1
  Ti  Ti131  1  0.31295559  0.50156353  0.87132358  1
  Ti  Ti132  1  -0.01568663  0.01421492  -0.00495962  1
  Ti  Ti133  1  0.50108929  0.90301379  0.37411441  1
  Ti  Ti134  1  0.40643124  0.38819995  0.25991510  1
  Ti  Ti135  1  0.10295473  0.29903437  0.37987840  1
  Ti  Ti136  1  0.41059210  0.00561223  0.26309207  1
  Ti  Ti137  1  0.60112834  0.60411103  0.00513457  1
  Ti  Ti138  1  0.31553356  0.70852075  0.39499336  1
  Ti  Ti139  1  0.19692580  -0.01726585  0.73911659  1
  Ti  Ti140  1  0.81046590  0.62169422  0.49223983  1
  Ti  Ti141  1  0.59780711  0.80477203  0.50236430  1
  Ti  Ti142  1  0.30926219  0.48900084  0.62091606  1
  Ti  Ti143  1  0.50751841  0.49529919  0.88278125  1
  Ti  Ti144  1  0.39986375  0.19585623  0.24771483  1
  Ti  Ti145  1  0.71374572  0.71893757  0.62528959  1
  Ti  Ti146  1  0.60447996  0.60067241  0.24611045  1
  Ti  Ti147  1  -0.00474081  0.59079456  0.47110733  1
  Ti  Ti148  1  0.29213496  0.88896413  0.13049567  1
  Ti  Ti149  1  0.69028995  0.09398522  0.63130669  1
  Ti  Ti150  1  -0.00339048  0.20624568  0.74153413  1
  Ti  Ti151  1  0.19570216  0.38542162  0.49851659  1
  Ti  Ti152  1  0.31000158  0.48386289  0.37979951  1
  Ti  Ti153  1  0.37955965  0.79265495  -0.01312955  1
  Ti  Ti154  1  0.50201561  0.49614907  0.62344463  1
  Ti  Ti155  1  0.51099031  0.89682325  0.87952936  1
  Ti  Ti156  1  0.30105759  0.08815580  0.62998559  1
  Ti  Ti157  1  0.80497769  0.79533672  0.22865404  1
  Ti  Ti158  1  0.29660900  0.28946316  0.37729629  1
  Ti  Ti159  1  0.80197505  0.40402052  0.25118302  1
  Mo  Mo160  1  0.88534299  0.30980924  0.12668638  1
  Mo  Mo161  1  0.79646351  0.81072742  0.74764538  1
  Mo  Mo162  1  0.41130555  0.80303355  0.49454750  1
  Mo  Mo163  1  0.48652873  0.09558753  0.12326246  1
  Mo  Mo164  1  0.00657276  0.40635421  0.49085257  1
  Mo  Mo165  1  0.49527770  0.09926237  0.37508573  1
  Mo  Mo166  1  0.69757919  0.90921771  0.62978480  1
  Mo  Mo167  1  0.08390877  0.10216512  0.87168245  1
  Mo  Mo168  1  0.89980632  0.10122044  0.12727675  1
  Mo  Mo169  1  0.50371063  0.49236004  0.37432142  1
  Mo  Mo170  1  0.89250322  0.70343407  0.37197885  1
  Mo  Mo171  1  0.10399630  0.48794583  0.38642868  1
  Mo  Mo172  1  0.69393583  0.91381635  0.87837365  1
  Mo  Mo173  1  0.88735260  0.50288723  0.37663075  1
  Mo  Mo174  1  0.69490363  0.10078519  0.13229856  1
  Mo  Mo175  1  0.59080222  0.20726021  0.01783990  1
  Mo  Mo176  1  0.89548112  0.70827067  0.61268230  1
  Mo  Mo177  1  0.79976062  0.00959356  0.49773056  1
  Mo  Mo178  1  0.49769685  0.08886180  0.62646919  1
  Mo  Mo179  1  0.49721685  0.08657152  0.87421543  1
  Mo  Mo180  1  0.71362289  0.31489988  0.89254894  1
  Mo  Mo181  1  0.00528198  0.39515909  0.00576644  1
  Mo  Mo182  1  0.58954800  -0.00603400  0.24958131  1
  Mo  Mo183  1  0.10145371  0.29718159  0.63130173  1
  Mo  Mo184  1  0.40386642  0.40244376  0.75646726  1
  Mo  Mo185  1  0.80326091  0.00814833  0.00655684  1
  Mo  Mo186  1  0.60228279  0.40132375  -0.00854677  1
  Mo  Mo187  1  0.89624137  0.29285292  0.87479312  1
  Mo  Mo188  1  0.19589730  0.79922311  0.73514314  1
  Mo  Mo189  1  0.78467125  -0.00160619  0.74822799  1
  Mo  Mo190  1  0.28588382  0.88136339  0.86795125  1
  Mo  Mo191  1  0.90778887  0.70207117  0.11803409  1
  Mo  Mo192  1  0.59811673  0.18931749  0.73528501  1
  Mo  Mo193  1  0.69127401  0.70064289  0.13121272  1
  Mo  Mo194  1  0.49391985  0.29866755  0.11737641  1
  Mo  Mo195  1  0.09932381  0.70144802  0.38850625  1
  Mo  Mo196  1  0.80644426  0.39202879  0.00372392  1
  Mo  Mo197  1  0.30669502  0.90393235  0.38645600  1
  Mo  Mo198  1  0.30853144  0.69231875  0.87298865  1
  Mo  Mo199  1  0.20485221  0.80219607  0.00530951  1
