# generated using pymatgen
data_HfZrTaTiMo
_symmetry_space_group_name_H-M   'P 1'
_cell_length_a   15.21147138
_cell_length_b   15.20829553
_cell_length_c   16.83386281
_cell_angle_alpha   90.07016725
_cell_angle_beta   90.04798615
_cell_angle_gamma   90.00116725
_symmetry_Int_Tables_number   1
_chemical_formula_structural   HfZrTaTiMo
_chemical_formula_sum   'Hf40 Zr40 Ta40 Ti40 Mo40'
_cell_volume   3894.35083193
_cell_formula_units_Z   40
loop_
 _symmetry_equiv_pos_site_id
 _symmetry_equiv_pos_as_xyz
  1  'x, y, z'
loop_
 _atom_site_type_symbol
 _atom_site_label
 _atom_site_symmetry_multiplicity
 _atom_site_fract_x
 _atom_site_fract_y
 _atom_site_fract_z
 _atom_site_occupancy
  Hf  Hf0  1  0.70006728  0.47175513  0.63999647  1
  Hf  Hf1  1  0.19683298  0.60182261  -0.00324737  1
  Hf  Hf2  1  0.19933482  -0.01392805  0.74519764  1
  Hf  Hf3  1  0.51743539  0.29812162  0.62273135  1
  Hf  Hf4  1  0.68890626  0.28775266  0.88575477  1
  Hf  Hf5  1  0.49364862  0.09408441  0.62164272  1
  Hf  Hf6  1  0.29117032  0.29936847  0.35411694  1
  Hf  Hf7  1  0.88691647  0.89626735  0.13271379  1
  Hf  Hf8  1  0.31296930  0.10314913  0.35648624  1
  Hf  Hf9  1  0.17993906  0.59390690  0.76140889  1
  Hf  Hf10  1  0.91345475  0.90796025  0.87661187  1
  Hf  Hf11  1  0.40935421  0.41904925  0.24182378  1
  Hf  Hf12  1  0.07664917  0.50015214  0.63180536  1
  Hf  Hf13  1  0.70172074  0.88041719  0.36405088  1
  Hf  Hf14  1  0.28378466  0.09959319  0.13906570  1
  Hf  Hf15  1  0.50758352  0.10221201  0.89215394  1
  Hf  Hf16  1  0.18220421  -0.00148924  0.00007134  1
  Hf  Hf17  1  0.79491454  0.58800385  0.50072517  1
  Hf  Hf18  1  0.89884715  0.32289340  0.62962713  1
  Hf  Hf19  1  0.49831174  0.29906944  0.35955923  1
  Hf  Hf20  1  0.48814984  0.49553289  0.63857112  1
  Hf  Hf21  1  0.89342571  0.29417648  0.13670751  1
  Hf  Hf22  1  0.00252233  0.23204381  0.49608931  1
  Hf  Hf23  1  0.30116035  0.30789918  0.14271686  1
  Hf  Hf24  1  0.51716715  0.51785066  0.36776534  1
  Hf  Hf25  1  0.81839298  0.79247317  0.75178720  1
  Hf  Hf26  1  0.80907129  0.58288270  -0.01474569  1
  Hf  Hf27  1  0.41134561  0.20876625  0.75605964  1
  Hf  Hf28  1  0.59707746  0.18993199  0.48093666  1
  Hf  Hf29  1  0.71390100  0.68666406  0.64054635  1
  Hf  Hf30  1  0.00312199  0.81200176  0.25753022  1
  Hf  Hf31  1  0.09873848  0.10295796  0.61058341  1
  Hf  Hf32  1  0.48844964  0.09748620  0.13689988  1
  Hf  Hf33  1  0.20565067  0.19896078  0.75124974  1
  Hf  Hf34  1  0.59501150  0.60263717  -0.00066609  1
  Hf  Hf35  1  0.60906018  0.80799326  0.75587451  1
  Hf  Hf36  1  0.60783518  0.78798935  0.49580823  1
  Hf  Hf37  1  0.89046297  0.70202374  0.38576617  1
  Hf  Hf38  1  0.41114736  0.81262423  0.48376445  1
  Hf  Hf39  1  0.68967500  0.09975459  0.61510025  1
  Zr  Zr40  1  0.79975853  0.40643004  0.78097970  1
  Zr  Zr41  1  0.79179802  0.19998920  0.74624875  1
  Zr  Zr42  1  0.00044195  0.41850229  0.01127114  1
  Zr  Zr43  1  -0.00997144  0.20809914  0.75024461  1
  Zr  Zr44  1  0.19924800  0.20518801  -0.00658981  1
  Zr  Zr45  1  -0.01053055  0.60971842  0.24219088  1
  Zr  Zr46  1  -0.01034744  -0.00041028  0.72940577  1
  Zr  Zr47  1  0.40041119  0.81115511  0.76206371  1
  Zr  Zr48  1  0.20503603  0.79985204  -0.01117531  1
  Zr  Zr49  1  0.18860141  0.39490616  0.50203578  1
  Zr  Zr50  1  0.10196000  0.32861397  0.86565795  1
  Zr  Zr51  1  0.79160684  -0.00464964  0.73972053  1
  Zr  Zr52  1  0.00744011  0.80878970  0.00153958  1
  Zr  Zr53  1  0.19087977  -0.01606732  0.26637342  1
  Zr  Zr54  1  0.72733510  0.09414113  0.14493273  1
  Zr  Zr55  1  0.89851508  0.88905510  0.59656177  1
  Zr  Zr56  1  0.60143316  0.81220314  0.00738897  1
  Zr  Zr57  1  0.30814934  0.09620017  0.87982392  1
  Zr  Zr58  1  0.39836751  0.39935651  0.49728667  1
  Zr  Zr59  1  0.79822375  -0.00120173  0.00017203  1
  Zr  Zr60  1  0.10279962  0.28941711  0.13600871  1
  Zr  Zr61  1  0.19562038  0.59165524  0.50394482  1
  Zr  Zr62  1  0.29861301  0.69331331  0.63725111  1
  Zr  Zr63  1  0.61134037  0.21309584  0.24101929  1
  Zr  Zr64  1  0.38282418  0.80726372  0.25125770  1
  Zr  Zr65  1  0.21046694  0.79240918  0.49683365  1
  Zr  Zr66  1  0.49439106  0.70174350  0.87938665  1
  Zr  Zr67  1  0.59916024  0.59138734  0.50946308  1
  Zr  Zr68  1  0.21587520  0.00049366  0.49181217  1
  Zr  Zr69  1  0.70843181  0.69335360  0.12193472  1
  Zr  Zr70  1  0.08566104  0.08497258  0.86775855  1
  Zr  Zr71  1  -0.00462224  0.20001969  -0.00809848  1
  Zr  Zr72  1  0.39960779  0.61138197  0.49600601  1
  Zr  Zr73  1  0.70752496  0.09282846  0.35515609  1
  Zr  Zr74  1  0.92913916  0.08926939  0.13853035  1
  Zr  Zr75  1  0.31378320  0.90351406  0.62563918  1
  Zr  Zr76  1  0.60670322  0.19503341  0.01944170  1
  Zr  Zr77  1  0.62106334  0.38992176  0.48639360  1
  Zr  Zr78  1  0.29500185  0.50317382  0.36568290  1
  Zr  Zr79  1  0.50316205  0.70352252  0.64023062  1
  Ta  Ta80  1  0.90618480  0.10073079  0.38578926  1
  Ta  Ta81  1  0.79056252  0.21344211  0.48897921  1
  Ta  Ta82  1  0.60115422  0.40432449  0.00594773  1
  Ta  Ta83  1  0.68943543  0.67601424  0.35936955  1
  Ta  Ta84  1  0.10683318  0.50973114  0.13169771  1
  Ta  Ta85  1  0.50105801  0.09225596  0.34648249  1
  Ta  Ta86  1  0.09649763  0.69499415  0.37887463  1
  Ta  Ta87  1  0.01496640  0.80084748  0.74825828  1
  Ta  Ta88  1  0.58597915  0.78258579  0.23908349  1
  Ta  Ta89  1  0.60374651  -0.02052220  0.23358129  1
  Ta  Ta90  1  0.41134706  0.61679665  0.24490193  1
  Ta  Ta91  1  0.29450754  0.48897842  0.87357792  1
  Ta  Ta92  1  0.60514951  0.58500382  0.76826447  1
  Ta  Ta93  1  0.39570097  0.20864035  0.01175162  1
  Ta  Ta94  1  0.89357682  0.10723461  0.59476288  1
  Ta  Ta95  1  0.81379999  0.39779936  0.49516597  1
  Ta  Ta96  1  0.21457389  0.40891677  0.01003229  1
  Ta  Ta97  1  0.80049957  0.79503231  -0.00488722  1
  Ta  Ta98  1  0.70633142  0.69892071  0.87392981  1
  Ta  Ta99  1  -0.00332234  0.40733027  0.23886874  1
  Ta  Ta100  1  0.30488823  0.10766627  0.62417568  1
  Ta  Ta101  1  0.21213806  0.20852685  0.50171538  1
  Ta  Ta102  1  0.39403113  0.59158366  0.76645922  1
  Ta  Ta103  1  0.89988121  0.30608530  0.36030260  1
  Ta  Ta104  1  0.59177236  -0.01117944  0.48530797  1
  Ta  Ta105  1  0.09878703  0.89172688  0.60754962  1
  Ta  Ta106  1  0.80377694  0.39387836  -0.01154369  1
  Ta  Ta107  1  0.61769955  0.41744151  0.23755463  1
  Ta  Ta108  1  0.08991731  0.70144962  0.62173672  1
  Ta  Ta109  1  0.89874264  0.90124845  0.39018965  1
  Ta  Ta110  1  0.89263548  0.49867232  0.36566138  1
  Ta  Ta111  1  0.78652205  0.00038520  0.49219168  1
  Ta  Ta112  1  0.10323054  0.11097982  0.38779618  1
  Ta  Ta113  1  0.20212446  0.61099930  0.24652882  1
  Ta  Ta114  1  0.10608549  0.30893926  0.63714056  1
  Ta  Ta115  1  0.90521815  0.69115386  0.11433160  1
  Ta  Ta116  1  0.08784648  0.50029905  0.36735362  1
  Ta  Ta117  1  0.28614342  0.89267834  0.12476356  1
  Ta  Ta118  1  0.59407939  0.00062930  0.75436843  1
  Ta  Ta119  1  0.08970303  0.91864082  0.13309826  1
  Ti  Ti120  1  0.19954195  0.79426741  0.76317003  1
  Ti  Ti121  1  0.88765169  0.10507474  0.87360410  1
  Ti  Ti122  1  0.40460461  0.00510408  0.75527902  1
  Ti  Ti123  1  0.09900930  0.31123192  0.36192449  1
  Ti  Ti124  1  0.80387483  0.19937097  -0.00114360  1
  Ti  Ti125  1  0.48960756  0.30423514  0.89399337  1
  Ti  Ti126  1  0.48774570  0.89018260  0.12543027  1
  Ti  Ti127  1  0.10714747  0.71534067  0.12785309  1
  Ti  Ti128  1  0.59811588  0.59595446  0.22499260  1
  Ti  Ti129  1  0.89082544  0.51770120  0.64518502  1
  Ti  Ti130  1  0.30672168  0.30846892  0.87597091  1
  Ti  Ti131  1  0.90678314  0.69944097  0.88014957  1
  Ti  Ti132  1  0.69789962  0.89395652  0.61517391  1
  Ti  Ti133  1  0.00940902  0.18983196  0.26259767  1
  Ti  Ti134  1  0.30429710  0.89817400  0.87982923  1
  Ti  Ti135  1  0.50127471  0.30933798  0.12370686  1
  Ti  Ti136  1  0.09479203  0.89606225  0.39380161  1
  Ti  Ti137  1  0.90978800  0.69726075  0.60956081  1
  Ti  Ti138  1  0.69740534  0.09029642  0.87774070  1
  Ti  Ti139  1  0.60392981  -0.00374926  0.02362581  1
  Ti  Ti140  1  0.48794182  0.49038879  0.88601652  1
  Ti  Ti141  1  0.79934036  0.78272634  0.24740720  1
  Ti  Ti142  1  0.70981565  0.31074926  0.12229622  1
  Ti  Ti143  1  0.39931925  0.19988444  0.49568954  1
  Ti  Ti144  1  0.39531519  0.78712574  0.00203775  1
  Ti  Ti145  1  0.30399225  0.69191249  0.12351911  1
  Ti  Ti146  1  0.39206491  -0.00841153  0.01162689  1
  Ti  Ti147  1  0.08774162  0.69551253  0.87741837  1
  Ti  Ti148  1  0.40949226  0.00838669  0.48686515  1
  Ti  Ti149  1  0.70080503  0.90234436  0.87810979  1
  Ti  Ti150  1  0.50958455  0.90508901  0.62323731  1
  Ti  Ti151  1  0.58692121  0.38840781  0.76674497  1
  Ti  Ti152  1  0.48344067  0.50912317  0.10820570  1
  Ti  Ti153  1  0.28980249  0.48814140  0.64351827  1
  Ti  Ti154  1  0.60308101  0.19530827  0.75232413  1
  Ti  Ti155  1  0.30906280  0.30217133  0.63148894  1
  Ti  Ti156  1  0.49737164  0.90409732  0.35702872  1
  Ti  Ti157  1  0.93112705  0.50826470  0.86593369  1
  Ti  Ti158  1  0.29608691  0.70583580  0.36740023  1
  Ti  Ti159  1  0.50127973  0.91138576  0.88801721  1
  Mo  Mo160  1  0.89768433  0.30063290  0.88186576  1
  Mo  Mo161  1  0.89092215  0.50050300  0.12573015  1
  Mo  Mo162  1  0.48754209  0.69849318  0.11428624  1
  Mo  Mo163  1  0.79119192  0.79097604  0.49810602  1
  Mo  Mo164  1  0.10314905  0.50839273  0.87990031  1
  Mo  Mo165  1  0.81569430  0.20081290  0.26339499  1
  Mo  Mo166  1  0.10294853  0.09636467  0.13307595  1
  Mo  Mo167  1  0.81532896  -0.01642831  0.26732157  1
  Mo  Mo168  1  0.00312642  0.41353267  0.75329391  1
  Mo  Mo169  1  0.19080479  0.20104348  0.25982461  1
  Mo  Mo170  1  0.71325198  0.30843596  0.36062009  1
  Mo  Mo171  1  0.30397040  0.90219795  0.37731310  1
  Mo  Mo172  1  -0.00496822  0.58975963  0.49428229  1
  Mo  Mo173  1  0.00029522  0.00084860  0.27778527  1
  Mo  Mo174  1  0.00101305  0.00666517  0.49297644  1
  Mo  Mo175  1  0.40409806  0.20665637  0.23791193  1
  Mo  Mo176  1  -0.01344286  0.62120894  0.75003866  1
  Mo  Mo177  1  0.19007934  0.41452784  0.24783666  1
  Mo  Mo178  1  0.00554987  0.79164270  0.49225911  1
  Mo  Mo179  1  0.70520472  0.29489104  0.62673702  1
  Mo  Mo180  1  0.79967253  0.60042333  0.77195338  1
  Mo  Mo181  1  0.38651474  0.59391479  -0.00889075  1
  Mo  Mo182  1  0.40096726  -0.00671421  0.23985257  1
  Mo  Mo183  1  -0.00192371  -0.00085559  -0.00004220  1
  Mo  Mo184  1  0.50745016  0.70639330  0.36511610  1
  Mo  Mo185  1  0.10443602  0.89402093  0.86494022  1
  Mo  Mo186  1  0.70159360  0.89024020  0.13927807  1
  Mo  Mo187  1  0.29869694  0.51171033  0.13024476  1
  Mo  Mo188  1  0.68189989  0.49536363  0.88296588  1
  Mo  Mo189  1  0.00416738  0.60796146  0.01096650  1
  Mo  Mo190  1  0.80084081  0.40460318  0.24134386  1
  Mo  Mo191  1  0.39734283  0.39943249  0.00809539  1
  Mo  Mo192  1  0.78977691  0.58614310  0.24367231  1
  Mo  Mo193  1  0.18848549  0.79085517  0.25205442  1
  Mo  Mo194  1  0.29802189  0.69395881  0.86940048  1
  Mo  Mo195  1  0.70134377  0.49366498  0.11013447  1
  Mo  Mo196  1  -0.00752849  0.41630566  0.49452774  1
  Mo  Mo197  1  0.20581269  0.39827397  0.74592086  1
  Mo  Mo198  1  0.70989229  0.49798433  0.36607990  1
  Mo  Mo199  1  0.40096096  0.39786005  0.75695470  1
