# generated using pymatgen
data_HfZrTaTiMo
_symmetry_space_group_name_H-M   'P 1'
_cell_length_a   15.21124285
_cell_length_b   15.20140599
_cell_length_c   16.85195591
_cell_angle_alpha   89.99979496
_cell_angle_beta   89.97721809
_cell_angle_gamma   90.04856671
_symmetry_Int_Tables_number   1
_chemical_formula_structural   HfZrTaTiMo
_chemical_formula_sum   'Hf40 Zr40 Ta40 Ti40 Mo40'
_cell_volume   3896.71444745
_cell_formula_units_Z   40
loop_
 _symmetry_equiv_pos_site_id
 _symmetry_equiv_pos_as_xyz
  1  'x, y, z'
loop_
 _atom_site_type_symbol
 _atom_site_label
 _atom_site_symmetry_multiplicity
 _atom_site_fract_x
 _atom_site_fract_y
 _atom_site_fract_z
 _atom_site_occupancy
  Hf  Hf0  1  0.10999354  0.31031818  0.86881323  1
  Hf  Hf1  1  0.18333648  0.79847076  0.25107944  1
  Hf  Hf2  1  0.68514775  0.30250080  0.14352435  1
  Hf  Hf3  1  0.29240596  0.29382379  0.38268314  1
  Hf  Hf4  1  0.41650177  0.19729185  0.72592279  1
  Hf  Hf5  1  0.80749516  0.19790843  0.50480822  1
  Hf  Hf6  1  0.69938744  0.29775549  0.63321310  1
  Hf  Hf7  1  0.91645279  0.07684095  0.13066986  1
  Hf  Hf8  1  0.78434589  0.77959685  0.23839672  1
  Hf  Hf9  1  0.41729036  0.60596511  0.26300602  1
  Hf  Hf10  1  0.30864695  0.29336179  0.87334579  1
  Hf  Hf11  1  0.10190584  0.50049660  0.61148252  1
  Hf  Hf12  1  0.29931379  0.49360093  0.60612394  1
  Hf  Hf13  1  0.38781502  0.39592831  0.74037452  1
  Hf  Hf14  1  0.80403998  0.42040300  0.24948506  1
  Hf  Hf15  1  0.30472629  0.29773414  0.12993566  1
  Hf  Hf16  1  0.88339493  0.88015796  0.63959286  1
  Hf  Hf17  1  0.90790824  0.49293666  0.62142862  1
  Hf  Hf18  1  0.31070443  0.49687784  0.12923706  1
  Hf  Hf19  1  0.50066327  0.49724415  0.86858823  1
  Hf  Hf20  1  0.87767759  0.69674084  0.37846492  1
  Hf  Hf21  1  0.49553667  0.30961971  0.38259638  1
  Hf  Hf22  1  0.20438480  0.78990973  0.75854533  1
  Hf  Hf23  1  0.49643738  0.70924929  0.87464474  1
  Hf  Hf24  1  0.19367210  0.18739834  0.52300097  1
  Hf  Hf25  1  -0.01681005  0.81042166  0.24364159  1
  Hf  Hf26  1  0.90320626  0.09556233  0.64021933  1
  Hf  Hf27  1  0.20675800  0.20175302  0.73214848  1
  Hf  Hf28  1  0.28923208  0.69862961  0.12838241  1
  Hf  Hf29  1  0.19394295  0.80318467  0.50546528  1
  Hf  Hf30  1  0.78584351  -0.00942555  0.75868332  1
  Hf  Hf31  1  -0.00138981  0.61387375  0.01445218  1
  Hf  Hf32  1  0.59983292  0.82138396  0.74756583  1
  Hf  Hf33  1  0.27978106  0.49938741  0.87237180  1
  Hf  Hf34  1  0.70444429  0.50736591  0.11853647  1
  Hf  Hf35  1  0.80574500  0.39922131  -0.00738547  1
  Hf  Hf36  1  0.30589618  0.70283876  0.37728182  1
  Hf  Hf37  1  0.29905685  0.89799561  0.13308487  1
  Hf  Hf38  1  0.60903832  0.61166380  0.74644322  1
  Hf  Hf39  1  0.80462299  -0.00960763  0.49963762  1
  Zr  Zr40  1  0.71027995  0.71025893  0.87646518  1
  Zr  Zr41  1  0.59487562  0.41316550  0.50612341  1
  Zr  Zr42  1  0.49710325  0.69783880  0.11143666  1
  Zr  Zr43  1  -0.01058487  0.18789250  -0.01329481  1
  Zr  Zr44  1  0.70314766  0.30430437  0.36425707  1
  Zr  Zr45  1  0.19800435  0.59265426  0.26616107  1
  Zr  Zr46  1  0.38827032  0.60169551  -0.01079357  1
  Zr  Zr47  1  0.11185250  0.50470138  0.12602565  1
  Zr  Zr48  1  0.50831302  0.49513781  0.12093276  1
  Zr  Zr49  1  0.58039672  0.80058950  0.24678235  1
  Zr  Zr50  1  0.70448177  0.90772459  0.11638921  1
  Zr  Zr51  1  0.21263406  0.19983358  0.00148653  1
  Zr  Zr52  1  0.09611765  0.90017869  0.64297346  1
  Zr  Zr53  1  0.20667950  -0.01627830  -0.01301241  1
  Zr  Zr54  1  0.49285138  0.91630587  0.12047901  1
  Zr  Zr55  1  0.31912655  0.09210125  0.86669823  1
  Zr  Zr56  1  0.60215304  0.38768202  -0.00807061  1
  Zr  Zr57  1  0.80805912  -0.01748591  0.25845535  1
  Zr  Zr58  1  -0.00224028  0.40246095  -0.00016920  1
  Zr  Zr59  1  0.70885582  0.10845663  0.13812246  1
  Zr  Zr60  1  0.18349779  0.01406169  0.25107324  1
  Zr  Zr61  1  0.29926198  0.89849691  0.36845785  1
  Zr  Zr62  1  0.30251016  0.69572644  0.62136660  1
  Zr  Zr63  1  0.80680794  0.39477304  0.50141592  1
  Zr  Zr64  1  0.09747957  0.48276395  0.38163661  1
  Zr  Zr65  1  0.59680835  0.80998355  -0.00148300  1
  Zr  Zr66  1  0.78542835  0.19919363  -0.01231064  1
  Zr  Zr67  1  0.70302369  0.09673616  0.37631133  1
  Zr  Zr68  1  0.00888069  0.01208047  0.50823309  1
  Zr  Zr69  1  0.39063697  0.00406710  0.49941605  1
  Zr  Zr70  1  0.08285659  0.90258780  0.10958990  1
  Zr  Zr71  1  0.92550929  0.10451721  0.35872286  1
  Zr  Zr72  1  0.89357372  0.28215819  0.13794666  1
  Zr  Zr73  1  -0.00100567  0.21930117  0.51521453  1
  Zr  Zr74  1  0.10735093  0.09799229  0.86815198  1
  Zr  Zr75  1  0.09542257  0.67303952  0.86767277  1
  Zr  Zr76  1  -0.01558596  0.60291840  0.23848252  1
  Zr  Zr77  1  0.40838127  0.00992499  0.26350416  1
  Zr  Zr78  1  -0.01168165  0.80275910  0.50436677  1
  Zr  Zr79  1  0.49939246  0.50993073  0.63363463  1
  Ta  Ta80  1  0.39918371  0.21226362  0.51987882  1
  Ta  Ta81  1  0.70384253  0.51721539  0.37849514  1
  Ta  Ta82  1  0.00388891  0.41801339  0.76215603  1
  Ta  Ta83  1  0.19562594  -0.00344506  0.50827336  1
  Ta  Ta84  1  -0.00173116  0.60118441  0.49606253  1
  Ta  Ta85  1  0.60008706  0.00005166  0.26385586  1
  Ta  Ta86  1  0.31256834  0.49001155  0.38993395  1
  Ta  Ta87  1  0.10108672  0.29540270  0.12744172  1
  Ta  Ta88  1  0.80379056  0.40435011  0.75484773  1
  Ta  Ta89  1  0.50773800  0.90126199  0.39341434  1
  Ta  Ta90  1  0.08689565  0.70493094  0.37852839  1
  Ta  Ta91  1  0.82236701  0.60739382  0.74985502  1
  Ta  Ta92  1  0.60293147  0.02612491  -0.00317902  1
  Ta  Ta93  1  0.82525542  0.80222760  0.00168147  1
  Ta  Ta94  1  0.61379050  0.61740580  0.50978764  1
  Ta  Ta95  1  0.50820791  0.10824764  0.87018115  1
  Ta  Ta96  1  0.79753072  0.19898320  0.75571873  1
  Ta  Ta97  1  0.38019404  0.81304667  -0.01437544  1
  Ta  Ta98  1  -0.00497470  -0.00809063  0.76956578  1
  Ta  Ta99  1  0.31192854  0.09899406  0.12505721  1
  Ta  Ta100  1  0.90129878  0.49768375  0.38250902  1
  Ta  Ta101  1  0.49365943  0.91911514  0.87656210  1
  Ta  Ta102  1  0.61786616  0.60229978  0.25290825  1
  Ta  Ta103  1  0.70760650  0.50817831  0.63593972  1
  Ta  Ta104  1  0.70585604  0.50316366  0.86695464  1
  Ta  Ta105  1  0.39885606  0.38931141  -0.00491602  1
  Ta  Ta106  1  0.80869541  0.00171733  -0.01863788  1
  Ta  Ta107  1  0.80666731  0.59740366  -0.00557291  1
  Ta  Ta108  1  0.69578226  0.87744162  0.38998304  1
  Ta  Ta109  1  0.91003595  0.30277448  0.35955673  1
  Ta  Ta110  1  -0.00268300  0.20454621  0.75200321  1
  Ta  Ta111  1  0.19041956  0.78089998  -0.01512363  1
  Ta  Ta112  1  0.00588921  0.39676390  0.24236118  1
  Ta  Ta113  1  0.19800038  0.60398756  0.48839695  1
  Ta  Ta114  1  0.58602527  0.19701974  0.26162024  1
  Ta  Ta115  1  0.50475175  0.29162651  0.86703489  1
  Ta  Ta116  1  0.41836776  0.59761543  0.49016389  1
  Ta  Ta117  1  0.51629529  0.09851025  0.61163786  1
  Ta  Ta118  1  0.40592512  0.40271968  0.26136326  1
  Ta  Ta119  1  0.49468031  0.90529030  0.61441133  1
  Ti  Ti120  1  0.59625488  0.39510519  0.74407734  1
  Ti  Ti121  1  0.20703489  -0.01219635  0.75302546  1
  Ti  Ti122  1  0.60413904  0.20399902  0.50217591  1
  Ti  Ti123  1  0.89839462  0.89427699  0.38005728  1
  Ti  Ti124  1  0.69298391  0.90819314  0.88401267  1
  Ti  Ti125  1  -0.01076726  -0.02439423  -0.03362206  1
  Ti  Ti126  1  0.20377408  0.39248754  0.25497236  1
  Ti  Ti127  1  0.68564944  0.90339667  0.60934804  1
  Ti  Ti128  1  0.30099770  0.08099051  0.62941218  1
  Ti  Ti129  1  0.40391835  -0.00940012  0.74051236  1
  Ti  Ti130  1  0.69037169  0.10796265  0.86884374  1
  Ti  Ti131  1  0.19284724  0.58138431  0.74278158  1
  Ti  Ti132  1  0.80143174  0.60465162  0.51144930  1
  Ti  Ti133  1  0.49651723  0.30109888  0.13662317  1
  Ti  Ti134  1  0.39578016  0.20032938  0.25639299  1
  Ti  Ti135  1  0.89664212  0.30132415  0.86442033  1
  Ti  Ti136  1  0.10783046  0.10401592  0.11508019  1
  Ti  Ti137  1  0.69045638  0.29918064  0.86002711  1
  Ti  Ti138  1  0.39755094  0.80770869  0.75031574  1
  Ti  Ti139  1  0.69818441  0.69464916  0.10399191  1
  Ti  Ti140  1  0.08486410  0.69338327  0.63135539  1
  Ti  Ti141  1  0.40454755  0.00841615  -0.00089406  1
  Ti  Ti142  1  0.50747660  0.11172189  0.13088451  1
  Ti  Ti143  1  0.59115156  0.01396238  0.74627523  1
  Ti  Ti144  1  0.50319183  0.71004886  0.62565729  1
  Ti  Ti145  1  0.38987495  0.61021234  0.75544233  1
  Ti  Ti146  1  0.49895783  0.10650283  0.39207474  1
  Ti  Ti147  1  0.09402682  0.28222213  0.36936678  1
  Ti  Ti148  1  0.40069064  0.79750243  0.50619835  1
  Ti  Ti149  1  -0.02077483  0.78393044  0.76358075  1
  Ti  Ti150  1  0.09065623  0.91337076  0.37682433  1
  Ti  Ti151  1  0.42143262  0.19909739  0.00493645  1
  Ti  Ti152  1  0.71631883  0.71415059  0.62978791  1
  Ti  Ti153  1  0.20273819  0.40559224  0.00447877  1
  Ti  Ti154  1  0.51569704  0.70793286  0.38465297  1
  Ti  Ti155  1  0.19796997  0.20050149  0.24771214  1
  Ti  Ti156  1  0.19210063  0.38391907  0.50036839  1
  Ti  Ti157  1  0.69916871  0.09472500  0.62340858  1
  Ti  Ti158  1  0.09137810  0.31349234  0.63830198  1
  Ti  Ti159  1  0.29066040  0.10474232  0.38335747  1
  Mo  Mo160  1  0.09994510  0.09422381  0.65081053  1
  Mo  Mo161  1  0.59258776  0.20208625  0.00152383  1
  Mo  Mo162  1  0.19561564  0.40049982  0.74247578  1
  Mo  Mo163  1  0.19924753  0.59752885  0.00332211  1
  Mo  Mo164  1  0.30644323  0.89555494  0.86868951  1
  Mo  Mo165  1  0.89657396  0.90168366  0.11363525  1
  Mo  Mo166  1  0.80382475  0.20260291  0.25381209  1
  Mo  Mo167  1  0.02100826  0.19511241  0.24363915  1
  Mo  Mo168  1  0.10158057  0.71048096  0.11856129  1
  Mo  Mo169  1  0.09759452  0.49441758  0.88264817  1
  Mo  Mo170  1  0.60257798  0.00445750  0.49746911  1
  Mo  Mo171  1  0.11553822  0.10782871  0.38173687  1
  Mo  Mo172  1  0.29481092  0.30355505  0.61616043  1
  Mo  Mo173  1  0.90108244  0.30310929  0.64852654  1
  Mo  Mo174  1  0.59233894  0.79780273  0.51415565  1
  Mo  Mo175  1  0.61088054  0.59591684  -0.01758205  1
  Mo  Mo176  1  0.00486294  0.59841278  0.74194188  1
  Mo  Mo177  1  0.90283433  0.50794217  0.87093239  1
  Mo  Mo178  1  0.40270905  0.80108318  0.25767452  1
  Mo  Mo179  1  0.59105227  0.41056846  0.25770727  1
  Mo  Mo180  1  0.30283718  0.69698111  0.86419409  1
  Mo  Mo181  1  0.89077077  0.70209759  0.11843099  1
  Mo  Mo182  1  0.78703990  0.78890524  0.50471115  1
  Mo  Mo183  1  0.00874902  -0.00739902  0.25264129  1
  Mo  Mo184  1  0.89232278  0.09884351  0.86253525  1
  Mo  Mo185  1  0.30476631  0.89612339  0.62776615  1
  Mo  Mo186  1  0.79815941  0.60267320  0.24583127  1
  Mo  Mo187  1  0.90110524  0.69171287  0.62289055  1
  Mo  Mo188  1  0.88420679  0.88440282  0.86103482  1
  Mo  Mo189  1  0.39788403  0.40226538  0.49994406  1
  Mo  Mo190  1  0.60493236  0.19701548  0.74176211  1
  Mo  Mo191  1  0.50373932  0.30228571  0.61758044  1
  Mo  Mo192  1  0.00199477  0.80309759  -0.01743103  1
  Mo  Mo193  1  0.89826243  0.69190692  0.87544633  1
  Mo  Mo194  1  0.78688801  0.79543952  0.75061915  1
  Mo  Mo195  1  0.09721874  0.88778189  0.86374839  1
  Mo  Mo196  1  0.00037907  0.39418587  0.49628582  1
  Mo  Mo197  1  0.69138067  0.69681685  0.38035203  1
  Mo  Mo198  1  0.51261940  0.51149122  0.37702379  1
  Mo  Mo199  1  0.89800111  0.49606149  0.12444505  1
