# generated using pymatgen
data_HfZrTaTiMo
_symmetry_space_group_name_H-M   'P 1'
_cell_length_a   15.19336333
_cell_length_b   15.17774588
_cell_length_c   16.83166231
_cell_angle_alpha   89.93788506
_cell_angle_beta   90.01244002
_cell_angle_gamma   89.95663398
_symmetry_Int_Tables_number   1
_chemical_formula_structural   HfZrTaTiMo
_chemical_formula_sum   'Hf40 Zr40 Ta40 Ti40 Mo40'
_cell_volume   3881.39480368
_cell_formula_units_Z   40
loop_
 _symmetry_equiv_pos_site_id
 _symmetry_equiv_pos_as_xyz
  1  'x, y, z'
loop_
 _atom_site_type_symbol
 _atom_site_label
 _atom_site_symmetry_multiplicity
 _atom_site_fract_x
 _atom_site_fract_y
 _atom_site_fract_z
 _atom_site_occupancy
  Hf  Hf0  1  0.39526087  -0.00898267  0.24713649  1
  Hf  Hf1  1  0.49273185  0.69117734  0.11827539  1
  Hf  Hf2  1  0.10731605  0.07728308  0.11705570  1
  Hf  Hf3  1  0.50270605  0.10238800  0.10905799  1
  Hf  Hf4  1  0.91496002  0.11108247  0.37991228  1
  Hf  Hf5  1  0.69375066  0.33291257  0.12063872  1
  Hf  Hf6  1  0.19767605  0.58854189  0.73622583  1
  Hf  Hf7  1  0.00326028  0.59061714  0.00866128  1
  Hf  Hf8  1  0.00169325  0.40123159  0.74600807  1
  Hf  Hf9  1  0.48888827  0.89980641  0.11177194  1
  Hf  Hf10  1  0.17517931  0.80195461  0.00536943  1
  Hf  Hf11  1  0.11689611  0.70343400  0.36756147  1
  Hf  Hf12  1  0.40132468  0.39902659  0.26102469  1
  Hf  Hf13  1  0.28745713  0.48689933  0.61273981  1
  Hf  Hf14  1  0.91948150  0.88996277  0.14246648  1
  Hf  Hf15  1  0.39698538  0.21689336  -0.01889814  1
  Hf  Hf16  1  0.50095037  0.09704375  0.37545070  1
  Hf  Hf17  1  0.10961636  0.50307144  0.87512867  1
  Hf  Hf18  1  0.20088384  0.19639752  0.74767289  1
  Hf  Hf19  1  0.00707726  0.80526696  0.49223358  1
  Hf  Hf20  1  0.49262914  0.30016710  0.11719754  1
  Hf  Hf21  1  0.40831151  0.19665495  0.51212646  1
  Hf  Hf22  1  0.08527888  0.70343061  0.14497927  1
  Hf  Hf23  1  0.29042183  0.30992537  0.12649108  1
  Hf  Hf24  1  0.79383093  0.59632455  0.49779072  1
  Hf  Hf25  1  0.60272767  0.58583613  0.24307551  1
  Hf  Hf26  1  0.60614504  0.00474137  0.24152208  1
  Hf  Hf27  1  0.00610244  0.60592168  0.73875691  1
  Hf  Hf28  1  0.20784921  0.39974773  -0.00762328  1
  Hf  Hf29  1  0.11052036  0.48281555  0.13707471  1
  Hf  Hf30  1  0.29862441  0.50979192  0.38836264  1
  Hf  Hf31  1  0.28671123  0.30115755  0.37951745  1
  Hf  Hf32  1  0.71505564  0.10614259  0.36964170  1
  Hf  Hf33  1  0.82465817  0.00063982  0.00221756  1
  Hf  Hf34  1  0.39424184  0.19389679  0.25445070  1
  Hf  Hf35  1  0.79499155  0.80857885  0.73940520  1
  Hf  Hf36  1  0.20878699  0.19604007  0.51622992  1
  Hf  Hf37  1  0.26904487  0.69501521  0.87839583  1
  Hf  Hf38  1  -0.02278958  0.78957907  0.00056926  1
  Hf  Hf39  1  0.69945364  0.50159158  0.86392475  1
  Zr  Zr40  1  0.71345044  0.12059546  0.12530308  1
  Zr  Zr41  1  0.61212660  0.79781785  0.00163752  1
  Zr  Zr42  1  0.71534935  0.89962933  0.12748339  1
  Zr  Zr43  1  0.51880120  0.88902790  0.37002588  1
  Zr  Zr44  1  0.49224360  0.49143137  0.62620608  1
  Zr  Zr45  1  0.59779571  0.58120301  -0.00083932  1
  Zr  Zr46  1  0.48385493  0.69707562  0.36894698  1
  Zr  Zr47  1  0.81801772  0.24022106  0.24995543  1
  Zr  Zr48  1  0.29171312  0.88819303  0.37617119  1
  Zr  Zr49  1  0.40673701  -0.00535397  0.50930708  1
  Zr  Zr50  1  0.80524703  0.62421576  0.01695244  1
  Zr  Zr51  1  0.00164739  0.59245431  0.48763518  1
  Zr  Zr52  1  0.68874166  0.72034715  0.36822976  1
  Zr  Zr53  1  0.30175728  0.10347612  0.10792990  1
  Zr  Zr54  1  0.59956406  0.60852539  0.74121771  1
  Zr  Zr55  1  0.81164197  0.21165697  -0.00772751  1
  Zr  Zr56  1  0.01197881  0.19385314  0.51494099  1
  Zr  Zr57  1  0.70430310  0.29383237  0.62683024  1
  Zr  Zr58  1  0.88928723  0.90530949  0.37059918  1
  Zr  Zr59  1  0.48896971  0.69530842  0.88143065  1
  Zr  Zr60  1  0.88540752  0.47674060  0.36922316  1
  Zr  Zr61  1  -0.00152578  0.37156808  0.25557542  1
  Zr  Zr62  1  0.89532570  0.91893510  0.61928693  1
  Zr  Zr63  1  0.89234614  0.48180200  0.13877256  1
  Zr  Zr64  1  0.20152792  -0.01860229  0.75688480  1
  Zr  Zr65  1  0.77319798  0.81163065  0.50354354  1
  Zr  Zr66  1  0.71273666  0.71063503  0.87437199  1
  Zr  Zr67  1  0.81003673  0.59857116  0.73844433  1
  Zr  Zr68  1  0.89947463  0.70196076  0.61297061  1
  Zr  Zr69  1  0.79758033  0.41137484  -0.00947267  1
  Zr  Zr70  1  0.39279740  0.79155497  0.50357298  1
  Zr  Zr71  1  0.58537697  0.82096632  0.76046741  1
  Zr  Zr72  1  0.60077968  0.22492301  0.26122566  1
  Zr  Zr73  1  0.37584218  0.80343876  0.76238160  1
  Zr  Zr74  1  0.41378953  -0.00319198  0.75288743  1
  Zr  Zr75  1  0.59811532  0.62080873  0.51692467  1
  Zr  Zr76  1  0.51050578  0.09538701  0.88309228  1
  Zr  Zr77  1  0.60542146  0.19924632  0.49757861  1
  Zr  Zr78  1  -0.00160387  0.18153159  -0.00123195  1
  Zr  Zr79  1  0.50977237  0.49547809  0.38648149  1
  Ta  Ta80  1  0.29202575  0.89149854  0.62622147  1
  Ta  Ta81  1  0.20892206  0.59516942  0.24850441  1
  Ta  Ta82  1  0.61095883  0.19239967  0.75562079  1
  Ta  Ta83  1  0.02262461  -0.01226528  0.25968363  1
  Ta  Ta84  1  0.28583755  0.90702254  0.11056637  1
  Ta  Ta85  1  0.00302899  0.17828346  0.23996041  1
  Ta  Ta86  1  0.11005013  0.48258047  0.37424425  1
  Ta  Ta87  1  0.29449616  0.09554618  0.37979483  1
  Ta  Ta88  1  0.70879377  0.49506429  0.62818289  1
  Ta  Ta89  1  0.09300503  0.29436351  0.86785589  1
  Ta  Ta90  1  0.48695004  0.71767443  0.63491154  1
  Ta  Ta91  1  0.39316674  0.40641898  0.76343523  1
  Ta  Ta92  1  0.39039934  0.59933273  0.74964872  1
  Ta  Ta93  1  0.90700200  0.50157548  0.87553772  1
  Ta  Ta94  1  0.31079129  0.30238571  0.63793180  1
  Ta  Ta95  1  0.41299427  0.41132302  -0.02620629  1
  Ta  Ta96  1  0.50010350  0.48447551  0.12193533  1
  Ta  Ta97  1  0.19782147  0.60004430  0.01239486  1
  Ta  Ta98  1  0.90259814  0.31010164  0.61280654  1
  Ta  Ta99  1  0.39608718  0.59772982  0.24417430  1
  Ta  Ta100  1  0.30044449  0.09973731  0.87817493  1
  Ta  Ta101  1  0.19678685  -0.00650085  0.50999744  1
  Ta  Ta102  1  0.60699908  0.21831326  -0.01334836  1
  Ta  Ta103  1  0.79439922  0.61084063  0.24401148  1
  Ta  Ta104  1  0.19371018  0.20118820  -0.01560737  1
  Ta  Ta105  1  -0.00023207  0.59178637  0.26108101  1
  Ta  Ta106  1  0.59424275  0.39272771  0.74962258  1
  Ta  Ta107  1  0.81337374  0.20503122  0.75738770  1
  Ta  Ta108  1  0.67703709  0.91513852  0.63099255  1
  Ta  Ta109  1  0.52491342  0.09139655  0.63371399  1
  Ta  Ta110  1  -0.00379893  -0.00495418  0.75242688  1
  Ta  Ta111  1  0.09992577  0.08205325  0.63564238  1
  Ta  Ta112  1  -0.00111603  0.38422524  -0.00345148  1
  Ta  Ta113  1  0.29199526  0.70250831  0.12505820  1
  Ta  Ta114  1  0.19008220  0.20270073  0.25203303  1
  Ta  Ta115  1  0.71476255  0.09779103  0.62800587  1
  Ta  Ta116  1  0.40335884  0.38479382  0.50028365  1
  Ta  Ta117  1  0.89751537  0.70149769  0.36374699  1
  Ta  Ta118  1  0.71000844  0.32842221  0.38734291  1
  Ta  Ta119  1  0.60244071  0.40094970  0.51060138  1
  Ti  Ti120  1  0.09316277  0.87854522  0.86562078  1
  Ti  Ti121  1  0.79735319  0.00889475  0.75327870  1
  Ti  Ti122  1  0.61462028  0.00662089  0.00469950  1
  Ti  Ti123  1  0.71184757  0.10127912  0.87778773  1
  Ti  Ti124  1  0.79843662  0.01379183  0.49961183  1
  Ti  Ti125  1  0.11021172  0.30752666  0.62730747  1
  Ti  Ti126  1  0.08900114  0.49039391  0.60775365  1
  Ti  Ti127  1  0.30977294  0.50148444  0.12433955  1
  Ti  Ti128  1  0.81944792  0.01773040  0.24356651  1
  Ti  Ti129  1  0.38729079  0.59283040  -0.00514535  1
  Ti  Ti130  1  0.89655154  0.89629104  0.86785299  1
  Ti  Ti131  1  0.38571223  0.79412339  -0.00094937  1
  Ti  Ti132  1  0.17875761  0.78214060  0.73269284  1
  Ti  Ti133  1  0.61159077  -0.01006010  0.49415210  1
  Ti  Ti134  1  0.09087618  0.28891527  0.38216601  1
  Ti  Ti135  1  0.90864643  0.10015064  0.86386681  1
  Ti  Ti136  1  0.29434837  0.90667598  0.89622502  1
  Ti  Ti137  1  0.41355703  0.20498525  0.75314106  1
  Ti  Ti138  1  0.70493966  0.91355547  0.88128480  1
  Ti  Ti139  1  0.70334380  0.30199810  0.86694590  1
  Ti  Ti140  1  0.90878753  0.70021315  0.86623198  1
  Ti  Ti141  1  0.89817829  0.10946410  0.62641577  1
  Ti  Ti142  1  -0.00094984  0.80140942  0.73828470  1
  Ti  Ti143  1  0.38597252  0.79311709  0.24178055  1
  Ti  Ti144  1  0.09600405  0.28757582  0.12041274  1
  Ti  Ti145  1  0.19205809  0.81694532  0.24365371  1
  Ti  Ti146  1  0.29074933  0.30666022  0.85954479  1
  Ti  Ti147  1  0.19605326  0.79662981  0.51222079  1
  Ti  Ti148  1  0.01069355  -0.00296972  0.49953870  1
  Ti  Ti149  1  0.30856707  0.09356929  0.63586800  1
  Ti  Ti150  1  0.60291176  0.79597367  0.23185778  1
  Ti  Ti151  1  0.80757724  0.39758824  0.75124296  1
  Ti  Ti152  1  0.39388640  0.60344965  0.51200523  1
  Ti  Ti153  1  0.49639438  0.90472742  0.89870945  1
  Ti  Ti154  1  0.19911153  0.60988572  0.50710467  1
  Ti  Ti155  1  0.20516556  0.00601661  0.25215954  1
  Ti  Ti156  1  0.10186350  0.09030712  0.86818334  1
  Ti  Ti157  1  0.01514688  -0.01949014  -0.00975554  1
  Ti  Ti158  1  0.11214423  0.09657345  0.37826888  1
  Ti  Ti159  1  -0.00013824  0.19854717  0.74245773  1
  Mo  Mo160  1  0.00739890  0.39491832  0.49595848  1
  Mo  Mo161  1  0.18995277  0.00077444  -0.02003262  1
  Mo  Mo162  1  0.90215260  0.29076759  0.40073226  1
  Mo  Mo163  1  0.49893076  0.50307205  0.86015438  1
  Mo  Mo164  1  0.79882406  0.40241325  0.50880285  1
  Mo  Mo165  1  0.49231751  0.90733221  0.62701488  1
  Mo  Mo166  1  0.89738108  0.70010190  0.14994631  1
  Mo  Mo167  1  0.90574284  0.29181636  0.12063966  1
  Mo  Mo168  1  0.10177233  0.69728385  0.61209287  1
  Mo  Mo169  1  0.49866519  0.29261534  0.64310344  1
  Mo  Mo170  1  0.80382295  0.19948682  0.50117172  1
  Mo  Mo171  1  0.29691714  0.69393770  0.62832930  1
  Mo  Mo172  1  0.09510028  0.89651817  0.62745196  1
  Mo  Mo173  1  0.70161958  0.70524415  0.13059885  1
  Mo  Mo174  1  0.59442326  0.39360972  -0.01882715  1
  Mo  Mo175  1  0.30109349  0.50554874  0.87554625  1
  Mo  Mo176  1  0.19467572  0.39315104  0.50133540  1
  Mo  Mo177  1  0.69492985  0.51030456  0.38395110  1
  Mo  Mo178  1  0.10823167  0.91100290  0.37966404  1
  Mo  Mo179  1  0.80635711  0.81185810  -0.00463384  1
  Mo  Mo180  1  0.08628832  0.69759849  0.87233697  1
  Mo  Mo181  1  0.19774093  0.39334490  0.75082795  1
  Mo  Mo182  1  0.49968859  0.30112245  0.38476276  1
  Mo  Mo183  1  0.50405962  0.29936607  0.85834859  1
  Mo  Mo184  1  0.61401664  0.00523286  0.76015540  1
  Mo  Mo185  1  0.68924723  0.50974676  0.11942231  1
  Mo  Mo186  1  0.90780234  0.30407531  0.86445617  1
  Mo  Mo187  1  0.59142941  0.40095638  0.25534119  1
  Mo  Mo188  1  0.76354217  0.42550281  0.25193794  1
  Mo  Mo189  1  0.70105947  0.91711998  0.36057878  1
  Mo  Mo190  1  0.39696337  -0.00244519  -0.00573052  1
  Mo  Mo191  1  0.89859011  0.48860592  0.61668577  1
  Mo  Mo192  1  0.68970471  0.70780085  0.62877119  1
  Mo  Mo193  1  0.58725872  0.81464481  0.51410034  1
  Mo  Mo194  1  0.29745566  0.69475584  0.36689515  1
  Mo  Mo195  1  0.00355519  0.79729385  0.26991557  1
  Mo  Mo196  1  0.79543972  0.80417394  0.25526119  1
  Mo  Mo197  1  0.10578084  0.89646533  0.12691415  1
  Mo  Mo198  1  0.91043972  0.09274236  0.13057363  1
  Mo  Mo199  1  0.19865305  0.39811605  0.25332460  1
