# generated using pymatgen
data_HfZrTaTiMo
_symmetry_space_group_name_H-M   'P 1'
_cell_length_a   15.20716163
_cell_length_b   15.20764133
_cell_length_c   16.86444716
_cell_angle_alpha   90.00458997
_cell_angle_beta   89.96352967
_cell_angle_gamma   90.04472623
_symmetry_Int_Tables_number   1
_chemical_formula_structural   HfZrTaTiMo
_chemical_formula_sum   'Hf40 Zr40 Ta40 Ti40 Mo40'
_cell_volume   3900.15538734
_cell_formula_units_Z   40
loop_
 _symmetry_equiv_pos_site_id
 _symmetry_equiv_pos_as_xyz
  1  'x, y, z'
loop_
 _atom_site_type_symbol
 _atom_site_label
 _atom_site_symmetry_multiplicity
 _atom_site_fract_x
 _atom_site_fract_y
 _atom_site_fract_z
 _atom_site_occupancy
  Hf  Hf0  1  0.51360279  0.30441422  0.36895459  1
  Hf  Hf1  1  0.48418498  0.70436053  0.37710184  1
  Hf  Hf2  1  0.80137202  0.81124137  0.25909949  1
  Hf  Hf3  1  0.10926144  0.70220093  0.37242214  1
  Hf  Hf4  1  0.49225209  0.11881670  0.88578548  1
  Hf  Hf5  1  0.48968723  0.92730687  0.63533559  1
  Hf  Hf6  1  0.20448787  0.39553549  0.74459295  1
  Hf  Hf7  1  0.71960185  0.48348264  0.12530111  1
  Hf  Hf8  1  0.89856165  0.48872604  0.37754196  1
  Hf  Hf9  1  0.32550344  0.10985698  0.12529399  1
  Hf  Hf10  1  0.89325893  0.89444404  0.87824242  1
  Hf  Hf11  1  0.41303371  0.19377012  0.49894729  1
  Hf  Hf12  1  0.00409789  0.20729425  0.49018685  1
  Hf  Hf13  1  0.41183459  0.40257129  0.73798463  1
  Hf  Hf14  1  0.20618638  0.18584212  0.49614551  1
  Hf  Hf15  1  0.52153203  0.31238721  0.87515065  1
  Hf  Hf16  1  0.20472840  -0.00575164  0.75527169  1
  Hf  Hf17  1  -0.00004655  0.41964006  0.76102259  1
  Hf  Hf18  1  0.59104196  0.58754808  0.01327826  1
  Hf  Hf19  1  0.08510555  0.89606001  0.13711053  1
  Hf  Hf20  1  0.59813512  0.01100384  0.76461014  1
  Hf  Hf21  1  0.00403023  0.00477342  0.48074055  1
  Hf  Hf22  1  0.00052353  0.81307208  0.48359103  1
  Hf  Hf23  1  0.00005593  0.00884001  0.75653742  1
  Hf  Hf24  1  0.00130952  0.60231027  0.49277304  1
  Hf  Hf25  1  0.79824649  0.00509006  -0.00216501  1
  Hf  Hf26  1  0.80623259  0.59968624  0.25173746  1
  Hf  Hf27  1  0.21207994  0.60245524  0.25476191  1
  Hf  Hf28  1  0.41112754  0.40085469  0.24235925  1
  Hf  Hf29  1  0.69051654  0.68951443  0.62859428  1
  Hf  Hf30  1  0.59160979  0.00410730  0.49961437  1
  Hf  Hf31  1  0.29535313  0.69212433  0.86736793  1
  Hf  Hf32  1  0.39730871  0.59908495  0.52090679  1
  Hf  Hf33  1  0.21738118  0.00423712  0.25781315  1
  Hf  Hf34  1  -0.01635011  0.79280320  -0.00109641  1
  Hf  Hf35  1  0.91444431  0.29787401  0.62948365  1
  Hf  Hf36  1  0.10451745  0.11098708  0.88009026  1
  Hf  Hf37  1  0.19600935  0.00183479  0.00237644  1
  Hf  Hf38  1  0.49434864  0.88756829  0.87031784  1
  Hf  Hf39  1  0.30577569  0.49927089  0.12129641  1
  Zr  Zr40  1  0.69411103  0.48511618  0.35737495  1
  Zr  Zr41  1  0.08985545  0.69166079  0.13457465  1
  Zr  Zr42  1  0.20912115  0.39423822  0.00249792  1
  Zr  Zr43  1  0.58931605  0.58964923  0.23366980  1
  Zr  Zr44  1  -0.01477225  0.79611870  0.74749862  1
  Zr  Zr45  1  0.07456866  0.67363676  0.86111103  1
  Zr  Zr46  1  0.29240909  0.70242551  0.11274579  1
  Zr  Zr47  1  0.79151366  0.80273262  0.48464523  1
  Zr  Zr48  1  0.10415776  0.51304053  0.62514695  1
  Zr  Zr49  1  0.18513975  0.79292681  -0.00992127  1
  Zr  Zr50  1  0.09185439  0.10271187  0.14062124  1
  Zr  Zr51  1  0.79723144  0.39364262  0.76007205  1
  Zr  Zr52  1  0.81224872  0.59888217  0.75921123  1
  Zr  Zr53  1  0.89263046  0.69635267  0.61354096  1
  Zr  Zr54  1  0.31464052  0.28315835  0.87342357  1
  Zr  Zr55  1  0.69267703  0.10475099  0.62571151  1
  Zr  Zr56  1  0.59262073  0.18167471  0.23318337  1
  Zr  Zr57  1  0.58583693  0.79968049  0.00784692  1
  Zr  Zr58  1  0.89483487  0.90586338  0.62122817  1
  Zr  Zr59  1  0.10121373  0.11087226  0.35376227  1
  Zr  Zr60  1  0.89411171  0.10222546  0.62272242  1
  Zr  Zr61  1  0.52297285  0.30067599  0.62606368  1
  Zr  Zr62  1  0.38692957  0.80416120  0.73629428  1
  Zr  Zr63  1  0.70884235  0.70313352  0.12251996  1
  Zr  Zr64  1  0.61240870  0.40489483  0.49709115  1
  Zr  Zr65  1  0.29849058  0.30122312  0.37670275  1
  Zr  Zr66  1  0.20312039  0.39549549  0.51321618  1
  Zr  Zr67  1  0.69056180  0.69812637  0.87913283  1
  Zr  Zr68  1  0.59043764  0.79983726  0.50754325  1
  Zr  Zr69  1  0.58164746  0.80501464  0.24085907  1
  Zr  Zr70  1  0.10169104  0.10534670  0.62555887  1
  Zr  Zr71  1  0.79264742  0.00149730  0.76739220  1
  Zr  Zr72  1  0.60794769  0.00000387  -0.01176751  1
  Zr  Zr73  1  0.70403288  0.48419533  0.89106208  1
  Zr  Zr74  1  0.39080345  0.80607374  0.52072362  1
  Zr  Zr75  1  0.30867492  0.50648200  0.38309410  1
  Zr  Zr76  1  0.20460244  0.20320655  0.01530267  1
  Zr  Zr77  1  0.90003377  0.30855617  0.89472879  1
  Zr  Zr78  1  0.30685774  0.89565960  0.11855940  1
  Zr  Zr79  1  0.42736823  -0.01045968  0.25200593  1
  Ta  Ta80  1  0.08724189  0.31995123  0.13082577  1
  Ta  Ta81  1  0.00705943  0.59213047  0.26255862  1
  Ta  Ta82  1  0.41020758  0.19108119  0.73858633  1
  Ta  Ta83  1  0.30371505  0.28660317  0.62514894  1
  Ta  Ta84  1  0.00971279  0.42674397  -0.00569261  1
  Ta  Ta85  1  0.27550657  0.68701991  0.63340743  1
  Ta  Ta86  1  0.40393357  0.60354168  0.24558649  1
  Ta  Ta87  1  0.88905652  0.49385656  0.61192499  1
  Ta  Ta88  1  0.59530435  0.79714494  0.74306737  1
  Ta  Ta89  1  -0.00275265  0.00191988  0.00174340  1
  Ta  Ta90  1  0.00108950  0.39589227  0.50069487  1
  Ta  Ta91  1  0.29609089  0.89836321  0.88309735  1
  Ta  Ta92  1  0.21047797  0.19364159  0.74594341  1
  Ta  Ta93  1  0.92437271  0.50137522  0.13092251  1
  Ta  Ta94  1  0.18423948  0.58383736  -0.00643684  1
  Ta  Ta95  1  0.10595871  0.89861578  0.62106819  1
  Ta  Ta96  1  0.39635506  0.59649976  -0.00669910  1
  Ta  Ta97  1  0.79319958  0.00988239  0.24905074  1
  Ta  Ta98  1  0.18881761  0.79844396  0.75108768  1
  Ta  Ta99  1  0.69717813  0.49444777  0.63000078  1
  Ta  Ta100  1  0.40279239  -0.00067409  -0.00530220  1
  Ta  Ta101  1  0.79544706  0.20641549  0.23344107  1
  Ta  Ta102  1  0.79461002  0.00669767  0.48316674  1
  Ta  Ta103  1  0.30708831  0.49697354  0.87168690  1
  Ta  Ta104  1  0.19914818  0.79511308  0.49974840  1
  Ta  Ta105  1  0.10584119  0.49385116  0.38181404  1
  Ta  Ta106  1  0.72055547  0.30158910  0.62214922  1
  Ta  Ta107  1  0.31235383  0.08115678  0.62206297  1
  Ta  Ta108  1  0.80471787  0.19839015  0.76380396  1
  Ta  Ta109  1  0.68844969  0.69454185  0.37155165  1
  Ta  Ta110  1  0.41494935  0.39933151  0.00522497  1
  Ta  Ta111  1  0.19648318  0.40487587  0.24518348  1
  Ta  Ta112  1  0.68138320  0.90930902  0.36666069  1
  Ta  Ta113  1  0.69901464  0.90168527  0.62829442  1
  Ta  Ta114  1  0.80083921  0.20766962  0.49053210  1
  Ta  Ta115  1  0.61187467  0.20022374  0.49230725  1
  Ta  Ta116  1  0.30535650  0.88522792  0.37470257  1
  Ta  Ta117  1  0.89111451  0.10997117  0.36209135  1
  Ta  Ta118  1  0.50249152  0.50627184  0.86908134  1
  Ta  Ta119  1  0.90352683  0.11132424  0.88796097  1
  Ti  Ti120  1  0.39151938  0.00130122  0.48582799  1
  Ti  Ti121  1  0.00914280  0.21257416  0.75792549  1
  Ti  Ti122  1  0.19462101  0.80667676  0.25693956  1
  Ti  Ti123  1  0.60178474  0.19598911  0.01515707  1
  Ti  Ti124  1  0.49171550  0.69114951  0.86766348  1
  Ti  Ti125  1  -0.01278406  0.21461268  0.24121209  1
  Ti  Ti126  1  0.09272972  0.70376890  0.62593371  1
  Ti  Ti127  1  0.78672832  0.80213629  0.75521787  1
  Ti  Ti128  1  0.68819288  0.91552032  0.13217058  1
  Ti  Ti129  1  0.79018507  0.20647946  0.01224726  1
  Ti  Ti130  1  0.48679345  0.28628065  0.12356292  1
  Ti  Ti131  1  0.50161232  0.50323064  0.37536774  1
  Ti  Ti132  1  0.89077989  0.90067381  0.12558011  1
  Ti  Ti133  1  0.47929798  0.70302999  0.11765040  1
  Ti  Ti134  1  0.20335268  -0.01157681  0.48495818  1
  Ti  Ti135  1  0.39323649  0.19329304  0.26347765  1
  Ti  Ti136  1  0.00029587  0.20544349  0.01244935  1
  Ti  Ti137  1  0.38626593  0.79326880  0.25020320  1
  Ti  Ti138  1  0.90375173  0.70345052  0.13527625  1
  Ti  Ti139  1  0.10513453  0.30482730  0.88003386  1
  Ti  Ti140  1  0.09454935  0.89925422  0.87575161  1
  Ti  Ti141  1  0.60818127  0.38474372  0.01844285  1
  Ti  Ti142  1  0.40212242  0.59718817  0.73471660  1
  Ti  Ti143  1  0.82457555  0.59761441  0.00058187  1
  Ti  Ti144  1  0.41014344  0.40292822  0.51722181  1
  Ti  Ti145  1  -0.01264083  -0.01816303  0.26503011  1
  Ti  Ti146  1  0.69895311  0.10685657  0.36833432  1
  Ti  Ti147  1  0.59311979  0.60012693  0.50261750  1
  Ti  Ti148  1  0.20636504  0.21402663  0.24087990  1
  Ti  Ti149  1  0.89877917  0.09726448  0.12579387  1
  Ti  Ti150  1  0.39103901  0.01061652  0.76581478  1
  Ti  Ti151  1  0.61552541  0.21252276  0.75580202  1
  Ti  Ti152  1  0.89727333  0.30218956  0.36710912  1
  Ti  Ti153  1  0.89158167  0.31621872  0.11755655  1
  Ti  Ti154  1  0.89689035  0.70125101  0.37207289  1
  Ti  Ti155  1  0.70979972  0.29785685  0.35991075  1
  Ti  Ti156  1  0.09239978  0.30999936  0.36065410  1
  Ti  Ti157  1  0.78396711  0.58808460  0.48971075  1
  Ti  Ti158  1  0.78873079  0.80554439  -0.00034217  1
  Ti  Ti159  1  0.50671368  0.09232482  0.37275329  1
  Mo  Mo160  1  0.49846675  0.70087541  0.63588359  1
  Mo  Mo161  1  0.81113484  0.40200940  0.00518980  1
  Mo  Mo162  1  0.30881701  0.09723466  0.37427683  1
  Mo  Mo163  1  -0.00786446  0.79623930  0.26118549  1
  Mo  Mo164  1  0.49549518  0.89954958  0.38029350  1
  Mo  Mo165  1  0.39596405  0.79369212  -0.01298241  1
  Mo  Mo166  1  0.50033940  0.49539520  0.11854006  1
  Mo  Mo167  1  0.88378290  0.69941090  0.87947165  1
  Mo  Mo168  1  0.59332260  0.59297858  0.75204545  1
  Mo  Mo169  1  0.20023813  0.60812045  0.49969750  1
  Mo  Mo170  1  -0.00453415  0.59669893  0.73601530  1
  Mo  Mo171  1  0.91358057  0.52023632  0.88477397  1
  Mo  Mo172  1  0.60737318  -0.00401964  0.24883167  1
  Mo  Mo173  1  0.49368656  0.89712901  0.11406231  1
  Mo  Mo174  1  0.20574943  0.59543747  0.75218470  1
  Mo  Mo175  1  0.10473772  0.50256275  0.13042923  1
  Mo  Mo176  1  0.61053957  0.40355355  0.75082621  1
  Mo  Mo177  1  -0.00084905  0.60371871  0.00573666  1
  Mo  Mo178  1  0.69555902  0.89190167  0.86894249  1
  Mo  Mo179  1  0.81394745  0.38788570  0.24466972  1
  Mo  Mo180  1  0.60660205  0.38068574  0.23100216  1
  Mo  Mo181  1  0.70866311  0.09591841  0.12310655  1
  Mo  Mo182  1  0.88949235  0.91159041  0.37160455  1
  Mo  Mo183  1  0.69955600  0.29492301  0.12436768  1
  Mo  Mo184  1  0.80709641  0.39307334  0.50062046  1
  Mo  Mo185  1  0.30706168  0.49597077  0.62685293  1
  Mo  Mo186  1  0.28233534  0.90261219  0.62099717  1
  Mo  Mo187  1  0.70132254  0.28943819  0.88948739  1
  Mo  Mo188  1  0.11291527  0.49507386  0.86963385  1
  Mo  Mo189  1  0.00206903  0.40091272  0.25449147  1
  Mo  Mo190  1  0.70313032  0.12092589  0.88078656  1
  Mo  Mo191  1  0.10466651  0.90100315  0.36455989  1
  Mo  Mo192  1  0.30112166  0.09657810  0.87809500  1
  Mo  Mo193  1  0.30306070  0.70232013  0.37776317  1
  Mo  Mo194  1  0.30107792  0.30083189  0.13752007  1
  Mo  Mo195  1  0.49838122  0.10583112  0.62684611  1
  Mo  Mo196  1  0.10490701  0.29485790  0.63192218  1
  Mo  Mo197  1  0.41032488  0.20804420  0.00401561  1
  Mo  Mo198  1  0.50707211  0.08439598  0.10929606  1
  Mo  Mo199  1  0.51509386  0.51116312  0.63241119  1
