# generated using pymatgen
data_HfZrTaTiMo
_symmetry_space_group_name_H-M   'P 1'
_cell_length_a   15.18480411
_cell_length_b   15.19939947
_cell_length_c   16.79100225
_cell_angle_alpha   89.95253604
_cell_angle_beta   89.97743275
_cell_angle_gamma   89.88037717
_symmetry_Int_Tables_number   1
_chemical_formula_structural   HfZrTaTiMo
_chemical_formula_sum   'Hf40 Zr40 Ta40 Ti40 Mo40'
_cell_volume   3875.35162755
_cell_formula_units_Z   40
loop_
 _symmetry_equiv_pos_site_id
 _symmetry_equiv_pos_as_xyz
  1  'x, y, z'
loop_
 _atom_site_type_symbol
 _atom_site_label
 _atom_site_symmetry_multiplicity
 _atom_site_fract_x
 _atom_site_fract_y
 _atom_site_fract_z
 _atom_site_occupancy
  Hf  Hf0  1  0.50110483  0.28544673  0.88320563  1
  Hf  Hf1  1  0.88983502  0.90387199  0.14026870  1
  Hf  Hf2  1  -0.01058192  0.40927548  0.49860810  1
  Hf  Hf3  1  0.50133305  0.89463923  0.13148731  1
  Hf  Hf4  1  0.41004088  -0.00731275  0.00307643  1
  Hf  Hf5  1  0.78793295  0.39197870  0.47917904  1
  Hf  Hf6  1  0.30243401  0.11039289  0.87324353  1
  Hf  Hf7  1  0.49545914  0.29679979  0.36722028  1
  Hf  Hf8  1  0.70706288  0.49360883  0.62736308  1
  Hf  Hf9  1  0.50067378  0.09554097  0.37679919  1
  Hf  Hf10  1  0.70485206  0.89077522  0.60421603  1
  Hf  Hf11  1  0.80320740  0.40858883  0.26595011  1
  Hf  Hf12  1  0.08536972  0.49741884  0.89114411  1
  Hf  Hf13  1  -0.01989808  0.60066441  0.25199393  1
  Hf  Hf14  1  0.01421854  0.00084661  0.24129253  1
  Hf  Hf15  1  0.81500551  0.58902332  0.48476534  1
  Hf  Hf16  1  0.31451920  0.89529425  0.86540899  1
  Hf  Hf17  1  0.00644837  0.39804201  0.23915330  1
  Hf  Hf18  1  0.31122877  0.69223104  0.12474046  1
  Hf  Hf19  1  0.60162809  0.80797111  -0.00914605  1
  Hf  Hf20  1  0.39195123  0.39777462  0.50209042  1
  Hf  Hf21  1  0.30879026  0.89665606  0.37230507  1
  Hf  Hf22  1  0.68600249  0.52502441  0.12587606  1
  Hf  Hf23  1  0.81170091  0.19550603  0.01526841  1
  Hf  Hf24  1  0.38847119  0.41091248  0.24345059  1
  Hf  Hf25  1  0.50972772  0.89448780  0.39275038  1
  Hf  Hf26  1  0.50736299  0.90313771  0.60982514  1
  Hf  Hf27  1  -0.01534944  -0.00373457  0.73570592  1
  Hf  Hf28  1  0.49559705  0.69737306  0.39427475  1
  Hf  Hf29  1  0.40674326  0.19810684  0.01632328  1
  Hf  Hf30  1  0.59604186  0.39813545  0.49606999  1
  Hf  Hf31  1  0.71293349  0.71381368  0.85588900  1
  Hf  Hf32  1  0.41380687  0.00920107  0.74274265  1
  Hf  Hf33  1  0.21360917  0.79252475  0.49322153  1
  Hf  Hf34  1  -0.00211827  0.80248895  0.00830223  1
  Hf  Hf35  1  -0.00318981  0.19936079  0.22878899  1
  Hf  Hf36  1  0.10496820  0.90194575  0.60871918  1
  Hf  Hf37  1  0.88498562  0.50057041  0.11432775  1
  Hf  Hf38  1  0.19265849  -0.00436892  0.00124336  1
  Hf  Hf39  1  0.49711901  0.49469269  0.63061610  1
  Zr  Zr40  1  0.90231525  0.29561986  0.88027131  1
  Zr  Zr41  1  0.29666959  0.09975474  0.36544222  1
  Zr  Zr42  1  0.18520154  0.59917569  0.76825302  1
  Zr  Zr43  1  0.20091018  0.59128279  0.24973527  1
  Zr  Zr44  1  0.10135247  0.70121578  0.12721102  1
  Zr  Zr45  1  0.09635548  0.49605387  0.37254829  1
  Zr  Zr46  1  0.29320436  0.49666801  0.10736595  1
  Zr  Zr47  1  0.80020897  0.19690477  0.24633317  1
  Zr  Zr48  1  0.28901901  0.50465131  0.63535839  1
  Zr  Zr49  1  0.29929454  0.30036239  0.63981118  1
  Zr  Zr50  1  0.10413847  0.29130585  0.87906250  1
  Zr  Zr51  1  0.18765975  0.00466358  0.75226616  1
  Zr  Zr52  1  0.59754266  0.19428073  0.23420937  1
  Zr  Zr53  1  0.60804118  0.59271103  0.75497417  1
  Zr  Zr54  1  0.91848205  0.69882278  0.61609570  1
  Zr  Zr55  1  0.59053604  0.18775675  0.74036973  1
  Zr  Zr56  1  0.90665362  0.90438061  0.38239855  1
  Zr  Zr57  1  0.08340934  0.89967060  0.87186350  1
  Zr  Zr58  1  0.71173233  0.31713972  0.11652494  1
  Zr  Zr59  1  0.50347682  0.70816721  0.62753336  1
  Zr  Zr60  1  0.29462054  0.10001175  0.62986388  1
  Zr  Zr61  1  0.49628791  0.73626271  0.84637900  1
  Zr  Zr62  1  0.90501606  0.08956083  0.88097625  1
  Zr  Zr63  1  0.79804580  0.19238448  0.74742117  1
  Zr  Zr64  1  0.30451785  0.09041605  0.13580223  1
  Zr  Zr65  1  0.60189410  0.20285892  0.50449755  1
  Zr  Zr66  1  0.69896367  0.09777164  0.88460322  1
  Zr  Zr67  1  0.19368559  0.20197938  0.23890014  1
  Zr  Zr68  1  0.89134099  0.30447127  0.62615148  1
  Zr  Zr69  1  0.38869019  0.60385124  0.76273323  1
  Zr  Zr70  1  0.19161201  0.19499765  0.50191074  1
  Zr  Zr71  1  0.59606626  0.40665899  0.24865973  1
  Zr  Zr72  1  0.70532278  0.87896343  0.13500586  1
  Zr  Zr73  1  0.48657852  0.50918079  0.38019708  1
  Zr  Zr74  1  -0.00444024  0.41066179  0.75516058  1
  Zr  Zr75  1  0.60911795  0.78116142  0.25906079  1
  Zr  Zr76  1  0.90348953  0.90668244  0.59686861  1
  Zr  Zr77  1  0.59464284  0.61143149  -0.02028060  1
  Zr  Zr78  1  0.28736589  0.88913565  0.13737752  1
  Zr  Zr79  1  0.19407414  0.39914904  0.50339098  1
  Ta  Ta80  1  0.70483781  0.08773092  0.61061288  1
  Ta  Ta81  1  0.40226274  0.39176365  0.76011535  1
  Ta  Ta82  1  0.41396593  -0.00435984  0.24949838  1
  Ta  Ta83  1  0.09434810  0.30252947  0.63133240  1
  Ta  Ta84  1  0.40334325  0.79480046  -0.00200075  1
  Ta  Ta85  1  0.70568157  0.09608274  0.37996950  1
  Ta  Ta86  1  0.60117740  0.39030963  0.75903008  1
  Ta  Ta87  1  0.29420185  0.30538012  0.36514507  1
  Ta  Ta88  1  -0.00124079  0.79787570  0.25605569  1
  Ta  Ta89  1  0.19640635  0.79374937  0.75357839  1
  Ta  Ta90  1  0.91152988  0.29262617  0.37584104  1
  Ta  Ta91  1  0.71181342  0.07460874  0.12372887  1
  Ta  Ta92  1  0.01076219  0.19412579  0.02462193  1
  Ta  Ta93  1  0.80073555  0.80302848  -0.00636639  1
  Ta  Ta94  1  0.40529775  0.78499218  0.25396226  1
  Ta  Ta95  1  0.20508701  0.79525770  -0.00933221  1
  Ta  Ta96  1  0.79570754  0.61177635  -0.01017331  1
  Ta  Ta97  1  0.20264325  0.19753037  0.01072224  1
  Ta  Ta98  1  0.00532871  0.19048345  0.74084179  1
  Ta  Ta99  1  0.39787431  0.20222745  0.50064585  1
  Ta  Ta100  1  0.08529915  0.51314810  0.62672103  1
  Ta  Ta101  1  0.79002823  0.40443815  0.76460079  1
  Ta  Ta102  1  0.71471253  0.69744906  0.62882961  1
  Ta  Ta103  1  0.39370973  0.00532903  0.50620905  1
  Ta  Ta104  1  0.87615194  0.70521621  0.13101068  1
  Ta  Ta105  1  0.61217764  -0.00451824  0.25653616  1
  Ta  Ta106  1  0.39620759  0.60780607  -0.02194176  1
  Ta  Ta107  1  0.59944543  0.40434350  -0.00387872  1
  Ta  Ta108  1  0.90673669  0.10045236  0.37935252  1
  Ta  Ta109  1  0.19309806  0.60055457  0.49912564  1
  Ta  Ta110  1  0.82326692  0.80542933  0.74354790  1
  Ta  Ta111  1  0.19635661  0.60812305  -0.01513494  1
  Ta  Ta112  1  0.80771818  0.19697297  0.49746765  1
  Ta  Ta113  1  0.09375735  0.10030525  0.37819767  1
  Ta  Ta114  1  0.89646417  0.50701674  0.63121198  1
  Ta  Ta115  1  0.49703439  0.48854419  0.87689022  1
  Ta  Ta116  1  0.10535838  0.90982586  0.38919280  1
  Ta  Ta117  1  0.60915908  -0.00923005  0.74720170  1
  Ta  Ta118  1  0.30317017  0.89298727  0.62558603  1
  Ta  Ta119  1  -0.00857590  0.00207092  0.02023366  1
  Ti  Ti120  1  -0.01030010  0.61146783  -0.00138990  1
  Ti  Ti121  1  0.29479961  0.50060444  0.37439918  1
  Ti  Ti122  1  0.79343334  -0.00588906  0.74318248  1
  Ti  Ti123  1  0.29767389  0.70530920  0.63043909  1
  Ti  Ti124  1  0.50300805  0.09254588  0.87917358  1
  Ti  Ti125  1  0.49362383  0.29187495  0.63223977  1
  Ti  Ti126  1  0.69698716  0.29891366  0.62944283  1
  Ti  Ti127  1  0.88831688  0.50424741  0.88669616  1
  Ti  Ti128  1  0.60190868  0.19192126  0.01980559  1
  Ti  Ti129  1  0.88861013  0.89616954  0.87545450  1
  Ti  Ti130  1  0.60869486  0.60039360  0.51132211  1
  Ti  Ti131  1  0.09354166  0.70197051  0.37820426  1
  Ti  Ti132  1  0.11025285  0.31142331  0.11740701  1
  Ti  Ti133  1  0.80847692  0.78713260  0.48886962  1
  Ti  Ti134  1  0.10423028  0.70353206  0.62114550  1
  Ti  Ti135  1  0.78260861  0.61750481  0.26180361  1
  Ti  Ti136  1  0.48637970  0.50806569  0.10984978  1
  Ti  Ti137  1  0.70596963  0.90063513  0.38780301  1
  Ti  Ti138  1  0.30163127  0.30765544  0.12161411  1
  Ti  Ti139  1  0.10070561  0.29491751  0.37020020  1
  Ti  Ti140  1  0.19549532  0.39987974  0.75824699  1
  Ti  Ti141  1  0.68409879  0.51110217  0.36916842  1
  Ti  Ti142  1  0.40589544  0.20171750  0.23526554  1
  Ti  Ti143  1  0.20248552  0.39379137  -0.00656251  1
  Ti  Ti144  1  0.30530712  0.30042627  0.87767035  1
  Ti  Ti145  1  0.69710928  0.70237617  0.38776307  1
  Ti  Ti146  1  0.29970129  0.48992441  0.88272876  1
  Ti  Ti147  1  0.49919040  0.31434571  0.11796396  1
  Ti  Ti148  1  0.19443684  0.20195448  0.75066544  1
  Ti  Ti149  1  0.19166312  0.80361403  0.26135307  1
  Ti  Ti150  1  -0.01353274  0.39117502  0.00914594  1
  Ti  Ti151  1  -0.00451238  0.62215586  0.76366652  1
  Ti  Ti152  1  0.09703961  0.50157551  0.10807058  1
  Ti  Ti153  1  0.30305508  0.68863165  0.36937002  1
  Ti  Ti154  1  0.81258237  0.59725178  0.75747221  1
  Ti  Ti155  1  0.09402448  0.10299968  0.88316528  1
  Ti  Ti156  1  0.38398020  0.60582144  0.51035526  1
  Ti  Ti157  1  0.60868686  -0.00297169  0.00066526  1
  Ti  Ti158  1  0.70012033  0.30316602  0.88882707  1
  Ti  Ti159  1  0.51092714  0.69102759  0.12437373  1
  Mo  Mo160  1  0.00956482  0.02169164  0.50321815  1
  Mo  Mo161  1  0.90495947  0.30831370  0.11987103  1
  Mo  Mo162  1  0.10733879  0.09159303  0.12016331  1
  Mo  Mo163  1  0.90252278  0.70122089  0.37516561  1
  Mo  Mo164  1  0.60269916  0.00299164  0.49409757  1
  Mo  Mo165  1  0.70266324  0.29317721  0.37229452  1
  Mo  Mo166  1  0.29647769  0.70619593  0.87544571  1
  Mo  Mo167  1  0.01312858  0.79284429  0.48668933  1
  Mo  Mo168  1  0.79650257  -0.00063990  0.26628794  1
  Mo  Mo169  1  0.70037957  0.49707194  0.87452291  1
  Mo  Mo170  1  0.09256627  0.70526857  0.88261051  1
  Mo  Mo171  1  0.62328505  0.81457332  0.73982857  1
  Mo  Mo172  1  0.51111264  0.91602588  0.87157249  1
  Mo  Mo173  1  0.89720631  0.10476199  0.61513143  1
  Mo  Mo174  1  0.80037863  0.00636662  0.48944301  1
  Mo  Mo175  1  0.50106440  0.10241726  0.61415649  1
  Mo  Mo176  1  0.19860112  0.39545694  0.24614408  1
  Mo  Mo177  1  0.79333317  0.41053900  -0.01251560  1
  Mo  Mo178  1  0.80833901  0.79082529  0.27075596  1
  Mo  Mo179  1  0.00855506  0.60125848  0.49759586  1
  Mo  Mo180  1  0.79968166  -0.01316719  0.00042838  1
  Mo  Mo181  1  0.10056249  0.89125926  0.12945977  1
  Mo  Mo182  1  0.70328047  0.69775784  0.12001309  1
  Mo  Mo183  1  0.40201147  0.40021281  -0.00565537  1
  Mo  Mo184  1  0.58511665  0.60380622  0.25136226  1
  Mo  Mo185  1  0.51374945  0.09200675  0.12833659  1
  Mo  Mo186  1  0.89705936  0.50129354  0.36730471  1
  Mo  Mo187  1  0.08909532  0.10674245  0.62060147  1
  Mo  Mo188  1  0.61415781  0.78810816  0.49978859  1
  Mo  Mo189  1  0.90692103  0.70578296  0.87426006  1
  Mo  Mo190  1  0.39594300  0.79433969  0.50759974  1
  Mo  Mo191  1  -0.00048977  0.21098509  0.50039745  1
  Mo  Mo192  1  0.70567756  0.90539848  0.86906520  1
  Mo  Mo193  1  0.20535399  0.00092187  0.49805369  1
  Mo  Mo194  1  0.40848282  0.60349598  0.24557558  1
  Mo  Mo195  1  0.39359060  0.81324296  0.73742377  1
  Mo  Mo196  1  0.39915574  0.20219825  0.75768689  1
  Mo  Mo197  1  0.00686175  0.80200121  0.74641011  1
  Mo  Mo198  1  0.19852245  -0.00976225  0.25725651  1
  Mo  Mo199  1  0.89645831  0.09539285  0.12625833  1
