# generated using pymatgen
data_HfZrTaTiMo
_symmetry_space_group_name_H-M   'P 1'
_cell_length_a   15.20954994
_cell_length_b   15.21408851
_cell_length_c   16.87035917
_cell_angle_alpha   89.97575441
_cell_angle_beta   90.04862332
_cell_angle_gamma   89.83880528
_symmetry_Int_Tables_number   1
_chemical_formula_structural   HfZrTaTiMo
_chemical_formula_sum   'Hf40 Zr40 Ta40 Ti40 Mo40'
_cell_volume   3903.77443721
_cell_formula_units_Z   40
loop_
 _symmetry_equiv_pos_site_id
 _symmetry_equiv_pos_as_xyz
  1  'x, y, z'
loop_
 _atom_site_type_symbol
 _atom_site_label
 _atom_site_symmetry_multiplicity
 _atom_site_fract_x
 _atom_site_fract_y
 _atom_site_fract_z
 _atom_site_occupancy
  Hf  Hf0  1  0.18401374  0.58562026  0.50910493  1
  Hf  Hf1  1  0.28798708  0.49081408  0.12172544  1
  Hf  Hf2  1  0.81818447  0.22152886  0.74386325  1
  Hf  Hf3  1  0.01713225  0.18348599  0.76569744  1
  Hf  Hf4  1  0.90381711  0.08881378  0.87751672  1
  Hf  Hf5  1  0.39016697  0.81062663  0.01003052  1
  Hf  Hf6  1  0.81196468  -0.00120798  0.72994027  1
  Hf  Hf7  1  0.80093066  0.79384568  0.25640415  1
  Hf  Hf8  1  0.91488519  0.11581002  0.61051631  1
  Hf  Hf9  1  0.91043418  0.29642066  0.13371364  1
  Hf  Hf10  1  0.39918932  0.79879701  0.23393601  1
  Hf  Hf11  1  0.49006272  0.10475733  0.61535633  1
  Hf  Hf12  1  0.79973686  0.60329656  -0.00953450  1
  Hf  Hf13  1  -0.00303023  0.79079993  -0.00788264  1
  Hf  Hf14  1  0.89903275  0.10866611  0.39363868  1
  Hf  Hf15  1  0.89025527  0.49289038  0.12003814  1
  Hf  Hf16  1  0.70562201  0.89388023  0.86199040  1
  Hf  Hf17  1  0.28369019  0.49579782  0.36220004  1
  Hf  Hf18  1  0.29840501  0.28967325  0.36590006  1
  Hf  Hf19  1  -0.01287878  0.38606713  0.75783035  1
  Hf  Hf20  1  0.39398412  0.59611194  0.75766893  1
  Hf  Hf21  1  0.31340604  0.07971835  0.87067764  1
  Hf  Hf22  1  0.80593672  0.00479429  0.26274597  1
  Hf  Hf23  1  0.60414736  0.41545271  0.75345792  1
  Hf  Hf24  1  0.89984728  0.32269447  0.37434817  1
  Hf  Hf25  1  0.59058009  0.02118162  0.00819512  1
  Hf  Hf26  1  0.01259621  0.21403324  -0.01684278  1
  Hf  Hf27  1  0.70610286  0.31906322  0.13101787  1
  Hf  Hf28  1  0.69876800  0.69754206  0.12364907  1
  Hf  Hf29  1  0.71150206  0.50458459  0.37932163  1
  Hf  Hf30  1  0.50353330  0.49330701  0.37175745  1
  Hf  Hf31  1  0.00962352  0.18825688  0.26184339  1
  Hf  Hf32  1  0.19415752  -0.02336812  0.75910123  1
  Hf  Hf33  1  0.50631803  0.11910530  0.86431505  1
  Hf  Hf34  1  0.01621002  0.80214633  0.74349183  1
  Hf  Hf35  1  0.29404627  0.28876976  0.12585504  1
  Hf  Hf36  1  0.80334337  0.58607314  0.25091227  1
  Hf  Hf37  1  0.69679927  0.10689079  0.13435032  1
  Hf  Hf38  1  0.39638564  0.80484621  0.75522477  1
  Hf  Hf39  1  0.00837169  0.80882379  0.25673950  1
  Zr  Zr40  1  0.69680975  0.29629785  0.87515174  1
  Zr  Zr41  1  0.29688896  0.88628578  0.36871443  1
  Zr  Zr42  1  0.80618313  0.39850187  -0.01111318  1
  Zr  Zr43  1  0.49593787  0.31058985  0.62638094  1
  Zr  Zr44  1  0.59420771  0.21059605  0.26009129  1
  Zr  Zr45  1  0.19112066  0.79969953  0.01293600  1
  Zr  Zr46  1  0.40211932  0.39301324  -0.01534627  1
  Zr  Zr47  1  0.20699479  0.39950045  0.77006389  1
  Zr  Zr48  1  0.60373051  -0.01401435  0.72924364  1
  Zr  Zr49  1  0.19200431  0.38789988  -0.01748069  1
  Zr  Zr50  1  0.49316148  0.10248556  0.38196530  1
  Zr  Zr51  1  0.49618713  0.50559077  0.11987975  1
  Zr  Zr52  1  0.69466739  0.90335841  0.37603116  1
  Zr  Zr53  1  0.49425649  0.91002894  0.87651861  1
  Zr  Zr54  1  0.79779633  -0.01023178  0.50957666  1
  Zr  Zr55  1  0.22031229  0.78484854  0.49844448  1
  Zr  Zr56  1  0.28998052  0.09599759  0.63068637  1
  Zr  Zr57  1  0.69157493  0.69930436  0.63070793  1
  Zr  Zr58  1  0.69278102  0.31365419  0.37716247  1
  Zr  Zr59  1  0.70295545  0.70348100  0.38339694  1
  Zr  Zr60  1  0.60339243  0.80851032  0.00490433  1
  Zr  Zr61  1  0.80223191  -0.01638297  0.00239383  1
  Zr  Zr62  1  0.11545505  0.10708328  0.11146248  1
  Zr  Zr63  1  0.40856244  0.18090912  0.00945906  1
  Zr  Zr64  1  0.79913346  0.19443303  0.00419958  1
  Zr  Zr65  1  0.38257023  0.60682302  0.49043415  1
  Zr  Zr66  1  0.89883862  0.89789721  0.12882316  1
  Zr  Zr67  1  0.49379783  0.70812068  0.37791705  1
  Zr  Zr68  1  0.48709166  0.70430648  0.61888003  1
  Zr  Zr69  1  0.30241693  0.29696781  0.63778910  1
  Zr  Zr70  1  0.09331225  0.51736805  0.87140947  1
  Zr  Zr71  1  0.70346475  0.11507656  0.60506994  1
  Zr  Zr72  1  0.60430980  0.20756963  0.73594495  1
  Zr  Zr73  1  0.09825933  0.28935332  0.63430156  1
  Zr  Zr74  1  0.17880412  -0.00809984  0.25194591  1
  Zr  Zr75  1  0.19662024  0.38507082  0.50225944  1
  Zr  Zr76  1  0.91408479  0.69283587  0.12171348  1
  Zr  Zr77  1  0.70342288  0.09385672  0.86847710  1
  Zr  Zr78  1  0.10422877  0.69266112  0.37654902  1
  Zr  Zr79  1  0.91783804  0.09035520  0.12782377  1
  Ta  Ta80  1  0.69792483  0.70266572  0.86202518  1
  Ta  Ta81  1  0.10484979  0.08912257  0.61161324  1
  Ta  Ta82  1  0.59379468  0.60103494  -0.01041224  1
  Ta  Ta83  1  0.21885273  -0.01103228  -0.00264217  1
  Ta  Ta84  1  0.01371080  0.21937242  0.49277747  1
  Ta  Ta85  1  0.00101649  0.41677083  0.25031224  1
  Ta  Ta86  1  0.39366665  0.59881166  0.25000940  1
  Ta  Ta87  1  0.38582008  0.20283274  0.49437089  1
  Ta  Ta88  1  0.49812990  0.90140200  0.37583882  1
  Ta  Ta89  1  0.38763986  0.00603516  0.24932781  1
  Ta  Ta90  1  0.60194533  0.59118860  0.50408470  1
  Ta  Ta91  1  0.58979631  0.22190274  0.49495993  1
  Ta  Ta92  1  0.29054789  0.70530254  0.87871211  1
  Ta  Ta93  1  -0.00735267  0.60661399  0.73568308  1
  Ta  Ta94  1  0.81207525  0.79181002  0.51725664  1
  Ta  Ta95  1  0.79899510  0.40976217  0.50778702  1
  Ta  Ta96  1  0.38934323  -0.00792295  0.49712058  1
  Ta  Ta97  1  0.30530700  0.49635176  0.63126099  1
  Ta  Ta98  1  -0.00347124  0.42000175  0.50846650  1
  Ta  Ta99  1  0.89078771  0.50338415  0.85832816  1
  Ta  Ta100  1  0.20767532  0.19008941  0.25046044  1
  Ta  Ta101  1  0.11218781  0.89259097  0.60892611  1
  Ta  Ta102  1  0.10270139  0.31236756  0.13276710  1
  Ta  Ta103  1  0.40386119  0.39074521  0.24658218  1
  Ta  Ta104  1  0.50653979  0.29732136  0.12141391  1
  Ta  Ta105  1  0.59605203  0.60903753  0.24711702  1
  Ta  Ta106  1  0.09816630  0.49819346  0.63903708  1
  Ta  Ta107  1  0.40008177  0.19248166  0.24160820  1
  Ta  Ta108  1  0.08602513  0.50739313  0.11351879  1
  Ta  Ta109  1  0.60199815  0.40466398  -0.00421201  1
  Ta  Ta110  1  0.80749020  0.79774788  0.73371511  1
  Ta  Ta111  1  0.40378581  0.39946840  0.49406619  1
  Ta  Ta112  1  0.00718212  -0.00437360  0.49461365  1
  Ta  Ta113  1  0.49764804  0.50363662  0.62220499  1
  Ta  Ta114  1  0.11751142  0.10242622  0.39387790  1
  Ta  Ta115  1  0.58695157  0.60706514  0.75836614  1
  Ta  Ta116  1  0.80228793  0.20618879  0.25708828  1
  Ta  Ta117  1  0.69925813  0.11037012  0.39065979  1
  Ta  Ta118  1  0.40859454  0.39878491  0.77370523  1
  Ta  Ta119  1  0.88814133  0.49223483  0.63861430  1
  Ti  Ti120  1  0.59014450  0.00498582  0.25227230  1
  Ti  Ti121  1  0.20088732  0.78495859  0.23293335  1
  Ti  Ti122  1  0.30553124  0.89380002  0.62047178  1
  Ti  Ti123  1  0.20753089  0.19339764  -0.01948045  1
  Ti  Ti124  1  0.79009130  0.59473730  0.74390679  1
  Ti  Ti125  1  0.30461110  0.51607829  0.88825420  1
  Ti  Ti126  1  0.90862514  0.68966228  0.38980325  1
  Ti  Ti127  1  0.40212066  0.00086650  0.74005288  1
  Ti  Ti128  1  0.29786284  0.68536411  0.12166308  1
  Ti  Ti129  1  0.90649994  0.89086578  0.86609083  1
  Ti  Ti130  1  -0.00159548  0.40667063  -0.01609170  1
  Ti  Ti131  1  0.49752066  0.69632410  0.11743996  1
  Ti  Ti132  1  0.09859368  0.89438957  0.39398055  1
  Ti  Ti133  1  0.60422831  0.80633969  0.50317134  1
  Ti  Ti134  1  0.08068882  0.49863481  0.37669751  1
  Ti  Ti135  1  0.69637911  0.50768186  0.87178492  1
  Ti  Ti136  1  0.59430418  -0.00239181  0.50452786  1
  Ti  Ti137  1  0.20617453  0.18999709  0.77078884  1
  Ti  Ti138  1  0.90484949  0.88773410  0.38945012  1
  Ti  Ti139  1  0.01965228  -0.00942194  -0.01345367  1
  Ti  Ti140  1  0.89801244  0.69579234  0.86382695  1
  Ti  Ti141  1  0.00798306  -0.00606309  0.74854472  1
  Ti  Ti142  1  0.59466633  0.80553097  0.24381123  1
  Ti  Ti143  1  0.70791588  0.32010662  0.61808036  1
  Ti  Ti144  1  0.49209165  0.70024342  0.88413783  1
  Ti  Ti145  1  0.18766579  0.59028767  0.24015261  1
  Ti  Ti146  1  0.29098939  0.69939388  0.63257635  1
  Ti  Ti147  1  0.69484257  0.90504725  0.13515155  1
  Ti  Ti148  1  0.49048149  0.92065123  0.12688417  1
  Ti  Ti149  1  0.50091902  0.89426010  0.61743253  1
  Ti  Ti150  1  0.19436235  0.61144985  0.74582901  1
  Ti  Ti151  1  0.60609409  0.41737310  0.24166070  1
  Ti  Ti152  1  0.09993879  0.70775352  0.86898024  1
  Ti  Ti153  1  0.91737046  0.89407721  0.61735828  1
  Ti  Ti154  1  0.09292122  0.90249260  0.12564186  1
  Ti  Ti155  1  0.79975394  0.79598216  -0.00829860  1
  Ti  Ti156  1  -0.00055269  0.60473490  0.25195333  1
  Ti  Ti157  1  0.18573384  0.60598974  0.00244830  1
  Ti  Ti158  1  0.81104717  0.59737249  0.51330858  1
  Ti  Ti159  1  0.10474437  0.30857673  0.36444132  1
  Mo  Mo160  1  0.68861537  0.50940746  0.12100390  1
  Mo  Mo161  1  0.10600494  0.29715130  0.87033352  1
  Mo  Mo162  1  0.59956153  0.21500307  0.00818994  1
  Mo  Mo163  1  0.79394020  0.40683812  0.74934037  1
  Mo  Mo164  1  0.09956972  0.89565962  0.87758447  1
  Mo  Mo165  1  0.20534474  0.79085573  0.74549226  1
  Mo  Mo166  1  0.50197842  0.10121752  0.13964712  1
  Mo  Mo167  1  0.69183574  0.50421400  0.62333968  1
  Mo  Mo168  1  -0.00340994  -0.00575049  0.28907816  1
  Mo  Mo169  1  0.18989366  0.39796067  0.24460818  1
  Mo  Mo170  1  -0.00298842  0.59732053  -0.01240066  1
  Mo  Mo171  1  0.90249292  0.30149805  0.87515139  1
  Mo  Mo172  1  0.30275346  0.08738829  0.12456069  1
  Mo  Mo173  1  0.20516961  -0.00713534  0.50089053  1
  Mo  Mo174  1  0.29866253  0.09411744  0.37680223  1
  Mo  Mo175  1  0.50185646  0.51119374  0.88332888  1
  Mo  Mo176  1  0.59626741  0.40975622  0.50513591  1
  Mo  Mo177  1  0.29567882  0.68878413  0.35206456  1
  Mo  Mo178  1  0.31411871  0.28125913  0.86763856  1
  Mo  Mo179  1  0.29957203  0.88771769  0.87506466  1
  Mo  Mo180  1  0.50601714  0.30537278  0.87896340  1
  Mo  Mo181  1  0.90212192  0.69572186  0.62953219  1
  Mo  Mo182  1  0.41026595  0.80944484  0.50111612  1
  Mo  Mo183  1  0.00191973  0.79467899  0.50608734  1
  Mo  Mo184  1  0.11040778  0.08775854  0.88645171  1
  Mo  Mo185  1  0.10141247  0.69035340  0.13041669  1
  Mo  Mo186  1  0.20111956  0.19720397  0.49941222  1
  Mo  Mo187  1  0.80029451  0.21618220  0.50001478  1
  Mo  Mo188  1  0.59770264  0.79041464  0.75551112  1
  Mo  Mo189  1  0.29254015  0.90394674  0.13530136  1
  Mo  Mo190  1  0.90695713  0.51288067  0.38161770  1
  Mo  Mo191  1  -0.00849734  0.60058852  0.52243011  1
  Mo  Mo192  1  0.38816329  0.61006288  -0.00269972  1
  Mo  Mo193  1  0.39689403  0.20360536  0.75500914  1
  Mo  Mo194  1  0.80228996  0.39993915  0.24936815  1
  Mo  Mo195  1  0.48946841  0.30845736  0.37484340  1
  Mo  Mo196  1  0.69851224  0.89402939  0.62421640  1
  Mo  Mo197  1  0.40092090  -0.00465821  0.00696527  1
  Mo  Mo198  1  0.89934751  0.30530732  0.60947492  1
  Mo  Mo199  1  0.10325645  0.69666696  0.62533273  1
