# generated using pymatgen
data_HfZrTaTiMo
_symmetry_space_group_name_H-M   'P 1'
_cell_length_a   15.20975106
_cell_length_b   15.22313533
_cell_length_c   16.83796601
_cell_angle_alpha   89.95708820
_cell_angle_beta   90.00197780
_cell_angle_gamma   90.05769130
_symmetry_Int_Tables_number   1
_chemical_formula_structural   HfZrTaTiMo
_chemical_formula_sum   'Hf40 Zr40 Ta40 Ti40 Mo40'
_cell_volume   3898.66124069
_cell_formula_units_Z   40
loop_
 _symmetry_equiv_pos_site_id
 _symmetry_equiv_pos_as_xyz
  1  'x, y, z'
loop_
 _atom_site_type_symbol
 _atom_site_label
 _atom_site_symmetry_multiplicity
 _atom_site_fract_x
 _atom_site_fract_y
 _atom_site_fract_z
 _atom_site_occupancy
  Hf  Hf0  1  0.11161260  0.31022358  0.36167104  1
  Hf  Hf1  1  0.19845043  0.58334373  0.49967031  1
  Hf  Hf2  1  0.90327742  0.88633336  0.87327445  1
  Hf  Hf3  1  0.19141936  0.41205221  -0.00513599  1
  Hf  Hf4  1  0.39495205  0.21415155  0.76369398  1
  Hf  Hf5  1  0.31130461  0.10364202  0.62637257  1
  Hf  Hf6  1  0.20722440  0.00686287  0.75993330  1
  Hf  Hf7  1  0.61035417  0.01072910  0.00197182  1
  Hf  Hf8  1  0.28832272  0.71789822  0.39568209  1
  Hf  Hf9  1  0.60225012  0.03126056  0.23458585  1
  Hf  Hf10  1  0.89124117  0.09784592  0.63002740  1
  Hf  Hf11  1  0.69877821  0.28623260  0.65365506  1
  Hf  Hf12  1  0.37794469  0.82011129  0.25062514  1
  Hf  Hf13  1  0.09735653  0.68803885  0.12138655  1
  Hf  Hf14  1  0.42145256  0.19448919  0.22148020  1
  Hf  Hf15  1  0.89449780  0.28978802  0.12806020  1
  Hf  Hf16  1  0.00064360  0.40232964  0.49496440  1
  Hf  Hf17  1  0.49907832  0.92351597  0.62799023  1
  Hf  Hf18  1  0.60038829  0.40291094  0.24069925  1
  Hf  Hf19  1  0.59634111  0.80223187  0.24506869  1
  Hf  Hf20  1  0.70794245  0.49870788  0.86243222  1
  Hf  Hf21  1  0.80601903  0.58759798  0.00181625  1
  Hf  Hf22  1  0.10751616  0.48156420  0.62362791  1
  Hf  Hf23  1  0.90088047  0.28197817  0.36960395  1
  Hf  Hf24  1  0.28636250  0.30683788  0.62130563  1
  Hf  Hf25  1  0.59272640  0.81310954  0.50353103  1
  Hf  Hf26  1  0.00222803  0.18764478  -0.00408811  1
  Hf  Hf27  1  0.69047916  0.29348019  0.36662237  1
  Hf  Hf28  1  0.70187323  0.88468631  0.88111086  1
  Hf  Hf29  1  0.19937892  0.80482238  -0.00063602  1
  Hf  Hf30  1  0.79891676  0.56432993  0.48450879  1
  Hf  Hf31  1  0.90198874  0.30230174  0.63695434  1
  Hf  Hf32  1  0.90882708  0.91152872  0.39063985  1
  Hf  Hf33  1  0.69636377  0.90010460  0.37280978  1
  Hf  Hf34  1  0.40364492  0.60919644  -0.00110164  1
  Hf  Hf35  1  -0.00580294  0.40431347  -0.00583683  1
  Hf  Hf36  1  0.09273655  0.29435214  0.13126039  1
  Hf  Hf37  1  0.28851896  0.30255223  0.12360310  1
  Hf  Hf38  1  0.00715137  -0.01059067  0.74603727  1
  Hf  Hf39  1  0.48839650  0.70341533  0.62624692  1
  Zr  Zr40  1  0.30022680  0.70728644  0.86715409  1
  Zr  Zr41  1  0.69856790  0.28440734  0.86499953  1
  Zr  Zr42  1  0.32462218  0.28791659  0.36308348  1
  Zr  Zr43  1  0.28609520  0.91973630  0.11418365  1
  Zr  Zr44  1  0.39898758  0.01221247  -0.01736779  1
  Zr  Zr45  1  -0.01176562  0.79987951  0.01245987  1
  Zr  Zr46  1  0.10741442  0.09926075  0.61077280  1
  Zr  Zr47  1  0.69361015  0.68418107  0.60674634  1
  Zr  Zr48  1  0.41158014  0.39015968  0.49568358  1
  Zr  Zr49  1  0.20892018  0.39354514  0.76460402  1
  Zr  Zr50  1  0.20427247  0.18117306  0.24978542  1
  Zr  Zr51  1  0.08563442  0.09522059  0.38848521  1
  Zr  Zr52  1  0.18691608  0.80371249  0.73748776  1
  Zr  Zr53  1  0.59561260  0.20898216  0.50865772  1
  Zr  Zr54  1  0.18082788  0.80081348  0.24723770  1
  Zr  Zr55  1  0.79439415  -0.02687128  0.74277888  1
  Zr  Zr56  1  0.10888547  0.89178883  0.39920336  1
  Zr  Zr57  1  0.81319258  -0.00529625  0.24266469  1
  Zr  Zr58  1  0.61424016  0.41251654  0.50159491  1
  Zr  Zr59  1  0.08697850  0.70019604  0.87774329  1
  Zr  Zr60  1  0.19617410  0.59675029  0.26116157  1
  Zr  Zr61  1  0.48750305  0.92858155  0.37029582  1
  Zr  Zr62  1  0.50443410  0.71113525  0.86723267  1
  Zr  Zr63  1  0.79971548  0.79076548  0.24632815  1
  Zr  Zr64  1  0.60931361  0.81191594  0.73681175  1
  Zr  Zr65  1  0.89466185  0.69940108  0.38518845  1
  Zr  Zr66  1  0.40250268  0.41322055  0.01645827  1
  Zr  Zr67  1  0.78906744  0.78562922  0.01552221  1
  Zr  Zr68  1  0.21502172  0.20169179  0.48743112  1
  Zr  Zr69  1  0.40032596  0.40915541  0.23688203  1
  Zr  Zr70  1  0.80015266  0.38818048  -0.00034163  1
  Zr  Zr71  1  0.01104036  0.19543042  0.75222766  1
  Zr  Zr72  1  0.39938254  0.61113294  0.25360520  1
  Zr  Zr73  1  0.49791959  0.31367638  0.88613190  1
  Zr  Zr74  1  0.20227542  0.59512993  0.75108170  1
  Zr  Zr75  1  0.71199771  0.48830046  0.64509693  1
  Zr  Zr76  1  0.29741526  0.90231240  0.60806078  1
  Zr  Zr77  1  0.49088214  0.91491279  0.12610880  1
  Zr  Zr78  1  0.49409754  0.71428792  0.38000752  1
  Zr  Zr79  1  0.89902809  0.68796096  0.60755075  1
  Ta  Ta80  1  0.60598107  0.60671395  0.75786774  1
  Ta  Ta81  1  0.50306896  0.13222466  0.37062539  1
  Ta  Ta82  1  0.81266449  -0.00586129  0.00654136  1
  Ta  Ta83  1  0.21344493  -0.00734600  0.26386054  1
  Ta  Ta84  1  -0.00788189  0.79494642  0.73675358  1
  Ta  Ta85  1  0.10122064  0.90317464  0.87806973  1
  Ta  Ta86  1  0.60577936  0.41324606  0.00553196  1
  Ta  Ta87  1  0.08492224  0.69767484  0.39573529  1
  Ta  Ta88  1  0.50633837  0.50727846  0.62874496  1
  Ta  Ta89  1  0.70608103  0.10009605  0.37491852  1
  Ta  Ta90  1  0.29608676  0.29421325  0.89446264  1
  Ta  Ta91  1  0.88456294  0.69123895  0.86754741  1
  Ta  Ta92  1  0.29774329  0.48909914  0.37718794  1
  Ta  Ta93  1  0.50239206  0.11487449  0.63828776  1
  Ta  Ta94  1  0.50536103  0.90942488  0.87208207  1
  Ta  Ta95  1  0.68875635  0.08778469  0.64158544  1
  Ta  Ta96  1  0.79325626  0.18690477  0.24235661  1
  Ta  Ta97  1  0.39664422  0.19760360  0.01032205  1
  Ta  Ta98  1  0.89037064  0.09337246  0.86964670  1
  Ta  Ta99  1  0.79349864  0.58428736  0.26120469  1
  Ta  Ta100  1  0.51725949  0.52269037  0.12687586  1
  Ta  Ta101  1  0.01486324  -0.00622638  0.24906834  1
  Ta  Ta102  1  0.40714308  0.59633297  0.49596197  1
  Ta  Ta103  1  -0.00723196  0.60092127  0.25914733  1
  Ta  Ta104  1  0.01216217  0.40051341  0.76072544  1
  Ta  Ta105  1  0.89557499  0.68345642  0.13587381  1
  Ta  Ta106  1  0.91606230  0.08720357  0.12147895  1
  Ta  Ta107  1  0.31695492  0.49968262  0.62406115  1
  Ta  Ta108  1  0.90568822  0.49473620  0.63684514  1
  Ta  Ta109  1  0.60742494  0.60700306  -0.00919340  1
  Ta  Ta110  1  0.00104020  0.60077675  0.74829741  1
  Ta  Ta111  1  0.59327177  0.79888566  0.00804387  1
  Ta  Ta112  1  0.51491094  0.50784264  0.37082872  1
  Ta  Ta113  1  0.49527264  0.70791865  0.12472645  1
  Ta  Ta114  1  0.80259369  0.39469696  0.25052744  1
  Ta  Ta115  1  0.79015257  0.00239057  0.50556493  1
  Ta  Ta116  1  0.29984654  0.69581337  0.61615009  1
  Ta  Ta117  1  0.68477631  0.68202450  0.38097511  1
  Ta  Ta118  1  0.89767592  0.29275887  0.86569509  1
  Ta  Ta119  1  0.10145617  0.29208835  0.88520469  1
  Ti  Ti120  1  0.30035130  0.90279315  0.87619437  1
  Ti  Ti121  1  0.40269904  0.02286023  0.49565652  1
  Ti  Ti122  1  0.60004130  0.01663119  0.49959809  1
  Ti  Ti123  1  0.19986166  0.59968799  -0.00877073  1
  Ti  Ti124  1  0.40726980  0.01495388  0.76985295  1
  Ti  Ti125  1  0.09551514  0.50050608  0.37432304  1
  Ti  Ti126  1  0.28777639  0.51379849  0.12818003  1
  Ti  Ti127  1  -0.00211259  0.40468154  0.25415066  1
  Ti  Ti128  1  -0.00734473  0.20236337  0.50550928  1
  Ti  Ti129  1  0.57997630  0.40610791  0.75819452  1
  Ti  Ti130  1  0.79495424  0.19204461  0.50344482  1
  Ti  Ti131  1  0.90729645  0.49933977  0.86067183  1
  Ti  Ti132  1  0.19355807  0.02868270  -0.01346299  1
  Ti  Ti133  1  0.40805985  0.59062025  0.75299475  1
  Ti  Ti134  1  0.00136576  0.59280312  -0.00383653  1
  Ti  Ti135  1  0.79129371  0.80218058  0.49813017  1
  Ti  Ti136  1  0.70370944  0.90223366  0.12370018  1
  Ti  Ti137  1  0.79803658  0.77727221  0.73915222  1
  Ti  Ti138  1  0.19763848  0.19925960  0.75804759  1
  Ti  Ti139  1  0.09814958  0.49509445  0.13520271  1
  Ti  Ti140  1  0.29900250  0.70432104  0.12143115  1
  Ti  Ti141  1  0.59592647  0.20304723  0.00967692  1
  Ti  Ti142  1  0.69083474  0.09052424  0.85731506  1
  Ti  Ti143  1  0.89755848  0.89254621  0.61127625  1
  Ti  Ti144  1  0.68648287  0.68261810  0.13319074  1
  Ti  Ti145  1  0.31792150  0.49576047  0.87436536  1
  Ti  Ti146  1  0.70971015  0.50004052  0.12784539  1
  Ti  Ti147  1  0.90575870  0.49747892  0.13297893  1
  Ti  Ti148  1  0.09380099  0.69431620  0.60943771  1
  Ti  Ti149  1  0.80485615  0.37886216  0.49845933  1
  Ti  Ti150  1  0.09209828  0.89876722  0.60073084  1
  Ti  Ti151  1  0.49113676  0.31010513  0.63765175  1
  Ti  Ti152  1  0.00482519  -0.00130400  -0.00739856  1
  Ti  Ti153  1  0.09181451  0.91597840  0.12043276  1
  Ti  Ti154  1  -0.00774364  0.80186593  0.24526631  1
  Ti  Ti155  1  0.79409335  0.18201248  -0.00178478  1
  Ti  Ti156  1  0.39450750  0.81380215  0.74804545  1
  Ti  Ti157  1  -0.00520565  0.18087043  0.24903931  1
  Ti  Ti158  1  0.69562129  0.29334921  0.12542227  1
  Ti  Ti159  1  0.40116728  0.80651290  -0.00203782  1
  Mo  Mo160  1  0.90585876  0.48503163  0.36470455  1
  Mo  Mo161  1  -0.01224327  0.00605626  0.51141538  1
  Mo  Mo162  1  0.50952661  0.11347688  0.87563414  1
  Mo  Mo163  1  0.71696177  0.10693368  0.11468857  1
  Mo  Mo164  1  0.59318833  0.00171332  0.75724343  1
  Mo  Mo165  1  0.29713918  0.11203386  0.87474280  1
  Mo  Mo166  1  0.09604677  0.29934323  0.62326148  1
  Mo  Mo167  1  -0.00833434  0.79762219  0.51164487  1
  Mo  Mo168  1  0.09778579  0.50186020  0.87448129  1
  Mo  Mo169  1  0.70297090  0.69869294  0.87372410  1
  Mo  Mo170  1  0.19481470  0.79031408  0.51672347  1
  Mo  Mo171  1  0.39156389  0.01560360  0.24993986  1
  Mo  Mo172  1  0.10784816  0.08830065  0.12823421  1
  Mo  Mo173  1  0.19583166  0.40543405  0.24727482  1
  Mo  Mo174  1  0.09639984  0.09774804  0.87296317  1
  Mo  Mo175  1  0.70239679  0.90234394  0.61191196  1
  Mo  Mo176  1  0.59349016  0.59581481  0.49957289  1
  Mo  Mo177  1  -0.00173171  0.58844179  0.49746208  1
  Mo  Mo178  1  0.50660828  0.10656391  0.11065176  1
  Mo  Mo179  1  0.20657014  0.40036426  0.49306247  1
  Mo  Mo180  1  0.81520265  0.39483791  0.75926989  1
  Mo  Mo181  1  0.30171354  0.90723514  0.39628592  1
  Mo  Mo182  1  0.50582617  0.30734996  0.36681249  1
  Mo  Mo183  1  0.80850899  0.60093681  0.74894536  1
  Mo  Mo184  1  0.90741546  0.89593581  0.12609407  1
  Mo  Mo185  1  0.50878316  0.31126964  0.10608640  1
  Mo  Mo186  1  0.31807381  0.08694226  0.37345532  1
  Mo  Mo187  1  0.60967713  0.20890030  0.23623198  1
  Mo  Mo188  1  0.41526742  0.19949530  0.50599600  1
  Mo  Mo189  1  0.50673017  0.50833801  0.87595146  1
  Mo  Mo190  1  0.89155177  0.10111927  0.38029282  1
  Mo  Mo191  1  0.58911334  0.19874010  0.75264635  1
  Mo  Mo192  1  0.39843728  0.80705369  0.50625320  1
  Mo  Mo193  1  0.20646206  0.00245401  0.49284990  1
  Mo  Mo194  1  0.29589424  0.09664221  0.11868547  1
  Mo  Mo195  1  0.80138976  0.18488696  0.75804800  1
  Mo  Mo196  1  0.39876045  0.41186798  0.75256419  1
  Mo  Mo197  1  0.70342735  0.49272798  0.36731521  1
  Mo  Mo198  1  0.19773511  0.20016044  0.00338340  1
  Mo  Mo199  1  0.60272230  0.60524507  0.24810188  1
