# generated using pymatgen
data_HfZrTaTiMo
_symmetry_space_group_name_H-M   'P 1'
_cell_length_a   15.20610183
_cell_length_b   15.22307037
_cell_length_c   16.83679024
_cell_angle_alpha   90.01720637
_cell_angle_beta   89.99407943
_cell_angle_gamma   89.98629240
_symmetry_Int_Tables_number   1
_chemical_formula_structural   HfZrTaTiMo
_chemical_formula_sum   'Hf40 Zr40 Ta40 Ti40 Mo40'
_cell_volume   3897.43980524
_cell_formula_units_Z   40
loop_
 _symmetry_equiv_pos_site_id
 _symmetry_equiv_pos_as_xyz
  1  'x, y, z'
loop_
 _atom_site_type_symbol
 _atom_site_label
 _atom_site_symmetry_multiplicity
 _atom_site_fract_x
 _atom_site_fract_y
 _atom_site_fract_z
 _atom_site_occupancy
  Hf  Hf0  1  0.51048399  0.90999103  0.12766275  1
  Hf  Hf1  1  0.59646538  0.79477612  -0.00560041  1
  Hf  Hf2  1  0.10705599  0.09424645  0.38635425  1
  Hf  Hf3  1  0.19775401  0.38649117  0.00387859  1
  Hf  Hf4  1  0.29843634  0.89368023  0.36971748  1
  Hf  Hf5  1  0.58363738  0.60825523  0.23586855  1
  Hf  Hf6  1  0.09246733  0.89289391  0.61853449  1
  Hf  Hf7  1  0.49512218  0.51148753  0.86337018  1
  Hf  Hf8  1  0.49433188  0.10512036  0.88218660  1
  Hf  Hf9  1  0.70905850  0.90225104  0.87273192  1
  Hf  Hf10  1  0.38721765  0.80612232  0.50729950  1
  Hf  Hf11  1  0.19950663  0.00230517  0.24686189  1
  Hf  Hf12  1  0.49221283  0.89668998  0.87294878  1
  Hf  Hf13  1  0.71824161  0.10031373  0.14446889  1
  Hf  Hf14  1  0.32492530  0.10224174  0.61956422  1
  Hf  Hf15  1  0.39074053  0.80743140  0.01120491  1
  Hf  Hf16  1  -0.01061651  0.38962203  -0.00435770  1
  Hf  Hf17  1  0.51551014  0.70828640  0.62717364  1
  Hf  Hf18  1  0.80615369  0.18821327  -0.00299487  1
  Hf  Hf19  1  0.10493567  0.29469482  0.86321897  1
  Hf  Hf20  1  0.80231487  0.59571706  0.74191137  1
  Hf  Hf21  1  0.59065191  0.20296068  0.26135163  1
  Hf  Hf22  1  0.67706063  0.30159322  0.62057850  1
  Hf  Hf23  1  0.91391406  0.69175443  0.62948291  1
  Hf  Hf24  1  0.41956663  0.00898154  0.47935202  1
  Hf  Hf25  1  0.40727288  0.61031781  0.00994838  1
  Hf  Hf26  1  0.89108094  0.69901322  0.37683763  1
  Hf  Hf27  1  0.89774020  0.09107170  0.86441252  1
  Hf  Hf28  1  0.19561460  0.60145743  0.25357947  1
  Hf  Hf29  1  0.21383863  0.80712768  0.74774076  1
  Hf  Hf30  1  0.89536012  0.88431960  0.64278831  1
  Hf  Hf31  1  0.70888062  0.30656492  0.13952688  1
  Hf  Hf32  1  0.88999150  0.49126159  0.38018441  1
  Hf  Hf33  1  0.60591848  0.21269293  0.00074815  1
  Hf  Hf34  1  0.50182295  0.31582757  0.12961872  1
  Hf  Hf35  1  0.78424254  0.19036183  0.74007033  1
  Hf  Hf36  1  0.20051966  0.40770594  0.73115367  1
  Hf  Hf37  1  0.79942188  0.80110933  0.50204895  1
  Hf  Hf38  1  0.39251530  0.61033245  0.23267695  1
  Hf  Hf39  1  0.50282290  0.91458165  0.62495029  1
  Zr  Zr40  1  0.71898960  0.31175849  0.36818855  1
  Zr  Zr41  1  0.49627855  0.11045869  0.12714077  1
  Zr  Zr42  1  0.79698390  0.59990058  -0.00292497  1
  Zr  Zr43  1  0.08409136  0.48966415  0.12798779  1
  Zr  Zr44  1  0.18612919  0.60798397  0.73822183  1
  Zr  Zr45  1  0.01080497  0.19102935  -0.00125068  1
  Zr  Zr46  1  0.09739836  0.69962338  0.38321678  1
  Zr  Zr47  1  0.00109489  0.80103521  -0.01598915  1
  Zr  Zr48  1  0.20904364  0.18738965  0.01379025  1
  Zr  Zr49  1  0.71212948  0.10093431  0.36119628  1
  Zr  Zr50  1  0.49180021  0.32360813  0.37442485  1
  Zr  Zr51  1  0.09989203  0.70302581  0.12546357  1
  Zr  Zr52  1  0.90422846  0.28906868  0.13130659  1
  Zr  Zr53  1  0.78804257  0.59153191  0.24770779  1
  Zr  Zr54  1  0.67861652  0.69088343  0.38602834  1
  Zr  Zr55  1  0.09423745  0.50462537  0.87419854  1
  Zr  Zr56  1  0.21290164  -0.00967188  0.51059513  1
  Zr  Zr57  1  0.79718371  0.19494975  0.50572939  1
  Zr  Zr58  1  -0.01292164  -0.00976816  0.49136415  1
  Zr  Zr59  1  0.30156269  0.48850475  0.37912929  1
  Zr  Zr60  1  -0.00796021  0.18134952  0.26402262  1
  Zr  Zr61  1  0.19596609  0.20023792  0.23788299  1
  Zr  Zr62  1  0.83906311  -0.01001948  0.26780158  1
  Zr  Zr63  1  0.29799539  0.49686239  0.87381836  1
  Zr  Zr64  1  0.19212835  0.00387361  0.73526298  1
  Zr  Zr65  1  0.41055523  0.60408984  0.51877717  1
  Zr  Zr66  1  0.50249113  0.52560179  0.38110737  1
  Zr  Zr67  1  0.20901268  0.19976175  0.73569152  1
  Zr  Zr68  1  0.69505102  0.71125592  0.12312194  1
  Zr  Zr69  1  0.20746035  0.59701609  0.51360833  1
  Zr  Zr70  1  0.29504774  0.50154059  0.11548582  1
  Zr  Zr71  1  0.89549516  0.71019462  0.13352865  1
  Zr  Zr72  1  0.39755006  0.80555066  0.23682994  1
  Zr  Zr73  1  -0.00641700  0.59790375  -0.00390842  1
  Zr  Zr74  1  0.90549773  0.08733174  0.63020522  1
  Zr  Zr75  1  0.31441302  0.70382157  0.86994494  1
  Zr  Zr76  1  0.61602526  0.00379376  0.00445849  1
  Zr  Zr77  1  0.69515961  0.49620570  0.86968303  1
  Zr  Zr78  1  0.20307856  0.39180405  0.24905237  1
  Zr  Zr79  1  0.90065960  0.30172631  0.63129250  1
  Ta  Ta80  1  0.00951813  0.18835136  0.74641000  1
  Ta  Ta81  1  0.90415906  0.89866593  0.85393989  1
  Ta  Ta82  1  0.20070721  0.20178664  0.51198590  1
  Ta  Ta83  1  0.10514780  0.30178156  0.38665522  1
  Ta  Ta84  1  0.69384894  0.49874696  0.38432303  1
  Ta  Ta85  1  0.19180504  0.80287178  0.24448865  1
  Ta  Ta86  1  0.49177197  0.29180032  0.62062214  1
  Ta  Ta87  1  0.01871959  0.78758192  0.76372340  1
  Ta  Ta88  1  0.40693609  0.39975950  -0.00165697  1
  Ta  Ta89  1  0.10465571  0.08492955  0.87195638  1
  Ta  Ta90  1  0.39999382  0.40686217  0.51784087  1
  Ta  Ta91  1  0.31220985  0.29448237  0.86871290  1
  Ta  Ta92  1  0.78651369  -0.00649571  0.74145329  1
  Ta  Ta93  1  0.79077035  0.41620663  0.51637205  1
  Ta  Ta94  1  0.59926818  0.00876274  0.75135368  1
  Ta  Ta95  1  0.51608346  0.10687120  0.61954154  1
  Ta  Ta96  1  0.09322269  0.49198802  0.38146286  1
  Ta  Ta97  1  0.29962293  0.10110855  0.87230056  1
  Ta  Ta98  1  -0.01029104  0.81459401  0.25692434  1
  Ta  Ta99  1  0.08203730  0.91051497  0.12708967  1
  Ta  Ta100  1  0.89376671  0.69955439  0.86070368  1
  Ta  Ta101  1  0.89706990  0.29921623  0.85720108  1
  Ta  Ta102  1  0.91786161  0.07016835  0.12384796  1
  Ta  Ta103  1  0.40471026  0.01519505  0.26014534  1
  Ta  Ta104  1  0.59085715  0.19698730  0.48420597  1
  Ta  Ta105  1  0.59309182  0.60048003  0.00203012  1
  Ta  Ta106  1  0.19639385  0.39702074  0.51390258  1
  Ta  Ta107  1  0.00126282  0.20190250  0.49791454  1
  Ta  Ta108  1  0.72185639  0.90263993  0.13799345  1
  Ta  Ta109  1  0.40591763  0.39562436  0.73801089  1
  Ta  Ta110  1  0.79591329  0.39032780  -0.00640624  1
  Ta  Ta111  1  0.69166578  0.69962128  0.86636169  1
  Ta  Ta112  1  0.58747683  0.20225723  0.75404453  1
  Ta  Ta113  1  0.39793657  0.00288961  0.75052776  1
  Ta  Ta114  1  0.79309381  0.39856365  0.74100165  1
  Ta  Ta115  1  -0.00586375  0.38815696  0.26188274  1
  Ta  Ta116  1  0.39525105  0.59945835  0.72694813  1
  Ta  Ta117  1  0.50114389  0.30948642  0.87247866  1
  Ta  Ta118  1  0.70051815  0.29775840  0.86835987  1
  Ta  Ta119  1  0.60996716  0.00147729  0.48352718  1
  Ti  Ti120  1  0.60476219  0.41800187  0.24810272  1
  Ti  Ti121  1  0.89532171  0.49338343  0.86787251  1
  Ti  Ti122  1  0.88721747  0.48758673  0.13308998  1
  Ti  Ti123  1  0.30228517  0.69888685  0.37722332  1
  Ti  Ti124  1  0.19947598  0.61566985  -0.00327714  1
  Ti  Ti125  1  0.10204271  0.70281111  0.61376793  1
  Ti  Ti126  1  0.61710800  0.57629657  0.52518716  1
  Ti  Ti127  1  0.19483027  0.80806523  -0.00452875  1
  Ti  Ti128  1  0.29059920  0.90890628  0.12570054  1
  Ti  Ti129  1  0.69938634  0.09951848  0.87514671  1
  Ti  Ti130  1  0.59740255  0.80154993  0.25558256  1
  Ti  Ti131  1  0.70859241  0.70435378  0.62520334  1
  Ti  Ti132  1  0.40637591  0.80228006  0.74100009  1
  Ti  Ti133  1  0.38584637  0.01160036  0.00709372  1
  Ti  Ti134  1  0.58895818  0.80912254  0.48872478  1
  Ti  Ti135  1  0.29136077  0.91599131  0.87959797  1
  Ti  Ti136  1  -0.00672511  0.59005890  0.50319800  1
  Ti  Ti137  1  0.40293998  0.41240517  0.24333284  1
  Ti  Ti138  1  0.39907964  0.21041935  0.48614324  1
  Ti  Ti139  1  0.30884006  0.29518575  0.12459868  1
  Ti  Ti140  1  0.70869692  0.88934373  0.36722164  1
  Ti  Ti141  1  0.59820821  -0.00582967  0.26454102  1
  Ti  Ti142  1  -0.00542483  0.59280328  0.25440817  1
  Ti  Ti143  1  0.29967265  0.11271114  0.37838043  1
  Ti  Ti144  1  0.09926407  0.88693211  0.38558327  1
  Ti  Ti145  1  -0.00414688  -0.00967439  -0.00969779  1
  Ti  Ti146  1  0.59851334  0.59565487  0.73838134  1
  Ti  Ti147  1  -0.00327608  0.41374507  0.74078242  1
  Ti  Ti148  1  0.39926705  0.20695497  0.00159382  1
  Ti  Ti149  1  -0.00312631  0.39892649  0.50475212  1
  Ti  Ti150  1  0.19182301  -0.00194907  0.00637532  1
  Ti  Ti151  1  0.60810823  0.80487268  0.75211243  1
  Ti  Ti152  1  0.59942081  0.40665833  -0.00204920  1
  Ti  Ti153  1  0.69595289  0.49602412  0.11693159  1
  Ti  Ti154  1  0.69232695  0.90270236  0.62252220  1
  Ti  Ti155  1  0.80480277  0.81222348  -0.00531187  1
  Ti  Ti156  1  0.79476303  -0.00395819  0.49629565  1
  Ti  Ti157  1  0.09439922  0.29775321  0.62346550  1
  Ti  Ti158  1  0.30778496  0.29916647  0.62332029  1
  Ti  Ti159  1  0.38776531  0.21162745  0.26069444  1
  Mo  Mo160  1  0.81255675  0.20067360  0.25168192  1
  Mo  Mo161  1  0.00244034  0.78831061  0.50029263  1
  Mo  Mo162  1  0.90124786  0.89372769  0.12231480  1
  Mo  Mo163  1  0.48355042  0.72151627  0.37301306  1
  Mo  Mo164  1  0.31102097  0.09574664  0.12870580  1
  Mo  Mo165  1  0.90996992  0.30453092  0.38623275  1
  Mo  Mo166  1  0.30218857  0.70757497  0.63271370  1
  Mo  Mo167  1  0.90317345  0.10368212  0.39079201  1
  Mo  Mo168  1  0.50861467  0.89719184  0.36763477  1
  Mo  Mo169  1  0.00083723  -0.00411237  0.75251810  1
  Mo  Mo170  1  0.28480098  0.71275872  0.11821615  1
  Mo  Mo171  1  0.49772118  0.10838374  0.36703727  1
  Mo  Mo172  1  0.50606296  0.49774293  0.11808428  1
  Mo  Mo173  1  0.29999497  0.49374879  0.62637678  1
  Mo  Mo174  1  0.29183440  0.29768938  0.38949593  1
  Mo  Mo175  1  0.90270264  0.88830629  0.38650159  1
  Mo  Mo176  1  0.31007410  0.90253437  0.62695066  1
  Mo  Mo177  1  0.10532557  0.90496154  0.87525686  1
  Mo  Mo178  1  0.80336580  0.40416614  0.25090807  1
  Mo  Mo179  1  0.08483534  0.49879016  0.61808609  1
  Mo  Mo180  1  0.40646819  0.19638744  0.75164330  1
  Mo  Mo181  1  0.68776744  0.08800158  0.61781905  1
  Mo  Mo182  1  0.50793698  0.70030483  0.85547738  1
  Mo  Mo183  1  0.09800298  0.08849990  0.12292914  1
  Mo  Mo184  1  0.59653538  0.39447661  0.75361298  1
  Mo  Mo185  1  0.19964970  0.79532336  0.50333820  1
  Mo  Mo186  1  0.01692558  -0.01175598  0.26589606  1
  Mo  Mo187  1  0.09719226  0.29802175  0.13106008  1
  Mo  Mo188  1  0.79993491  0.59704664  0.51431786  1
  Mo  Mo189  1  0.90390801  0.49767538  0.62297796  1
  Mo  Mo190  1  0.09655192  0.10648311  0.61390086  1
  Mo  Mo191  1  0.79171811  0.79932246  0.25988146  1
  Mo  Mo192  1  0.79460623  0.79604600  0.74964071  1
  Mo  Mo193  1  0.49869921  0.70765441  0.11960269  1
  Mo  Mo194  1  0.70053620  0.49800741  0.63620098  1
  Mo  Mo195  1  0.81157044  -0.00960723  0.00171065  1
  Mo  Mo196  1  0.10521341  0.70421404  0.87855698  1
  Mo  Mo197  1  0.00060319  0.59701224  0.75542418  1
  Mo  Mo198  1  0.51024014  0.48681616  0.63613948  1
  Mo  Mo199  1  0.59558248  0.39710299  0.50156576  1
