# generated using pymatgen
data_HfZrTaTiMo
_symmetry_space_group_name_H-M   'P 1'
_cell_length_a   15.19349616
_cell_length_b   15.20160440
_cell_length_c   16.84285777
_cell_angle_alpha   90.01928418
_cell_angle_beta   90.01121074
_cell_angle_gamma   89.96019233
_symmetry_Int_Tables_number   1
_chemical_formula_structural   HfZrTaTiMo
_chemical_formula_sum   'Hf40 Zr40 Ta40 Ti40 Mo40'
_cell_volume   3890.11813511
_cell_formula_units_Z   40
loop_
 _symmetry_equiv_pos_site_id
 _symmetry_equiv_pos_as_xyz
  1  'x, y, z'
loop_
 _atom_site_type_symbol
 _atom_site_label
 _atom_site_symmetry_multiplicity
 _atom_site_fract_x
 _atom_site_fract_y
 _atom_site_fract_z
 _atom_site_occupancy
  Hf  Hf0  1  0.59840360  0.79029688  0.22805247  1
  Hf  Hf1  1  -0.00585881  0.19533111  0.23948873  1
  Hf  Hf2  1  0.90420241  0.70837573  0.36866597  1
  Hf  Hf3  1  0.29258603  0.90849035  0.12007317  1
  Hf  Hf4  1  0.31954378  0.09229773  0.88050917  1
  Hf  Hf5  1  0.90967441  0.49881974  0.61958320  1
  Hf  Hf6  1  0.50081303  0.28730093  0.87294840  1
  Hf  Hf7  1  0.40921643  0.17988194  0.74593908  1
  Hf  Hf8  1  0.09662930  0.08760747  0.12391289  1
  Hf  Hf9  1  0.09793015  0.30071480  0.11917060  1
  Hf  Hf10  1  0.88823015  0.88363505  0.86864063  1
  Hf  Hf11  1  0.80492747  0.59667318  0.25581079  1
  Hf  Hf12  1  0.59550340  0.39517115  0.00106500  1
  Hf  Hf13  1  -0.00224235  0.19444997  -0.01039749  1
  Hf  Hf14  1  0.67615791  0.69698825  0.62841164  1
  Hf  Hf15  1  0.40426653  0.82342526  0.75755508  1
  Hf  Hf16  1  0.31153062  0.70327700  0.62717557  1
  Hf  Hf17  1  0.79239427  0.80744421  0.50752184  1
  Hf  Hf18  1  0.09955461  0.67645479  0.60530662  1
  Hf  Hf19  1  -0.01399159  -0.00449505  -0.01169202  1
  Hf  Hf20  1  0.21348024  0.80616789  0.49904622  1
  Hf  Hf21  1  0.89170880  0.50223206  0.12360081  1
  Hf  Hf22  1  0.20159770  0.58908888  0.74994539  1
  Hf  Hf23  1  0.80375971  0.60601529  0.50146258  1
  Hf  Hf24  1  0.51048843  0.50334335  0.61837389  1
  Hf  Hf25  1  0.30598848  0.70700664  0.37060799  1
  Hf  Hf26  1  0.49825263  0.48634464  0.37596364  1
  Hf  Hf27  1  0.29461719  0.10027292  0.61993543  1
  Hf  Hf28  1  0.66729190  0.91060943  0.61950982  1
  Hf  Hf29  1  0.29730628  0.30216628  0.61662543  1
  Hf  Hf30  1  -0.00702597  0.78721815  0.73324083  1
  Hf  Hf31  1  0.09096281  0.69103904  0.87586961  1
  Hf  Hf32  1  0.89206568  0.10569346  0.36398045  1
  Hf  Hf33  1  0.30741129  0.30655100  0.38324904  1
  Hf  Hf34  1  0.78288769  -0.00917117  -0.00861207  1
  Hf  Hf35  1  0.00892109  0.39938265  0.75180201  1
  Hf  Hf36  1  0.30302107  0.49847602  0.88082227  1
  Hf  Hf37  1  0.60632775  0.59961231  0.01642149  1
  Hf  Hf38  1  0.08549363  0.10310960  0.63772772  1
  Hf  Hf39  1  0.19837924  -0.00108469  -0.01007236  1
  Zr  Zr40  1  0.61225058  0.82332719  0.01018087  1
  Zr  Zr41  1  0.30173244  0.70906752  0.87485789  1
  Zr  Zr42  1  0.10753867  0.50296023  0.38954339  1
  Zr  Zr43  1  0.21112449  -0.00260081  0.76233390  1
  Zr  Zr44  1  0.09498706  0.28884636  0.37340214  1
  Zr  Zr45  1  0.89053418  0.93296041  0.63664831  1
  Zr  Zr46  1  0.29789349  0.49827306  0.61008783  1
  Zr  Zr47  1  0.70798859  0.29989703  0.63472179  1
  Zr  Zr48  1  0.78905027  0.80862835  0.73564135  1
  Zr  Zr49  1  0.20604085  0.60573739  0.00595954  1
  Zr  Zr50  1  0.79693259  0.19578995  -0.00052062  1
  Zr  Zr51  1  0.59310795  0.18896837  0.01839293  1
  Zr  Zr52  1  0.69997880  0.51160188  0.87355089  1
  Zr  Zr53  1  0.51311997  0.28701934  0.63263155  1
  Zr  Zr54  1  0.10761757  0.90403700  0.63105381  1
  Zr  Zr55  1  0.72315011  0.71504007  0.88713786  1
  Zr  Zr56  1  0.50517191  0.10821842  0.37011681  1
  Zr  Zr57  1  0.91276858  0.51096476  0.88049045  1
  Zr  Zr58  1  -0.00573172  0.38757648  0.49710091  1
  Zr  Zr59  1  0.70828305  0.90165423  0.35783106  1
  Zr  Zr60  1  0.72341782  0.69513612  0.12129513  1
  Zr  Zr61  1  0.79481230  0.39206107  0.49471122  1
  Zr  Zr62  1  -0.01704318  0.19275333  0.50431822  1
  Zr  Zr63  1  0.19884341  0.39865914  0.25057825  1
  Zr  Zr64  1  0.69363829  0.49821776  0.37518015  1
  Zr  Zr65  1  0.38340568  -0.00014101  0.25617539  1
  Zr  Zr66  1  0.51071034  0.70543665  0.88354378  1
  Zr  Zr67  1  -0.00408189  0.00092665  0.49702895  1
  Zr  Zr68  1  0.50493781  0.89379467  0.36371929  1
  Zr  Zr69  1  -0.00741622  0.61314715  0.01001646  1
  Zr  Zr70  1  0.80841014  0.60671303  0.74064153  1
  Zr  Zr71  1  0.79937651  0.40404615  -0.00250861  1
  Zr  Zr72  1  0.68397822  0.28962643  0.36243687  1
  Zr  Zr73  1  0.50193959  0.69215245  0.36004158  1
  Zr  Zr74  1  0.10603986  0.88498991  0.87327031  1
  Zr  Zr75  1  0.78769570  0.01779010  0.49969107  1
  Zr  Zr76  1  -0.00787006  0.80024257  0.50641978  1
  Zr  Zr77  1  0.41531113  0.20295725  0.49659810  1
  Zr  Zr78  1  0.39930795  0.40369609  0.75111483  1
  Zr  Zr79  1  0.09766707  0.49815948  0.12608284  1
  Ta  Ta80  1  0.42119804  0.79848062  0.50250543  1
  Ta  Ta81  1  0.57461405  0.00230024  0.75553916  1
  Ta  Ta82  1  0.59925721  0.00190925  0.22816723  1
  Ta  Ta83  1  0.39883826  0.40453503  0.24484645  1
  Ta  Ta84  1  0.39041782  0.20586369  0.24386106  1
  Ta  Ta85  1  0.50088341  0.50238901  0.87852628  1
  Ta  Ta86  1  -0.00907527  0.01429268  0.77309067  1
  Ta  Ta87  1  0.20069691  0.20047211  -0.00721689  1
  Ta  Ta88  1  0.72838681  0.90324652  0.14045726  1
  Ta  Ta89  1  0.10563496  0.89800065  0.37414242  1
  Ta  Ta90  1  0.30473818  0.50561482  0.38512704  1
  Ta  Ta91  1  0.50375191  0.07502481  0.61176411  1
  Ta  Ta92  1  0.39518345  -0.00943189  0.48607475  1
  Ta  Ta93  1  0.59041957  0.19837267  0.23006658  1
  Ta  Ta94  1  0.69522156  0.09622809  0.35436418  1
  Ta  Ta95  1  -0.01581708  0.39952184  0.25762896  1
  Ta  Ta96  1  0.20817779  0.60430288  0.24882081  1
  Ta  Ta97  1  0.69356332  0.10600772  0.63766641  1
  Ta  Ta98  1  0.19785384  0.39472867  0.75538433  1
  Ta  Ta99  1  0.79938165  0.20259076  0.23545402  1
  Ta  Ta100  1  0.40445949  0.60526028  0.50021239  1
  Ta  Ta101  1  0.10542506  0.69878261  0.38004948  1
  Ta  Ta102  1  0.67555265  0.09802062  0.87657562  1
  Ta  Ta103  1  0.01129759  0.59920798  0.25353208  1
  Ta  Ta104  1  0.31392253  0.90941823  0.62014961  1
  Ta  Ta105  1  0.30400215  0.49790206  0.12151617  1
  Ta  Ta106  1  0.59642040  0.61294863  0.49638618  1
  Ta  Ta107  1  0.00831570  0.59352167  0.74494957  1
  Ta  Ta108  1  0.39145797  0.19862717  0.01097458  1
  Ta  Ta109  1  0.69719266  0.70546064  0.36831581  1
  Ta  Ta110  1  0.60409636  0.40857664  0.75702545  1
  Ta  Ta111  1  0.59969292  0.58697418  0.23259974  1
  Ta  Ta112  1  0.49484198  0.49590273  0.12264305  1
  Ta  Ta113  1  0.10483054  0.29733147  0.62815292  1
  Ta  Ta114  1  0.20436980  0.18898092  0.24700863  1
  Ta  Ta115  1  0.19890488  0.00405374  0.49302003  1
  Ta  Ta116  1  0.80557722  0.39923815  0.75511564  1
  Ta  Ta117  1  0.92056938  0.71843961  0.14471405  1
  Ta  Ta118  1  0.09194965  0.88899216  0.12364079  1
  Ta  Ta119  1  0.69744115  0.31030329  0.13328984  1
  Ti  Ti120  1  0.90378151  0.28654946  0.63907211  1
  Ti  Ti121  1  0.11339386  0.70672624  0.13135450  1
  Ti  Ti122  1  0.40042590  0.60241391  0.23831775  1
  Ti  Ti123  1  0.79198383  0.20380141  0.49963060  1
  Ti  Ti124  1  0.39643502  0.39697649  0.00135134  1
  Ti  Ti125  1  0.18809920  0.19804242  0.49828065  1
  Ti  Ti126  1  0.20222194  0.79403081  0.74252698  1
  Ti  Ti127  1  0.18980316  -0.00419261  0.25530854  1
  Ti  Ti128  1  0.40672236  0.60211446  0.00718243  1
  Ti  Ti129  1  0.28942127  0.10121546  0.37910455  1
  Ti  Ti130  1  0.21024119  0.80439936  0.25363828  1
  Ti  Ti131  1  0.79682735  0.39728691  0.25112785  1
  Ti  Ti132  1  0.10094117  0.31051631  0.88362927  1
  Ti  Ti133  1  0.89853254  0.30451295  0.87788347  1
  Ti  Ti134  1  0.47767632  0.09181416  0.12666299  1
  Ti  Ti135  1  0.39578663  0.80568104  0.00247811  1
  Ti  Ti136  1  -0.00106002  0.20154972  0.76922223  1
  Ti  Ti137  1  0.70654990  0.09720005  0.12967812  1
  Ti  Ti138  1  0.30103922  0.29759513  0.87774319  1
  Ti  Ti139  1  0.90087117  0.30155845  0.11794192  1
  Ti  Ti140  1  0.30835742  0.70715189  0.12835733  1
  Ti  Ti141  1  0.59289425  0.80352656  0.75830686  1
  Ti  Ti142  1  0.09588343  0.09358360  0.36814471  1
  Ti  Ti143  1  0.90375714  0.49769180  0.37775073  1
  Ti  Ti144  1  0.29532548  0.29979323  0.12122700  1
  Ti  Ti145  1  0.83910405  0.79758722  0.01368459  1
  Ti  Ti146  1  0.90368124  0.90786664  0.35792779  1
  Ti  Ti147  1  0.69713808  0.29878766  0.86692832  1
  Ti  Ti148  1  0.48909489  0.30352568  0.12987335  1
  Ti  Ti149  1  0.58711926  0.37045446  0.49502024  1
  Ti  Ti150  1  0.01482733  0.80751881  0.25690454  1
  Ti  Ti151  1  0.69887853  0.49712126  0.62702973  1
  Ti  Ti152  1  0.80159496  0.19562375  0.76478247  1
  Ti  Ti153  1  0.19393744  0.20270609  0.76540740  1
  Ti  Ti154  1  0.42278364  0.60783337  0.74833057  1
  Ti  Ti155  1  0.49394696  0.92807670  0.89494592  1
  Ti  Ti156  1  0.49179832  0.89652327  0.12596387  1
  Ti  Ti157  1  0.10922924  0.48593266  0.60616236  1
  Ti  Ti158  1  0.19839159  0.39930304  -0.00280857  1
  Ti  Ti159  1  0.78057825  0.00745046  0.76677279  1
  Mo  Mo160  1  0.40119315  -0.00238636  0.74871434  1
  Mo  Mo161  1  -0.00217775  0.59908865  0.48945266  1
  Mo  Mo162  1  0.10165282  0.10951040  0.87062015  1
  Mo  Mo163  1  0.01166519  0.80330897  0.00740501  1
  Mo  Mo164  1  0.49452794  0.89213620  0.61954846  1
  Mo  Mo165  1  0.29640018  0.90313644  0.37611961  1
  Mo  Mo166  1  0.00826690  -0.00374145  0.25425116  1
  Mo  Mo167  1  0.81242596  0.80066664  0.25093127  1
  Mo  Mo168  1  0.39305374  0.79415737  0.23718551  1
  Mo  Mo169  1  0.80902717  0.00931107  0.24319245  1
  Mo  Mo170  1  0.30769485  0.89298933  0.89227505  1
  Mo  Mo171  1  0.59903878  0.00071344  0.02638107  1
  Mo  Mo172  1  0.50082098  0.70429251  0.62873914  1
  Mo  Mo173  1  0.88708843  0.30213918  0.36243899  1
  Mo  Mo174  1  0.60736555  0.19334548  0.75575593  1
  Mo  Mo175  1  0.10750190  0.49298017  0.87767633  1
  Mo  Mo176  1  0.20731729  0.60282495  0.49274146  1
  Mo  Mo177  1  0.90699479  0.70544899  0.87328371  1
  Mo  Mo178  1  0.91348127  0.91011939  0.13439449  1
  Mo  Mo179  1  0.41035051  0.40204612  0.49756232  1
  Mo  Mo180  1  0.59290562  0.39887365  0.23825374  1
  Mo  Mo181  1  0.60166698  0.79748125  0.49071700  1
  Mo  Mo182  1  0.40604429  0.00148311  0.01321643  1
  Mo  Mo183  1  0.59429511  0.00326020  0.49153179  1
  Mo  Mo184  1  0.20431213  0.38976747  0.49986477  1
  Mo  Mo185  1  0.50098239  0.09950656  0.88787648  1
  Mo  Mo186  1  0.49093215  0.69837096  0.11900649  1
  Mo  Mo187  1  0.67748603  0.90869514  0.86767417  1
  Mo  Mo188  1  0.69994471  0.49265933  0.13187899  1
  Mo  Mo189  1  0.29095631  0.11045068  0.12215404  1
  Mo  Mo190  1  0.61941459  0.17808878  0.49876026  1
  Mo  Mo191  1  0.89261373  0.08909023  0.12555894  1
  Mo  Mo192  1  0.89536061  0.69358523  0.61706111  1
  Mo  Mo193  1  0.20171954  0.79700746  0.00923432  1
  Mo  Mo194  1  0.88534703  0.11336931  0.65160900  1
  Mo  Mo195  1  0.88671079  0.10287126  0.86872015  1
  Mo  Mo196  1  0.00482689  0.39234797  -0.00486816  1
  Mo  Mo197  1  0.80694408  0.61026110  0.00754777  1
  Mo  Mo198  1  0.49676934  0.29930335  0.35348851  1
  Mo  Mo199  1  0.59638962  0.59664983  0.75429695  1
