# generated using pymatgen
data_HfZrTaTiMo
_symmetry_space_group_name_H-M   'P 1'
_cell_length_a   15.20715459
_cell_length_b   15.20593547
_cell_length_c   16.84479155
_cell_angle_alpha   90.03465756
_cell_angle_beta   89.97206066
_cell_angle_gamma   90.05807747
_symmetry_Int_Tables_number   1
_chemical_formula_structural   HfZrTaTiMo
_chemical_formula_sum   'Hf40 Zr40 Ta40 Ti40 Mo40'
_cell_volume   3895.16976773
_cell_formula_units_Z   40
loop_
 _symmetry_equiv_pos_site_id
 _symmetry_equiv_pos_as_xyz
  1  'x, y, z'
loop_
 _atom_site_type_symbol
 _atom_site_label
 _atom_site_symmetry_multiplicity
 _atom_site_fract_x
 _atom_site_fract_y
 _atom_site_fract_z
 _atom_site_occupancy
  Hf  Hf0  1  0.90007479  0.30189395  0.37187662  1
  Hf  Hf1  1  0.91000238  0.88939791  0.62509641  1
  Hf  Hf2  1  0.79519836  0.39680358  0.25335030  1
  Hf  Hf3  1  0.29282918  0.71079991  0.62279328  1
  Hf  Hf4  1  0.39130809  0.40392252  0.76107403  1
  Hf  Hf5  1  0.49630686  0.29761488  0.11226344  1
  Hf  Hf6  1  0.10179053  0.50125013  0.37959156  1
  Hf  Hf7  1  0.41254747  -0.00200949  0.50227685  1
  Hf  Hf8  1  0.69799533  0.27369563  0.12423639  1
  Hf  Hf9  1  0.49736193  0.71609527  0.63124772  1
  Hf  Hf10  1  0.49865014  0.71062791  0.37891510  1
  Hf  Hf11  1  0.01529850  0.21223673  0.74529596  1
  Hf  Hf12  1  0.50434089  0.09868490  0.63760093  1
  Hf  Hf13  1  0.01414263  0.42135652  0.02072483  1
  Hf  Hf14  1  0.17943088  0.81680527  0.49705437  1
  Hf  Hf15  1  0.69195476  0.69799617  0.12192479  1
  Hf  Hf16  1  0.09891588  0.70227766  0.11635742  1
  Hf  Hf17  1  0.20298807  0.79399198  -0.01592587  1
  Hf  Hf18  1  0.60370687  0.60731931  0.49934529  1
  Hf  Hf19  1  0.50266052  0.70108071  0.87195649  1
  Hf  Hf20  1  0.90717288  0.29688927  0.13764428  1
  Hf  Hf21  1  0.09020916  0.90611691  0.86958634  1
  Hf  Hf22  1  0.12063021  0.07945805  0.37219937  1
  Hf  Hf23  1  0.19997388  0.59638681  0.24883868  1
  Hf  Hf24  1  0.38462164  -0.00646625  0.76610029  1
  Hf  Hf25  1  0.40246646  0.79867749  -0.00102372  1
  Hf  Hf26  1  0.90308338  0.69907224  0.11638063  1
  Hf  Hf27  1  0.19477191  0.01102587  -0.01446117  1
  Hf  Hf28  1  0.81408867  0.19344739  0.76025476  1
  Hf  Hf29  1  0.58811647  0.60421433  0.25284530  1
  Hf  Hf30  1  0.80927645  0.39413629  0.75905586  1
  Hf  Hf31  1  0.80206668  0.60145526  0.24986122  1
  Hf  Hf32  1  0.19945628  0.60537301  0.74782069  1
  Hf  Hf33  1  0.18682295  0.40220735  0.74305210  1
  Hf  Hf34  1  0.40018109  0.59506049  0.50820610  1
  Hf  Hf35  1  -0.00824244  0.60743996  0.50551443  1
  Hf  Hf36  1  0.00425406  0.20284918  -0.00017481  1
  Hf  Hf37  1  0.79915288  -0.01623408  0.50276104  1
  Hf  Hf38  1  0.20880562  0.21460912  -0.00830995  1
  Hf  Hf39  1  0.89259246  0.09526316  0.12723830  1
  Zr  Zr40  1  0.29354446  0.70836697  0.38511405  1
  Zr  Zr41  1  0.30658965  0.10647897  0.63615558  1
  Zr  Zr42  1  0.70468654  0.09820957  0.62859924  1
  Zr  Zr43  1  0.29937211  0.90180443  0.11584668  1
  Zr  Zr44  1  0.69324891  0.50222414  0.37639235  1
  Zr  Zr45  1  0.60828519  0.02193748  0.24255094  1
  Zr  Zr46  1  0.00748875  0.19217690  0.49881539  1
  Zr  Zr47  1  0.29560538  0.90440312  0.62537788  1
  Zr  Zr48  1  0.79835641  0.59956771  0.75248919  1
  Zr  Zr49  1  0.50125888  0.29773682  0.64191095  1
  Zr  Zr50  1  0.59601452  0.82918250  0.51081034  1
  Zr  Zr51  1  0.21334382  0.20065119  0.49370484  1
  Zr  Zr52  1  0.31253479  0.11289665  0.11803409  1
  Zr  Zr53  1  0.00169114  0.40007298  0.50749479  1
  Zr  Zr54  1  0.49738486  0.91707231  0.36621083  1
  Zr  Zr55  1  0.70987980  0.07790027  0.86308244  1
  Zr  Zr56  1  0.57864876  0.39823807  0.49373675  1
  Zr  Zr57  1  0.90976114  0.08093830  0.38028113  1
  Zr  Zr58  1  0.39384220  0.80468012  0.24067499  1
  Zr  Zr59  1  0.30412107  0.49407356  0.38126896  1
  Zr  Zr60  1  0.08204052  0.69385133  0.87364595  1
  Zr  Zr61  1  0.57667404  0.39156408  0.25989489  1
  Zr  Zr62  1  0.89752620  0.29649687  0.61759306  1
  Zr  Zr63  1  0.11488618  0.09006518  0.62651889  1
  Zr  Zr64  1  0.70029165  0.69061324  0.89107831  1
  Zr  Zr65  1  0.21710184  0.20483103  0.24941002  1
  Zr  Zr66  1  0.78588407  0.18085156  0.26552435  1
  Zr  Zr67  1  0.92305418  0.50444970  0.87537884  1
  Zr  Zr68  1  0.59955055  -0.03805990  0.73660716  1
  Zr  Zr69  1  0.80913112  0.38879497  -0.00557104  1
  Zr  Zr70  1  0.09769048  0.10219829  0.13195505  1
  Zr  Zr71  1  0.69133836  0.88257199  0.88383061  1
  Zr  Zr72  1  0.10722937  0.30466585  0.36390763  1
  Zr  Zr73  1  0.47311259  0.49905913  0.11429266  1
  Zr  Zr74  1  0.60780286  0.40536087  0.76486593  1
  Zr  Zr75  1  0.09083175  0.31990910  0.87639093  1
  Zr  Zr76  1  0.60591022  0.19263637  -0.02319760  1
  Zr  Zr77  1  0.59348096  0.39465172  -0.02084976  1
  Zr  Zr78  1  0.69183184  0.49038216  0.12037202  1
  Zr  Zr79  1  0.89240409  0.89921684  0.87867562  1
  Ta  Ta80  1  0.79066305  0.39839687  0.49316678  1
  Ta  Ta81  1  0.42237461  0.20661234  0.25319733  1
  Ta  Ta82  1  0.78969418  0.19400222  0.49219065  1
  Ta  Ta83  1  0.80817079  -0.01344447  0.25241566  1
  Ta  Ta84  1  0.80820510  0.19535381  -0.01697958  1
  Ta  Ta85  1  -0.00153967  0.59958856  0.24723982  1
  Ta  Ta86  1  0.39568268  0.60124951  0.75093727  1
  Ta  Ta87  1  0.21937552  0.41597391  -0.00645432  1
  Ta  Ta88  1  0.37534441  0.59207350  -0.01559576  1
  Ta  Ta89  1  0.41434045  0.20824638  0.49975217  1
  Ta  Ta90  1  0.67757502  0.28065172  0.38153513  1
  Ta  Ta91  1  0.70218560  0.90280271  0.36979038  1
  Ta  Ta92  1  0.20964244  -0.00793596  0.24324010  1
  Ta  Ta93  1  0.49907093  0.50612851  0.63498656  1
  Ta  Ta94  1  0.79844215  0.80187184  0.24433386  1
  Ta  Ta95  1  0.69977146  0.30085522  0.62049351  1
  Ta  Ta96  1  0.08351266  0.70467366  0.37175438  1
  Ta  Ta97  1  0.18696523  0.80545134  0.25026234  1
  Ta  Ta98  1  0.59426460  -0.00583966  0.00622921  1
  Ta  Ta99  1  0.50768761  0.10452534  0.11494890  1
  Ta  Ta100  1  0.31184358  0.31898197  0.11945197  1
  Ta  Ta101  1  0.50234239  0.09347222  0.86255448  1
  Ta  Ta102  1  0.70388891  0.90892596  0.12532395  1
  Ta  Ta103  1  0.90626592  0.90087994  0.11914489  1
  Ta  Ta104  1  0.29678284  0.29654118  0.63621087  1
  Ta  Ta105  1  -0.00236907  0.00828777  0.74811046  1
  Ta  Ta106  1  0.90805190  0.09221080  0.61758043  1
  Ta  Ta107  1  0.32707369  0.10000677  0.36989559  1
  Ta  Ta108  1  0.19082516  0.60243789  0.51180898  1
  Ta  Ta109  1  0.29697655  0.68504521  0.12051751  1
  Ta  Ta110  1  0.69793244  0.49580766  0.61945292  1
  Ta  Ta111  1  0.40306193  0.00677503  -0.01565788  1
  Ta  Ta112  1  0.90388471  0.87800615  0.37540900  1
  Ta  Ta113  1  0.09268766  0.90091664  0.11351456  1
  Ta  Ta114  1  0.28989668  0.91223457  0.37691634  1
  Ta  Ta115  1  0.90333942  0.50384198  0.37393814  1
  Ta  Ta116  1  0.79831941  0.78411736  0.49968595  1
  Ta  Ta117  1  0.20473635  0.40265496  0.51875488  1
  Ta  Ta118  1  0.79718677  0.80281069  0.01273183  1
  Ta  Ta119  1  0.78574001  0.79793159  0.74447846  1
  Ti  Ti120  1  -0.00033703  0.58715419  0.73873046  1
  Ti  Ti121  1  0.09695809  0.50133035  0.62179548  1
  Ti  Ti122  1  -0.00887432  0.79395066  0.49846343  1
  Ti  Ti123  1  0.09024432  0.71031238  0.63338793  1
  Ti  Ti124  1  0.39544340  0.80086736  0.76027714  1
  Ti  Ti125  1  0.48919989  0.70040670  0.12461614  1
  Ti  Ti126  1  0.89403721  0.70482443  0.89221978  1
  Ti  Ti127  1  0.58411921  0.60059676  0.00386922  1
  Ti  Ti128  1  0.50035579  0.89476352  0.87742029  1
  Ti  Ti129  1  0.10860018  0.89460090  0.65357639  1
  Ti  Ti130  1  0.00230458  0.19267823  0.25652738  1
  Ti  Ti131  1  0.69971320  0.69727493  0.62594003  1
  Ti  Ti132  1  0.88921918  0.49849923  0.62207504  1
  Ti  Ti133  1  0.40391060  0.20963493  -0.02689082  1
  Ti  Ti134  1  0.81190396  0.58628264  0.01034687  1
  Ti  Ti135  1  -0.01189738  0.79174709  0.75294291  1
  Ti  Ti136  1  0.39234526  0.39825143  0.51251001  1
  Ti  Ti137  1  0.59895995  0.81137113  0.24076374  1
  Ti  Ti138  1  0.30831349  0.30105015  0.37719809  1
  Ti  Ti139  1  0.02256132  -0.02124146  0.50239466  1
  Ti  Ti140  1  0.00889812  0.41495346  0.23927840  1
  Ti  Ti141  1  0.80768657  -0.01162169  0.73854065  1
  Ti  Ti142  1  0.79826358  0.00368728  0.00277618  1
  Ti  Ti143  1  0.70390538  0.50444252  0.88563791  1
  Ti  Ti144  1  0.60089367  0.60068830  0.74988809  1
  Ti  Ti145  1  0.00885026  -0.01606726  0.25234952  1
  Ti  Ti146  1  0.70467268  0.71304193  0.37102157  1
  Ti  Ti147  1  0.59210660  0.80490535  0.01714015  1
  Ti  Ti148  1  0.40508728  0.00822529  0.24084896  1
  Ti  Ti149  1  0.61004830  0.20470860  0.76505614  1
  Ti  Ti150  1  0.80024116  0.59829602  0.49481191  1
  Ti  Ti151  1  0.11895758  0.31457707  0.13385104  1
  Ti  Ti152  1  0.39719012  0.59812259  0.25328469  1
  Ti  Ti153  1  0.38477066  0.40298470  0.25259725  1
  Ti  Ti154  1  0.49237623  0.50469888  0.87623269  1
  Ti  Ti155  1  -0.00683480  0.79702815  0.24948309  1
  Ti  Ti156  1  0.18654817  0.59256000  -0.00814050  1
  Ti  Ti157  1  0.92120929  0.09401840  0.87907204  1
  Ti  Ti158  1  0.89322668  0.69476571  0.62937613  1
  Ti  Ti159  1  0.52550437  0.12089641  0.38483332  1
  Mo  Mo160  1  0.59578637  0.20031430  0.24857639  1
  Mo  Mo161  1  0.50125902  0.29419277  0.85991337  1
  Mo  Mo162  1  0.29188780  0.50824486  0.86893569  1
  Mo  Mo163  1  0.29870872  0.30385950  0.86795586  1
  Mo  Mo164  1  0.48571082  0.50631872  0.37302128  1
  Mo  Mo165  1  0.38939772  0.80376645  0.49482415  1
  Mo  Mo166  1  0.19112207  0.00596924  0.77022070  1
  Mo  Mo167  1  0.30141031  0.50256314  0.62282902  1
  Mo  Mo168  1  0.60735238  0.01219456  0.50405643  1
  Mo  Mo169  1  0.29894096  0.10677418  0.87358140  1
  Mo  Mo170  1  -0.00064332  0.60451971  0.00654377  1
  Mo  Mo171  1  0.90463344  0.50002061  0.13649199  1
  Mo  Mo172  1  0.59902209  0.78233383  0.74638584  1
  Mo  Mo173  1  0.69862404  0.08826080  0.38643848  1
  Mo  Mo174  1  0.48170063  0.30144236  0.37954873  1
  Mo  Mo175  1  0.90678986  0.29670602  0.87734371  1
  Mo  Mo176  1  0.20452711  0.40104606  0.24441060  1
  Mo  Mo177  1  0.10087656  0.50706069  0.87077010  1
  Mo  Mo178  1  -0.00691114  0.00530047  0.00162720  1
  Mo  Mo179  1  0.39333672  0.39589803  -0.02234522  1
  Mo  Mo180  1  0.70417225  0.09584112  0.11296173  1
  Mo  Mo181  1  0.59977755  0.20031168  0.50903327  1
  Mo  Mo182  1  -0.00437649  0.80762762  -0.00017917  1
  Mo  Mo183  1  0.21131761  0.20126591  0.76638303  1
  Mo  Mo184  1  0.71195947  0.29487860  0.87212878  1
  Mo  Mo185  1  0.70831110  0.88561777  0.62390656  1
  Mo  Mo186  1  0.20687271  0.80625385  0.76652916  1
  Mo  Mo187  1  0.48836330  0.89935461  0.62809561  1
  Mo  Mo188  1  0.09345416  0.89470181  0.36619309  1
  Mo  Mo189  1  -0.00284396  0.41005211  0.73217406  1
  Mo  Mo190  1  0.20630542  0.00208342  0.49452346  1
  Mo  Mo191  1  0.89501977  0.69619081  0.37250088  1
  Mo  Mo192  1  0.11268204  0.50781090  0.12950409  1
  Mo  Mo193  1  0.11197441  0.29807317  0.62431764  1
  Mo  Mo194  1  0.29627933  0.50246196  0.12278343  1
  Mo  Mo195  1  0.40299961  0.20102387  0.76700582  1
  Mo  Mo196  1  0.30216197  0.89744649  0.88063700  1
  Mo  Mo197  1  0.50225027  0.90730297  0.12330791  1
  Mo  Mo198  1  0.09902563  0.10578580  0.86767115  1
  Mo  Mo199  1  0.29974683  0.70119255  0.86670131  1
