# generated using pymatgen
data_HfZrTaTiMo
_symmetry_space_group_name_H-M   'P 1'
_cell_length_a   15.20944847
_cell_length_b   15.19581799
_cell_length_c   16.87119419
_cell_angle_alpha   89.92870885
_cell_angle_beta   89.96355465
_cell_angle_gamma   89.83781898
_symmetry_Int_Tables_number   1
_chemical_formula_structural   HfZrTaTiMo
_chemical_formula_sum   'Hf40 Zr40 Ta40 Ti40 Mo40'
_cell_volume   3899.25115866
_cell_formula_units_Z   40
loop_
 _symmetry_equiv_pos_site_id
 _symmetry_equiv_pos_as_xyz
  1  'x, y, z'
loop_
 _atom_site_type_symbol
 _atom_site_label
 _atom_site_symmetry_multiplicity
 _atom_site_fract_x
 _atom_site_fract_y
 _atom_site_fract_z
 _atom_site_occupancy
  Hf  Hf0  1  0.20102536  0.80241572  0.75521926  1
  Hf  Hf1  1  0.79870660  0.81290079  0.24135867  1
  Hf  Hf2  1  0.61425483  0.20995707  0.25625589  1
  Hf  Hf3  1  0.88524966  0.88520922  0.87722483  1
  Hf  Hf4  1  0.69351007  0.09554700  0.88472789  1
  Hf  Hf5  1  0.69724185  0.50814192  0.38737593  1
  Hf  Hf6  1  0.09909748  0.70147526  0.11906520  1
  Hf  Hf7  1  0.89874344  0.48908563  0.37944196  1
  Hf  Hf8  1  0.20409875  0.79972204  0.24202758  1
  Hf  Hf9  1  0.29215508  0.28953476  0.39102571  1
  Hf  Hf10  1  0.20064417  0.58788140  -0.00390926  1
  Hf  Hf11  1  0.00224527  -0.02189096  0.01293457  1
  Hf  Hf12  1  0.68292839  0.30895555  0.88207657  1
  Hf  Hf13  1  0.10332246  0.49192093  0.12090153  1
  Hf  Hf14  1  0.48233768  0.50223405  0.62927696  1
  Hf  Hf15  1  0.21283130  0.59658930  0.24225929  1
  Hf  Hf16  1  0.08907104  0.47837414  0.87373278  1
  Hf  Hf17  1  0.79887065  0.60370809  0.24909120  1
  Hf  Hf18  1  0.00519580  0.60159988  0.25584385  1
  Hf  Hf19  1  0.30647818  0.68312755  0.62827816  1
  Hf  Hf20  1  0.31185832  0.69979843  0.37881943  1
  Hf  Hf21  1  0.50696402  0.70938868  0.88561921  1
  Hf  Hf22  1  0.09887635  0.70303024  0.62813915  1
  Hf  Hf23  1  0.89787876  0.09059763  0.87745421  1
  Hf  Hf24  1  0.58128768  0.40821952  0.49705755  1
  Hf  Hf25  1  0.91219664  0.31016027  0.87488283  1
  Hf  Hf26  1  0.49758964  0.10521232  0.13254056  1
  Hf  Hf27  1  0.51611316  0.09034366  0.61502734  1
  Hf  Hf28  1  0.08736387  0.28726159  0.39019189  1
  Hf  Hf29  1  0.50187176  0.09639782  0.37194047  1
  Hf  Hf30  1  0.60883753  0.81788875  0.74757578  1
  Hf  Hf31  1  0.39723358  0.60114411  -0.00309396  1
  Hf  Hf32  1  0.01728395  0.02104863  0.51807250  1
  Hf  Hf33  1  0.80827498  0.61063927  0.51062243  1
  Hf  Hf34  1  0.70912178  0.91024381  0.38282915  1
  Hf  Hf35  1  0.10687011  0.70634917  0.37784703  1
  Hf  Hf36  1  0.40323295  0.58433624  0.76654860  1
  Hf  Hf37  1  0.48536381  0.31044790  0.13260725  1
  Hf  Hf38  1  0.10588613  0.28751914  0.12144174  1
  Hf  Hf39  1  0.70305960  0.49212050  0.61390959  1
  Zr  Zr40  1  0.20192214  0.79656725  -0.00271453  1
  Zr  Zr41  1  0.40855390  -0.00262756  0.74507966  1
  Zr  Zr42  1  0.88740147  0.29403042  0.12725613  1
  Zr  Zr43  1  0.21403260  0.39154137  0.24816778  1
  Zr  Zr44  1  0.79610468  0.20391392  0.75252584  1
  Zr  Zr45  1  0.00770239  0.59935214  0.50347078  1
  Zr  Zr46  1  0.49348753  0.29230743  0.62629365  1
  Zr  Zr47  1  0.30401573  0.46562668  0.87588570  1
  Zr  Zr48  1  0.19036519  0.17368165  0.51188785  1
  Zr  Zr49  1  -0.02012527  0.81705657  0.51172582  1
  Zr  Zr50  1  0.41430925  0.58595481  0.24571586  1
  Zr  Zr51  1  0.49525321  0.10765529  0.87629901  1
  Zr  Zr52  1  0.11313554  0.09328017  0.86307272  1
  Zr  Zr53  1  0.49462415  0.89208158  0.36342937  1
  Zr  Zr54  1  0.17683625  -0.00097185  0.22704930  1
  Zr  Zr55  1  0.80341223  0.60998631  0.73640384  1
  Zr  Zr56  1  0.41017060  0.79479195  0.74895528  1
  Zr  Zr57  1  0.49394657  0.91565180  0.13407135  1
  Zr  Zr58  1  0.19525046  0.19021964  0.25193009  1
  Zr  Zr59  1  0.09348604  0.88759389  0.87282417  1
  Zr  Zr60  1  0.40058742  -0.01001009  0.50347848  1
  Zr  Zr61  1  0.60158332  0.61054988  0.74750590  1
  Zr  Zr62  1  0.00076915  0.39286908  0.25213533  1
  Zr  Zr63  1  0.58894555  0.40419230  0.75347816  1
  Zr  Zr64  1  0.60989111  0.61305277  0.23985575  1
  Zr  Zr65  1  0.40654047  0.78579512  0.51067856  1
  Zr  Zr66  1  0.80422528  0.41140086  0.75685952  1
  Zr  Zr67  1  0.89563333  0.72028452  0.37394621  1
  Zr  Zr68  1  0.60726255  0.83569740  -0.00411122  1
  Zr  Zr69  1  0.68969038  0.31539008  0.11453670  1
  Zr  Zr70  1  0.49612601  0.71144256  0.11302450  1
  Zr  Zr71  1  -0.00518916  0.16701431  0.24080505  1
  Zr  Zr72  1  0.00293971  0.19384160  -0.00293295  1
  Zr  Zr73  1  0.31024741  0.48611724  0.38104525  1
  Zr  Zr74  1  0.88770307  0.28060299  0.37119957  1
  Zr  Zr75  1  0.19743995  0.58654975  0.75680706  1
  Zr  Zr76  1  0.71559635  0.71896037  0.87621493  1
  Zr  Zr77  1  0.48943453  0.31157516  0.37182914  1
  Zr  Zr78  1  0.08912368  0.91943313  0.37558398  1
  Zr  Zr79  1  -0.00644025  -0.01396705  0.74333244  1
  Ta  Ta80  1  0.88559990  0.08820067  0.11328037  1
  Ta  Ta81  1  0.59048160  0.61914981  0.50569331  1
  Ta  Ta82  1  0.19439042  0.39890748  0.51547036  1
  Ta  Ta83  1  0.29415992  0.90302611  0.62878653  1
  Ta  Ta84  1  0.80665582  0.41466282  -0.00848579  1
  Ta  Ta85  1  0.20363239  0.18728936  -0.00460780  1
  Ta  Ta86  1  0.10657654  0.49317715  0.38376079  1
  Ta  Ta87  1  0.19972705  0.80810684  0.50626794  1
  Ta  Ta88  1  0.79075613  -0.00108186  0.74263957  1
  Ta  Ta89  1  -0.00794031  0.59157081  -0.00108069  1
  Ta  Ta90  1  0.82066461  -0.00018668  0.50580487  1
  Ta  Ta91  1  0.38660099  0.19893221  0.25357973  1
  Ta  Ta92  1  0.38773521  0.21008351  0.00099233  1
  Ta  Ta93  1  0.69841492  0.10885646  0.11666634  1
  Ta  Ta94  1  0.60678210  0.00385920  0.74901992  1
  Ta  Ta95  1  0.78346084  0.39745358  0.25168329  1
  Ta  Ta96  1  0.69713402  0.91713267  0.61015793  1
  Ta  Ta97  1  0.59391588  0.81457148  0.50584929  1
  Ta  Ta98  1  0.28842826  0.08268374  0.37772998  1
  Ta  Ta99  1  0.59272265  0.41921836  0.25668011  1
  Ta  Ta100  1  0.90148876  0.69968230  0.12500944  1
  Ta  Ta101  1  -0.00748276  0.59289960  0.74386347  1
  Ta  Ta102  1  0.21483631  0.21821683  0.74550346  1
  Ta  Ta103  1  0.40818501  0.58593146  0.49563534  1
  Ta  Ta104  1  0.79482484  0.20412071  -0.00664209  1
  Ta  Ta105  1  -0.01139025  0.39406811  0.50996478  1
  Ta  Ta106  1  0.61785164  0.61170264  0.00689039  1
  Ta  Ta107  1  0.69074103  0.71406748  0.38567023  1
  Ta  Ta108  1  0.60384981  0.80385955  0.24634146  1
  Ta  Ta109  1  0.31773033  0.47789629  0.11465124  1
  Ta  Ta110  1  0.70195796  0.30715744  0.38565462  1
  Ta  Ta111  1  0.39892783  0.19528324  0.49940075  1
  Ta  Ta112  1  0.72194063  0.10952422  0.38435931  1
  Ta  Ta113  1  0.58425549  0.21071571  0.00129017  1
  Ta  Ta114  1  0.51415525  0.49538935  0.10705245  1
  Ta  Ta115  1  0.70908879  0.10638333  0.61314692  1
  Ta  Ta116  1  0.90894410  0.69447272  0.87365847  1
  Ta  Ta117  1  0.09007820  0.29030442  0.62261451  1
  Ta  Ta118  1  0.89739823  0.49758153  0.12756146  1
  Ta  Ta119  1  0.30532991  0.91256128  0.87585733  1
  Ti  Ti120  1  0.89197040  0.30938009  0.62702448  1
  Ti  Ti121  1  0.69989265  0.91708771  0.12961353  1
  Ti  Ti122  1  0.00723638  0.20740337  0.75640665  1
  Ti  Ti123  1  0.40038274  0.00674567  -0.00205860  1
  Ti  Ti124  1  0.90716463  0.11227722  0.63380754  1
  Ti  Ti125  1  0.39587951  0.81227886  -0.00666455  1
  Ti  Ti126  1  0.39890278  0.79012930  0.24440329  1
  Ti  Ti127  1  0.37881761  -0.00352794  0.25094170  1
  Ti  Ti128  1  0.47435979  0.30870348  0.86669565  1
  Ti  Ti129  1  0.51546942  0.49636009  0.89497291  1
  Ti  Ti130  1  0.80837499  0.60702715  0.00498112  1
  Ti  Ti131  1  0.70018896  0.71742351  0.61480561  1
  Ti  Ti132  1  0.78632914  -0.00818897  0.00125625  1
  Ti  Ti133  1  -0.00204681  0.81899081  0.24026290  1
  Ti  Ti134  1  0.10574885  0.90295421  0.63333344  1
  Ti  Ti135  1  0.61506133  0.00715632  0.25514089  1
  Ti  Ti136  1  0.30786950  0.10348963  0.63463556  1
  Ti  Ti137  1  0.00367924  0.39884516  0.73875260  1
  Ti  Ti138  1  0.80935916  0.01312484  0.24776394  1
  Ti  Ti139  1  0.21155742  0.37401754  0.00000258  1
  Ti  Ti140  1  0.81485323  0.20428747  0.50774913  1
  Ti  Ti141  1  0.30005712  0.10054296  0.12182056  1
  Ti  Ti142  1  0.00032116  0.39700364  0.00482367  1
  Ti  Ti143  1  0.70695508  0.50650039  0.11779333  1
  Ti  Ti144  1  0.59931142  0.19735143  0.74732087  1
  Ti  Ti145  1  0.30481536  0.10515910  0.86399954  1
  Ti  Ti146  1  0.20525533  -0.00253864  0.00747425  1
  Ti  Ti147  1  0.70755374  0.51404895  0.88237957  1
  Ti  Ti148  1  0.29822656  0.70130447  0.87355231  1
  Ti  Ti149  1  0.30076433  0.89154166  0.11944679  1
  Ti  Ti150  1  0.11475401  0.09484847  0.65242916  1
  Ti  Ti151  1  0.69731960  0.29600629  0.61528920  1
  Ti  Ti152  1  0.60354838  0.19838081  0.49122893  1
  Ti  Ti153  1  0.09131242  0.69218420  0.87396516  1
  Ti  Ti154  1  0.80419647  0.79948632  0.01514517  1
  Ti  Ti155  1  0.28983938  0.89586439  0.37734428  1
  Ti  Ti156  1  0.91673316  0.08335466  0.37754280  1
  Ti  Ti157  1  0.20762704  0.59748506  0.50180478  1
  Ti  Ti158  1  0.81215169  0.80931318  0.73111054  1
  Ti  Ti159  1  0.10014788  0.49650569  0.62526949  1
  Mo  Mo160  1  0.20992025  0.00080089  0.74962684  1
  Mo  Mo161  1  0.88890254  0.89587214  0.11853233  1
  Mo  Mo162  1  0.90904447  0.49495913  0.62076011  1
  Mo  Mo163  1  0.29175926  0.49396445  0.62172073  1
  Mo  Mo164  1  0.70381840  0.91262556  0.87031616  1
  Mo  Mo165  1  0.40329682  0.39729457  0.24839549  1
  Mo  Mo166  1  0.59707609  0.01665653  0.00800060  1
  Mo  Mo167  1  0.29637523  0.29365426  0.61180586  1
  Mo  Mo168  1  0.49827101  0.91432375  0.88159658  1
  Mo  Mo169  1  0.18882259  0.39269392  0.73214504  1
  Mo  Mo170  1  0.40731423  0.39119165  -0.00357162  1
  Mo  Mo171  1  -0.01088500  0.77958142  0.00127947  1
  Mo  Mo172  1  0.50412597  0.51159526  0.37815580  1
  Mo  Mo173  1  -0.01000029  0.19789100  0.51407188  1
  Mo  Mo174  1  -0.01584710  -0.01213912  0.22959725  1
  Mo  Mo175  1  0.79666274  0.39436651  0.50378416  1
  Mo  Mo176  1  -0.00677105  0.78403181  0.74297266  1
  Mo  Mo177  1  0.10060992  0.09308146  0.10752090  1
  Mo  Mo178  1  0.10906898  0.29910005  0.87174686  1
  Mo  Mo179  1  0.78905530  0.19196015  0.24884949  1
  Mo  Mo180  1  0.70707233  0.71119484  0.11781352  1
  Mo  Mo181  1  0.38743065  0.39618112  0.51027724  1
  Mo  Mo182  1  0.37139711  0.37702790  0.73620014  1
  Mo  Mo183  1  0.30052259  0.28891395  0.12348747  1
  Mo  Mo184  1  0.60428937  0.40939897  -0.00517652  1
  Mo  Mo185  1  0.90109997  0.70441034  0.62958177  1
  Mo  Mo186  1  0.50650611  0.89827765  0.62274942  1
  Mo  Mo187  1  0.30513641  0.69803556  0.12119187  1
  Mo  Mo188  1  0.09753386  0.09604344  0.37659275  1
  Mo  Mo189  1  0.50920088  0.69682999  0.62969230  1
  Mo  Mo190  1  0.89518725  0.90987361  0.62986849  1
  Mo  Mo191  1  0.29297986  0.28393586  0.87276505  1
  Mo  Mo192  1  0.79135785  0.80646729  0.51016473  1
  Mo  Mo193  1  0.61135965  0.00983586  0.49051901  1
  Mo  Mo194  1  0.09825358  0.89018750  0.11751351  1
  Mo  Mo195  1  0.50951535  0.70204464  0.37177337  1
  Mo  Mo196  1  0.20659591  -0.01056099  0.50917897  1
  Mo  Mo197  1  0.40473985  0.20103642  0.74474604  1
  Mo  Mo198  1  0.89395150  0.91458939  0.37364065  1
  Mo  Mo199  1  0.89953125  0.50790835  0.88033125  1
