# generated using pymatgen
data_HfZrTaTiMo
_symmetry_space_group_name_H-M   'P 1'
_cell_length_a   15.21493736
_cell_length_b   15.21339369
_cell_length_c   16.87095474
_cell_angle_alpha   90.01936382
_cell_angle_beta   89.95616204
_cell_angle_gamma   90.12771987
_symmetry_Int_Tables_number   1
_chemical_formula_structural   HfZrTaTiMo
_chemical_formula_sum   'Hf40 Zr40 Ta40 Ti40 Mo40'
_cell_volume   3905.12286423
_cell_formula_units_Z   40
loop_
 _symmetry_equiv_pos_site_id
 _symmetry_equiv_pos_as_xyz
  1  'x, y, z'
loop_
 _atom_site_type_symbol
 _atom_site_label
 _atom_site_symmetry_multiplicity
 _atom_site_fract_x
 _atom_site_fract_y
 _atom_site_fract_z
 _atom_site_occupancy
  Hf  Hf0  1  0.59637717  0.81116462  0.00102123  1
  Hf  Hf1  1  0.10532662  0.69506692  0.88723590  1
  Hf  Hf2  1  0.48609592  0.51226540  0.36122309  1
  Hf  Hf3  1  0.79690975  0.59788356  0.75027511  1
  Hf  Hf4  1  0.68772416  0.51187428  0.11837709  1
  Hf  Hf5  1  0.90184688  0.90809910  0.35677778  1
  Hf  Hf6  1  0.71094532  0.12078528  0.62104860  1
  Hf  Hf7  1  0.79054659  0.40126965  -0.00364850  1
  Hf  Hf8  1  -0.00278803  0.60079939  0.50487765  1
  Hf  Hf9  1  0.30795657  0.08140842  0.88772217  1
  Hf  Hf10  1  0.49385112  0.89725190  0.36756093  1
  Hf  Hf11  1  0.50247669  0.70908584  0.14443516  1
  Hf  Hf12  1  0.50574352  0.09778779  0.12416925  1
  Hf  Hf13  1  0.10887044  0.49401685  0.87840017  1
  Hf  Hf14  1  0.52146908  0.70469743  0.35392443  1
  Hf  Hf15  1  0.79928898  0.01527771  0.24520489  1
  Hf  Hf16  1  0.31645797  0.68897119  0.36760818  1
  Hf  Hf17  1  0.90649700  0.70134018  0.88899058  1
  Hf  Hf18  1  0.28781785  0.11273226  0.61782999  1
  Hf  Hf19  1  0.18822519  0.18901491  -0.00221474  1
  Hf  Hf20  1  0.18765292  -0.01320215  0.24298843  1
  Hf  Hf21  1  0.21003201  0.60155712  0.73769729  1
  Hf  Hf22  1  0.37787182  0.40882280  0.24600547  1
  Hf  Hf23  1  0.29516682  0.08880761  0.37872931  1
  Hf  Hf24  1  0.20055217  0.18900526  0.25016175  1
  Hf  Hf25  1  0.30942219  0.89195895  0.12071077  1
  Hf  Hf26  1  0.17140164  -0.00110635  0.50550149  1
  Hf  Hf27  1  0.10421108  0.28253493  0.62568132  1
  Hf  Hf28  1  0.00436995  0.60468274  0.74362483  1
  Hf  Hf29  1  0.31006585  0.69649245  0.88170262  1
  Hf  Hf30  1  0.71072305  0.71308006  0.88909027  1
  Hf  Hf31  1  0.90262013  0.10102896  0.88892287  1
  Hf  Hf32  1  0.00382268  -0.02499903  0.77047730  1
  Hf  Hf33  1  0.71089826  0.30929620  0.36731890  1
  Hf  Hf34  1  0.49457285  0.90818681  0.86835002  1
  Hf  Hf35  1  0.81345360  0.00220926  0.49644696  1
  Hf  Hf36  1  0.70009699  0.70161923  0.63222611  1
  Hf  Hf37  1  0.30275568  0.49076805  0.61852340  1
  Hf  Hf38  1  0.79877582  0.79427644  0.49101995  1
  Hf  Hf39  1  0.81446363  0.21152722  0.23646302  1
  Zr  Zr40  1  0.59528884  0.40450490  0.24938129  1
  Zr  Zr41  1  0.30022629  0.29768899  0.88183437  1
  Zr  Zr42  1  -0.00125619  0.39190596  0.74619082  1
  Zr  Zr43  1  0.20248336  0.58758213  0.25127368  1
  Zr  Zr44  1  0.50853113  0.68957715  0.86985614  1
  Zr  Zr45  1  0.40439534  -0.00389518  0.50943281  1
  Zr  Zr46  1  0.78269278  0.39187705  0.76087488  1
  Zr  Zr47  1  0.67468574  0.51128836  0.89070270  1
  Zr  Zr48  1  0.50653028  0.30982550  0.62522564  1
  Zr  Zr49  1  0.49849545  0.31746277  0.88040588  1
  Zr  Zr50  1  0.69916115  0.90839890  0.12264566  1
  Zr  Zr51  1  -0.01118907  0.38815815  0.50706297  1
  Zr  Zr52  1  0.31256913  0.49857106  0.87842604  1
  Zr  Zr53  1  0.90162335  0.50064166  0.88272746  1
  Zr  Zr54  1  0.92128294  0.08900332  0.63053737  1
  Zr  Zr55  1  0.90666773  0.91138051  0.11883180  1
  Zr  Zr56  1  0.40026003  0.00268531  0.73781859  1
  Zr  Zr57  1  0.08081797  0.48640941  0.12374135  1
  Zr  Zr58  1  0.18806343  0.80692077  0.76288352  1
  Zr  Zr59  1  0.88194622  0.28471065  0.62744907  1
  Zr  Zr60  1  0.79908401  -0.00210109  0.75932765  1
  Zr  Zr61  1  0.28402973  0.88995041  0.62326850  1
  Zr  Zr62  1  0.79833039  0.59160626  0.49930676  1
  Zr  Zr63  1  0.61393045  0.21765766  0.49449751  1
  Zr  Zr64  1  0.19245835  0.00567794  0.75512982  1
  Zr  Zr65  1  0.90555944  0.69075801  0.12990820  1
  Zr  Zr66  1  0.89966065  0.69113917  0.35891487  1
  Zr  Zr67  1  0.61071804  0.19636133  0.24880970  1
  Zr  Zr68  1  0.00245447  0.81210656  0.49342184  1
  Zr  Zr69  1  0.08486336  0.48516152  0.38230048  1
  Zr  Zr70  1  0.70511047  0.90362685  0.62444000  1
  Zr  Zr71  1  0.51131298  0.09826334  0.37368228  1
  Zr  Zr72  1  0.02010613  0.81043631  0.23355030  1
  Zr  Zr73  1  0.40356175  0.79528180  0.51035449  1
  Zr  Zr74  1  0.10297795  0.70069717  0.36533174  1
  Zr  Zr75  1  0.40278693  0.20677276  0.49060223  1
  Zr  Zr76  1  0.50372502  0.11707202  0.87898875  1
  Zr  Zr77  1  0.41086381  0.60327681  0.51070442  1
  Zr  Zr78  1  0.30363167  0.09299558  0.11433741  1
  Zr  Zr79  1  0.17286365  0.38295854  0.25253951  1
  Ta  Ta80  1  0.60554878  0.01274160  0.75103323  1
  Ta  Ta81  1  0.39744907  0.79265486  0.74181685  1
  Ta  Ta82  1  0.10256076  0.49574206  0.61885835  1
  Ta  Ta83  1  0.19944079  0.79281486  0.49592292  1
  Ta  Ta84  1  0.78408863  0.39017277  0.50264203  1
  Ta  Ta85  1  0.08770605  0.08961448  0.11954400  1
  Ta  Ta86  1  0.40842754  0.59743387  0.73663931  1
  Ta  Ta87  1  0.39164991  0.40585534  0.01908582  1
  Ta  Ta88  1  0.09070725  0.29436158  0.88035106  1
  Ta  Ta89  1  0.29164168  0.88985138  0.37386585  1
  Ta  Ta90  1  0.39631579  -0.00238729  0.25046564  1
  Ta  Ta91  1  0.10277663  0.71464330  0.62380882  1
  Ta  Ta92  1  0.69805018  0.10068511  0.88344911  1
  Ta  Ta93  1  0.89894444  0.29413425  0.88781673  1
  Ta  Ta94  1  0.29217500  0.29755973  0.12295165  1
  Ta  Ta95  1  0.49434036  0.30242823  0.12528216  1
  Ta  Ta96  1  0.39765642  0.39993926  0.48437279  1
  Ta  Ta97  1  0.69748826  0.30152019  0.11631100  1
  Ta  Ta98  1  0.90330745  0.70592974  0.63001918  1
  Ta  Ta99  1  0.69207833  0.90084057  0.37144186  1
  Ta  Ta100  1  0.81454219  0.80386417  0.75748353  1
  Ta  Ta101  1  0.69026621  0.48823892  0.62263902  1
  Ta  Ta102  1  0.71842064  0.10193971  0.38093385  1
  Ta  Ta103  1  0.12131123  0.69305512  0.11272779  1
  Ta  Ta104  1  0.70612088  0.70389454  0.11437922  1
  Ta  Ta105  1  0.80799849  0.41116834  0.24020564  1
  Ta  Ta106  1  0.00846307  0.20423902  0.24267146  1
  Ta  Ta107  1  0.40242044  0.20725700  0.25580723  1
  Ta  Ta108  1  0.20067587  0.20062144  0.76047652  1
  Ta  Ta109  1  0.60047316  0.80100737  0.49951460  1
  Ta  Ta110  1  0.20296536  0.60067326  0.50435014  1
  Ta  Ta111  1  0.60208069  0.01116925  0.00096244  1
  Ta  Ta112  1  0.91382118  0.30701930  0.10807303  1
  Ta  Ta113  1  0.19214855  0.39675178  0.00901383  1
  Ta  Ta114  1  0.29860313  0.30270718  0.62145893  1
  Ta  Ta115  1  0.40597658  0.80116016  0.00160410  1
  Ta  Ta116  1  0.39807622  0.20595598  0.74331229  1
  Ta  Ta117  1  0.01071011  0.80258119  0.01130117  1
  Ta  Ta118  1  0.91785260  0.10836426  0.37083121  1
  Ta  Ta119  1  0.41736950  0.59667465  0.01462851  1
  Ti  Ti120  1  0.60222907  -0.00213805  0.24652515  1
  Ti  Ti121  1  0.28990453  0.51311024  0.11823872  1
  Ti  Ti122  1  0.78975636  0.19537873  0.00629491  1
  Ti  Ti123  1  0.59217788  0.40631403  0.75504899  1
  Ti  Ti124  1  0.20859540  0.80339439  -0.00348178  1
  Ti  Ti125  1  0.00677743  0.59276617  0.00496027  1
  Ti  Ti126  1  0.19823451  0.39457672  0.49350511  1
  Ti  Ti127  1  0.00805126  0.18512887  0.76082478  1
  Ti  Ti128  1  0.59250806  0.41197335  0.48504701  1
  Ti  Ti129  1  0.20083014  0.39326286  0.74703774  1
  Ti  Ti130  1  0.60476489  0.20924253  0.74851580  1
  Ti  Ti131  1  0.89211299  0.49669389  0.62872075  1
  Ti  Ti132  1  0.51274814  0.89985799  0.63409785  1
  Ti  Ti133  1  0.79560644  0.20006587  0.76514766  1
  Ti  Ti134  1  0.57553222  0.41441828  0.01061346  1
  Ti  Ti135  1  0.21568046  0.79113837  0.23895845  1
  Ti  Ti136  1  0.78544717  0.79753335  0.25184125  1
  Ti  Ti137  1  0.19186178  0.20368316  0.48634985  1
  Ti  Ti138  1  0.69565457  0.51524670  0.37059748  1
  Ti  Ti139  1  0.88945503  0.89330605  0.89828495  1
  Ti  Ti140  1  0.50741121  0.49964386  0.61993176  1
  Ti  Ti141  1  0.61213018  0.81269513  0.75878323  1
  Ti  Ti142  1  0.29580295  0.30524009  0.37361026  1
  Ti  Ti143  1  0.60574309  -0.00008134  0.50147765  1
  Ti  Ti144  1  -0.01989294  0.56200486  0.25551098  1
  Ti  Ti145  1  0.09623122  0.91134299  0.36993448  1
  Ti  Ti146  1  0.50883341  0.70609342  0.63542131  1
  Ti  Ti147  1  0.90671264  0.30251897  0.37546126  1
  Ti  Ti148  1  0.00589115  0.18051746  0.49736488  1
  Ti  Ti149  1  0.39931516  0.40216785  0.74631943  1
  Ti  Ti150  1  0.68786036  0.29153092  0.89077169  1
  Ti  Ti151  1  0.89882325  0.10391773  0.10662337  1
  Ti  Ti152  1  0.91202160  0.89048044  0.62761326  1
  Ti  Ti153  1  0.59817680  0.59478449  0.74627071  1
  Ti  Ti154  1  0.60576203  0.60876550  0.49981008  1
  Ti  Ti155  1  0.01699540  0.00190990  -0.01117951  1
  Ti  Ti156  1  0.50963123  0.10522163  0.62428452  1
  Ti  Ti157  1  0.40680816  0.20424622  0.00710576  1
  Ti  Ti158  1  0.78661830  0.60095760  0.25187483  1
  Ti  Ti159  1  0.88876397  0.50021015  0.11184268  1
  Mo  Mo160  1  0.10960163  0.90078571  0.10708058  1
  Mo  Mo161  1  0.49330818  0.30899604  0.36752562  1
  Mo  Mo162  1  0.29110542  0.49697021  0.38719149  1
  Mo  Mo163  1  0.20027795  -0.01342975  -0.00456896  1
  Mo  Mo164  1  0.80251718  0.60639304  0.00709872  1
  Mo  Mo165  1  0.09656535  0.10140702  0.63212629  1
  Mo  Mo166  1  0.69915571  0.90879947  0.88029315  1
  Mo  Mo167  1  0.80644966  0.80403507  0.00613120  1
  Mo  Mo168  1  0.10159298  0.10262379  0.87810156  1
  Mo  Mo169  1  -0.02091481  0.38118225  0.24960458  1
  Mo  Mo170  1  0.48902248  0.50446571  0.87433504  1
  Mo  Mo171  1  0.10128219  0.89532339  0.89554633  1
  Mo  Mo172  1  0.70068142  0.70595903  0.37441524  1
  Mo  Mo173  1  0.81454464  0.20432959  0.49081010  1
  Mo  Mo174  1  0.30333064  0.69729665  0.11528403  1
  Mo  Mo175  1  0.39489948  0.80792977  0.25076849  1
  Mo  Mo176  1  -0.00331293  0.19823071  0.00182981  1
  Mo  Mo177  1  -0.00370328  -0.00259476  0.49532014  1
  Mo  Mo178  1  0.41315805  -0.01261830  0.00106018  1
  Mo  Mo179  1  -0.00034856  0.39710862  -0.00803569  1
  Mo  Mo180  1  0.59390125  0.60829987  0.00888382  1
  Mo  Mo181  1  0.48978211  0.50357681  0.13815389  1
  Mo  Mo182  1  -0.00632720  0.79532909  0.75636904  1
  Mo  Mo183  1  0.69599299  0.30715532  0.62968225  1
  Mo  Mo184  1  0.70640494  0.10817681  0.11578793  1
  Mo  Mo185  1  0.20900074  0.59580211  0.00456436  1
  Mo  Mo186  1  0.87709395  0.48278113  0.37503857  1
  Mo  Mo187  1  0.39586989  0.60099594  0.23505340  1
  Mo  Mo188  1  0.60213010  0.21448909  0.00766713  1
  Mo  Mo189  1  0.09575473  0.09718083  0.36933117  1
  Mo  Mo190  1  0.61375440  0.60732667  0.24719482  1
  Mo  Mo191  1  0.08392679  0.89719634  0.62674095  1
  Mo  Mo192  1  0.30666172  0.89056961  0.88099193  1
  Mo  Mo193  1  0.49884573  0.90883639  0.13352699  1
  Mo  Mo194  1  0.79540850  0.00204925  -0.00551523  1
  Mo  Mo195  1  0.29711567  0.69678650  0.62727823  1
  Mo  Mo196  1  0.08964818  0.27784361  0.38239231  1
  Mo  Mo197  1  0.61203706  0.81231787  0.24597673  1
  Mo  Mo198  1  0.09801541  0.28828229  0.11626701  1
  Mo  Mo199  1  -0.00032038  0.01607573  0.23950331  1
