# generated using pymatgen
data_HfZrTaTiMo
_symmetry_space_group_name_H-M   'P 1'
_cell_length_a   15.20336702
_cell_length_b   15.21183086
_cell_length_c   16.82523466
_cell_angle_alpha   89.93560132
_cell_angle_beta   90.01389424
_cell_angle_gamma   90.14764410
_symmetry_Int_Tables_number   1
_chemical_formula_structural   HfZrTaTiMo
_chemical_formula_sum   'Hf40 Zr40 Ta40 Ti40 Mo40'
_cell_volume   3891.17415792
_cell_formula_units_Z   40
loop_
 _symmetry_equiv_pos_site_id
 _symmetry_equiv_pos_as_xyz
  1  'x, y, z'
loop_
 _atom_site_type_symbol
 _atom_site_label
 _atom_site_symmetry_multiplicity
 _atom_site_fract_x
 _atom_site_fract_y
 _atom_site_fract_z
 _atom_site_occupancy
  Hf  Hf0  1  0.30593447  0.88995198  0.62148926  1
  Hf  Hf1  1  0.18912220  0.59772417  0.76169750  1
  Hf  Hf2  1  0.51080692  0.09236115  0.11806668  1
  Hf  Hf3  1  0.41388410  -0.00045446  0.51096529  1
  Hf  Hf4  1  0.08246948  0.71172534  0.87302480  1
  Hf  Hf5  1  0.18587661  0.39247689  0.76247969  1
  Hf  Hf6  1  0.70007939  0.30345166  0.37432510  1
  Hf  Hf7  1  0.89384137  0.49553371  0.37434992  1
  Hf  Hf8  1  0.19685751  0.58982634  0.23269142  1
  Hf  Hf9  1  0.59421734  0.40249323  0.24144170  1
  Hf  Hf10  1  0.10653232  0.91491514  0.63408950  1
  Hf  Hf11  1  0.89950158  0.70817824  0.37423358  1
  Hf  Hf12  1  0.68703819  0.50320927  0.37558053  1
  Hf  Hf13  1  0.69855529  0.88970048  0.86355901  1
  Hf  Hf14  1  0.41896367  -0.00325609  0.25850909  1
  Hf  Hf15  1  0.30045598  0.70961597  0.13258556  1
  Hf  Hf16  1  0.89721277  0.30230982  0.62879334  1
  Hf  Hf17  1  0.91191237  0.89164076  0.86618103  1
  Hf  Hf18  1  0.09039275  0.09526715  0.36937349  1
  Hf  Hf19  1  0.70202055  0.70813114  0.38248545  1
  Hf  Hf20  1  0.82361359  0.20039862  0.77084430  1
  Hf  Hf21  1  0.69131201  0.29443841  0.10789721  1
  Hf  Hf22  1  0.70386018  0.91165503  0.10817684  1
  Hf  Hf23  1  0.21386333  0.21308741  0.25314673  1
  Hf  Hf24  1  0.90036102  0.69414203  0.62693053  1
  Hf  Hf25  1  0.50251562  0.68190929  0.37741484  1
  Hf  Hf26  1  0.29260647  0.69391100  0.63323091  1
  Hf  Hf27  1  0.12037053  0.91170574  0.86650124  1
  Hf  Hf28  1  0.39136612  0.58880781  0.50584005  1
  Hf  Hf29  1  0.31279218  0.10310452  0.37831169  1
  Hf  Hf30  1  0.50512715  0.89378291  0.38590795  1
  Hf  Hf31  1  0.28587596  0.09061951  0.62734612  1
  Hf  Hf32  1  0.19561368  0.60484604  0.00172014  1
  Hf  Hf33  1  0.21136872  -0.00066808  0.01209642  1
  Hf  Hf34  1  0.60215633  0.80477171  0.52595628  1
  Hf  Hf35  1  0.71198059  0.90642533  0.38775586  1
  Hf  Hf36  1  0.08238565  0.49492060  0.89342274  1
  Hf  Hf37  1  0.88799930  0.09093278  0.62982248  1
  Hf  Hf38  1  0.30080052  0.29289242  0.63614151  1
  Hf  Hf39  1  0.31598036  0.48011942  0.36840265  1
  Zr  Zr40  1  0.70743523  0.10627725  0.38125238  1
  Zr  Zr41  1  0.19996725  0.41318024  0.50553477  1
  Zr  Zr42  1  -0.00716602  0.00138915  0.23536200  1
  Zr  Zr43  1  0.31635128  0.11351740  0.12306028  1
  Zr  Zr44  1  0.20129045  0.00238338  0.24593617  1
  Zr  Zr45  1  0.41059991  0.58389555  0.23301462  1
  Zr  Zr46  1  0.10422948  0.50681871  0.37047061  1
  Zr  Zr47  1  0.89036147  0.10299698  0.10914980  1
  Zr  Zr48  1  0.29724801  0.69403693  0.36484388  1
  Zr  Zr49  1  0.89625244  0.70409163  0.11941128  1
  Zr  Zr50  1  0.58672888  0.80233355  0.23710932  1
  Zr  Zr51  1  0.59928063  0.60223826  0.22491525  1
  Zr  Zr52  1  0.18124270  0.18849129  0.75018999  1
  Zr  Zr53  1  0.30255788  0.70443602  0.87120468  1
  Zr  Zr54  1  0.60010675  0.01284629  -0.01991525  1
  Zr  Zr55  1  -0.01393086  0.40280887  0.23506677  1
  Zr  Zr56  1  0.00754097  0.02839065  0.75594820  1
  Zr  Zr57  1  -0.01162230  0.19400864  0.49626174  1
  Zr  Zr58  1  0.09739643  0.30807408  0.36794938  1
  Zr  Zr59  1  0.59217564  0.41004402  0.74197366  1
  Zr  Zr60  1  0.39994237  0.60137128  0.00325748  1
  Zr  Zr61  1  0.70873524  0.49095293  0.10244664  1
  Zr  Zr62  1  0.79771588  0.59333483  0.24333452  1
  Zr  Zr63  1  0.00928360  -0.00586000  0.00538380  1
  Zr  Zr64  1  -0.02718346  0.59132919  0.76094925  1
  Zr  Zr65  1  0.61923233  0.00820699  0.53232656  1
  Zr  Zr66  1  0.59626982  0.61304834  0.00584211  1
  Zr  Zr67  1  0.30442794  0.08225816  0.86927614  1
  Zr  Zr68  1  0.90618596  0.90992409  0.37298060  1
  Zr  Zr69  1  0.59000247  0.20473829  0.52477765  1
  Zr  Zr70  1  0.59580373  0.59647495  0.52360965  1
  Zr  Zr71  1  0.60194933  0.40482604  0.52240210  1
  Zr  Zr72  1  0.01204147  0.60274589  0.50569261  1
  Zr  Zr73  1  0.29608902  0.49576644  0.64076882  1
  Zr  Zr74  1  0.48733391  0.30664926  0.37594231  1
  Zr  Zr75  1  0.09808287  0.70914252  0.36271152  1
  Zr  Zr76  1  0.62191888  0.00128796  0.25050448  1
  Zr  Zr77  1  0.19792261  0.20271953  0.49592636  1
  Zr  Zr78  1  0.31963324  0.89784896  0.13598342  1
  Zr  Zr79  1  0.68355317  0.29455560  0.86640606  1
  Ta  Ta80  1  0.80905170  0.81255275  0.51532624  1
  Ta  Ta81  1  -0.00671133  0.39849046  0.49998056  1
  Ta  Ta82  1  0.39979689  0.79273101  0.50156684  1
  Ta  Ta83  1  0.29729899  0.89021860  0.37590064  1
  Ta  Ta84  1  0.49108090  0.28622343  0.11664652  1
  Ta  Ta85  1  0.70830322  0.29635748  0.64551004  1
  Ta  Ta86  1  0.70510457  0.10903971  0.11554174  1
  Ta  Ta87  1  0.69779463  0.50953600  0.87891410  1
  Ta  Ta88  1  0.08912244  0.30066793  0.62595119  1
  Ta  Ta89  1  0.90049775  0.50157960  0.09759102  1
  Ta  Ta90  1  0.59316065  0.20103813  0.24647421  1
  Ta  Ta91  1  0.20136180  0.80670933  -0.00005441  1
  Ta  Ta92  1  0.79747629  0.81660809  0.24631251  1
  Ta  Ta93  1  0.49991371  0.49884079  0.87998003  1
  Ta  Ta94  1  0.49467373  0.47571096  0.10464204  1
  Ta  Ta95  1  0.89363094  0.89553988  0.11869759  1
  Ta  Ta96  1  0.49705677  0.90452045  0.85956642  1
  Ta  Ta97  1  0.79888954  0.20716752  0.24221677  1
  Ta  Ta98  1  0.88598523  0.30733257  0.10627172  1
  Ta  Ta99  1  0.59900350  0.80100793  0.73682160  1
  Ta  Ta100  1  0.88961627  0.29596557  0.37144098  1
  Ta  Ta101  1  0.41124576  0.59269895  0.75859078  1
  Ta  Ta102  1  0.40550475  -0.00290907  0.73898981  1
  Ta  Ta103  1  0.80544174  0.77611986  0.75947473  1
  Ta  Ta104  1  0.19522132  0.79135012  0.50219209  1
  Ta  Ta105  1  -0.00342439  0.60142925  0.23721285  1
  Ta  Ta106  1  0.79958591  0.59677376  0.50345275  1
  Ta  Ta107  1  0.10233702  0.29948651  0.11737319  1
  Ta  Ta108  1  0.00189864  0.20881667  -0.00095816  1
  Ta  Ta109  1  0.40889445  0.39411602  0.51425504  1
  Ta  Ta110  1  0.10503450  0.11410368  0.89125923  1
  Ta  Ta111  1  0.41714803  0.19720524  -0.02069537  1
  Ta  Ta112  1  0.72425167  0.91039380  0.64955838  1
  Ta  Ta113  1  0.40761200  0.80576821  -0.00696661  1
  Ta  Ta114  1  0.30059892  0.49177927  0.87600678  1
  Ta  Ta115  1  -0.00526203  0.20506743  0.23894737  1
  Ta  Ta116  1  0.00497671  0.81017058  0.50968900  1
  Ta  Ta117  1  -0.00946316  0.38476935  0.76626093  1
  Ta  Ta118  1  0.60511216  0.60835356  0.74795049  1
  Ta  Ta119  1  0.10152014  0.89431439  0.37088199  1
  Ti  Ti120  1  0.08930833  0.49896226  0.63145434  1
  Ti  Ti121  1  0.50919299  0.11278922  0.84765760  1
  Ti  Ti122  1  0.90847509  0.89352685  0.64690853  1
  Ti  Ti123  1  0.19653447  0.38859604  -0.00699991  1
  Ti  Ti124  1  0.59639349  0.80642143  -0.00189449  1
  Ti  Ti125  1  0.39288445  0.37551728  0.23840570  1
  Ti  Ti126  1  0.70613388  0.71610478  0.11408753  1
  Ti  Ti127  1  0.79856322  0.39721299  0.50551374  1
  Ti  Ti128  1  0.39487376  0.38980276  -0.01444614  1
  Ti  Ti129  1  0.29331188  0.28636774  0.87573094  1
  Ti  Ti130  1  0.89955143  0.49236330  0.62547299  1
  Ti  Ti131  1  0.71921510  0.50333855  0.63842167  1
  Ti  Ti132  1  0.30110606  0.29751820  0.10807039  1
  Ti  Ti133  1  0.20428741  0.80753323  0.75228294  1
  Ti  Ti134  1  0.80266015  0.61591553  -0.01604849  1
  Ti  Ti135  1  0.80847006  0.41063971  0.77105136  1
  Ti  Ti136  1  0.40962758  -0.00703120  -0.00802968  1
  Ti  Ti137  1  0.19251863  -0.00650025  0.49327457  1
  Ti  Ti138  1  -0.00463411  0.79599371  0.00111326  1
  Ti  Ti139  1  0.39919653  0.39158589  0.75999191  1
  Ti  Ti140  1  0.89026621  0.10130885  0.36944613  1
  Ti  Ti141  1  0.09659526  0.70627912  0.63703701  1
  Ti  Ti142  1  0.10724828  0.11090644  0.12067210  1
  Ti  Ti143  1  -0.00352055  -0.00282967  0.50619296  1
  Ti  Ti144  1  0.09444236  0.70497834  0.12685295  1
  Ti  Ti145  1  0.51064156  0.10555871  0.37988951  1
  Ti  Ti146  1  0.10185535  0.88465306  0.13376091  1
  Ti  Ti147  1  0.09313898  0.49806137  0.10942275  1
  Ti  Ti148  1  0.29940942  0.48407502  0.11338078  1
  Ti  Ti149  1  0.20183648  0.39974930  0.23778095  1
  Ti  Ti150  1  0.80381276  -0.00144923  -0.02218445  1
  Ti  Ti151  1  0.78915301  0.19367873  0.51077892  1
  Ti  Ti152  1  0.51334374  0.70586964  0.86905577  1
  Ti  Ti153  1  0.79228565  0.19723243  -0.02246947  1
  Ti  Ti154  1  0.40343382  0.79909204  0.75302858  1
  Ti  Ti155  1  0.69886679  0.09146424  0.84805594  1
  Ti  Ti156  1  0.58662455  0.38517179  -0.01433909  1
  Ti  Ti157  1  0.48936221  0.69923145  0.63274684  1
  Ti  Ti158  1  0.40084026  0.20168929  0.50980008  1
  Ti  Ti159  1  0.71176093  0.69919368  0.62997298  1
  Mo  Mo160  1  0.20668424  -0.00347837  0.74942636  1
  Mo  Mo161  1  0.48933674  0.30126389  0.63634785  1
  Mo  Mo162  1  0.31185985  0.89462524  0.87370877  1
  Mo  Mo163  1  0.19454688  0.80312040  0.24870330  1
  Mo  Mo164  1  0.49146678  0.50487927  0.63984070  1
  Mo  Mo165  1  0.09284718  0.10627654  0.61403506  1
  Mo  Mo166  1  0.80152481  0.39001839  0.24297938  1
  Mo  Mo167  1  0.90502143  0.10181041  0.89329773  1
  Mo  Mo168  1  0.89136989  0.70212168  0.88232156  1
  Mo  Mo169  1  0.41072927  0.19874820  0.25065805  1
  Mo  Mo170  1  0.81476893  0.00110901  0.51020002  1
  Mo  Mo171  1  0.30542943  0.29773520  0.37892258  1
  Mo  Mo172  1  0.49038874  0.10608062  0.64256822  1
  Mo  Mo173  1  0.20838336  0.20194160  0.00213047  1
  Mo  Mo174  1  0.79642738  0.80460053  -0.01003751  1
  Mo  Mo175  1  0.49330255  0.72032741  0.11878639  1
  Mo  Mo176  1  0.59760782  0.19541060  -0.01171513  1
  Mo  Mo177  1  -0.00009010  0.39929640  0.01089609  1
  Mo  Mo178  1  0.89073417  0.50078549  0.89626609  1
  Mo  Mo179  1  0.59603515  0.20045554  0.73355955  1
  Mo  Mo180  1  0.60017028  -0.00055161  0.74006988  1
  Mo  Mo181  1  0.90372977  0.30867945  0.89516552  1
  Mo  Mo182  1  0.00358813  0.21279218  0.75912518  1
  Mo  Mo183  1  0.40019638  0.79872766  0.26303592  1
  Mo  Mo184  1  0.10286100  0.29928581  0.89042949  1
  Mo  Mo185  1  0.79295708  0.39961623  -0.01868465  1
  Mo  Mo186  1  0.48747890  0.30095752  0.86470528  1
  Mo  Mo187  1  0.70626588  0.10608546  0.64855773  1
  Mo  Mo188  1  0.19148738  0.60871451  0.51392524  1
  Mo  Mo189  1  0.49835477  0.49587627  0.37370491  1
  Mo  Mo190  1  -0.00349711  0.80043424  0.24049005  1
  Mo  Mo191  1  0.00608753  0.79773237  0.74313237  1
  Mo  Mo192  1  0.69035714  0.70130324  0.87267113  1
  Mo  Mo193  1  -0.00006919  0.60869805  0.00396588  1
  Mo  Mo194  1  0.39675264  0.20155259  0.75930606  1
  Mo  Mo195  1  0.78940753  0.59004705  0.75751538  1
  Mo  Mo196  1  0.80719566  -0.00498476  0.76668630  1
  Mo  Mo197  1  0.79936164  0.00797757  0.24070238  1
  Mo  Mo198  1  0.50288885  0.89764098  0.11516404  1
  Mo  Mo199  1  0.50203069  0.89388422  0.63571180  1
