# generated using pymatgen
data_HfZrTaTiMo
_symmetry_space_group_name_H-M   'P 1'
_cell_length_a   15.20448700
_cell_length_b   15.20807732
_cell_length_c   16.85195188
_cell_angle_alpha   89.95987375
_cell_angle_beta   90.05259243
_cell_angle_gamma   89.99527801
_symmetry_Int_Tables_number   1
_chemical_formula_structural   HfZrTaTiMo
_chemical_formula_sum   'Hf40 Zr40 Ta40 Ti40 Mo40'
_cell_volume   3896.69131069
_cell_formula_units_Z   40
loop_
 _symmetry_equiv_pos_site_id
 _symmetry_equiv_pos_as_xyz
  1  'x, y, z'
loop_
 _atom_site_type_symbol
 _atom_site_label
 _atom_site_symmetry_multiplicity
 _atom_site_fract_x
 _atom_site_fract_y
 _atom_site_fract_z
 _atom_site_occupancy
  Hf  Hf0  1  0.10013082  0.29515913  0.60910990  1
  Hf  Hf1  1  0.01162673  0.20955449  0.75679921  1
  Hf  Hf2  1  0.89069071  0.89982835  0.87471009  1
  Hf  Hf3  1  0.20694179  0.80255978  0.24777251  1
  Hf  Hf4  1  -0.00486791  0.01865712  -0.00868135  1
  Hf  Hf5  1  0.39730523  0.80156567  0.75932072  1
  Hf  Hf6  1  0.59338049  0.80741037  0.74755054  1
  Hf  Hf7  1  0.58724048  0.20364546  0.01735795  1
  Hf  Hf8  1  0.00382062  0.00421661  0.75508842  1
  Hf  Hf9  1  0.69945454  0.68938225  0.62379849  1
  Hf  Hf10  1  0.51377368  0.08979401  0.37012620  1
  Hf  Hf11  1  0.09680294  0.49441181  0.12029754  1
  Hf  Hf12  1  0.00360773  0.80477092  0.49434619  1
  Hf  Hf13  1  0.59003331  0.79954694  0.49733409  1
  Hf  Hf14  1  0.87376964  0.29855711  0.37749260  1
  Hf  Hf15  1  0.68899382  0.92526924  0.37728176  1
  Hf  Hf16  1  0.87267744  0.50927175  0.36441294  1
  Hf  Hf17  1  0.00265577  -0.00033241  0.25582984  1
  Hf  Hf18  1  0.29822038  0.29620197  0.39533255  1
  Hf  Hf19  1  0.20701835  -0.01466946  0.50112590  1
  Hf  Hf20  1  0.20490811  0.77467003  -0.01843806  1
  Hf  Hf21  1  0.50215825  0.49669741  0.86925763  1
  Hf  Hf22  1  -0.00173928  0.40463407  0.25698780  1
  Hf  Hf23  1  0.48064873  0.89406010  0.36556382  1
  Hf  Hf24  1  0.70276293  0.89672216  0.13390691  1
  Hf  Hf25  1  0.49508502  0.48972305  0.64316109  1
  Hf  Hf26  1  0.00501377  0.19758943  0.26139336  1
  Hf  Hf27  1  0.10410408  0.69708029  0.12450457  1
  Hf  Hf28  1  0.71201624  0.13289628  0.38699401  1
  Hf  Hf29  1  0.40364904  0.17388947  0.75037946  1
  Hf  Hf30  1  0.01669653  0.21249774  -0.00794007  1
  Hf  Hf31  1  0.30749811  0.49728855  0.38334820  1
  Hf  Hf32  1  0.79959003  0.00057099  0.00149428  1
  Hf  Hf33  1  0.77443615  0.60203438  0.23156087  1
  Hf  Hf34  1  0.22172273  -0.00013826  0.75570073  1
  Hf  Hf35  1  0.38579145  0.20250624  0.25569287  1
  Hf  Hf36  1  0.48778864  0.49687251  0.12280728  1
  Hf  Hf37  1  0.42204873  0.20102258  0.49562384  1
  Hf  Hf38  1  0.80911429  0.20376997  0.00553259  1
  Hf  Hf39  1  -0.00313194  0.80820015  0.00335861  1
  Zr  Zr40  1  0.11161629  0.69219068  0.62315616  1
  Zr  Zr41  1  0.29386713  0.50466591  0.62630637  1
  Zr  Zr42  1  0.29931153  0.70369776  0.37350397  1
  Zr  Zr43  1  0.59814896  0.61047307  0.00318305  1
  Zr  Zr44  1  0.29719500  0.09924853  0.12240433  1
  Zr  Zr45  1  0.49117303  0.70812137  0.12983480  1
  Zr  Zr46  1  0.59920670  0.58263515  0.50466454  1
  Zr  Zr47  1  0.61130147  0.21053058  0.23657759  1
  Zr  Zr48  1  0.80000687  0.21194193  0.75154853  1
  Zr  Zr49  1  0.50730559  0.30997987  0.36158826  1
  Zr  Zr50  1  0.80437496  0.79957932  0.48933219  1
  Zr  Zr51  1  0.79661213  0.01007432  0.75002474  1
  Zr  Zr52  1  0.31685942  0.08902329  0.61207557  1
  Zr  Zr53  1  0.30472359  0.29898040  0.61430620  1
  Zr  Zr54  1  0.10231109  0.90180371  0.87429766  1
  Zr  Zr55  1  0.70704050  0.50428163  0.88515094  1
  Zr  Zr56  1  0.28907223  0.49436964  0.10808261  1
  Zr  Zr57  1  0.20053651  -0.00099899  -0.00542064  1
  Zr  Zr58  1  0.78097847  0.42569041  0.51057694  1
  Zr  Zr59  1  0.40371132  0.37629731  -0.01075333  1
  Zr  Zr60  1  0.49679604  0.68549085  0.37045381  1
  Zr  Zr61  1  0.81132367  0.80244707  0.26439146  1
  Zr  Zr62  1  0.18842026  0.38199778  0.75294641  1
  Zr  Zr63  1  -0.00635831  0.60763580  -0.00119093  1
  Zr  Zr64  1  0.21440147  0.38845066  0.25042937  1
  Zr  Zr65  1  0.69747358  0.91657093  0.60959309  1
  Zr  Zr66  1  0.79410297  0.42465010  0.74092293  1
  Zr  Zr67  1  -0.00656752  0.59867902  0.48632023  1
  Zr  Zr68  1  0.19108631  0.59424697  0.76077293  1
  Zr  Zr69  1  0.60901757  0.78532085  0.25816622  1
  Zr  Zr70  1  0.90524527  0.10339320  0.62546141  1
  Zr  Zr71  1  0.80369578  0.80893657  0.73984262  1
  Zr  Zr72  1  0.70492049  0.70638413  0.87148356  1
  Zr  Zr73  1  0.58661166  0.01763446  0.74783974  1
  Zr  Zr74  1  0.90369108  0.69211969  0.62584413  1
  Zr  Zr75  1  0.10537342  0.30283568  0.38710459  1
  Zr  Zr76  1  0.69115752  0.11135702  0.88214777  1
  Zr  Zr77  1  -0.00993032  0.18882786  0.48878280  1
  Zr  Zr78  1  0.80610058  0.40612395  0.01970493  1
  Zr  Zr79  1  0.30466287  0.88343145  0.11481258  1
  Ta  Ta80  1  0.90024916  0.31353196  0.61942634  1
  Ta  Ta81  1  -0.00579284  0.61009930  0.25506051  1
  Ta  Ta82  1  0.39073389  0.80096188  0.50665490  1
  Ta  Ta83  1  0.68914098  0.90487191  0.88166582  1
  Ta  Ta84  1  0.09162817  0.49841417  0.88343726  1
  Ta  Ta85  1  0.20186787  0.79232215  0.49946751  1
  Ta  Ta86  1  0.78766774  0.39523902  0.23104608  1
  Ta  Ta87  1  0.11436455  0.09965782  0.62383021  1
  Ta  Ta88  1  0.39294061  0.60418905  -0.01416691  1
  Ta  Ta89  1  0.59424792  0.00004688  0.00920818  1
  Ta  Ta90  1  0.69705821  0.12111742  0.60711829  1
  Ta  Ta91  1  0.10085605  0.10469984  0.12896613  1
  Ta  Ta92  1  0.29731556  0.88627745  0.62902848  1
  Ta  Ta93  1  0.18909055  0.37938742  -0.00935468  1
  Ta  Ta94  1  0.60165488  0.39386210  0.01393513  1
  Ta  Ta95  1  0.89888123  0.31140704  0.87531667  1
  Ta  Ta96  1  0.70198844  0.09381371  0.12812122  1
  Ta  Ta97  1  0.69397642  0.31130852  0.87751443  1
  Ta  Ta98  1  0.48887698  0.69465126  0.63045730  1
  Ta  Ta99  1  0.50646199  0.28858493  0.64032255  1
  Ta  Ta100  1  0.00656016  -0.00615141  0.49944477  1
  Ta  Ta101  1  0.38968740  0.58953685  0.24605723  1
  Ta  Ta102  1  0.60245935  0.59795617  0.75067156  1
  Ta  Ta103  1  -0.00726471  0.40761155  0.75142400  1
  Ta  Ta104  1  0.29458239  0.48566640  0.87982035  1
  Ta  Ta105  1  0.81492277  0.01505288  0.49537461  1
  Ta  Ta106  1  0.50672991  0.28133624  0.86484874  1
  Ta  Ta107  1  -0.01266633  0.40520667  0.49346251  1
  Ta  Ta108  1  0.39453808  0.38718040  0.76444963  1
  Ta  Ta109  1  0.79648311  0.79704341  0.00515843  1
  Ta  Ta110  1  0.00656615  0.80129080  0.25360682  1
  Ta  Ta111  1  0.49339981  0.91330151  0.87871373  1
  Ta  Ta112  1  0.30660819  0.08580895  0.38401967  1
  Ta  Ta113  1  0.29102955  0.26961657  0.87526339  1
  Ta  Ta114  1  0.19983183  0.79747627  0.76267149  1
  Ta  Ta115  1  0.50318891  0.90535713  0.13884618  1
  Ta  Ta116  1  0.58224225  0.38913383  0.50346455  1
  Ta  Ta117  1  0.19288283  0.59446147  0.25132326  1
  Ta  Ta118  1  0.00591605  0.79649374  0.75078806  1
  Ta  Ta119  1  0.11143426  0.89734715  0.37283248  1
  Ti  Ti120  1  0.90557396  0.90886577  0.37457424  1
  Ti  Ti121  1  0.79848163  0.61073851  0.01837014  1
  Ti  Ti122  1  0.30709200  0.68463676  0.86546292  1
  Ti  Ti123  1  -0.00375309  0.40063881  -0.00016703  1
  Ti  Ti124  1  0.89587239  0.50744317  0.87918828  1
  Ti  Ti125  1  0.90515732  0.10093859  0.12991869  1
  Ti  Ti126  1  0.09982095  0.89766053  0.63190826  1
  Ti  Ti127  1  0.80611687  0.20546742  0.23825475  1
  Ti  Ti128  1  0.51461451  0.09492443  0.60872316  1
  Ti  Ti129  1  0.12621909  0.12306642  0.87040044  1
  Ti  Ti130  1  0.89692355  0.71212968  0.13114331  1
  Ti  Ti131  1  0.10344804  0.50470934  0.37571351  1
  Ti  Ti132  1  0.09900977  0.90653072  0.12476466  1
  Ti  Ti133  1  0.39064984  -0.01009811  0.24653220  1
  Ti  Ti134  1  0.07974003  0.49859215  0.62135329  1
  Ti  Ti135  1  0.32391839  0.08032606  0.88333004  1
  Ti  Ti136  1  0.29921884  0.68501648  0.12043172  1
  Ti  Ti137  1  0.11639607  0.28905371  0.13134783  1
  Ti  Ti138  1  0.41140803  -0.00333481  0.00815914  1
  Ti  Ti139  1  0.09969507  0.69737426  0.37334803  1
  Ti  Ti140  1  0.30775495  0.29152227  0.11628880  1
  Ti  Ti141  1  0.20093129  0.00750030  0.25387974  1
  Ti  Ti142  1  0.50270951  0.49600234  0.36158737  1
  Ti  Ti143  1  0.39622497  0.59636202  0.50545216  1
  Ti  Ti144  1  0.49556665  0.09893772  0.13762212  1
  Ti  Ti145  1  0.90277610  0.90731337  0.13044135  1
  Ti  Ti146  1  0.11300851  0.09862698  0.38056883  1
  Ti  Ti147  1  0.91767512  0.29915271  0.13064782  1
  Ti  Ti148  1  0.59748096  0.80796272  0.00024603  1
  Ti  Ti149  1  0.60398435  0.40928157  0.22906812  1
  Ti  Ti150  1  0.79996504  0.01578856  0.25777184  1
  Ti  Ti151  1  0.30371740  0.69555478  0.63207838  1
  Ti  Ti152  1  -0.01205648  0.59533690  0.75537911  1
  Ti  Ti153  1  0.89992519  0.69967013  0.87134376  1
  Ti  Ti154  1  0.68859230  0.31045677  0.63030986  1
  Ti  Ti155  1  0.48799997  0.90616767  0.61737850  1
  Ti  Ti156  1  0.90317575  0.50801173  0.13381727  1
  Ti  Ti157  1  0.40951514  0.79648165  -0.01749861  1
  Ti  Ti158  1  0.70747951  0.67251799  0.38180105  1
  Ti  Ti159  1  0.19344332  0.41864544  0.50466640  1
  Mo  Mo160  1  0.60508168  0.20459934  0.74844266  1
  Mo  Mo161  1  0.59797284  0.39181389  0.75616129  1
  Mo  Mo162  1  0.60259368  0.00477861  0.24133187  1
  Mo  Mo163  1  0.41056992  -0.01379299  0.49720482  1
  Mo  Mo164  1  0.20184361  0.18621085  0.49971231  1
  Mo  Mo165  1  0.40181815  0.18497085  -0.00101601  1
  Mo  Mo166  1  0.90537953  0.50397879  0.62416155  1
  Mo  Mo167  1  0.68012056  0.48951562  0.36494982  1
  Mo  Mo168  1  0.20677240  0.19849702  0.00047681  1
  Mo  Mo169  1  0.48869199  0.29879896  0.13520782  1
  Mo  Mo170  1  0.40904265  -0.01234470  0.74904519  1
  Mo  Mo171  1  0.70109058  0.70852451  0.11690370  1
  Mo  Mo172  1  0.90110603  0.70235291  0.36554383  1
  Mo  Mo173  1  0.19997948  0.60179890  0.49782507  1
  Mo  Mo174  1  0.60646670  0.21258986  0.50020826  1
  Mo  Mo175  1  0.59212607  0.59065366  0.24213404  1
  Mo  Mo176  1  0.49862942  0.09927643  0.88722051  1
  Mo  Mo177  1  0.89946013  0.09541969  0.37477093  1
  Mo  Mo178  1  0.39490859  0.79533706  0.24026442  1
  Mo  Mo179  1  0.40225926  0.59839148  0.76168226  1
  Mo  Mo180  1  0.29659228  0.90309267  0.37103230  1
  Mo  Mo181  1  0.40036619  0.39878473  0.24330586  1
  Mo  Mo182  1  0.20510088  0.19016312  0.74752307  1
  Mo  Mo183  1  0.20122872  0.58941022  -0.01853128  1
  Mo  Mo184  1  0.09849859  0.30942407  0.87319901  1
  Mo  Mo185  1  0.79786266  0.22131592  0.51234749  1
  Mo  Mo186  1  0.19754956  0.18645802  0.25515505  1
  Mo  Mo187  1  0.70476530  0.29606693  0.12311166  1
  Mo  Mo188  1  0.91547689  0.90757898  0.61779788  1
  Mo  Mo189  1  0.69853679  0.32503041  0.36978776  1
  Mo  Mo190  1  0.40877455  0.40756342  0.50471810  1
  Mo  Mo191  1  0.79544654  0.60393842  0.49578669  1
  Mo  Mo192  1  0.68986128  0.50371388  0.63319314  1
  Mo  Mo193  1  0.60067637  0.00483785  0.50067042  1
  Mo  Mo194  1  0.08965600  0.69504036  0.86621062  1
  Mo  Mo195  1  0.50078060  0.70350178  0.87499014  1
  Mo  Mo196  1  0.90717009  0.11396536  0.87502647  1
  Mo  Mo197  1  0.69462561  0.50185573  0.11403912  1
  Mo  Mo198  1  0.30888609  0.89312961  0.88545342  1
  Mo  Mo199  1  0.80440318  0.60610575  0.75448152  1
