# generated using pymatgen
data_HfZrTaTiMo
_symmetry_space_group_name_H-M   'P 1'
_cell_length_a   15.21073102
_cell_length_b   15.22423956
_cell_length_c   16.80800267
_cell_angle_alpha   90.00372966
_cell_angle_beta   90.02679676
_cell_angle_gamma   90.05209561
_symmetry_Int_Tables_number   1
_chemical_formula_structural   HfZrTaTiMo
_chemical_formula_sum   'Hf40 Zr40 Ta40 Ti40 Mo40'
_cell_volume   3892.25760686
_cell_formula_units_Z   40
loop_
 _symmetry_equiv_pos_site_id
 _symmetry_equiv_pos_as_xyz
  1  'x, y, z'
loop_
 _atom_site_type_symbol
 _atom_site_label
 _atom_site_symmetry_multiplicity
 _atom_site_fract_x
 _atom_site_fract_y
 _atom_site_fract_z
 _atom_site_occupancy
  Hf  Hf0  1  0.90605478  0.50066621  0.63375187  1
  Hf  Hf1  1  0.19495038  0.58797476  0.75416250  1
  Hf  Hf2  1  -0.00189648  0.39721928  0.49854871  1
  Hf  Hf3  1  0.79501055  0.81600915  0.49111849  1
  Hf  Hf4  1  0.08004618  0.70835783  0.10218866  1
  Hf  Hf5  1  0.28670179  0.90494135  0.37721155  1
  Hf  Hf6  1  0.80665707  0.79505417  0.25608792  1
  Hf  Hf7  1  0.80217691  0.20632563  0.24903437  1
  Hf  Hf8  1  0.59421570  0.60843249  0.74397740  1
  Hf  Hf9  1  0.39746788  0.39124296  0.52314976  1
  Hf  Hf10  1  0.60905982  0.80431916  0.26843847  1
  Hf  Hf11  1  0.40788511  0.58598646  0.23554206  1
  Hf  Hf12  1  0.60842701  0.60335143  0.25433048  1
  Hf  Hf13  1  0.09434328  0.28432551  0.36799667  1
  Hf  Hf14  1  0.70957166  0.51008805  0.62949515  1
  Hf  Hf15  1  0.29656630  0.28764584  0.38113162  1
  Hf  Hf16  1  0.30947461  0.49284570  0.87642242  1
  Hf  Hf17  1  -0.01472227  0.00749575  0.77515536  1
  Hf  Hf18  1  0.29694900  0.70409731  0.12735030  1
  Hf  Hf19  1  0.40708406  0.80189861  0.00728391  1
  Hf  Hf20  1  0.29919942  0.08203569  0.63380153  1
  Hf  Hf21  1  0.08852536  0.28293546  0.11234399  1
  Hf  Hf22  1  0.01157223  0.01663675  -0.02397357  1
  Hf  Hf23  1  0.09645333  0.69523538  0.89157254  1
  Hf  Hf24  1  0.16466948  0.79844845  0.25758432  1
  Hf  Hf25  1  0.39352266  0.19148539  0.25031321  1
  Hf  Hf26  1  0.40750513  0.58475519  0.01297663  1
  Hf  Hf27  1  0.70292713  0.51084386  0.12423784  1
  Hf  Hf28  1  0.30270662  0.29280636  0.86483885  1
  Hf  Hf29  1  0.30493700  0.48731546  0.37992990  1
  Hf  Hf30  1  0.50425484  0.29719085  0.86409332  1
  Hf  Hf31  1  0.68183925  0.91132926  0.86727429  1
  Hf  Hf32  1  0.69483534  0.30212889  0.11617670  1
  Hf  Hf33  1  0.90367020  0.50816131  0.11673486  1
  Hf  Hf34  1  -0.01089154  0.40029591  0.77070596  1
  Hf  Hf35  1  0.19304281  0.58213340  0.22379976  1
  Hf  Hf36  1  0.39476249  0.60193581  0.73711540  1
  Hf  Hf37  1  0.19306888  0.38154331  0.51242987  1
  Hf  Hf38  1  0.01264478  0.81789395  0.50230961  1
  Hf  Hf39  1  0.60032739  0.60952975  -0.00925779  1
  Zr  Zr40  1  0.50930000  0.90340109  0.13490501  1
  Zr  Zr41  1  0.39350120  0.78331308  0.49694336  1
  Zr  Zr42  1  0.10365337  0.92009163  0.11464740  1
  Zr  Zr43  1  0.60158022  0.19787564  0.25865334  1
  Zr  Zr44  1  0.89614215  0.92943502  0.62248930  1
  Zr  Zr45  1  0.60476792  0.00671175  0.26923189  1
  Zr  Zr46  1  0.88940498  0.29961563  0.10826701  1
  Zr  Zr47  1  0.09919636  0.69369811  0.63026360  1
  Zr  Zr48  1  0.21338014  0.78436252  0.76117432  1
  Zr  Zr49  1  0.40616834  0.79545451  0.26173945  1
  Zr  Zr50  1  0.01479427  0.19968067  0.51515363  1
  Zr  Zr51  1  -0.00410461  0.61865436  0.24127998  1
  Zr  Zr52  1  0.80618028  0.39697661  0.50129610  1
  Zr  Zr53  1  0.29007845  0.68111356  0.36604451  1
  Zr  Zr54  1  -0.01325182  0.79667460  0.76101047  1
  Zr  Zr55  1  0.90778181  0.12002239  0.37834872  1
  Zr  Zr56  1  0.89248189  0.50701952  0.36602926  1
  Zr  Zr57  1  0.88659378  0.70458100  0.61529256  1
  Zr  Zr58  1  0.80190438  0.61806631  0.75794272  1
  Zr  Zr59  1  0.60266879  0.39405988  0.51353787  1
  Zr  Zr60  1  0.80715451  0.00227474  0.24994156  1
  Zr  Zr61  1  0.18859035  0.18812511  -0.01830095  1
  Zr  Zr62  1  0.49164038  0.71009258  0.87242521  1
  Zr  Zr63  1  0.68984497  0.92064820  0.61568595  1
  Zr  Zr64  1  0.91288712  0.70810387  0.38147319  1
  Zr  Zr65  1  0.59098118  0.81182948  0.73375549  1
  Zr  Zr66  1  0.10419036  0.50238315  0.36968708  1
  Zr  Zr67  1  0.80637867  0.00293952  -0.01155945  1
  Zr  Zr68  1  0.30234273  0.90584990  0.13671415  1
  Zr  Zr69  1  0.58998072  0.41016565  -0.00908643  1
  Zr  Zr70  1  0.80889170  0.22255403  0.73889920  1
  Zr  Zr71  1  0.10231145  0.90579269  0.64710935  1
  Zr  Zr72  1  0.60149275  0.39942632  0.25486083  1
  Zr  Zr73  1  0.19708048  0.38352684  0.23178982  1
  Zr  Zr74  1  0.29507948  0.88714518  0.62035287  1
  Zr  Zr75  1  0.39978364  0.39538769  0.23598477  1
  Zr  Zr76  1  0.51263551  0.09058584  0.87083078  1
  Zr  Zr77  1  0.50090113  0.29855741  0.38664142  1
  Zr  Zr78  1  0.10398839  0.10696487  0.64951983  1
  Zr  Zr79  1  0.49794832  0.09742293  0.12189264  1
  Ta  Ta80  1  0.49079234  0.10093032  0.40266650  1
  Ta  Ta81  1  0.90540399  0.89929280  0.12174385  1
  Ta  Ta82  1  0.00800534  0.21191958  0.77429773  1
  Ta  Ta83  1  0.40247669  0.39498960  0.73524457  1
  Ta  Ta84  1  0.32403188  0.89035396  0.86740972  1
  Ta  Ta85  1  0.19328572  0.17530114  0.24415101  1
  Ta  Ta86  1  0.91269405  0.91973780  0.37794461  1
  Ta  Ta87  1  0.29277824  0.09966586  0.39296010  1
  Ta  Ta88  1  0.39520797  0.19708255  0.52397221  1
  Ta  Ta89  1  0.39963746  0.59204380  0.51512973  1
  Ta  Ta90  1  0.41456013  0.19072032  0.73121015  1
  Ta  Ta91  1  0.78673756  0.02095602  0.75553723  1
  Ta  Ta92  1  0.70874885  0.10202815  0.11576771  1
  Ta  Ta93  1  0.19994341  0.58956382  0.01330751  1
  Ta  Ta94  1  0.20104533  0.59321882  0.50878610  1
  Ta  Ta95  1  0.49730829  0.29574380  0.11793355  1
  Ta  Ta96  1  0.69734599  0.50284886  0.38324843  1
  Ta  Ta97  1  0.42311027  -0.01857594  0.74360530  1
  Ta  Ta98  1  0.70755819  0.68887781  0.38823554  1
  Ta  Ta99  1  0.00587022  0.60029852  0.49956738  1
  Ta  Ta100  1  0.31278834  0.09079539  0.85416444  1
  Ta  Ta101  1  0.10403885  0.49877477  0.89011759  1
  Ta  Ta102  1  0.21592455  -0.00367535  -0.02296841  1
  Ta  Ta103  1  0.69286840  0.50045732  0.86252505  1
  Ta  Ta104  1  0.39858757  0.38899147  0.00533448  1
  Ta  Ta105  1  0.50008793  0.50435823  0.38837815  1
  Ta  Ta106  1  0.39692173  0.19131911  -0.00369946  1
  Ta  Ta107  1  0.88821219  0.70984413  0.10488290  1
  Ta  Ta108  1  0.81081827  0.20480448  0.52318752  1
  Ta  Ta109  1  0.28756120  0.09030701  0.11814035  1
  Ta  Ta110  1  0.17855942  -0.00329101  0.50300216  1
  Ta  Ta111  1  0.51470929  0.69914855  0.12734525  1
  Ta  Ta112  1  -0.00588532  0.39429902  0.24419924  1
  Ta  Ta113  1  0.60665979  0.39106219  0.74078478  1
  Ta  Ta114  1  0.51337855  0.08408254  0.60980989  1
  Ta  Ta115  1  0.91684983  0.10215829  0.11471754  1
  Ta  Ta116  1  -0.00002823  0.39760556  -0.01303328  1
  Ta  Ta117  1  0.20620242  0.80612398  -0.00768925  1
  Ta  Ta118  1  0.89296404  0.70753253  0.89294338  1
  Ta  Ta119  1  0.49750322  0.90618160  0.39247411  1
  Ti  Ti120  1  0.70571118  0.70974733  0.12331237  1
  Ti  Ti121  1  0.28906859  0.49290224  0.63065709  1
  Ti  Ti122  1  0.69888517  0.71267127  0.87334190  1
  Ti  Ti123  1  0.40615828  0.78929829  0.72983564  1
  Ti  Ti124  1  0.01666092  0.00189177  0.24564451  1
  Ti  Ti125  1  0.79252094  0.60387307  -0.00965009  1
  Ti  Ti126  1  0.50252432  0.49818086  0.62742500  1
  Ti  Ti127  1  0.49360669  0.90238217  0.59846266  1
  Ti  Ti128  1  0.60214176  0.80819997  0.00211324  1
  Ti  Ti129  1  0.29832701  0.69087696  0.88871436  1
  Ti  Ti130  1  0.60092989  -0.00127148  0.00359996  1
  Ti  Ti131  1  -0.00082482  0.60001606  0.76448168  1
  Ti  Ti132  1  0.70644446  0.90230090  0.12395825  1
  Ti  Ti133  1  0.70499233  0.30308688  0.87421544  1
  Ti  Ti134  1  0.29834712  0.28154370  0.11573233  1
  Ti  Ti135  1  0.61242018  0.18953320  0.72946516  1
  Ti  Ti136  1  0.59992053  0.19955114  -0.00168166  1
  Ti  Ti137  1  0.79371986  0.40478761  -0.01238114  1
  Ti  Ti138  1  0.28049456  0.28370619  0.64049934  1
  Ti  Ti139  1  0.09617303  0.49074343  0.63080671  1
  Ti  Ti140  1  0.89281060  0.50738598  0.88210320  1
  Ti  Ti141  1  0.20363078  0.39540351  0.00638409  1
  Ti  Ti142  1  0.79102410  0.80893585  -0.00430438  1
  Ti  Ti143  1  0.39589596  0.00592684  0.26449379  1
  Ti  Ti144  1  0.71531436  0.29513767  0.38312028  1
  Ti  Ti145  1  0.60115861  0.60490281  0.51038440  1
  Ti  Ti146  1  0.40390458  -0.00213590  -0.00566333  1
  Ti  Ti147  1  -0.00117502  0.19607187  0.24381217  1
  Ti  Ti148  1  0.79495844  0.81595467  0.75012979  1
  Ti  Ti149  1  0.19268649  0.78603592  0.48951865  1
  Ti  Ti150  1  0.70215898  0.11706512  0.87691018  1
  Ti  Ti151  1  0.61122426  0.20069091  0.51816698  1
  Ti  Ti152  1  0.50287086  0.68848730  0.38255216  1
  Ti  Ti153  1  -0.00952746  0.82154820  -0.01616929  1
  Ti  Ti154  1  0.70402641  0.09862780  0.39802999  1
  Ti  Ti155  1  0.79981652  0.40512062  0.25399086  1
  Ti  Ti156  1  0.10171048  0.08338066  0.37788798  1
  Ti  Ti157  1  0.11336956  0.90041402  0.86732283  1
  Ti  Ti158  1  0.59940593  0.79680432  0.49496369  1
  Ti  Ti159  1  0.18784943  0.38860352  0.75388907  1
  Mo  Mo160  1  0.88939486  0.11318343  0.87462509  1
  Mo  Mo161  1  -0.00995735  0.60004923  -0.00694168  1
  Mo  Mo162  1  0.70437270  0.30642014  0.62909037  1
  Mo  Mo163  1  0.20362866  0.00557212  0.25671415  1
  Mo  Mo164  1  0.09924302  0.69590474  0.38300367  1
  Mo  Mo165  1  0.79700213  0.60233049  0.50177170  1
  Mo  Mo166  1  0.10357549  0.30848443  0.88314533  1
  Mo  Mo167  1  0.09219071  0.90324601  0.37531814  1
  Mo  Mo168  1  0.90444091  0.10662486  0.63424659  1
  Mo  Mo169  1  0.00007136  0.00930927  0.50395652  1
  Mo  Mo170  1  0.70352235  0.90338549  0.38399988  1
  Mo  Mo171  1  0.88833671  0.30474393  0.89092455  1
  Mo  Mo172  1  0.88470188  0.89748124  0.87067519  1
  Mo  Mo173  1  0.21185271  -0.00875926  0.76906465  1
  Mo  Mo174  1  0.59883350  0.01473077  0.74247509  1
  Mo  Mo175  1  0.20625701  0.20151724  0.76133450  1
  Mo  Mo176  1  0.79047876  0.20081767  -0.00303190  1
  Mo  Mo177  1  0.90132808  0.30302269  0.36741628  1
  Mo  Mo178  1  0.09622256  0.30805301  0.64136723  1
  Mo  Mo179  1  -0.01314144  0.81745109  0.24405726  1
  Mo  Mo180  1  0.50168697  0.29079583  0.63348477  1
  Mo  Mo181  1  0.39153469  -0.00093068  0.50056477  1
  Mo  Mo182  1  0.50317390  0.69691527  0.61309957  1
  Mo  Mo183  1  0.79351310  0.60285362  0.24709088  1
  Mo  Mo184  1  0.49809441  0.49061387  0.85639338  1
  Mo  Mo185  1  0.11138150  0.10125337  0.85676003  1
  Mo  Mo186  1  0.60490906  -0.00245563  0.48552755  1
  Mo  Mo187  1  0.09241665  0.49016332  0.10428161  1
  Mo  Mo188  1  0.09876023  0.09783804  0.11862625  1
  Mo  Mo189  1  -0.01151434  0.19875307  -0.02280210  1
  Mo  Mo190  1  0.69646130  0.70582587  0.60661840  1
  Mo  Mo191  1  0.29484270  0.68710934  0.61945176  1
  Mo  Mo192  1  0.80855903  0.01608100  0.49304081  1
  Mo  Mo193  1  0.29873135  0.48435943  0.11143178  1
  Mo  Mo194  1  0.50125090  0.90116692  0.87806477  1
  Mo  Mo195  1  0.20487401  0.19181216  0.50765557  1
  Mo  Mo196  1  0.91515608  0.30677201  0.63420025  1
  Mo  Mo197  1  0.71095863  0.10162374  0.61477477  1
  Mo  Mo198  1  0.79604596  0.41173715  0.76296647  1
  Mo  Mo199  1  0.50828758  0.49438109  0.12189220  1
