# generated using pymatgen
data_HfZrTaTiMo
_symmetry_space_group_name_H-M   'P 1'
_cell_length_a   15.21283877
_cell_length_b   15.19603503
_cell_length_c   16.85683079
_cell_angle_alpha   89.97387939
_cell_angle_beta   89.94783678
_cell_angle_gamma   89.97590045
_symmetry_Int_Tables_number   1
_chemical_formula_structural   HfZrTaTiMo
_chemical_formula_sum   'Hf40 Zr40 Ta40 Ti40 Mo40'
_cell_volume   3896.87264344
_cell_formula_units_Z   40
loop_
 _symmetry_equiv_pos_site_id
 _symmetry_equiv_pos_as_xyz
  1  'x, y, z'
loop_
 _atom_site_type_symbol
 _atom_site_label
 _atom_site_symmetry_multiplicity
 _atom_site_fract_x
 _atom_site_fract_y
 _atom_site_fract_z
 _atom_site_occupancy
  Hf  Hf0  1  0.20013757  0.19776113  0.50163547  1
  Hf  Hf1  1  0.21482631  0.59016728  0.73889768  1
  Hf  Hf2  1  0.57838666  0.01165979  -0.01680352  1
  Hf  Hf3  1  0.00034068  0.78942259  0.49633129  1
  Hf  Hf4  1  0.00164393  0.38221425  0.73669262  1
  Hf  Hf5  1  0.79854465  0.59913679  0.26288193  1
  Hf  Hf6  1  0.89259689  0.11345100  0.11283102  1
  Hf  Hf7  1  0.48303576  0.50168024  0.37095751  1
  Hf  Hf8  1  0.69266022  0.30906444  0.88203741  1
  Hf  Hf9  1  0.90901296  0.50189200  0.12532205  1
  Hf  Hf10  1  0.19473572  0.57632142  0.25114746  1
  Hf  Hf11  1  0.79774100  0.80257613  0.25205030  1
  Hf  Hf12  1  0.70324067  0.10220098  0.62392761  1
  Hf  Hf13  1  0.10541899  0.31567791  0.13698206  1
  Hf  Hf14  1  0.90569743  0.69777169  0.12879634  1
  Hf  Hf15  1  0.20857066  0.79087366  0.74675582  1
  Hf  Hf16  1  0.60302236  0.39117961  0.24986138  1
  Hf  Hf17  1  0.61463057  -0.00175386  0.75755931  1
  Hf  Hf18  1  0.09183694  0.09082438  0.61974619  1
  Hf  Hf19  1  0.10572367  0.10150666  0.36207808  1
  Hf  Hf20  1  0.10273623  0.69755450  0.87124004  1
  Hf  Hf21  1  0.79727457  0.21149363  0.48976867  1
  Hf  Hf22  1  0.79600048  0.78106410  0.00426651  1
  Hf  Hf23  1  0.49057164  0.31400595  0.88280208  1
  Hf  Hf24  1  0.00311570  0.21305041  0.49254635  1
  Hf  Hf25  1  0.00744321  0.40687731  -0.00349616  1
  Hf  Hf26  1  0.40148607  0.20356403  0.49735290  1
  Hf  Hf27  1  0.30481451  0.89175870  0.86980400  1
  Hf  Hf28  1  0.78933258  0.21238989  0.25930712  1
  Hf  Hf29  1  0.10695475  0.32225271  0.35935785  1
  Hf  Hf30  1  0.00116103  0.81670828  0.74101361  1
  Hf  Hf31  1  0.30272957  0.08467671  0.13444066  1
  Hf  Hf32  1  0.41306215  0.59734756  0.00637002  1
  Hf  Hf33  1  -0.01009240  0.17653253  0.75512358  1
  Hf  Hf34  1  0.70494401  0.89780381  0.88620541  1
  Hf  Hf35  1  0.59895304  0.19137818  0.25246768  1
  Hf  Hf36  1  0.49969116  0.10104292  0.62269922  1
  Hf  Hf37  1  0.78014186  0.60151455  0.49409345  1
  Hf  Hf38  1  0.20490115  0.19172662  0.74495270  1
  Hf  Hf39  1  0.17389470  0.39489846  0.51984607  1
  Zr  Zr40  1  0.31844510  0.69324283  0.61574488  1
  Zr  Zr41  1  0.18658669  -0.00678169  0.75531456  1
  Zr  Zr42  1  0.10590928  0.49269787  0.86816813  1
  Zr  Zr43  1  0.41453303  -0.00476843  0.25955423  1
  Zr  Zr44  1  0.59624867  0.41907195  0.50922652  1
  Zr  Zr45  1  0.11138063  0.89043042  0.13479711  1
  Zr  Zr46  1  0.89502113  0.89998245  0.37927157  1
  Zr  Zr47  1  0.69023215  0.71307126  0.63309285  1
  Zr  Zr48  1  0.88923333  0.50221370  0.86110100  1
  Zr  Zr49  1  0.19251793  0.79067515  0.00256839  1
  Zr  Zr50  1  0.39555881  0.17805836  -0.00972676  1
  Zr  Zr51  1  0.20419732  0.39194839  0.73515443  1
  Zr  Zr52  1  0.22188860  -0.00009512  -0.00360832  1
  Zr  Zr53  1  0.30196457  0.89097249  0.38798270  1
  Zr  Zr54  1  0.69357024  0.09819143  0.10636021  1
  Zr  Zr55  1  0.89387169  0.29122901  0.88253202  1
  Zr  Zr56  1  0.71983135  0.11065858  0.88602242  1
  Zr  Zr57  1  0.59021337  0.79986726  0.01131005  1
  Zr  Zr58  1  -0.00867241  0.57505292  0.50562250  1
  Zr  Zr59  1  0.52561521  0.69999821  0.35734611  1
  Zr  Zr60  1  0.19884572  0.59725401  0.50589141  1
  Zr  Zr61  1  0.40398155  0.02182468  0.76560208  1
  Zr  Zr62  1  0.01715565  0.00648454  0.01173665  1
  Zr  Zr63  1  0.90485702  0.91512130  0.88749613  1
  Zr  Zr64  1  -0.00421309  -0.00485359  0.25035587  1
  Zr  Zr65  1  0.42649378  0.78888530  0.49712027  1
  Zr  Zr66  1  0.11345455  0.89255461  0.60404284  1
  Zr  Zr67  1  0.50467566  0.50370704  0.13559543  1
  Zr  Zr68  1  0.29751173  0.69372649  0.12843953  1
  Zr  Zr69  1  0.59075228  0.41501363  0.74069683  1
  Zr  Zr70  1  0.32017332  0.48838468  0.88198528  1
  Zr  Zr71  1  -0.00903488  0.21038132  0.24915526  1
  Zr  Zr72  1  0.32008988  0.90144774  0.62161231  1
  Zr  Zr73  1  0.89690936  0.90764585  0.61692238  1
  Zr  Zr74  1  0.77728337  0.00286142  0.24848460  1
  Zr  Zr75  1  0.00253751  0.60001211  0.73271334  1
  Zr  Zr76  1  0.86470375  0.49062692  0.63839372  1
  Zr  Zr77  1  0.89178881  0.90139627  0.11513739  1
  Zr  Zr78  1  0.40218489  0.20775833  0.25200421  1
  Zr  Zr79  1  0.89391548  0.70511260  0.86514258  1
  Ta  Ta80  1  0.31094598  0.69212155  0.87777177  1
  Ta  Ta81  1  0.28454237  0.48597763  0.38433329  1
  Ta  Ta82  1  0.78808592  0.81831061  0.74720059  1
  Ta  Ta83  1  0.61907147  0.60095522  0.00158345  1
  Ta  Ta84  1  0.78926619  0.00021051  0.49718740  1
  Ta  Ta85  1  0.31168555  0.68342676  0.37590028  1
  Ta  Ta86  1  0.68980837  0.09598377  0.38481168  1
  Ta  Ta87  1  0.10735203  0.69051550  0.37959704  1
  Ta  Ta88  1  0.69480090  0.69758644  0.86284908  1
  Ta  Ta89  1  0.00088642  0.58872514  0.26510749  1
  Ta  Ta90  1  0.69845110  0.30394290  0.11046729  1
  Ta  Ta91  1  0.60437702  0.21098865  0.50030765  1
  Ta  Ta92  1  0.58910806  0.20675595  0.74928216  1
  Ta  Ta93  1  0.19631638  0.58551150  0.00359468  1
  Ta  Ta94  1  0.30150141  0.10068727  0.37182914  1
  Ta  Ta95  1  0.49965633  0.10216704  0.12096960  1
  Ta  Ta96  1  0.50143572  0.69530258  0.87496121  1
  Ta  Ta97  1  0.70414557  0.31236571  0.63028748  1
  Ta  Ta98  1  0.00705183  0.78630806  0.26278015  1
  Ta  Ta99  1  0.39589129  0.80712787  0.00604685  1
  Ta  Ta100  1  0.30076464  0.30210596  0.37388619  1
  Ta  Ta101  1  0.68648475  0.50604064  0.36921830  1
  Ta  Ta102  1  0.89767545  0.10070471  0.61373978  1
  Ta  Ta103  1  0.30100577  0.09430345  0.61950621  1
  Ta  Ta104  1  0.69395562  0.50902212  0.86819588  1
  Ta  Ta105  1  0.69549845  0.69377106  0.13528170  1
  Ta  Ta106  1  0.20429337  0.78705738  0.26122925  1
  Ta  Ta107  1  0.29591667  0.28941129  0.87401806  1
  Ta  Ta108  1  0.80501227  0.40270967  0.25483482  1
  Ta  Ta109  1  0.10558025  0.28727029  0.87675406  1
  Ta  Ta110  1  0.49862797  0.29781756  0.10945155  1
  Ta  Ta111  1  0.90459478  0.32352117  0.37600638  1
  Ta  Ta112  1  -0.00144686  0.61088200  -0.00380594  1
  Ta  Ta113  1  0.32025596  0.48702861  0.61016013  1
  Ta  Ta114  1  0.79112428  0.41838259  0.00166128  1
  Ta  Ta115  1  -0.00194917  0.00664421  0.48575917  1
  Ta  Ta116  1  0.50568571  0.09833304  0.38779585  1
  Ta  Ta117  1  0.39908344  0.80068783  0.24947318  1
  Ta  Ta118  1  0.50457574  0.30460478  0.38193383  1
  Ta  Ta119  1  0.60277773  0.82158567  0.23617905  1
  Ti  Ti120  1  0.59284967  0.60886743  0.74181967  1
  Ti  Ti121  1  0.20629105  0.38837331  -0.00069802  1
  Ti  Ti122  1  0.20877817  -0.01362851  0.25602305  1
  Ti  Ti123  1  0.79595091  0.40582951  0.49087630  1
  Ti  Ti124  1  0.41835719  0.79094011  0.74626862  1
  Ti  Ti125  1  0.38968019  0.39971809  0.24592043  1
  Ti  Ti126  1  0.89290982  0.30969226  0.11926368  1
  Ti  Ti127  1  0.78777755  0.80057730  0.49956585  1
  Ti  Ti128  1  0.30688085  0.29034522  0.62367148  1
  Ti  Ti129  1  0.49844456  0.89206327  0.87136463  1
  Ti  Ti130  1  0.10325637  0.89251061  0.37915089  1
  Ti  Ti131  1  0.19467280  0.19509948  0.00066175  1
  Ti  Ti132  1  0.50208777  0.70233011  0.13821825  1
  Ti  Ti133  1  0.89417134  0.10401220  0.37566331  1
  Ti  Ti134  1  0.53056590  0.89067982  0.62517823  1
  Ti  Ti135  1  0.49300392  0.31044958  0.62025772  1
  Ti  Ti136  1  0.00577903  0.20675526  0.00415711  1
  Ti  Ti137  1  0.10999781  0.11058293  0.14149603  1
  Ti  Ti138  1  0.09466755  0.68584874  0.12991545  1
  Ti  Ti139  1  0.49150089  0.91356591  0.12272483  1
  Ti  Ti140  1  0.09518053  0.89387665  0.88147922  1
  Ti  Ti141  1  0.89493958  0.29214953  0.62223899  1
  Ti  Ti142  1  0.68951488  0.89756040  0.38003099  1
  Ti  Ti143  1  0.79564034  0.20670415  0.74685527  1
  Ti  Ti144  1  0.10261583  0.69733801  0.61863620  1
  Ti  Ti145  1  0.82546909  0.01407387  0.75372604  1
  Ti  Ti146  1  0.30049371  0.29046713  0.12296185  1
  Ti  Ti147  1  0.58991891  0.41537319  0.00166889  1
  Ti  Ti148  1  0.40044528  0.39754116  0.74560456  1
  Ti  Ti149  1  0.09598213  0.09548831  0.87857587  1
  Ti  Ti150  1  0.40820568  0.00016233  0.49761456  1
  Ti  Ti151  1  0.70525006  0.50195210  0.13117681  1
  Ti  Ti152  1  0.20440138  0.00029150  0.49237614  1
  Ti  Ti153  1  0.58647609  0.62029762  0.50747934  1
  Ti  Ti154  1  0.88910138  0.70292547  0.62954697  1
  Ti  Ti155  1  0.41227242  0.59072019  0.75079156  1
  Ti  Ti156  1  0.51472500  0.90536114  0.37966420  1
  Ti  Ti157  1  0.39308157  0.59684743  0.24650705  1
  Ti  Ti158  1  0.89796311  0.69508477  0.38044233  1
  Ti  Ti159  1  0.29535238  0.48270414  0.11810934  1
  Mo  Mo160  1  0.39486151  0.39484791  0.01012490  1
  Mo  Mo161  1  0.50411785  0.11406975  0.86324088  1
  Mo  Mo162  1  0.89470309  0.49828663  0.37827203  1
  Mo  Mo163  1  0.59464237  0.21327802  -0.00148121  1
  Mo  Mo164  1  0.09956929  0.49898940  0.63433134  1
  Mo  Mo165  1  0.70538353  0.91072177  0.62682356  1
  Mo  Mo166  1  0.68685485  0.89772947  0.11342394  1
  Mo  Mo167  1  0.21546607  0.39556248  0.24471225  1
  Mo  Mo168  1  0.60472149  0.60100102  0.24566805  1
  Mo  Mo169  1  0.78781965  0.39140191  0.75232390  1
  Mo  Mo170  1  0.40177603  0.21649128  0.74532687  1
  Mo  Mo171  1  0.08914172  0.28728105  0.62845730  1
  Mo  Mo172  1  0.20715163  0.19574124  0.24894556  1
  Mo  Mo173  1  0.90725414  0.10244653  0.89615400  1
  Mo  Mo174  1  0.79523000  0.59392624  0.00260605  1
  Mo  Mo175  1  0.40370022  -0.01213830  -0.00989141  1
  Mo  Mo176  1  0.59878954  0.00040546  0.50396931  1
  Mo  Mo177  1  0.68694036  0.50673850  0.62494827  1
  Mo  Mo178  1  0.30771339  0.89082972  0.13516605  1
  Mo  Mo179  1  0.20142540  0.79264474  0.48463032  1
  Mo  Mo180  1  0.59567177  0.80518908  0.76049297  1
  Mo  Mo181  1  -0.00061532  0.41409901  0.24595365  1
  Mo  Mo182  1  0.61490284  0.80732003  0.49726154  1
  Mo  Mo183  1  -0.00185870  -0.00113088  0.75330531  1
  Mo  Mo184  1  0.79538191  -0.00186685  0.00742195  1
  Mo  Mo185  1  0.70383951  0.71012220  0.37268713  1
  Mo  Mo186  1  0.80408390  0.21574944  0.00511600  1
  Mo  Mo187  1  0.69701198  0.30822328  0.37882453  1
  Mo  Mo188  1  0.49142280  0.51811888  0.62082408  1
  Mo  Mo189  1  0.78548888  0.60705604  0.74788257  1
  Mo  Mo190  1  0.09349491  0.49537976  0.37828953  1
  Mo  Mo191  1  0.49891821  0.70488319  0.63142535  1
  Mo  Mo192  1  0.39102808  0.39341534  0.49642369  1
  Mo  Mo193  1  0.28989500  0.10855146  0.87309835  1
  Mo  Mo194  1  0.40917222  0.58855610  0.49054662  1
  Mo  Mo195  1  0.10425748  0.50609713  0.11622522  1
  Mo  Mo196  1  0.59800584  0.00168637  0.25025423  1
  Mo  Mo197  1  0.51062802  0.51332978  0.87866178  1
  Mo  Mo198  1  0.00643036  0.78926728  0.00238887  1
  Mo  Mo199  1  -0.01610389  0.39498090  0.51381978  1
