# generated using pymatgen
data_HfZrTaTiMo
_symmetry_space_group_name_H-M   'P 1'
_cell_length_a   15.21094521
_cell_length_b   15.21940332
_cell_length_c   16.83260923
_cell_angle_alpha   89.99978784
_cell_angle_beta   89.96501628
_cell_angle_gamma   90.13800947
_symmetry_Int_Tables_number   1
_chemical_formula_structural   HfZrTaTiMo
_chemical_formula_sum   'Hf40 Zr40 Ta40 Ti40 Mo40'
_cell_volume   3896.76242388
_cell_formula_units_Z   40
loop_
 _symmetry_equiv_pos_site_id
 _symmetry_equiv_pos_as_xyz
  1  'x, y, z'
loop_
 _atom_site_type_symbol
 _atom_site_label
 _atom_site_symmetry_multiplicity
 _atom_site_fract_x
 _atom_site_fract_y
 _atom_site_fract_z
 _atom_site_occupancy
  Hf  Hf0  1  0.49480094  0.51045429  0.13032028  1
  Hf  Hf1  1  0.92312922  0.08993656  0.61541735  1
  Hf  Hf2  1  0.88987464  0.28747221  0.88463754  1
  Hf  Hf3  1  0.29376307  0.91055695  0.63301839  1
  Hf  Hf4  1  0.40085088  -0.00907287  0.01023352  1
  Hf  Hf5  1  0.19876237  0.40028236  0.76927257  1
  Hf  Hf6  1  0.10389971  0.71118918  0.11109288  1
  Hf  Hf7  1  0.19010052  0.18977943  -0.00373939  1
  Hf  Hf8  1  -0.02070280  0.60932635  0.49235589  1
  Hf  Hf9  1  0.19308623  0.22054008  0.23758702  1
  Hf  Hf10  1  -0.00782090  0.40639584  0.76503357  1
  Hf  Hf11  1  0.20034418  0.58625327  -0.02302325  1
  Hf  Hf12  1  0.30383199  0.30118546  0.63202444  1
  Hf  Hf13  1  0.40104974  0.19574674  0.23043869  1
  Hf  Hf14  1  0.00515585  0.61565029  0.25063046  1
  Hf  Hf15  1  0.40238915  0.20381463  0.49710118  1
  Hf  Hf16  1  0.40899046  0.80861413  0.48949283  1
  Hf  Hf17  1  0.69791469  0.66796644  0.63621973  1
  Hf  Hf18  1  0.80196845  0.39788852  0.49933880  1
  Hf  Hf19  1  0.88837050  0.50780344  0.62765361  1
  Hf  Hf20  1  0.10665865  0.50099309  0.12268447  1
  Hf  Hf21  1  0.50751097  0.30218793  0.37250808  1
  Hf  Hf22  1  0.19314114  0.81142698  0.50511436  1
  Hf  Hf23  1  0.49941449  0.11251042  0.62805641  1
  Hf  Hf24  1  0.29780864  0.31457726  0.37544805  1
  Hf  Hf25  1  0.00480925  0.38575873  0.25232057  1
  Hf  Hf26  1  -0.00990124  0.60553020  -0.00762629  1
  Hf  Hf27  1  0.69439668  0.89850350  0.37095930  1
  Hf  Hf28  1  0.70976266  0.30449241  0.36871135  1
  Hf  Hf29  1  0.00114611  0.81989442  -0.00093802  1
  Hf  Hf30  1  0.50571833  0.08531505  0.36807746  1
  Hf  Hf31  1  0.30975140  0.50386935  0.63909644  1
  Hf  Hf32  1  0.40837373  0.18819657  -0.00127349  1
  Hf  Hf33  1  0.40297967  -0.00712896  0.22267018  1
  Hf  Hf34  1  0.51099217  0.31073363  0.10998668  1
  Hf  Hf35  1  0.19800432  0.59774305  0.50563728  1
  Hf  Hf36  1  0.90656375  0.29662106  0.61962302  1
  Hf  Hf37  1  0.79483994  0.40132081  0.00187647  1
  Hf  Hf38  1  0.89378555  0.49044554  0.36413087  1
  Hf  Hf39  1  0.19023326  -0.02022142  0.01164414  1
  Zr  Zr40  1  0.29717951  0.90666317  0.36336974  1
  Zr  Zr41  1  0.20087542  0.80305887  0.75014210  1
  Zr  Zr42  1  0.09587033  0.50119473  0.63454891  1
  Zr  Zr43  1  0.91186410  0.27956920  0.10971403  1
  Zr  Zr44  1  0.59616245  -0.00290982  0.00918474  1
  Zr  Zr45  1  0.81257976  0.77646259  0.51576388  1
  Zr  Zr46  1  0.60753298  0.78700243  0.51380401  1
  Zr  Zr47  1  0.80381056  0.60812234  0.24004387  1
  Zr  Zr48  1  0.81351110  0.80792662  0.24761331  1
  Zr  Zr49  1  0.51525931  0.70177553  0.36171971  1
  Zr  Zr50  1  0.60412651  -0.00238715  0.51022388  1
  Zr  Zr51  1  -0.01138620  0.02244559  -0.01564699  1
  Zr  Zr52  1  0.51734015  0.30981294  0.89246520  1
  Zr  Zr53  1  0.29976456  0.68564688  0.11558245  1
  Zr  Zr54  1  0.07573789  0.10370241  0.12833591  1
  Zr  Zr55  1  0.70117752  0.70503879  0.87419123  1
  Zr  Zr56  1  0.39467669  0.00380046  0.49643930  1
  Zr  Zr57  1  0.38986177  0.39160416  0.23997453  1
  Zr  Zr58  1  0.08177896  0.70867614  0.62663128  1
  Zr  Zr59  1  0.19994825  0.19300759  0.76402686  1
  Zr  Zr60  1  0.49471631  0.89374373  0.63746272  1
  Zr  Zr61  1  0.37887086  0.59566551  0.25398108  1
  Zr  Zr62  1  0.81531990  0.18886221  0.25597080  1
  Zr  Zr63  1  0.60281808  0.42174013  0.50374370  1
  Zr  Zr64  1  0.31989769  0.70446756  0.63445515  1
  Zr  Zr65  1  0.59509691  0.59726489  -0.00014398  1
  Zr  Zr66  1  0.90064813  0.49242967  0.13087220  1
  Zr  Zr67  1  0.41277655  0.40921821  0.76690848  1
  Zr  Zr68  1  0.80463263  -0.02403590  0.51628617  1
  Zr  Zr69  1  0.28905840  0.69439227  0.37707083  1
  Zr  Zr70  1  -0.00059308  0.19536967  0.76154747  1
  Zr  Zr71  1  0.41950396  0.60190163  0.49771751  1
  Zr  Zr72  1  0.19384555  0.20322043  0.50173579  1
  Zr  Zr73  1  0.70064114  0.29368011  0.62508265  1
  Zr  Zr74  1  0.08650150  0.91459582  0.36658876  1
  Zr  Zr75  1  0.60585201  0.19641868  0.23932004  1
  Zr  Zr76  1  0.59798301  0.19878828  0.75534650  1
  Zr  Zr77  1  0.28672739  0.10410298  0.35675225  1
  Zr  Zr78  1  0.69673434  0.49050370  0.87404601  1
  Zr  Zr79  1  0.40312086  0.00866747  0.76416876  1
  Ta  Ta80  1  0.00676110  0.41045678  -0.01725655  1
  Ta  Ta81  1  0.80238687  0.80569506  0.00557366  1
  Ta  Ta82  1  0.70780007  0.69253574  0.37077994  1
  Ta  Ta83  1  0.69652960  0.70190985  0.12254803  1
  Ta  Ta84  1  0.00873467  0.40075307  0.49730924  1
  Ta  Ta85  1  0.19231481  0.78917517  0.24891845  1
  Ta  Ta86  1  0.90571134  0.07625571  0.38798984  1
  Ta  Ta87  1  0.68747432  0.50067022  0.34835620  1
  Ta  Ta88  1  0.60297314  -0.00517995  0.23430870  1
  Ta  Ta89  1  0.39660149  0.41763877  -0.01000873  1
  Ta  Ta90  1  0.09782281  0.29479850  0.62450173  1
  Ta  Ta91  1  0.39950314  0.40948987  0.50097283  1
  Ta  Ta92  1  0.60743145  0.20002437  0.49968987  1
  Ta  Ta93  1  0.89473155  0.70626851  0.87482079  1
  Ta  Ta94  1  0.10646713  0.91138682  0.86645466  1
  Ta  Ta95  1  0.29223502  0.08592624  0.88320253  1
  Ta  Ta96  1  0.40152625  0.80125476  0.24562434  1
  Ta  Ta97  1  0.70855807  0.89995552  0.12683233  1
  Ta  Ta98  1  0.08903313  0.92323182  0.63445272  1
  Ta  Ta99  1  0.61742448  0.19255183  0.00618443  1
  Ta  Ta100  1  0.10082158  0.71296117  0.87830991  1
  Ta  Ta101  1  0.29350319  0.10221416  0.63361595  1
  Ta  Ta102  1  0.49967082  0.49775338  0.36071780  1
  Ta  Ta103  1  0.50939419  0.90088038  0.87007778  1
  Ta  Ta104  1  0.49737460  0.31291570  0.62447236  1
  Ta  Ta105  1  0.40596514  0.79949531  -0.00234194  1
  Ta  Ta106  1  0.10873876  0.50531847  0.37470823  1
  Ta  Ta107  1  0.79958481  0.60596350  0.00942539  1
  Ta  Ta108  1  0.40094056  0.20340039  0.76994455  1
  Ta  Ta109  1  0.18907892  0.00916898  0.50312358  1
  Ta  Ta110  1  0.70418177  0.09389922  0.87372495  1
  Ta  Ta111  1  -0.00591565  0.80470233  0.75678755  1
  Ta  Ta112  1  0.79613604  0.00042267  -0.00372438  1
  Ta  Ta113  1  0.88948904  0.90185718  0.86535943  1
  Ta  Ta114  1  0.09920053  0.30437929  0.37998835  1
  Ta  Ta115  1  0.49747924  0.70867022  0.86979021  1
  Ta  Ta116  1  0.60185817  0.79777527  0.74421867  1
  Ta  Ta117  1  0.69034522  0.49050975  0.13907623  1
  Ta  Ta118  1  0.08659800  0.71055932  0.38000596  1
  Ta  Ta119  1  0.70305747  0.90060092  0.86382970  1
  Ti  Ti120  1  0.71129527  0.30164703  0.12907609  1
  Ti  Ti121  1  0.80273765  -0.00542129  0.73426473  1
  Ti  Ti122  1  0.70286295  0.29001047  0.87851930  1
  Ti  Ti123  1  0.10310519  0.31076517  0.10474182  1
  Ti  Ti124  1  0.28755247  0.87647143  0.12355774  1
  Ti  Ti125  1  0.90579262  0.92114438  0.12747640  1
  Ti  Ti126  1  0.09112207  0.10705726  0.37348480  1
  Ti  Ti127  1  0.79752880  0.39096061  0.75379051  1
  Ti  Ti128  1  0.71695322  0.09763342  0.12569921  1
  Ti  Ti129  1  0.40064565  0.60261135  -0.01432616  1
  Ti  Ti130  1  0.00162951  0.00558069  0.76123294  1
  Ti  Ti131  1  0.70532268  0.09589862  0.37488646  1
  Ti  Ti132  1  0.30232392  0.89075569  0.87735519  1
  Ti  Ti133  1  0.80585470  0.58949070  0.76167590  1
  Ti  Ti134  1  0.29280667  0.49324529  0.11324647  1
  Ti  Ti135  1  0.77916570  0.58667713  0.49114686  1
  Ti  Ti136  1  0.58705991  0.59448744  0.76191094  1
  Ti  Ti137  1  0.80367788  0.79450143  0.73695950  1
  Ti  Ti138  1  0.60251339  0.80038103  0.24091657  1
  Ti  Ti139  1  0.60161592  0.80379723  0.00249163  1
  Ti  Ti140  1  0.49968658  0.70660995  0.12696914  1
  Ti  Ti141  1  0.29407874  0.30724218  0.10321354  1
  Ti  Ti142  1  -0.00895704  0.81960232  0.50246862  1
  Ti  Ti143  1  0.00001897  0.18990580  0.25858387  1
  Ti  Ti144  1  0.61259579  0.00336143  0.74267514  1
  Ti  Ti145  1  0.51128862  0.51887187  0.62969205  1
  Ti  Ti146  1  0.30199191  0.30065449  0.88980535  1
  Ti  Ti147  1  0.18337743  -0.00558751  0.23127435  1
  Ti  Ti148  1  0.60463835  0.40345752  0.74516575  1
  Ti  Ti149  1  0.29038562  0.10054133  0.12110925  1
  Ti  Ti150  1  0.20272899  0.40477452  0.50458347  1
  Ti  Ti151  1  0.79914242  0.18436774  0.50113390  1
  Ti  Ti152  1  0.19880638  0.59972546  0.76378931  1
  Ti  Ti153  1  0.79793872  0.18401495  0.74224213  1
  Ti  Ti154  1  -0.00325945  0.60547606  0.76776361  1
  Ti  Ti155  1  0.30494644  0.70271604  0.86980336  1
  Ti  Ti156  1  0.91009489  0.28291113  0.38880823  1
  Ti  Ti157  1  -0.00110786  0.81027268  0.24366410  1
  Ti  Ti158  1  0.09875847  0.29867151  0.88713674  1
  Ti  Ti159  1  0.20184183  0.41983827  0.25398332  1
  Mo  Mo160  1  0.29697401  0.49608783  0.38454574  1
  Mo  Mo161  1  0.09697979  0.89833879  0.13479434  1
  Mo  Mo162  1  0.60803352  0.59760979  0.49494738  1
  Mo  Mo163  1  0.88286984  0.09176413  0.86147596  1
  Mo  Mo164  1  0.70364781  0.89249726  0.64609097  1
  Mo  Mo165  1  0.91156619  0.88903253  0.64188440  1
  Mo  Mo166  1  0.88830832  0.09441447  0.12299380  1
  Mo  Mo167  1  0.59893986  0.39777331  0.24563315  1
  Mo  Mo168  1  0.09399865  0.50763129  0.86686787  1
  Mo  Mo169  1  0.30488791  0.50749825  0.86699322  1
  Mo  Mo170  1  0.79523404  0.18594077  -0.00125936  1
  Mo  Mo171  1  0.50068419  0.69256551  0.63932765  1
  Mo  Mo172  1  0.40612859  0.80224885  0.76415130  1
  Mo  Mo173  1  0.70826406  0.09900996  0.62502365  1
  Mo  Mo174  1  0.20300083  0.39727711  -0.01552208  1
  Mo  Mo175  1  0.50568449  0.09702645  0.87624124  1
  Mo  Mo176  1  0.69866792  0.49205705  0.64284316  1
  Mo  Mo177  1  0.00110744  0.20157725  0.49464576  1
  Mo  Mo178  1  0.89174756  0.50514571  0.87687895  1
  Mo  Mo179  1  0.18728573  0.59974541  0.25259513  1
  Mo  Mo180  1  0.50883901  0.09928188  0.12362674  1
  Mo  Mo181  1  0.50274118  0.89992023  0.35483248  1
  Mo  Mo182  1  -0.02240186  0.00234925  0.25145389  1
  Mo  Mo183  1  0.90317330  0.69048814  0.64371298  1
  Mo  Mo184  1  0.60685204  0.39886665  0.00753347  1
  Mo  Mo185  1  0.19778758  0.00293194  0.75759580  1
  Mo  Mo186  1  0.10955689  0.10347158  0.62807737  1
  Mo  Mo187  1  0.40093624  0.60629835  0.76251434  1
  Mo  Mo188  1  0.50479081  0.88281178  0.12520632  1
  Mo  Mo189  1  0.80051237  0.39172358  0.24583376  1
  Mo  Mo190  1  0.89528202  0.71371962  0.11240148  1
  Mo  Mo191  1  0.90046826  0.89041508  0.37634768  1
  Mo  Mo192  1  0.09944520  0.09878482  0.87930046  1
  Mo  Mo193  1  0.20701068  0.79888277  -0.01428583  1
  Mo  Mo194  1  0.00844173  -0.00138085  0.50141290  1
  Mo  Mo195  1  0.90044599  0.70238911  0.37632094  1
  Mo  Mo196  1  -0.00361904  0.20654549  -0.01292955  1
  Mo  Mo197  1  0.79659630  0.00039380  0.25406997  1
  Mo  Mo198  1  0.50366131  0.51029474  0.88079244  1
  Mo  Mo199  1  0.59781227  0.60743782  0.23983847  1
