# generated using pymatgen
data_HfZrTaTiMo
_symmetry_space_group_name_H-M   'P 1'
_cell_length_a   15.21031617
_cell_length_b   15.20225110
_cell_length_c   16.85991078
_cell_angle_alpha   89.99728431
_cell_angle_beta   89.99909976
_cell_angle_gamma   90.04766674
_symmetry_Int_Tables_number   1
_chemical_formula_structural   HfZrTaTiMo
_chemical_formula_sum   'Hf40 Zr40 Ta40 Ti40 Mo40'
_cell_volume   3898.53344779
_cell_formula_units_Z   40
loop_
 _symmetry_equiv_pos_site_id
 _symmetry_equiv_pos_as_xyz
  1  'x, y, z'
loop_
 _atom_site_type_symbol
 _atom_site_label
 _atom_site_symmetry_multiplicity
 _atom_site_fract_x
 _atom_site_fract_y
 _atom_site_fract_z
 _atom_site_occupancy
  Hf  Hf0  1  0.28658915  0.51231931  0.14140929  1
  Hf  Hf1  1  0.40406676  0.61822068  0.01721008  1
  Hf  Hf2  1  0.70452665  0.09192267  0.62012812  1
  Hf  Hf3  1  0.60201878  0.59657589  0.00511123  1
  Hf  Hf4  1  0.08307779  0.28386838  0.87103599  1
  Hf  Hf5  1  0.21569471  0.60702842  0.74382762  1
  Hf  Hf6  1  0.69778818  0.89465453  0.87477005  1
  Hf  Hf7  1  0.41239487  0.59196502  0.48810807  1
  Hf  Hf8  1  0.47914855  0.32193675  0.62071320  1
  Hf  Hf9  1  0.00705521  0.80308394  0.01244008  1
  Hf  Hf10  1  -0.00745741  0.39809808  0.00022190  1
  Hf  Hf11  1  0.58191936  0.40295208  0.75733648  1
  Hf  Hf12  1  0.49218699  0.08689955  0.37431248  1
  Hf  Hf13  1  0.31178252  0.70130699  0.35925497  1
  Hf  Hf14  1  0.20446562  0.80164804  0.49297952  1
  Hf  Hf15  1  0.42444280  0.79721187  0.48456659  1
  Hf  Hf16  1  0.00084633  0.20988559  0.25068172  1
  Hf  Hf17  1  0.59975996  -0.00914578  0.74335042  1
  Hf  Hf18  1  0.58578599  0.42072990  0.49424151  1
  Hf  Hf19  1  0.30444607  0.10488909  0.12193465  1
  Hf  Hf20  1  0.39816273  0.22121579  0.75617725  1
  Hf  Hf21  1  0.20214737  0.20602619  0.24088523  1
  Hf  Hf22  1  0.40140934  0.20651951  0.50295148  1
  Hf  Hf23  1  0.29115239  0.90263774  0.63050617  1
  Hf  Hf24  1  -0.00549619  0.80944761  0.48160983  1
  Hf  Hf25  1  -0.00057056  0.00959119  0.49203672  1
  Hf  Hf26  1  0.68630058  0.07214700  0.12504076  1
  Hf  Hf27  1  0.01059977  0.59226913  0.00376364  1
  Hf  Hf28  1  0.69335867  0.29715946  0.39289750  1
  Hf  Hf29  1  0.70654356  0.87305038  0.61808312  1
  Hf  Hf30  1  0.59644570  0.38948205  -0.01555664  1
  Hf  Hf31  1  -0.00063595  0.81103979  0.75947549  1
  Hf  Hf32  1  0.10352858  0.30207187  0.38476107  1
  Hf  Hf33  1  0.79328836  0.19459532  0.25718350  1
  Hf  Hf34  1  0.40266716  0.20333908  -0.01132527  1
  Hf  Hf35  1  -0.00028787  0.61586800  0.74289099  1
  Hf  Hf36  1  0.58896196  -0.01418554  0.50735075  1
  Hf  Hf37  1  0.39918596  0.39227073  0.24629941  1
  Hf  Hf38  1  0.89647246  0.50651121  0.86260722  1
  Hf  Hf39  1  -0.00445382  0.80629090  0.25199444  1
  Zr  Zr40  1  0.19825249  0.59911493  0.49940541  1
  Zr  Zr41  1  0.41915026  0.61270927  0.23882391  1
  Zr  Zr42  1  0.00130389  -0.00052375  0.00948273  1
  Zr  Zr43  1  0.09656651  0.08944496  0.62419296  1
  Zr  Zr44  1  0.10039622  0.51012692  0.62496994  1
  Zr  Zr45  1  0.89370326  0.71485283  0.61737148  1
  Zr  Zr46  1  0.71403698  0.10413815  0.86522554  1
  Zr  Zr47  1  0.38864520  0.00145933  0.50948218  1
  Zr  Zr48  1  0.89488951  0.31421169  0.12933961  1
  Zr  Zr49  1  0.89203260  0.52281550  0.36875623  1
  Zr  Zr50  1  0.91130802  0.10407139  0.88393280  1
  Zr  Zr51  1  0.69700176  0.29245011  0.12714590  1
  Zr  Zr52  1  0.11396249  0.69373526  0.13665650  1
  Zr  Zr53  1  0.68856409  0.29907588  0.60851075  1
  Zr  Zr54  1  0.68841472  0.87038474  0.38350695  1
  Zr  Zr55  1  0.59240802  0.18886531  0.25335538  1
  Zr  Zr56  1  0.28806912  0.09756168  0.36821497  1
  Zr  Zr57  1  0.69526752  0.09054339  0.38899832  1
  Zr  Zr58  1  0.60442739  0.19005884  -0.01191143  1
  Zr  Zr59  1  0.49605362  0.88255621  0.63133839  1
  Zr  Zr60  1  0.31804398  0.70030701  0.62211841  1
  Zr  Zr61  1  0.39418265  0.41041375  0.01309923  1
  Zr  Zr62  1  0.49370197  0.28663487  0.12731067  1
  Zr  Zr63  1  0.18926088  0.20259935  0.00673662  1
  Zr  Zr64  1  0.87685812  0.30010664  0.87029312  1
  Zr  Zr65  1  -0.00323205  0.00542730  0.24653572  1
  Zr  Zr66  1  0.21405664  0.39149596  0.73602442  1
  Zr  Zr67  1  0.79969209  0.79245516  0.75852007  1
  Zr  Zr68  1  0.88772027  0.10291872  0.12055010  1
  Zr  Zr69  1  0.90008554  0.30944631  0.38323564  1
  Zr  Zr70  1  0.81080097  0.59450352  0.00643564  1
  Zr  Zr71  1  0.49607774  0.08769965  0.86622887  1
  Zr  Zr72  1  0.09988400  0.69223163  0.35902625  1
  Zr  Zr73  1  0.10499887  0.49401951  0.86457216  1
  Zr  Zr74  1  -0.01544666  0.38928779  0.73323386  1
  Zr  Zr75  1  0.09322901  0.28824663  0.61435737  1
  Zr  Zr76  1  0.11703252  0.70260513  0.88621851  1
  Zr  Zr77  1  0.29722677  0.90676980  0.88704001  1
  Zr  Zr78  1  0.00285401  0.00647726  0.75605342  1
  Zr  Zr79  1  0.29256447  0.31440369  0.87913484  1
  Ta  Ta80  1  0.61159834  0.79947007  0.00854112  1
  Ta  Ta81  1  0.78319810  0.39948195  0.73452335  1
  Ta  Ta82  1  0.39191678  0.00412282  0.74603124  1
  Ta  Ta83  1  0.70448575  0.49304683  0.87026238  1
  Ta  Ta84  1  0.62210909  0.59335847  0.24318942  1
  Ta  Ta85  1  0.11312138  0.90852979  0.36323666  1
  Ta  Ta86  1  -0.00155405  0.41232965  0.50492776  1
  Ta  Ta87  1  0.29470255  0.49709318  0.36297226  1
  Ta  Ta88  1  0.21315191  0.39862784  0.50202620  1
  Ta  Ta89  1  0.29720301  0.11242091  0.63381192  1
  Ta  Ta90  1  0.70687984  0.48928214  0.12558787  1
  Ta  Ta91  1  0.60542537  0.59959792  0.76285454  1
  Ta  Ta92  1  0.81013796  -0.00527648  0.74782403  1
  Ta  Ta93  1  0.19127624  0.41308940  0.01191594  1
  Ta  Ta94  1  0.70278496  0.69128666  0.88551621  1
  Ta  Ta95  1  0.60698348  0.20914392  0.75384361  1
  Ta  Ta96  1  0.19727140  0.80021348  0.74961106  1
  Ta  Ta97  1  0.88270155  0.89038297  0.12777394  1
  Ta  Ta98  1  0.78585867  0.41136763  0.26066527  1
  Ta  Ta99  1  0.42130098  0.81475720  0.00259663  1
  Ta  Ta100  1  0.30215765  0.30200157  0.37748718  1
  Ta  Ta101  1  0.42271398  0.81760132  0.24310125  1
  Ta  Ta102  1  0.31715362  0.90566013  0.12005675  1
  Ta  Ta103  1  0.88559725  0.50607968  0.61806701  1
  Ta  Ta104  1  0.39891533  0.80050284  0.76606511  1
  Ta  Ta105  1  0.09465185  0.49583940  0.36363633  1
  Ta  Ta106  1  0.81651393  0.19081204  0.50865787  1
  Ta  Ta107  1  0.21545215  0.80826193  0.23759846  1
  Ta  Ta108  1  0.79186738  -0.01706405  0.25824650  1
  Ta  Ta109  1  0.80893314  -0.01577364  0.49385682  1
  Ta  Ta110  1  0.77774195  0.61452932  0.49786743  1
  Ta  Ta111  1  0.79142883  -0.02090519  -0.00012540  1
  Ta  Ta112  1  0.41637769  0.60860905  0.75917805  1
  Ta  Ta113  1  0.30131220  0.51571182  0.88020629  1
  Ta  Ta114  1  0.30992022  0.90531666  0.36224612  1
  Ta  Ta115  1  0.08788690  0.49707962  0.14826588  1
  Ta  Ta116  1  0.59116840  0.78101553  0.76074281  1
  Ta  Ta117  1  0.09487187  0.88625264  0.62271429  1
  Ta  Ta118  1  -0.00981630  0.60800995  0.49979002  1
  Ta  Ta119  1  0.20243886  0.19278967  0.50104885  1
  Ti  Ti120  1  0.58299887  -0.01561573  -0.00398668  1
  Ti  Ti121  1  0.68973310  0.51217750  0.62458638  1
  Ti  Ti122  1  0.49092480  0.50580716  0.87996138  1
  Ti  Ti123  1  0.10828894  0.09169542  0.88324872  1
  Ti  Ti124  1  0.09670694  0.30645883  0.12461211  1
  Ti  Ti125  1  0.60534385  0.78636145  0.23911207  1
  Ti  Ti126  1  0.19670685  -0.00369479  0.49755062  1
  Ti  Ti127  1  0.79984802  0.20064309  0.00051241  1
  Ti  Ti128  1  0.59949898  0.39614746  0.25819414  1
  Ti  Ti129  1  0.09556375  0.10187246  0.12269361  1
  Ti  Ti130  1  0.79074638  0.39861358  -0.00439136  1
  Ti  Ti131  1  0.19112134  0.18936385  0.75170493  1
  Ti  Ti132  1  0.29313622  0.09889303  0.87595030  1
  Ti  Ti133  1  0.19457507  0.39405432  0.24886917  1
  Ti  Ti134  1  0.32105123  0.48759895  0.62211531  1
  Ti  Ti135  1  0.79299641  0.60045858  0.74562725  1
  Ti  Ti136  1  0.58626744  -0.02451611  0.25174683  1
  Ti  Ti137  1  0.10093958  0.89755123  0.88456998  1
  Ti  Ti138  1  0.89821902  0.09980796  0.37400463  1
  Ti  Ti139  1  0.09841184  0.10322489  0.37389228  1
  Ti  Ti140  1  0.79919566  0.78766226  0.25788119  1
  Ti  Ti141  1  0.20848833  0.60632440  0.00749444  1
  Ti  Ti142  1  0.51330727  0.49543049  0.13045407  1
  Ti  Ti143  1  0.50194438  0.52320091  0.62888233  1
  Ti  Ti144  1  0.50649884  0.50999643  0.36210821  1
  Ti  Ti145  1  0.19783909  -0.00538983  0.75485095  1
  Ti  Ti146  1  0.19751476  -0.01457228  0.01492796  1
  Ti  Ti147  1  0.31007889  0.70782080  0.88587477  1
  Ti  Ti148  1  0.79717784  0.41372755  0.50168330  1
  Ti  Ti149  1  0.90561208  0.69457165  0.13008881  1
  Ti  Ti150  1  0.48956585  0.07941528  0.12435321  1
  Ti  Ti151  1  0.90058771  0.50487696  0.14621822  1
  Ti  Ti152  1  0.90203596  0.91356675  0.62162624  1
  Ti  Ti153  1  0.49701678  0.29879539  0.38067052  1
  Ti  Ti154  1  0.90080736  0.71021723  0.88573512  1
  Ti  Ti155  1  0.71576312  0.70202567  0.12116089  1
  Ti  Ti156  1  0.81766495  0.20198149  0.72799614  1
  Ti  Ti157  1  0.20081545  -0.00283838  0.23664776  1
  Ti  Ti158  1  0.50140181  0.11289879  0.63237205  1
  Ti  Ti159  1  0.39722834  0.19598541  0.25229428  1
  Mo  Mo160  1  0.70142084  0.30165705  0.86272238  1
  Mo  Mo161  1  0.21991012  0.79771595  0.02184968  1
  Mo  Mo162  1  0.20358818  0.59706975  0.25640639  1
  Mo  Mo163  1  0.39442285  0.40810229  0.48349809  1
  Mo  Mo164  1  0.49812186  0.30402637  0.86909479  1
  Mo  Mo165  1  0.49783449  0.89311893  0.87125503  1
  Mo  Mo166  1  0.59650517  0.19916994  0.50599899  1
  Mo  Mo167  1  0.89537107  0.90777268  0.36784654  1
  Mo  Mo168  1  0.49951370  0.89382178  0.37237972  1
  Mo  Mo169  1  0.88926251  0.70990109  0.37821283  1
  Mo  Mo170  1  0.51053615  0.69542532  0.63056908  1
  Mo  Mo171  1  0.39762582  0.00006931  0.24665743  1
  Mo  Mo172  1  0.59488399  0.60464179  0.49385365  1
  Mo  Mo173  1  0.28858974  0.30718077  0.12395341  1
  Mo  Mo174  1  -0.00154531  0.40059386  0.25440624  1
  Mo  Mo175  1  -0.00206792  0.19759491  0.74612753  1
  Mo  Mo176  1  0.29605582  0.29797599  0.62010023  1
  Mo  Mo177  1  0.70650286  0.67906585  0.36474679  1
  Mo  Mo178  1  0.52371050  0.70456032  0.36217361  1
  Mo  Mo179  1  0.70373508  0.88792632  0.13183000  1
  Mo  Mo180  1  0.80487928  0.79470291  0.49354646  1
  Mo  Mo181  1  0.80529505  0.79584151  -0.00042078  1
  Mo  Mo182  1  0.69597466  0.49605130  0.37292556  1
  Mo  Mo183  1  0.00120280  0.19987735  0.48911109  1
  Mo  Mo184  1  0.10478107  0.90484574  0.13486569  1
  Mo  Mo185  1  0.68979646  0.68660953  0.63005269  1
  Mo  Mo186  1  0.89791126  0.89842132  0.88468464  1
  Mo  Mo187  1  0.10302655  0.71293991  0.62107914  1
  Mo  Mo188  1  0.80011293  0.60597090  0.23720351  1
  Mo  Mo189  1  0.61105953  0.77090563  0.50004759  1
  Mo  Mo190  1  0.39693106  0.00451753  -0.00250736  1
  Mo  Mo191  1  0.51643463  0.90875487  0.12250316  1
  Mo  Mo192  1  -0.00514856  0.60386361  0.25081581  1
  Mo  Mo193  1  0.39333778  0.42550904  0.75377844  1
  Mo  Mo194  1  0.50342268  0.70143864  0.88510572  1
  Mo  Mo195  1  0.89904741  0.10142689  0.62283930  1
  Mo  Mo196  1  0.31284921  0.71253849  0.13011164  1
  Mo  Mo197  1  0.52029328  0.71017413  0.12451773  1
  Mo  Mo198  1  -0.00477661  0.20485885  0.01089090  1
  Mo  Mo199  1  0.89476427  0.30700417  0.60806305  1
