# generated using pymatgen
data_HfZrTaTiMo
_symmetry_space_group_name_H-M   'P 1'
_cell_length_a   15.18831492
_cell_length_b   15.18485569
_cell_length_c   16.81349279
_cell_angle_alpha   90.00488076
_cell_angle_beta   90.01689100
_cell_angle_gamma   89.97598291
_symmetry_Int_Tables_number   1
_chemical_formula_structural   HfZrTaTiMo
_chemical_formula_sum   'Hf40 Zr40 Ta40 Ti40 Mo40'
_cell_volume   3877.73516978
_cell_formula_units_Z   40
loop_
 _symmetry_equiv_pos_site_id
 _symmetry_equiv_pos_as_xyz
  1  'x, y, z'
loop_
 _atom_site_type_symbol
 _atom_site_label
 _atom_site_symmetry_multiplicity
 _atom_site_fract_x
 _atom_site_fract_y
 _atom_site_fract_z
 _atom_site_occupancy
  Hf  Hf0  1  0.92192542  0.70834807  0.37016736  1
  Hf  Hf1  1  0.29938696  0.30858211  0.37958225  1
  Hf  Hf2  1  0.30018716  0.51427780  0.86221946  1
  Hf  Hf3  1  0.61966348  0.20290929  0.00931376  1
  Hf  Hf4  1  0.40046437  0.80609498  0.74498258  1
  Hf  Hf5  1  0.09651309  0.30302895  0.12018084  1
  Hf  Hf6  1  0.00653020  0.40463670  0.26109853  1
  Hf  Hf7  1  0.30412798  0.09072093  0.86033132  1
  Hf  Hf8  1  0.60815466  0.40305982  -0.00182719  1
  Hf  Hf9  1  0.81386899  0.60074416  0.23358082  1
  Hf  Hf10  1  0.39838513  0.58562986  0.25575467  1
  Hf  Hf11  1  0.69406232  0.49148550  0.63577481  1
  Hf  Hf12  1  0.89575435  0.30300403  0.60649991  1
  Hf  Hf13  1  0.89339376  0.50446134  0.60889139  1
  Hf  Hf14  1  0.28884256  0.10468520  0.12108870  1
  Hf  Hf15  1  0.10687691  0.08307480  0.37688143  1
  Hf  Hf16  1  -0.00066368  0.20370275  0.26200420  1
  Hf  Hf17  1  0.19976799  0.81499933  0.51660515  1
  Hf  Hf18  1  0.18785054  0.78955423  0.25060539  1
  Hf  Hf19  1  0.70017612  0.69106935  0.87728659  1
  Hf  Hf20  1  0.59006608  -0.00362914  0.75319119  1
  Hf  Hf21  1  0.61252129  0.57692096  0.48921934  1
  Hf  Hf22  1  0.48891669  0.09898657  0.10362190  1
  Hf  Hf23  1  0.37142681  0.00033772  0.50765040  1
  Hf  Hf24  1  0.40662032  0.60510446  0.51010468  1
  Hf  Hf25  1  0.80488383  0.00190792  0.74195105  1
  Hf  Hf26  1  0.79288403  0.19150394  0.48892080  1
  Hf  Hf27  1  0.49626850  0.89705731  0.11220172  1
  Hf  Hf28  1  0.90659669  0.69713925  0.88590601  1
  Hf  Hf29  1  0.02441870  0.60398815  0.00923198  1
  Hf  Hf30  1  0.48619609  0.90627911  0.88786886  1
  Hf  Hf31  1  0.77493638  0.40929416  0.48529911  1
  Hf  Hf32  1  0.19778361  0.20825101  0.25164403  1
  Hf  Hf33  1  0.18473182  0.19479758  -0.01988900  1
  Hf  Hf34  1  0.09768556  0.89997475  0.85240795  1
  Hf  Hf35  1  0.20267096  0.40114876  -0.01746873  1
  Hf  Hf36  1  0.90781089  0.48944785  0.89367738  1
  Hf  Hf37  1  0.10556087  0.09175254  0.64041032  1
  Hf  Hf38  1  0.89947739  0.51292850  0.38379708  1
  Hf  Hf39  1  0.29945307  0.29620195  0.64015509  1
  Zr  Zr40  1  0.30430815  0.70875624  0.38909853  1
  Zr  Zr41  1  0.29023126  0.89582246  0.12507652  1
  Zr  Zr42  1  0.10824927  0.69602332  0.85713932  1
  Zr  Zr43  1  0.19964363  -0.01225776  -0.01199914  1
  Zr  Zr44  1  0.89731053  0.10645283  0.87371332  1
  Zr  Zr45  1  0.69814396  0.10898200  0.62497042  1
  Zr  Zr46  1  0.30684901  0.10674234  0.37016335  1
  Zr  Zr47  1  0.90219441  0.09131590  0.13421975  1
  Zr  Zr48  1  0.79366090  0.19388074  0.25457155  1
  Zr  Zr49  1  0.00107533  0.00174813  -0.00174034  1
  Zr  Zr50  1  0.39613478  0.79456730  0.25048873  1
  Zr  Zr51  1  0.60900167  0.80262188  0.25532407  1
  Zr  Zr52  1  0.69680001  0.89670409  0.87510146  1
  Zr  Zr53  1  0.48645891  0.32126307  0.12054493  1
  Zr  Zr54  1  0.50616884  0.30528531  0.87229801  1
  Zr  Zr55  1  0.59472402  0.01457883  0.49623893  1
  Zr  Zr56  1  0.48497148  0.90143755  0.38319452  1
  Zr  Zr57  1  0.09408135  0.49389918  0.62309277  1
  Zr  Zr58  1  0.60796411  0.00190170  0.24174379  1
  Zr  Zr59  1  0.12307928  0.50284409  0.12513753  1
  Zr  Zr60  1  0.81617602  0.79342509  0.51164308  1
  Zr  Zr61  1  0.48437426  0.68897431  0.11995433  1
  Zr  Zr62  1  0.09661485  0.29279714  0.62153468  1
  Zr  Zr63  1  0.89478491  0.89775431  0.87423896  1
  Zr  Zr64  1  0.48910813  0.89901210  0.61611691  1
  Zr  Zr65  1  0.81905019  0.59345108  0.75518626  1
  Zr  Zr66  1  0.72160202  0.69411371  0.36635833  1
  Zr  Zr67  1  0.41055470  0.20118981  0.50812615  1
  Zr  Zr68  1  -0.01675951  0.79606902  0.73026003  1
  Zr  Zr69  1  0.39777425  0.00725315  0.24997278  1
  Zr  Zr70  1  0.59807718  0.20309943  0.23212103  1
  Zr  Zr71  1  0.60451661  0.79287081  0.48599834  1
  Zr  Zr72  1  0.80359207  0.80602285  0.01691823  1
  Zr  Zr73  1  0.79379622  0.39872938  0.25676915  1
  Zr  Zr74  1  0.40765728  0.61044561  0.74006104  1
  Zr  Zr75  1  0.40893615  0.40509325  0.51318827  1
  Zr  Zr76  1  0.69365713  0.89233009  0.62500007  1
  Zr  Zr77  1  0.38509786  0.21718779  -0.01236801  1
  Zr  Zr78  1  0.59683523  0.59156505  0.00429393  1
  Zr  Zr79  1  0.88375742  0.90521998  0.36354532  1
  Ta  Ta80  1  0.11081494  0.69424100  0.63799361  1
  Ta  Ta81  1  0.19428808  0.39786079  0.75799962  1
  Ta  Ta82  1  0.67849635  0.29518709  0.37737400  1
  Ta  Ta83  1  0.29952709  0.10051563  0.64978535  1
  Ta  Ta84  1  0.08278293  0.30375322  0.86917854  1
  Ta  Ta85  1  0.49346605  0.70382557  0.88266685  1
  Ta  Ta86  1  -0.00689097  0.20532923  0.00030414  1
  Ta  Ta87  1  0.27354545  0.91013782  0.37394123  1
  Ta  Ta88  1  0.90566007  0.10284017  0.62216129  1
  Ta  Ta89  1  0.70679266  0.68259191  0.62578633  1
  Ta  Ta90  1  0.37772708  0.79669361  -0.00443743  1
  Ta  Ta91  1  0.49385994  0.30225859  0.36753187  1
  Ta  Ta92  1  0.50630477  0.09905054  0.88556118  1
  Ta  Ta93  1  0.80331318  0.38107909  0.75159467  1
  Ta  Ta94  1  0.20252083  0.40162547  0.50384733  1
  Ta  Ta95  1  0.61188627  0.20157663  0.75901849  1
  Ta  Ta96  1  0.70330608  0.10190776  0.87672655  1
  Ta  Ta97  1  0.09103602  0.90494183  0.13355086  1
  Ta  Ta98  1  0.91431766  0.49041825  0.11710661  1
  Ta  Ta99  1  0.59782383  0.79674579  0.00330454  1
  Ta  Ta100  1  -0.01530030  0.20730533  0.74906469  1
  Ta  Ta101  1  0.51322767  0.30060294  0.64093398  1
  Ta  Ta102  1  -0.01152688  0.40549024  0.75047434  1
  Ta  Ta103  1  0.01922744  0.60669021  0.24341947  1
  Ta  Ta104  1  0.80250478  0.59284898  0.01594433  1
  Ta  Ta105  1  0.40535241  0.42426619  -0.01634730  1
  Ta  Ta106  1  0.51871224  0.69712239  0.62122786  1
  Ta  Ta107  1  0.00340922  0.18713343  0.49285053  1
  Ta  Ta108  1  0.90200980  0.30097050  0.38947287  1
  Ta  Ta109  1  0.00299738  0.61462976  0.50598551  1
  Ta  Ta110  1  0.31981942  0.49975186  0.11638092  1
  Ta  Ta111  1  0.29440633  0.50393310  0.63584364  1
  Ta  Ta112  1  0.69845791  0.70125357  0.12914705  1
  Ta  Ta113  1  0.89696818  0.30044775  0.12222463  1
  Ta  Ta114  1  0.60263766  0.59004223  0.24868303  1
  Ta  Ta115  1  0.49452036  0.10872603  0.63746616  1
  Ta  Ta116  1  0.10539149  0.50602484  0.38692353  1
  Ta  Ta117  1  0.29793938  0.50346703  0.38520073  1
  Ta  Ta118  1  0.70580682  0.08364412  0.37295466  1
  Ta  Ta119  1  0.08603871  0.89091831  0.37340425  1
  Ti  Ti120  1  0.40815345  0.20191180  0.76030439  1
  Ti  Ti121  1  0.21071858  0.41046349  0.25700117  1
  Ti  Ti122  1  0.29296828  0.89124119  0.86354587  1
  Ti  Ti123  1  0.50850537  0.49689319  0.63708961  1
  Ti  Ti124  1  0.20568883  0.18700225  0.50464334  1
  Ti  Ti125  1  0.51205339  0.51511057  0.86214729  1
  Ti  Ti126  1  0.50224303  0.48642778  0.37310029  1
  Ti  Ti127  1  0.69413737  0.29932898  0.62127284  1
  Ti  Ti128  1  0.00696714  0.80392927  0.52092145  1
  Ti  Ti129  1  0.10828114  0.69879047  0.38560290  1
  Ti  Ti130  1  0.29411416  0.70539374  0.87388439  1
  Ti  Ti131  1  0.59787712  0.78279674  0.75227612  1
  Ti  Ti132  1  0.39764560  0.21289664  0.24146057  1
  Ti  Ti133  1  0.71109043  0.49390973  0.87376699  1
  Ti  Ti134  1  0.40260684  0.40127541  0.75410242  1
  Ti  Ti135  1  0.60767519  0.40019845  0.76095066  1
  Ti  Ti136  1  0.28221209  0.91204389  0.64308022  1
  Ti  Ti137  1  0.09817924  0.50608994  0.86454134  1
  Ti  Ti138  1  0.70130863  0.49181536  0.12828285  1
  Ti  Ti139  1  0.79357715  0.79444446  0.73800693  1
  Ti  Ti140  1  0.60968289  -0.00303755  0.00416044  1
  Ti  Ti141  1  0.50223456  0.69021984  0.37507387  1
  Ti  Ti142  1  0.00527837  -0.01106189  0.51016198  1
  Ti  Ti143  1  0.91305467  0.70196505  0.12185382  1
  Ti  Ti144  1  0.80052549  0.38770949  0.00937452  1
  Ti  Ti145  1  0.50880711  0.11619290  0.37125619  1
  Ti  Ti146  1  0.01367749  0.80672281  0.00803888  1
  Ti  Ti147  1  0.90381396  0.09119043  0.37172667  1
  Ti  Ti148  1  0.20450380  0.60334141  0.51111446  1
  Ti  Ti149  1  0.28050939  0.68797437  0.11148918  1
  Ti  Ti150  1  0.29194577  0.31376611  0.12367925  1
  Ti  Ti151  1  0.20493356  0.59863177  0.25600834  1
  Ti  Ti152  1  0.79511203  0.00899619  0.01141622  1
  Ti  Ti153  1  0.09855701  0.09797102  0.13305416  1
  Ti  Ti154  1  0.71538371  0.29329669  0.87595334  1
  Ti  Ti155  1  0.89560520  0.29914012  0.88461891  1
  Ti  Ti156  1  -0.00736171  0.80249436  0.23866621  1
  Ti  Ti157  1  0.59036559  0.40275637  0.24353569  1
  Ti  Ti158  1  0.10167078  0.30279862  0.39263897  1
  Ti  Ti159  1  0.80493724  -0.00553220  0.50461719  1
  Mo  Mo160  1  0.79893825  0.60342061  0.49737900  1
  Mo  Mo161  1  0.80411450  0.19940291  0.00647943  1
  Mo  Mo162  1  0.21544426  0.60269884  -0.00603966  1
  Mo  Mo163  1  0.19006219  0.00302034  0.50716908  1
  Mo  Mo164  1  0.09767107  0.90213251  0.63981882  1
  Mo  Mo165  1  0.39783007  -0.00045617  -0.00400288  1
  Mo  Mo166  1  0.00226891  0.39947666  0.48570520  1
  Mo  Mo167  1  0.69912286  0.90047998  0.11707527  1
  Mo  Mo168  1  0.60647352  0.59997093  0.75501125  1
  Mo  Mo169  1  0.79883067  0.20703549  0.74596765  1
  Mo  Mo170  1  -0.00549604  0.00380401  0.74082962  1
  Mo  Mo171  1  0.39542734  0.80101434  0.51127726  1
  Mo  Mo172  1  0.39010115  0.40149162  0.25404183  1
  Mo  Mo173  1  0.18944183  -0.00478099  0.24764017  1
  Mo  Mo174  1  0.50093143  0.50001018  0.12677830  1
  Mo  Mo175  1  0.20010472  -0.00228542  0.76009124  1
  Mo  Mo176  1  0.80334812  0.79997927  0.23053201  1
  Mo  Mo177  1  0.90257191  0.69444290  0.62204724  1
  Mo  Mo178  1  0.58761899  0.38805395  0.50133951  1
  Mo  Mo179  1  0.00269434  0.39519986  -0.00112209  1
  Mo  Mo180  1  0.10518163  0.70759313  0.12629184  1
  Mo  Mo181  1  0.20726159  0.79546135  0.73563976  1
  Mo  Mo182  1  0.18672383  0.79171057  -0.00208319  1
  Mo  Mo183  1  0.70251885  0.09652888  0.11812860  1
  Mo  Mo184  1  0.19290310  0.20586937  0.76647134  1
  Mo  Mo185  1  0.29660415  0.30675992  0.85721511  1
  Mo  Mo186  1  0.69031888  0.49420878  0.35854289  1
  Mo  Mo187  1  0.20339562  0.59701386  0.73936153  1
  Mo  Mo188  1  0.30873184  0.70657708  0.61704762  1
  Mo  Mo189  1  0.00141880  0.58916099  0.74730290  1
  Mo  Mo190  1  0.90077259  0.91141625  0.61973876  1
  Mo  Mo191  1  0.70241006  0.90435474  0.37810568  1
  Mo  Mo192  1  0.09187802  0.10596447  0.85438088  1
  Mo  Mo193  1  0.40208315  0.00349043  0.74780109  1
  Mo  Mo194  1  0.79439162  -0.01145190  0.24204776  1
  Mo  Mo195  1  0.90019731  0.89730961  0.13550717  1
  Mo  Mo196  1  0.39682351  0.60390527  -0.01084795  1
  Mo  Mo197  1  0.70761392  0.30634819  0.12564506  1
  Mo  Mo198  1  0.00540303  -0.00328917  0.25308381  1
  Mo  Mo199  1  0.59701834  0.20897253  0.49771065  1
