# generated using pymatgen
data_HfZrTaTiMo
_symmetry_space_group_name_H-M   'P 1'
_cell_length_a   15.21339685
_cell_length_b   15.22127491
_cell_length_c   16.85030315
_cell_angle_alpha   90.01258867
_cell_angle_beta   90.01952471
_cell_angle_gamma   90.08040631
_symmetry_Int_Tables_number   1
_chemical_formula_structural   HfZrTaTiMo
_chemical_formula_sum   'Hf40 Zr40 Ta40 Ti40 Mo40'
_cell_volume   3901.97496959
_cell_formula_units_Z   40
loop_
 _symmetry_equiv_pos_site_id
 _symmetry_equiv_pos_as_xyz
  1  'x, y, z'
loop_
 _atom_site_type_symbol
 _atom_site_label
 _atom_site_symmetry_multiplicity
 _atom_site_fract_x
 _atom_site_fract_y
 _atom_site_fract_z
 _atom_site_occupancy
  Hf  Hf0  1  0.49915305  0.91377732  0.12211162  1
  Hf  Hf1  1  0.58430435  0.39811160  -0.00795798  1
  Hf  Hf2  1  0.09968476  0.88519653  0.36246108  1
  Hf  Hf3  1  0.80480759  0.79879885  0.24764762  1
  Hf  Hf4  1  0.80846267  0.60421072  0.75105715  1
  Hf  Hf5  1  0.47490469  0.51453098  0.87183001  1
  Hf  Hf6  1  0.10324101  0.10529301  0.62612021  1
  Hf  Hf7  1  0.28610211  0.31044817  0.61571791  1
  Hf  Hf8  1  0.89339135  0.29039804  0.89025694  1
  Hf  Hf9  1  0.09082352  0.30494448  0.61812539  1
  Hf  Hf10  1  0.19968964  0.39438137  0.26096087  1
  Hf  Hf11  1  0.60177149  0.02303439  -0.01044014  1
  Hf  Hf12  1  0.91511484  0.70896112  0.88351146  1
  Hf  Hf13  1  0.01005543  -0.01443548  0.50694510  1
  Hf  Hf14  1  -0.01515366  -0.01092073  0.24691401  1
  Hf  Hf15  1  0.89956942  0.69305709  0.37718645  1
  Hf  Hf16  1  0.52704046  0.70239274  0.62143730  1
  Hf  Hf17  1  -0.01236658  -0.01775276  0.01337358  1
  Hf  Hf18  1  0.38968729  0.80417354  0.00205646  1
  Hf  Hf19  1  0.49388983  0.50235590  0.60977209  1
  Hf  Hf20  1  0.09875590  0.49719977  0.13766095  1
  Hf  Hf21  1  0.79627435  -0.00396212  0.50234495  1
  Hf  Hf22  1  0.90610446  0.68959023  0.12528834  1
  Hf  Hf23  1  0.89727694  0.88799423  0.38794521  1
  Hf  Hf24  1  0.59461028  0.00701280  0.76005204  1
  Hf  Hf25  1  0.00978625  0.79143607  0.72745524  1
  Hf  Hf26  1  -0.01001917  -0.00390809  0.73541237  1
  Hf  Hf27  1  0.10054161  0.28926040  0.12529388  1
  Hf  Hf28  1  0.41059542  0.81100183  0.51386183  1
  Hf  Hf29  1  0.12075898  0.69511401  0.86464767  1
  Hf  Hf30  1  0.60468807  0.80212615  0.24187561  1
  Hf  Hf31  1  0.72227719  0.49461315  0.10962905  1
  Hf  Hf32  1  0.39484330  0.19922159  0.50190758  1
  Hf  Hf33  1  0.79614911  0.20905617  0.26272041  1
  Hf  Hf34  1  0.30209766  0.91996387  0.36331260  1
  Hf  Hf35  1  0.19787290  -0.00609563  0.74987784  1
  Hf  Hf36  1  -0.00694420  0.20068673  0.75178416  1
  Hf  Hf37  1  0.70934388  0.70505274  0.10873837  1
  Hf  Hf38  1  0.80341139  0.79529424  0.74055041  1
  Hf  Hf39  1  0.21014726  0.00437923  0.50518519  1
  Zr  Zr40  1  0.50094511  0.90209336  0.36961729  1
  Zr  Zr41  1  0.21426700  0.59840906  0.00585222  1
  Zr  Zr42  1  0.48930082  0.10307496  0.37607066  1
  Zr  Zr43  1  0.22897739  0.59585271  0.74382268  1
  Zr  Zr44  1  0.42253073  0.40741803  0.25734026  1
  Zr  Zr45  1  0.29525747  0.71173718  0.14294107  1
  Zr  Zr46  1  -0.00175225  0.18522226  0.00776958  1
  Zr  Zr47  1  0.19923674  0.79699977  0.50411613  1
  Zr  Zr48  1  0.90647473  0.50056446  0.88341581  1
  Zr  Zr49  1  0.69190932  0.28656361  0.88978939  1
  Zr  Zr50  1  0.29856575  0.29968390  0.12656080  1
  Zr  Zr51  1  0.09903925  0.29698930  0.88416976  1
  Zr  Zr52  1  0.30946603  0.30183740  0.87852189  1
  Zr  Zr53  1  0.60348769  0.80331979  0.76781361  1
  Zr  Zr54  1  0.90416766  0.49134607  0.61981522  1
  Zr  Zr55  1  0.70551674  0.30414384  0.61324533  1
  Zr  Zr56  1  0.79825677  0.39155729  0.75520208  1
  Zr  Zr57  1  0.09043056  0.89145324  0.87334152  1
  Zr  Zr58  1  0.30893462  0.71986374  0.35962598  1
  Zr  Zr59  1  -0.00295660  0.19433683  0.48792292  1
  Zr  Zr60  1  0.69267775  0.51164080  0.62188661  1
  Zr  Zr61  1  0.30483065  0.51203840  0.37762454  1
  Zr  Zr62  1  0.51896084  0.69362609  0.37589846  1
  Zr  Zr63  1  0.47762236  0.91063353  0.87755129  1
  Zr  Zr64  1  0.68681906  0.10635289  0.13617265  1
  Zr  Zr65  1  0.67477163  0.88543718  0.61207867  1
  Zr  Zr66  1  0.01716676  0.60213716  0.00426264  1
  Zr  Zr67  1  0.50012204  0.30186178  0.61241062  1
  Zr  Zr68  1  0.20106102  -0.00337714  -0.01168469  1
  Zr  Zr69  1  0.79557789  -0.00528808  0.73246023  1
  Zr  Zr70  1  -0.00180807  0.19599795  0.25280644  1
  Zr  Zr71  1  0.59812718  0.20415100  0.74985456  1
  Zr  Zr72  1  0.59438320  0.60515119  0.00279899  1
  Zr  Zr73  1  0.68301485  0.10051821  0.60832974  1
  Zr  Zr74  1  0.10527722  0.49805378  0.62216813  1
  Zr  Zr75  1  0.59305306  0.21845009  0.26546107  1
  Zr  Zr76  1  0.60911374  0.58553059  0.23797323  1
  Zr  Zr77  1  0.59013854  0.40820460  0.76181545  1
  Zr  Zr78  1  0.38084383  0.41351597  0.74305778  1
  Zr  Zr79  1  0.28776613  0.91265459  0.13842185  1
  Ta  Ta80  1  0.18443607  0.41119148  0.48137433  1
  Ta  Ta81  1  0.41339016  0.60614528  0.23887729  1
  Ta  Ta82  1  0.30422137  0.30090363  0.38318747  1
  Ta  Ta83  1  0.50460884  0.30785574  0.12711486  1
  Ta  Ta84  1  0.79958742  0.18912533  0.74937918  1
  Ta  Ta85  1  0.20298268  0.20067456  0.75529407  1
  Ta  Ta86  1  0.40315816  0.60090807  0.01865623  1
  Ta  Ta87  1  0.70596934  0.50769790  0.88877493  1
  Ta  Ta88  1  0.79966797  0.59698310  0.49569881  1
  Ta  Ta89  1  0.09133605  0.88347713  0.13928643  1
  Ta  Ta90  1  0.39308509  0.02177808  0.24345443  1
  Ta  Ta91  1  0.19548685  0.40721381  -0.00182613  1
  Ta  Ta92  1  0.88444762  0.08524533  0.87837816  1
  Ta  Ta93  1  0.88440955  0.30632987  0.12043589  1
  Ta  Ta94  1  0.70916308  0.91105461  0.11359325  1
  Ta  Ta95  1  0.89961327  0.89708090  0.87187053  1
  Ta  Ta96  1  0.69578832  0.30351416  0.11917053  1
  Ta  Ta97  1  0.39944003  0.61226195  0.49866512  1
  Ta  Ta98  1  0.79743036  0.20217668  0.48101000  1
  Ta  Ta99  1  0.39135029  0.41281153  0.00717845  1
  Ta  Ta100  1  0.32230085  0.68952239  0.87290167  1
  Ta  Ta101  1  0.10233004  0.68950251  0.36837365  1
  Ta  Ta102  1  0.60330583  0.81432610  -0.00604995  1
  Ta  Ta103  1  0.09635554  0.30031935  0.37473027  1
  Ta  Ta104  1  0.01044164  0.58560607  0.48656318  1
  Ta  Ta105  1  0.41023554  0.20782981  0.00169256  1
  Ta  Ta106  1  0.88463147  0.09135008  0.13081101  1
  Ta  Ta107  1  0.40669381  0.00341351  0.51886258  1
  Ta  Ta108  1  0.20758422  0.18814521  0.26293328  1
  Ta  Ta109  1  0.30238555  0.10596923  0.63313375  1
  Ta  Ta110  1  0.69336850  0.08865130  0.38006319  1
  Ta  Ta111  1  0.39629537  0.78755331  0.73760719  1
  Ta  Ta112  1  0.68808170  0.49986279  0.38009412  1
  Ta  Ta113  1  0.10824263  0.08600062  0.13230764  1
  Ta  Ta114  1  0.71569296  0.70735934  0.89315782  1
  Ta  Ta115  1  0.71600072  0.91160656  0.88690717  1
  Ta  Ta116  1  -0.01451656  0.58409540  0.25881440  1
  Ta  Ta117  1  0.40028370  0.20042219  0.74405497  1
  Ta  Ta118  1  0.00033644  0.40026749  0.75689901  1
  Ta  Ta119  1  -0.00259998  0.40060008  0.01072802  1
  Ti  Ti120  1  0.39367211  0.01544301  0.00277033  1
  Ti  Ti121  1  0.90473373  0.87775065  0.60663086  1
  Ti  Ti122  1  0.09185151  0.09568859  0.87168772  1
  Ti  Ti123  1  0.51045416  0.32613730  0.39228639  1
  Ti  Ti124  1  0.60068657  0.20075204  0.48775457  1
  Ti  Ti125  1  0.29378380  0.89274120  0.63450990  1
  Ti  Ti126  1  0.28783371  0.87705037  0.86105013  1
  Ti  Ti127  1  0.49204380  0.11435340  0.12826732  1
  Ti  Ti128  1  0.69390342  0.88587276  0.38697680  1
  Ti  Ti129  1  0.78811809  -0.00596695  0.25824558  1
  Ti  Ti130  1  0.01109321  0.59357417  0.74803096  1
  Ti  Ti131  1  0.82214828  0.81465708  0.00681360  1
  Ti  Ti132  1  0.39516440  0.20977819  0.25660690  1
  Ti  Ti133  1  0.89879911  0.31275406  0.37699462  1
  Ti  Ti134  1  0.50243040  0.70710623  0.88013548  1
  Ti  Ti135  1  0.10703971  0.08870523  0.36973183  1
  Ti  Ti136  1  0.50042677  0.71020142  0.12406490  1
  Ti  Ti137  1  0.18894736  0.40117765  0.76172490  1
  Ti  Ti138  1  0.29570174  0.50998190  0.59833081  1
  Ti  Ti139  1  0.20671234  0.19009253  -0.00622016  1
  Ti  Ti140  1  0.79592004  0.41560484  0.25722544  1
  Ti  Ti141  1  -0.01214078  0.39608050  0.24900158  1
  Ti  Ti142  1  0.79989043  0.40105459  0.48933122  1
  Ti  Ti143  1  0.30646046  0.49937262  0.13807791  1
  Ti  Ti144  1  0.40155555  -0.00025449  0.73622193  1
  Ti  Ti145  1  0.78654065  0.18344685  0.00621103  1
  Ti  Ti146  1  0.30743156  0.09341679  0.86541046  1
  Ti  Ti147  1  0.19843757  0.19905134  0.48805220  1
  Ti  Ti148  1  0.89414501  0.10861686  0.61462222  1
  Ti  Ti149  1  0.11349149  0.69304048  0.61648860  1
  Ti  Ti150  1  0.59784983  0.00126775  0.25054150  1
  Ti  Ti151  1  0.18638379  0.79481468  0.00482181  1
  Ti  Ti152  1  0.49725868  0.12431979  0.87767397  1
  Ti  Ti153  1  0.89646882  0.09091559  0.37452661  1
  Ti  Ti154  1  0.09935766  0.70096423  0.14886574  1
  Ti  Ti155  1  0.60823256  0.61086730  0.76335752  1
  Ti  Ti156  1  0.79086872  0.77822597  0.50708593  1
  Ti  Ti157  1  0.89808773  0.29710375  0.61579368  1
  Ti  Ti158  1  0.29715309  0.10957105  0.12395720  1
  Ti  Ti159  1  0.19998654  0.59671891  0.25601327  1
  Mo  Mo160  1  0.10234519  0.89590993  0.62476223  1
  Mo  Mo161  1  0.29800766  0.10578483  0.37749140  1
  Mo  Mo162  1  0.50251882  0.50403276  0.38970924  1
  Mo  Mo163  1  0.49588406  0.09961819  0.62432113  1
  Mo  Mo164  1  0.20876353  0.79399869  0.73833725  1
  Mo  Mo165  1  0.31098929  0.69222296  0.61761916  1
  Mo  Mo166  1  0.70374345  0.30496863  0.38372692  1
  Mo  Mo167  1  0.70422180  0.10139019  0.87322240  1
  Mo  Mo168  1  0.70942023  0.69961788  0.37292046  1
  Mo  Mo169  1  0.41234241  0.80921820  0.24076678  1
  Mo  Mo170  1  0.80796518  0.60431306  -0.00787719  1
  Mo  Mo171  1  0.19119185  0.00902691  0.24897279  1
  Mo  Mo172  1  0.10298909  0.49446086  0.87141163  1
  Mo  Mo173  1  0.49451675  0.90579322  0.63390162  1
  Mo  Mo174  1  0.89411732  0.49113568  0.37958662  1
  Mo  Mo175  1  0.90472862  0.49097063  0.12515147  1
  Mo  Mo176  1  -0.00696178  0.39483285  0.49055894  1
  Mo  Mo177  1  0.71295684  0.69108607  0.62663716  1
  Mo  Mo178  1  0.80089843  0.39431552  -0.00141105  1
  Mo  Mo179  1  0.89227758  0.89425271  0.13222520  1
  Mo  Mo180  1  0.60549504  0.40425789  0.49728385  1
  Mo  Mo181  1  0.60982607  0.60585788  0.49391279  1
  Mo  Mo182  1  0.19951069  0.60414049  0.49126154  1
  Mo  Mo183  1  0.59060408  0.20398846  0.00696236  1
  Mo  Mo184  1  0.59046919  -0.00405136  0.49370357  1
  Mo  Mo185  1  0.29061847  0.50629365  0.88046119  1
  Mo  Mo186  1  -0.00097509  0.78598384  0.25196933  1
  Mo  Mo187  1  0.60567844  0.79704931  0.49359124  1
  Mo  Mo188  1  0.19700901  0.79884376  0.25648654  1
  Mo  Mo189  1  0.91143709  0.68615216  0.61002419  1
  Mo  Mo190  1  0.80057899  0.59136057  0.25525757  1
  Mo  Mo191  1  0.39382856  0.40530658  0.49254620  1
  Mo  Mo192  1  0.41870955  0.60659125  0.74252487  1
  Mo  Mo193  1  0.00074218  0.78037099  0.51117468  1
  Mo  Mo194  1  0.01260085  0.79802067  0.00794587  1
  Mo  Mo195  1  0.48653255  0.30322620  0.87415597  1
  Mo  Mo196  1  0.61318366  0.39790534  0.25067699  1
  Mo  Mo197  1  0.09117714  0.49694975  0.36380743  1
  Mo  Mo198  1  0.79984212  0.00164057  0.00458644  1
  Mo  Mo199  1  0.49994895  0.49852791  0.12286737  1
