# generated using pymatgen
data_HfZrTaTiMo
_symmetry_space_group_name_H-M   'P 1'
_cell_length_a   15.18022971
_cell_length_b   15.18036750
_cell_length_c   16.81443352
_cell_angle_alpha   89.91886116
_cell_angle_beta   90.05782492
_cell_angle_gamma   89.99735549
_symmetry_Int_Tables_number   1
_chemical_formula_structural   HfZrTaTiMo
_chemical_formula_sum   'Hf40 Zr40 Ta40 Ti40 Mo40'
_cell_volume   3874.73684232
_cell_formula_units_Z   40
loop_
 _symmetry_equiv_pos_site_id
 _symmetry_equiv_pos_as_xyz
  1  'x, y, z'
loop_
 _atom_site_type_symbol
 _atom_site_label
 _atom_site_symmetry_multiplicity
 _atom_site_fract_x
 _atom_site_fract_y
 _atom_site_fract_z
 _atom_site_occupancy
  Hf  Hf0  1  0.29464534  0.87831488  0.10101618  1
  Hf  Hf1  1  0.49286859  0.11552103  0.36571259  1
  Hf  Hf2  1  0.10920296  0.70329201  0.37506941  1
  Hf  Hf3  1  0.01010609  0.20289800  0.49329453  1
  Hf  Hf4  1  0.58872683  0.59554120  0.00063138  1
  Hf  Hf5  1  0.11000818  0.91052470  0.64025736  1
  Hf  Hf6  1  0.69414289  0.49288675  0.86896804  1
  Hf  Hf7  1  0.90121011  0.10468660  0.88212849  1
  Hf  Hf8  1  0.20038378  0.18658912  0.23736051  1
  Hf  Hf9  1  0.90367132  0.89486225  0.62793223  1
  Hf  Hf10  1  0.38699567  0.18508225  0.50352919  1
  Hf  Hf11  1  0.48247895  0.29895830  0.64094116  1
  Hf  Hf12  1  0.40611676  0.79922823  0.74975690  1
  Hf  Hf13  1  0.49976343  0.30189582  0.86312953  1
  Hf  Hf14  1  0.39098880  -0.00686796  0.77279414  1
  Hf  Hf15  1  0.31371980  0.68483243  0.88005811  1
  Hf  Hf16  1  0.90299451  0.49069753  0.11791457  1
  Hf  Hf17  1  -0.01049733  0.02194474  0.74382261  1
  Hf  Hf18  1  0.80465182  -0.01495255  0.01562310  1
  Hf  Hf19  1  0.10717501  0.51238632  0.12255042  1
  Hf  Hf20  1  0.40954690  0.59586709  0.72862878  1
  Hf  Hf21  1  0.80782989  0.60290785  0.75758669  1
  Hf  Hf22  1  0.00465724  0.60011551  0.25285435  1
  Hf  Hf23  1  0.77983406  0.18877778  0.01022195  1
  Hf  Hf24  1  0.00255834  0.81568784  -0.00145623  1
  Hf  Hf25  1  0.70003711  0.68895261  0.36874486  1
  Hf  Hf26  1  0.39305948  0.00073121  0.24129194  1
  Hf  Hf27  1  0.00729142  0.80125190  0.50479950  1
  Hf  Hf28  1  0.70035682  0.11133137  0.38517526  1
  Hf  Hf29  1  0.49988505  0.90334853  0.12028108  1
  Hf  Hf30  1  0.09980829  0.90488509  0.37562064  1
  Hf  Hf31  1  0.80064198  0.59102258  -0.00492523  1
  Hf  Hf32  1  0.29257543  0.50808524  0.38690025  1
  Hf  Hf33  1  0.60810060  0.81765881  0.74465240  1
  Hf  Hf34  1  0.59106811  0.41360695  0.73663678  1
  Hf  Hf35  1  0.19216692  -0.01935492  0.23012717  1
  Hf  Hf36  1  0.59541171  0.19473130  0.51861752  1
  Hf  Hf37  1  0.40751448  0.59995880  0.51572170  1
  Hf  Hf38  1  0.69267433  0.69169925  0.13012853  1
  Hf  Hf39  1  0.40223218  0.41266879  -0.00733287  1
  Zr  Zr40  1  0.78787351  0.18936915  0.24780396  1
  Zr  Zr41  1  0.38288866  0.80279498  0.51298430  1
  Zr  Zr42  1  0.20910894  0.59720851  0.74495567  1
  Zr  Zr43  1  0.28227259  0.27418195  0.63822577  1
  Zr  Zr44  1  -0.00126261  0.40525282  0.49906973  1
  Zr  Zr45  1  0.30258577  0.09651669  0.10645730  1
  Zr  Zr46  1  0.81491256  0.38938682  0.74109352  1
  Zr  Zr47  1  0.41491386  0.38533553  0.26381104  1
  Zr  Zr48  1  0.19328241  0.37305295  0.49687249  1
  Zr  Zr49  1  0.50631035  0.12389225  0.12212867  1
  Zr  Zr50  1  0.49549272  0.93176185  0.61338237  1
  Zr  Zr51  1  0.80004976  0.79826472  -0.00536469  1
  Zr  Zr52  1  0.39445911  0.59793474  0.24916821  1
  Zr  Zr53  1  0.49342544  0.70697427  0.37158929  1
  Zr  Zr54  1  0.60330150  0.79997701  0.50095182  1
  Zr  Zr55  1  0.09231634  0.30528456  0.12471116  1
  Zr  Zr56  1  0.19892914  0.39730730  -0.00634143  1
  Zr  Zr57  1  0.91356903  0.48557551  0.87886208  1
  Zr  Zr58  1  0.60229171  0.40142383  0.51616913  1
  Zr  Zr59  1  0.69386926  0.70529841  0.87554158  1
  Zr  Zr60  1  0.10801444  0.12160697  0.62540806  1
  Zr  Zr61  1  0.00602974  0.81213404  0.24085654  1
  Zr  Zr62  1  0.52339524  0.50715539  0.37155214  1
  Zr  Zr63  1  0.20674531  0.40610299  0.25037435  1
  Zr  Zr64  1  0.88484291  0.29264695  0.37984438  1
  Zr  Zr65  1  0.70885088  0.90327294  0.37863556  1
  Zr  Zr66  1  0.69622150  0.08410560  0.86931197  1
  Zr  Zr67  1  0.70933299  0.51933816  0.62731614  1
  Zr  Zr68  1  0.61282050  0.01166633  0.24162221  1
  Zr  Zr69  1  0.68392858  0.29955058  0.12779163  1
  Zr  Zr70  1  0.49426849  0.91261625  0.38102508  1
  Zr  Zr71  1  0.00004605  0.60468369  0.50298671  1
  Zr  Zr72  1  0.09034394  0.91259745  0.86403050  1
  Zr  Zr73  1  0.48946537  0.70223105  0.12600136  1
  Zr  Zr74  1  0.90609497  0.69990975  0.12404692  1
  Zr  Zr75  1  0.07231584  0.30081656  0.87740343  1
  Zr  Zr76  1  0.29180338  0.48345700  0.61578012  1
  Zr  Zr77  1  0.70054682  0.28397239  0.86039971  1
  Zr  Zr78  1  0.79492188  0.58744772  0.24971546  1
  Zr  Zr79  1  0.40533069  0.38679030  0.48690858  1
  Ta  Ta80  1  0.10161697  0.50119572  0.37424196  1
  Ta  Ta81  1  0.49382711  0.31165796  0.12211310  1
  Ta  Ta82  1  -0.00349359  0.19734984  0.25087480  1
  Ta  Ta83  1  0.89437736  0.30065054  0.13243194  1
  Ta  Ta84  1  0.90260371  0.69184085  0.63741362  1
  Ta  Ta85  1  0.29319231  0.70555588  0.38121720  1
  Ta  Ta86  1  0.19046701  0.39284925  0.75843556  1
  Ta  Ta87  1  0.10341349  0.29415162  0.36105069  1
  Ta  Ta88  1  0.10191189  0.09665732  0.37185882  1
  Ta  Ta89  1  0.59916166  0.80243795  0.24956445  1
  Ta  Ta90  1  0.00155277  0.00586479  0.50526542  1
  Ta  Ta91  1  0.10054217  0.70178747  0.86373204  1
  Ta  Ta92  1  0.49048740  0.51300438  0.86919039  1
  Ta  Ta93  1  0.60243955  0.39494881  -0.00510391  1
  Ta  Ta94  1  0.18968591  -0.00841035  -0.00132727  1
  Ta  Ta95  1  0.29178911  0.89300516  0.37444236  1
  Ta  Ta96  1  0.91937340  0.28938506  0.62716298  1
  Ta  Ta97  1  0.80676483  0.78878597  0.50379197  1
  Ta  Ta98  1  0.01158979  0.60770576  -0.00608414  1
  Ta  Ta99  1  -0.00670038  0.40036611  0.26043629  1
  Ta  Ta100  1  0.29308289  0.29063791  0.87143293  1
  Ta  Ta101  1  0.80511687  0.80793113  0.75620362  1
  Ta  Ta102  1  0.80310250  0.39341299  0.51792778  1
  Ta  Ta103  1  0.80392974  0.38378552  -0.00380943  1
  Ta  Ta104  1  0.70113911  0.90379416  0.61508886  1
  Ta  Ta105  1  0.29550465  0.68899993  0.10611272  1
  Ta  Ta106  1  0.90365359  0.08476165  0.37423970  1
  Ta  Ta107  1  0.80262878  0.00151950  0.50634244  1
  Ta  Ta108  1  0.79281430  0.39561261  0.25359598  1
  Ta  Ta109  1  0.81105260  -0.01091546  0.23602933  1
  Ta  Ta110  1  0.21355254  0.81255890  0.76748983  1
  Ta  Ta111  1  0.00142498  0.00964374  0.23397941  1
  Ta  Ta112  1  0.30800802  0.29724144  0.12183800  1
  Ta  Ta113  1  0.80856987  0.17798920  0.73299928  1
  Ta  Ta114  1  0.10019810  0.71318422  0.64712410  1
  Ta  Ta115  1  0.20663312  0.59443191  -0.01067333  1
  Ta  Ta116  1  0.20756428  -0.00142837  0.50001972  1
  Ta  Ta117  1  0.60995751  0.00714437  0.01048308  1
  Ta  Ta118  1  0.40742116  -0.00099189  -0.01519381  1
  Ta  Ta119  1  0.10191246  0.50687140  0.86915918  1
  Ti  Ti120  1  0.00093197  0.01003526  0.01473547  1
  Ti  Ti121  1  0.52016525  0.90715110  0.88040899  1
  Ti  Ti122  1  0.51460793  0.70760071  0.62394724  1
  Ti  Ti123  1  0.79983790  0.80384914  0.24463446  1
  Ti  Ti124  1  0.90118854  0.10565048  0.12530756  1
  Ti  Ti125  1  0.29380931  0.89846432  0.63041273  1
  Ti  Ti126  1  0.71102557  0.48634238  0.38703280  1
  Ti  Ti127  1  0.08499232  0.50066978  0.63773273  1
  Ti  Ti128  1  0.50732464  0.10861932  0.88146557  1
  Ti  Ti129  1  0.91472727  0.70880517  0.86673146  1
  Ti  Ti130  1  0.39955946  0.20783419  -0.01044915  1
  Ti  Ti131  1  0.38349599  0.40542280  0.75763450  1
  Ti  Ti132  1  0.29364606  0.08627409  0.36853376  1
  Ti  Ti133  1  -0.01446565  0.21347226  0.00843016  1
  Ti  Ti134  1  0.40862003  0.79662776  -0.01398212  1
  Ti  Ti135  1  0.19182239  0.19631195  0.00284814  1
  Ti  Ti136  1  0.61069577  0.60624768  0.50991025  1
  Ti  Ti137  1  0.80304616  0.19500363  0.51748558  1
  Ti  Ti138  1  0.70147815  0.28684615  0.63921827  1
  Ti  Ti139  1  0.11561110  0.71484465  0.11448939  1
  Ti  Ti140  1  0.38144129  0.80018333  0.24652134  1
  Ti  Ti141  1  0.80811294  0.59846150  0.50273481  1
  Ti  Ti142  1  0.60070218  0.61356328  0.74248644  1
  Ti  Ti143  1  0.09681992  0.10591267  0.88190512  1
  Ti  Ti144  1  0.79026292  -0.00784585  0.74196152  1
  Ti  Ti145  1  0.89877358  0.70519892  0.37100937  1
  Ti  Ti146  1  0.28975486  0.09400743  0.88635260  1
  Ti  Ti147  1  0.30327054  0.08045249  0.63254151  1
  Ti  Ti148  1  0.19803363  0.61660583  0.51886856  1
  Ti  Ti149  1  0.31379970  0.49747947  0.12389573  1
  Ti  Ti150  1  0.39553973  0.18443384  0.76018716  1
  Ti  Ti151  1  0.90196579  0.89985617  0.37763926  1
  Ti  Ti152  1  0.18996692  0.18811889  0.76461252  1
  Ti  Ti153  1  0.50672186  0.70286592  0.87271270  1
  Ti  Ti154  1  0.59520489  0.01705306  0.74190698  1
  Ti  Ti155  1  0.20438432  0.61239649  0.24620705  1
  Ti  Ti156  1  0.52223038  0.49693243  0.13708688  1
  Ti  Ti157  1  0.89820191  0.50179686  0.37749936  1
  Ti  Ti158  1  0.60666829  0.81251853  0.00109931  1
  Ti  Ti159  1  0.30379319  0.27602166  0.36597752  1
  Mo  Mo160  1  0.59651930  0.19448715  0.73582248  1
  Mo  Mo161  1  0.09237462  0.10581910  0.11224502  1
  Mo  Mo162  1  0.71229371  0.71377120  0.62688135  1
  Mo  Mo163  1  0.20152116  0.18361001  0.48480856  1
  Mo  Mo164  1  0.90363153  0.90131528  0.12860672  1
  Mo  Mo165  1  0.20671930  0.00928135  0.76242233  1
  Mo  Mo166  1  0.10169381  0.90045790  0.11279767  1
  Mo  Mo167  1  0.59905892  0.01032658  0.50006915  1
  Mo  Mo168  1  0.60312256  0.59748241  0.24589723  1
  Mo  Mo169  1  0.20890483  0.78933655  0.24370170  1
  Mo  Mo170  1  0.69898766  0.09647359  0.12706817  1
  Mo  Mo171  1  0.90339913  0.49928326  0.62506341  1
  Mo  Mo172  1  0.38878550  0.00644369  0.49389164  1
  Mo  Mo173  1  0.29097460  0.71274939  0.63227331  1
  Mo  Mo174  1  0.69977234  0.49001741  0.11597973  1
  Mo  Mo175  1  0.69797950  0.90589414  0.87300086  1
  Mo  Mo176  1  0.69464183  0.08930083  0.62223220  1
  Mo  Mo177  1  -0.00674596  0.40560851  0.00409235  1
  Mo  Mo178  1  0.88996299  0.90685427  0.86486184  1
  Mo  Mo179  1  0.51539466  0.29438836  0.37931233  1
  Mo  Mo180  1  0.89804646  0.09756229  0.61582718  1
  Mo  Mo181  1  0.40260678  0.59441055  0.00298737  1
  Mo  Mo182  1  0.19528112  0.79034752  -0.02187153  1
  Mo  Mo183  1  0.00141174  0.60184581  0.75127860  1
  Mo  Mo184  1  0.19553112  0.80007026  0.50911643  1
  Mo  Mo185  1  0.50129367  0.50591734  0.62386226  1
  Mo  Mo186  1  0.69709983  0.88933323  0.13261741  1
  Mo  Mo187  1  0.58968415  0.22481984  0.25897379  1
  Mo  Mo188  1  0.30394138  0.89484478  0.89422185  1
  Mo  Mo189  1  0.30090110  0.49024921  0.86798466  1
  Mo  Mo190  1  0.58637677  0.20394742  -0.00462551  1
  Mo  Mo191  1  0.69758290  0.30570696  0.38694153  1
  Mo  Mo192  1  0.10211883  0.30852422  0.63717716  1
  Mo  Mo193  1  0.39301023  0.20286903  0.24652167  1
  Mo  Mo194  1  0.00307541  0.40345012  0.74275343  1
  Mo  Mo195  1  0.88977608  0.28914186  0.87568434  1
  Mo  Mo196  1  -0.00318110  0.80248263  0.75337101  1
  Mo  Mo197  1  0.48596286  0.10679931  0.63639116  1
  Mo  Mo198  1  0.61542360  0.40589845  0.25606132  1
  Mo  Mo199  1  -0.00708685  0.20866627  0.75301832  1
