# generated using pymatgen
data_HfZrTaTiMo
_symmetry_space_group_name_H-M   'P 1'
_cell_length_a   15.19134577
_cell_length_b   15.17384745
_cell_length_c   16.81052855
_cell_angle_alpha   89.97424698
_cell_angle_beta   90.01166205
_cell_angle_gamma   89.87392127
_symmetry_Int_Tables_number   1
_chemical_formula_structural   HfZrTaTiMo
_chemical_formula_sum   'Hf40 Zr40 Ta40 Ti40 Mo40'
_cell_volume   3875.00463596
_cell_formula_units_Z   40
loop_
 _symmetry_equiv_pos_site_id
 _symmetry_equiv_pos_as_xyz
  1  'x, y, z'
loop_
 _atom_site_type_symbol
 _atom_site_label
 _atom_site_symmetry_multiplicity
 _atom_site_fract_x
 _atom_site_fract_y
 _atom_site_fract_z
 _atom_site_occupancy
  Hf  Hf0  1  0.48626330  0.49925062  0.38699495  1
  Hf  Hf1  1  0.18721326  0.59872662  0.50109960  1
  Hf  Hf2  1  0.59154597  0.59925868  0.25474872  1
  Hf  Hf3  1  0.29503128  0.29126870  0.12454419  1
  Hf  Hf4  1  0.30249768  0.69436732  0.37922143  1
  Hf  Hf5  1  0.39793936  0.39645840  0.74396504  1
  Hf  Hf6  1  0.49893934  0.50144445  0.88642193  1
  Hf  Hf7  1  0.50760211  0.29704365  0.37160300  1
  Hf  Hf8  1  -0.00756343  0.58751055  0.25468029  1
  Hf  Hf9  1  -0.01385546  0.59914804  0.01230149  1
  Hf  Hf10  1  0.18661615  0.39499189  -0.00178681  1
  Hf  Hf11  1  0.50505629  0.11244956  0.12932002  1
  Hf  Hf12  1  0.30631843  0.69913564  0.61655235  1
  Hf  Hf13  1  0.71748005  0.10843438  0.13371770  1
  Hf  Hf14  1  0.49515276  0.69599560  0.88835661  1
  Hf  Hf15  1  0.80921469  0.41117748  0.00771634  1
  Hf  Hf16  1  0.30197901  0.10526079  0.63105480  1
  Hf  Hf17  1  0.79404633  0.60934095  0.49730534  1
  Hf  Hf18  1  0.69508944  0.73133047  0.62714245  1
  Hf  Hf19  1  0.29212098  0.50225716  0.88491557  1
  Hf  Hf20  1  0.19591002  0.00551734  0.75878332  1
  Hf  Hf21  1  0.38790628  0.59858260  0.74827737  1
  Hf  Hf22  1  0.12470829  0.09091113  0.11232432  1
  Hf  Hf23  1  0.70747828  0.11128443  0.35477495  1
  Hf  Hf24  1  0.22469824  0.18936837  -0.01695267  1
  Hf  Hf25  1  0.61354213  0.79035520  0.01536880  1
  Hf  Hf26  1  0.40942202  0.17831535  0.49583894  1
  Hf  Hf27  1  0.49841309  0.30149694  0.88910176  1
  Hf  Hf28  1  0.00808746  0.19127482  0.74127050  1
  Hf  Hf29  1  0.61722554  -0.00474732  0.01769816  1
  Hf  Hf30  1  0.39303279  0.58294354  0.24106701  1
  Hf  Hf31  1  0.20071244  0.81400919  0.49133486  1
  Hf  Hf32  1  0.61233111  0.39749717  0.50550576  1
  Hf  Hf33  1  0.80522846  0.21321807  0.50634543  1
  Hf  Hf34  1  0.20984522  -0.02528836  -0.01884745  1
  Hf  Hf35  1  0.59714472  -0.00452225  0.49503551  1
  Hf  Hf36  1  0.49886639  0.28340123  0.62632827  1
  Hf  Hf37  1  0.08760353  0.48560701  0.12882084  1
  Hf  Hf38  1  0.18934483  0.80088712  0.74934542  1
  Hf  Hf39  1  0.51702347  0.88308571  0.63539022  1
  Zr  Zr40  1  0.50585666  0.89365911  0.87696249  1
  Zr  Zr41  1  0.70294704  0.70078540  0.86590864  1
  Zr  Zr42  1  0.28591185  0.48829000  0.37799859  1
  Zr  Zr43  1  0.49509404  0.88936540  0.12849530  1
  Zr  Zr44  1  0.78730553  0.61493829  0.00902615  1
  Zr  Zr45  1  0.11100576  0.70316995  0.13343507  1
  Zr  Zr46  1  0.07357623  0.71478328  0.61417234  1
  Zr  Zr47  1  0.70512240  0.30013721  0.87931237  1
  Zr  Zr48  1  0.89746161  0.71607280  0.15004754  1
  Zr  Zr49  1  0.30829088  0.90104961  0.63401444  1
  Zr  Zr50  1  0.09821037  0.30030034  0.86714896  1
  Zr  Zr51  1  0.37131924  0.79664013  0.00366251  1
  Zr  Zr52  1  0.80215426  0.40852670  0.74221683  1
  Zr  Zr53  1  0.38625229  0.38232700  0.50946283  1
  Zr  Zr54  1  0.61070618  0.19264498  0.50112998  1
  Zr  Zr55  1  0.71228279  0.90122308  0.87453157  1
  Zr  Zr56  1  0.70181006  0.49440539  0.37186007  1
  Zr  Zr57  1  0.50785727  0.09171244  0.35364054  1
  Zr  Zr58  1  0.39384112  0.00933337  0.00476765  1
  Zr  Zr59  1  0.37984539  -0.00553940  0.23283057  1
  Zr  Zr60  1  0.51305269  0.09878940  0.88308536  1
  Zr  Zr61  1  0.09098471  0.29851827  0.36626414  1
  Zr  Zr62  1  0.69698943  0.50790792  0.13766340  1
  Zr  Zr63  1  0.90170654  0.88118736  0.60616641  1
  Zr  Zr64  1  0.82217967  -0.00936877  0.01573513  1
  Zr  Zr65  1  0.08403897  0.89796014  0.12186392  1
  Zr  Zr66  1  0.82725770  0.21940023  0.24315307  1
  Zr  Zr67  1  0.20099272  0.17821140  0.25378217  1
  Zr  Zr68  1  0.58750887  0.61999712  0.50266048  1
  Zr  Zr69  1  0.90251125  0.10211669  0.88102523  1
  Zr  Zr70  1  0.17771143  0.59772994  0.74064577  1
  Zr  Zr71  1  0.58831275  0.61005633  0.73722687  1
  Zr  Zr72  1  0.59823579  0.40244729  0.74326606  1
  Zr  Zr73  1  0.20269462  0.39918352  0.74955403  1
  Zr  Zr74  1  0.79321136  0.00653711  0.49305906  1
  Zr  Zr75  1  0.49340474  0.31060016  0.10968593  1
  Zr  Zr76  1  -0.00305056  0.41813556  0.72962421  1
  Zr  Zr77  1  0.30007083  0.07682522  0.37517305  1
  Zr  Zr78  1  0.80788888  0.20145671  0.74293828  1
  Zr  Zr79  1  0.20950638  0.20354314  0.49648509  1
  Ta  Ta80  1  0.00665958  0.20539330  0.51356569  1
  Ta  Ta81  1  0.29095725  0.49388309  0.61533049  1
  Ta  Ta82  1  0.89467314  0.51921933  0.87167297  1
  Ta  Ta83  1  0.82049316  0.79654317  0.74771037  1
  Ta  Ta84  1  0.69981772  0.09373812  0.63189609  1
  Ta  Ta85  1  0.60168918  0.19200968  0.75040598  1
  Ta  Ta86  1  0.08127765  0.50607715  0.88011342  1
  Ta  Ta87  1  0.79015066  0.80731242  0.47858554  1
  Ta  Ta88  1  0.93104400  0.10670545  0.11796339  1
  Ta  Ta89  1  0.09464822  0.08990528  0.38518726  1
  Ta  Ta90  1  0.09639035  0.09128328  0.88297064  1
  Ta  Ta91  1  0.70050419  0.50969893  0.61951451  1
  Ta  Ta92  1  0.09115909  0.28658750  0.13207036  1
  Ta  Ta93  1  0.11059590  0.29392174  0.63020067  1
  Ta  Ta94  1  0.89804155  0.70241461  0.36915912  1
  Ta  Ta95  1  -0.01011333  0.80420758  -0.00087714  1
  Ta  Ta96  1  0.61665429  -0.01028691  0.23885643  1
  Ta  Ta97  1  -0.01017914  0.58885015  0.49669184  1
  Ta  Ta98  1  0.70805329  0.09876168  0.87682672  1
  Ta  Ta99  1  0.40362646  0.20967714  0.24895638  1
  Ta  Ta100  1  0.49601415  0.68621675  0.12216640  1
  Ta  Ta101  1  0.82210326  0.00238706  0.24769470  1
  Ta  Ta102  1  0.91194099  0.11413498  0.38030580  1
  Ta  Ta103  1  0.07657396  0.69792713  0.87477624  1
  Ta  Ta104  1  0.57975461  0.39727050  0.24346385  1
  Ta  Ta105  1  0.29562323  0.49604920  0.11825222  1
  Ta  Ta106  1  0.80919005  -0.00522161  0.74162531  1
  Ta  Ta107  1  0.39907481  0.19717340  0.76118737  1
  Ta  Ta108  1  0.01135359  0.01158383  0.25444266  1
  Ta  Ta109  1  0.17740806  0.39745851  0.50803125  1
  Ta  Ta110  1  0.91289587  0.91133313  0.38245831  1
  Ta  Ta111  1  0.69477584  0.70860763  0.36225450  1
  Ta  Ta112  1  0.40261959  -0.02124300  0.49903158  1
  Ta  Ta113  1  0.49142446  0.89383818  0.35946478  1
  Ta  Ta114  1  0.90795378  0.31654857  0.88028457  1
  Ta  Ta115  1  0.60459744  0.41473308  0.00770250  1
  Ta  Ta116  1  0.91416461  0.08812320  0.61752596  1
  Ta  Ta117  1  0.49192486  0.70465670  0.36743773  1
  Ta  Ta118  1  0.69692725  0.50577169  0.87767533  1
  Ta  Ta119  1  0.09295467  0.91845297  0.61652583  1
  Ti  Ti120  1  0.50105951  0.08435802  0.63516958  1
  Ti  Ti121  1  0.20046636  0.40039249  0.24550091  1
  Ti  Ti122  1  0.59375697  0.80198662  0.24849085  1
  Ti  Ti123  1  0.19431973  0.61002495  0.00237082  1
  Ti  Ti124  1  0.00965091  0.20993703  -0.00342982  1
  Ti  Ti125  1  0.00021846  -0.01126188  0.74903804  1
  Ti  Ti126  1  0.90393985  0.31007514  0.38070871  1
  Ti  Ti127  1  0.91542638  0.31568531  0.11976161  1
  Ti  Ti128  1  0.48897844  0.51000178  0.61087939  1
  Ti  Ti129  1  0.69924669  0.30448081  0.13223359  1
  Ti  Ti130  1  0.81977258  0.40792630  0.51744901  1
  Ti  Ti131  1  0.09339467  0.89026933  0.87621838  1
  Ti  Ti132  1  0.61513373  0.20303017  0.00393596  1
  Ti  Ti133  1  0.20211712  0.00349999  0.50473308  1
  Ti  Ti134  1  0.81560270  0.41748965  0.24342566  1
  Ti  Ti135  1  0.70707848  0.30638408  0.35930543  1
  Ti  Ti136  1  0.40294307  -0.00153533  0.76273359  1
  Ti  Ti137  1  0.70079891  0.70688605  0.14882806  1
  Ti  Ti138  1  0.81099078  0.20731740  0.00651972  1
  Ti  Ti139  1  0.27045264  0.88172044  0.13035797  1
  Ti  Ti140  1  0.90024529  0.49376277  0.37856409  1
  Ti  Ti141  1  0.79634506  0.81928417  0.26564218  1
  Ti  Ti142  1  0.40613007  0.79384860  0.75704703  1
  Ti  Ti143  1  0.19859372  0.60242201  0.25131627  1
  Ti  Ti144  1  0.61168126  -0.00536289  0.75056017  1
  Ti  Ti145  1  0.70436899  0.29998352  0.63023955  1
  Ti  Ti146  1  0.01049053  0.81643470  0.26848252  1
  Ti  Ti147  1  0.28285019  0.70453647  0.87502314  1
  Ti  Ti148  1  0.79783465  0.60320222  0.73784564  1
  Ti  Ti149  1  0.21186591  0.20044903  0.76146046  1
  Ti  Ti150  1  0.80731080  0.80278272  0.01213384  1
  Ti  Ti151  1  0.60187159  0.81159248  0.48312682  1
  Ti  Ti152  1  0.08896798  0.49035789  0.37274081  1
  Ti  Ti153  1  0.09355220  0.70098968  0.37569340  1
  Ti  Ti154  1  0.90975667  0.89340684  0.87291387  1
  Ti  Ti155  1  0.38294637  0.78600557  0.24129971  1
  Ti  Ti156  1  0.41440273  0.79223811  0.49815313  1
  Ti  Ti157  1  -0.02237727  0.62284662  0.74229242  1
  Ti  Ti158  1  0.30161186  0.29952666  0.36515288  1
  Ti  Ti159  1  0.39448746  0.59338338  0.01242029  1
  Mo  Mo160  1  0.00514527  0.00379694  0.49740161  1
  Mo  Mo161  1  0.09485638  0.50529651  0.61874595  1
  Mo  Mo162  1  0.59530435  0.60164934  0.00820925  1
  Mo  Mo163  1  0.30956533  0.30204441  0.87773442  1
  Mo  Mo164  1  0.89809908  0.70583408  0.87729785  1
  Mo  Mo165  1  0.00311234  0.19320797  0.24745223  1
  Mo  Mo166  1  0.79857557  0.60761241  0.26597644  1
  Mo  Mo167  1  -0.00528056  0.40068068  -0.00427098  1
  Mo  Mo168  1  0.30203071  0.88798294  0.85809580  1
  Mo  Mo169  1  0.31175081  0.88569143  0.37590780  1
  Mo  Mo170  1  0.88813819  0.69915198  0.61249980  1
  Mo  Mo171  1  0.29448394  0.69176739  0.12769186  1
  Mo  Mo172  1  0.30482738  0.09441450  0.12391534  1
  Mo  Mo173  1  -0.00304701  0.80937155  0.75046640  1
  Mo  Mo174  1  0.10459080  0.09746232  0.62363228  1
  Mo  Mo175  1  -0.00223885  0.79431397  0.47764467  1
  Mo  Mo176  1  0.18512972  0.78488087  -0.01207411  1
  Mo  Mo177  1  -0.00487531  0.39820021  0.51093940  1
  Mo  Mo178  1  0.10762999  0.90562384  0.38014717  1
  Mo  Mo179  1  0.49267945  0.70522658  0.62559746  1
  Mo  Mo180  1  0.38942148  0.39392288  0.24985636  1
  Mo  Mo181  1  0.19017622  -0.02298365  0.25455863  1
  Mo  Mo182  1  0.70621333  0.90972194  0.62775126  1
  Mo  Mo183  1  0.69585484  0.90645001  0.36078820  1
  Mo  Mo184  1  0.30656320  0.09523324  0.86106637  1
  Mo  Mo185  1  0.89605473  0.51661879  0.62061174  1
  Mo  Mo186  1  0.19968243  0.79795307  0.26556001  1
  Mo  Mo187  1  0.40534815  0.20100224  -0.00787251  1
  Mo  Mo188  1  0.71429242  0.89060070  0.14164511  1
  Mo  Mo189  1  -0.00686017  0.38907181  0.25256282  1
  Mo  Mo190  1  0.90524879  0.90430511  0.13925828  1
  Mo  Mo191  1  0.00701128  -0.00054629  -0.00767518  1
  Mo  Mo192  1  0.60872097  0.21021011  0.24115973  1
  Mo  Mo193  1  0.38615673  0.40101102  -0.00364355  1
  Mo  Mo194  1  0.49172421  0.49841622  0.11583683  1
  Mo  Mo195  1  0.89713356  0.50290723  0.13313461  1
  Mo  Mo196  1  0.90465382  0.29728774  0.62036548  1
  Mo  Mo197  1  0.39478830  0.59994505  0.50451566  1
  Mo  Mo198  1  0.30013418  0.29448825  0.62841284  1
  Mo  Mo199  1  0.60423007  0.80500312  0.75728191  1
