# generated using pymatgen
data_HfZrTaTiMo
_symmetry_space_group_name_H-M   'P 1'
_cell_length_a   15.20219726
_cell_length_b   15.21194106
_cell_length_c   16.84351709
_cell_angle_alpha   90.00040332
_cell_angle_beta   89.91092885
_cell_angle_gamma   89.98025729
_symmetry_Int_Tables_number   1
_chemical_formula_structural   HfZrTaTiMo
_chemical_formula_sum   'Hf40 Zr40 Ta40 Ti40 Mo40'
_cell_volume   3895.14140670
_cell_formula_units_Z   40
loop_
 _symmetry_equiv_pos_site_id
 _symmetry_equiv_pos_as_xyz
  1  'x, y, z'
loop_
 _atom_site_type_symbol
 _atom_site_label
 _atom_site_symmetry_multiplicity
 _atom_site_fract_x
 _atom_site_fract_y
 _atom_site_fract_z
 _atom_site_occupancy
  Hf  Hf0  1  0.70309835  0.90139504  0.38931983  1
  Hf  Hf1  1  0.19455085  -0.00293063  0.50427170  1
  Hf  Hf2  1  0.69232784  0.51599001  0.88846130  1
  Hf  Hf3  1  0.90166679  0.69766714  0.61587189  1
  Hf  Hf4  1  0.19391264  0.59986781  0.48228164  1
  Hf  Hf5  1  0.78935531  0.60291632  0.74653849  1
  Hf  Hf6  1  0.00373887  0.22037030  0.50632904  1
  Hf  Hf7  1  0.09513854  0.92812922  0.86282828  1
  Hf  Hf8  1  -0.00090930  0.79538333  0.75570378  1
  Hf  Hf9  1  0.90757859  0.09884370  0.13936464  1
  Hf  Hf10  1  0.10621224  0.69895211  0.61983222  1
  Hf  Hf11  1  0.39395537  0.59130873  0.50027475  1
  Hf  Hf12  1  0.10111843  0.90278496  0.63532042  1
  Hf  Hf13  1  -0.00478644  0.01131382  0.51663401  1
  Hf  Hf14  1  0.11505185  0.70009446  0.11531448  1
  Hf  Hf15  1  0.21042062  0.80490108  0.77017816  1
  Hf  Hf16  1  0.29401986  0.30840298  0.36616108  1
  Hf  Hf17  1  0.32748116  0.69444239  0.36319019  1
  Hf  Hf18  1  0.21288999  0.20488978  0.50215642  1
  Hf  Hf19  1  0.49064451  0.47128748  0.87803304  1
  Hf  Hf20  1  0.60354057  0.00227719  0.74680124  1
  Hf  Hf21  1  0.49476137  0.28995056  0.35525863  1
  Hf  Hf22  1  0.49689872  0.89431354  0.62475766  1
  Hf  Hf23  1  0.89048194  0.28996691  0.86191527  1
  Hf  Hf24  1  0.60606700  -0.00513183  0.00804612  1
  Hf  Hf25  1  0.19305377  -0.00516244  0.24396431  1
  Hf  Hf26  1  0.90354259  0.70617893  0.12369645  1
  Hf  Hf27  1  -0.00501210  0.59962389  0.76418662  1
  Hf  Hf28  1  0.39425878  0.78149311  -0.01047074  1
  Hf  Hf29  1  0.58939440  0.39411928  0.02368910  1
  Hf  Hf30  1  0.70105410  0.49705085  0.36911145  1
  Hf  Hf31  1  0.49619531  0.89751216  0.87814370  1
  Hf  Hf32  1  -0.00380894  0.39494227  -0.01049366  1
  Hf  Hf33  1  0.10364150  0.10251572  0.37138788  1
  Hf  Hf34  1  0.81212627  -0.00434306  0.00902348  1
  Hf  Hf35  1  0.71877964  0.10250699  0.87783079  1
  Hf  Hf36  1  0.69567172  0.70217643  0.60872777  1
  Hf  Hf37  1  0.22660839  0.20076416  0.22503833  1
  Hf  Hf38  1  0.68591098  0.30305095  0.87736745  1
  Hf  Hf39  1  0.20424493  0.19512722  -0.00681039  1
  Zr  Zr40  1  0.40167929  0.00771375  0.50515424  1
  Zr  Zr41  1  0.38382849  0.58925168  0.76089993  1
  Zr  Zr42  1  0.39042361  -0.00431174  0.75346218  1
  Zr  Zr43  1  0.59008407  0.59904850  0.48700985  1
  Zr  Zr44  1  0.49506705  0.69315379  0.63223924  1
  Zr  Zr45  1  -0.00584572  0.81302918  -0.00875871  1
  Zr  Zr46  1  0.31602245  0.10799496  0.37039456  1
  Zr  Zr47  1  0.59720556  0.00612326  0.24292579  1
  Zr  Zr48  1  0.11522036  0.50708869  0.88558327  1
  Zr  Zr49  1  0.70569432  0.29111046  0.62483352  1
  Zr  Zr50  1  0.59270261  0.39109204  0.49292475  1
  Zr  Zr51  1  0.39934388  -0.00266183  0.23206256  1
  Zr  Zr52  1  0.28052372  0.50038478  0.62682399  1
  Zr  Zr53  1  0.00839078  0.60404242  0.24932743  1
  Zr  Zr54  1  0.08473039  0.49800991  0.62179991  1
  Zr  Zr55  1  0.51087587  0.10824632  0.88694589  1
  Zr  Zr56  1  0.88942143  0.91079190  0.85777931  1
  Zr  Zr57  1  0.69820909  0.71017816  0.11940521  1
  Zr  Zr58  1  0.10185374  0.09318990  0.12227054  1
  Zr  Zr59  1  0.01840083  0.21448865  0.25322220  1
  Zr  Zr60  1  0.29096230  0.87708515  0.12158541  1
  Zr  Zr61  1  0.60405088  0.78696820  0.75891832  1
  Zr  Zr62  1  0.00576417  0.39651197  0.76285921  1
  Zr  Zr63  1  0.19423928  0.78772509  0.25781152  1
  Zr  Zr64  1  0.30224256  0.89984798  0.37238336  1
  Zr  Zr65  1  0.18110983  0.39570054  0.23479651  1
  Zr  Zr66  1  0.21014997  0.58175265  0.25796060  1
  Zr  Zr67  1  0.70147398  0.89916124  0.61464363  1
  Zr  Zr68  1  0.90357208  0.90019272  0.36966250  1
  Zr  Zr69  1  0.79488111  0.40128874  0.00852401  1
  Zr  Zr70  1  0.89765536  0.10069413  0.36817354  1
  Zr  Zr71  1  0.38408550  0.40160052  0.22256074  1
  Zr  Zr72  1  0.90488828  0.31239771  0.37029629  1
  Zr  Zr73  1  0.48868411  0.47836485  0.63160410  1
  Zr  Zr74  1  0.87356637  0.69730849  0.88546173  1
  Zr  Zr75  1  0.69643878  0.11181419  0.12368995  1
  Zr  Zr76  1  0.29850581  0.11086528  0.63359460  1
  Zr  Zr77  1  0.90742962  0.50753011  0.38058318  1
  Zr  Zr78  1  0.41204125  0.21352874  0.76216748  1
  Zr  Zr79  1  0.58844410  0.61401862  0.25230290  1
  Ta  Ta80  1  -0.00217327  0.60337723  -0.00673357  1
  Ta  Ta81  1  0.29708622  0.89112032  0.62495080  1
  Ta  Ta82  1  0.40337121  0.79563573  0.50047377  1
  Ta  Ta83  1  0.11812067  0.29895315  0.63797335  1
  Ta  Ta84  1  0.89206797  0.70857931  0.38210058  1
  Ta  Ta85  1  0.79979930  0.60992761  0.25186852  1
  Ta  Ta86  1  0.50441741  0.67741014  0.87686293  1
  Ta  Ta87  1  0.29630951  0.70716498  0.62545011  1
  Ta  Ta88  1  0.47569469  0.49824536  0.36025621  1
  Ta  Ta89  1  0.09520161  0.30144123  0.10757036  1
  Ta  Ta90  1  0.50030568  0.89228696  0.37680004  1
  Ta  Ta91  1  0.89831387  0.50742830  0.12066749  1
  Ta  Ta92  1  0.50775958  0.09902675  0.37398802  1
  Ta  Ta93  1  0.01955325  0.18918412  0.74951001  1
  Ta  Ta94  1  0.80925938  0.20095376  0.00485208  1
  Ta  Ta95  1  0.41171638  0.20333252  0.01362013  1
  Ta  Ta96  1  0.80582111  0.39511915  0.50372137  1
  Ta  Ta97  1  0.79155659  -0.01127971  0.24420252  1
  Ta  Ta98  1  0.59759301  0.40466061  0.23978089  1
  Ta  Ta99  1  0.60787597  0.81037377  0.25224763  1
  Ta  Ta100  1  0.70180683  0.89779787  0.87258157  1
  Ta  Ta101  1  0.31788508  0.31447158  0.89399710  1
  Ta  Ta102  1  0.69775654  0.49687306  0.62117158  1
  Ta  Ta103  1  0.00287936  0.80372853  0.50238096  1
  Ta  Ta104  1  0.61507515  0.19692953  0.74531553  1
  Ta  Ta105  1  0.91506411  0.09572434  0.86263719  1
  Ta  Ta106  1  0.50700050  0.88171677  0.11778050  1
  Ta  Ta107  1  0.51026751  0.11369008  0.62173772  1
  Ta  Ta108  1  -0.00098676  0.19720145  -0.00982746  1
  Ta  Ta109  1  0.39007010  0.38927810  0.49288644  1
  Ta  Ta110  1  0.90119514  0.30060669  0.12859887  1
  Ta  Ta111  1  0.79935505  0.01346193  0.51006448  1
  Ta  Ta112  1  0.70079242  0.29772489  0.36567737  1
  Ta  Ta113  1  0.79955748  0.59623526  0.49876792  1
  Ta  Ta114  1  0.19574853  0.79858620  -0.02404655  1
  Ta  Ta115  1  0.59958729  0.58438547  0.75126001  1
  Ta  Ta116  1  0.00168863  0.00705955  -0.00016029  1
  Ta  Ta117  1  0.31280623  0.30987456  0.62969311  1
  Ta  Ta118  1  0.39447544  -0.00321408  0.00795029  1
  Ta  Ta119  1  0.79726876  0.20302962  0.25129915  1
  Ti  Ti120  1  0.19472187  0.61102696  0.76188934  1
  Ti  Ti121  1  0.70460456  0.30050567  0.13796558  1
  Ti  Ti122  1  0.88663287  0.49887025  0.88107462  1
  Ti  Ti123  1  0.19753348  -0.00845849  -0.00001580  1
  Ti  Ti124  1  0.29835002  0.08933520  0.88006875  1
  Ti  Ti125  1  0.80187709  0.40820354  0.24225319  1
  Ti  Ti126  1  -0.00323367  0.40950619  0.23704504  1
  Ti  Ti127  1  0.70014951  0.10328866  0.37205131  1
  Ti  Ti128  1  0.79825154  0.01522142  0.73408019  1
  Ti  Ti129  1  0.59953608  0.79432232  -0.00834655  1
  Ti  Ti130  1  0.78592002  0.40474909  0.74834753  1
  Ti  Ti131  1  0.08478155  0.89249474  0.12717514  1
  Ti  Ti132  1  0.60062305  0.00571655  0.50090096  1
  Ti  Ti133  1  0.09172906  0.89668514  0.37218462  1
  Ti  Ti134  1  0.58508492  0.38529554  0.74636719  1
  Ti  Ti135  1  0.20357238  0.40053129  0.00223683  1
  Ti  Ti136  1  0.21677480  0.40392996  0.76858511  1
  Ti  Ti137  1  0.18647845  0.02524751  0.74606540  1
  Ti  Ti138  1  0.09321707  0.47602461  0.38384766  1
  Ti  Ti139  1  0.89488615  0.89810255  0.62722305  1
  Ti  Ti140  1  0.20811248  0.21536434  0.77263075  1
  Ti  Ti141  1  0.20428041  0.79823048  0.49153103  1
  Ti  Ti142  1  0.09840147  0.50558539  0.10616333  1
  Ti  Ti143  1  0.60132821  0.19606452  0.49566277  1
  Ti  Ti144  1  0.89786809  0.89459517  0.14295534  1
  Ti  Ti145  1  0.78837442  0.80685296  -0.00073655  1
  Ti  Ti146  1  0.70148373  0.50926467  0.12982645  1
  Ti  Ti147  1  0.50935789  0.28146208  0.13953918  1
  Ti  Ti148  1  0.70191770  0.71108570  0.38458383  1
  Ti  Ti149  1  0.40004631  0.40567078  0.02582855  1
  Ti  Ti150  1  0.79806150  0.20099595  0.49493911  1
  Ti  Ti151  1  0.79260414  0.79980007  0.74850380  1
  Ti  Ti152  1  0.89301250  0.49753619  0.61976868  1
  Ti  Ti153  1  0.32220484  0.67953242  0.12930560  1
  Ti  Ti154  1  0.19071737  0.39407513  0.49860620  1
  Ti  Ti155  1  0.90841307  0.30981858  0.63729099  1
  Ti  Ti156  1  0.58498643  0.59966787  0.01380894  1
  Ti  Ti157  1  0.39596755  0.79195489  0.76439235  1
  Ti  Ti158  1  0.89358486  0.11936845  0.63441396  1
  Ti  Ti159  1  0.08188577  0.70155582  0.38118355  1
  Mo  Mo160  1  0.60500103  0.20265474  0.25569035  1
  Mo  Mo161  1  0.40517681  0.59012476  -0.00221298  1
  Mo  Mo162  1  0.50717225  0.70766642  0.37687453  1
  Mo  Mo163  1  0.70251790  0.10140046  0.61674718  1
  Mo  Mo164  1  0.42339947  0.78878066  0.24220077  1
  Mo  Mo165  1  0.10151826  0.11405422  0.62484920  1
  Mo  Mo166  1  0.41650877  0.21035744  0.50077569  1
  Mo  Mo167  1  0.68775851  0.70154689  0.88741320  1
  Mo  Mo168  1  0.10849704  0.29790355  0.87731207  1
  Mo  Mo169  1  0.49968674  0.29159480  0.62015882  1
  Mo  Mo170  1  0.38994329  0.38967521  0.75675205  1
  Mo  Mo171  1  0.79895921  0.59929014  0.01073006  1
  Mo  Mo172  1  0.40335993  0.59403573  0.24391405  1
  Mo  Mo173  1  0.00099085  0.79964527  0.25136144  1
  Mo  Mo174  1  0.70709746  0.89713872  0.12534324  1
  Mo  Mo175  1  0.30062931  0.90715135  0.88283920  1
  Mo  Mo176  1  0.49796962  0.70533342  0.11983170  1
  Mo  Mo177  1  0.80786747  0.80248749  0.50078194  1
  Mo  Mo178  1  0.59275117  0.80496463  0.49308105  1
  Mo  Mo179  1  0.30323170  0.09053421  0.10699004  1
  Mo  Mo180  1  0.29869819  0.29830319  0.10263823  1
  Mo  Mo181  1  0.50011521  0.09634974  0.11468987  1
  Mo  Mo182  1  0.20977938  0.61069306  0.00094511  1
  Mo  Mo183  1  0.50534744  0.29454550  0.88799478  1
  Mo  Mo184  1  -0.00388310  0.60293563  0.49423653  1
  Mo  Mo185  1  0.79409757  0.79471079  0.25457269  1
  Mo  Mo186  1  0.10281858  0.10457528  0.87707243  1
  Mo  Mo187  1  0.80701606  0.20164320  0.74806737  1
  Mo  Mo188  1  0.29442010  0.49228270  0.37783980  1
  Mo  Mo189  1  -0.00581079  0.00851414  0.72820884  1
  Mo  Mo190  1  0.28840845  0.50672876  0.10469958  1
  Mo  Mo191  1  0.09372473  0.70371328  0.88029770  1
  Mo  Mo192  1  0.29749388  0.69055562  0.87762800  1
  Mo  Mo193  1  0.49533012  0.50980643  0.13291503  1
  Mo  Mo194  1  0.61139820  0.20624469  0.00857893  1
  Mo  Mo195  1  0.00017328  0.39890738  0.51255502  1
  Mo  Mo196  1  0.00208639  -0.01038363  0.24884469  1
  Mo  Mo197  1  0.10302170  0.30185865  0.37560701  1
  Mo  Mo198  1  0.41021740  0.18830817  0.22701469  1
  Mo  Mo199  1  0.30357317  0.49891995  0.89791231  1
