# generated using pymatgen
data_HfZrTaTiMo
_symmetry_space_group_name_H-M   'P 1'
_cell_length_a   15.20443494
_cell_length_b   15.20373469
_cell_length_c   16.86832166
_cell_angle_alpha   89.92687034
_cell_angle_beta   90.01940326
_cell_angle_gamma   89.94096962
_symmetry_Int_Tables_number   1
_chemical_formula_structural   HfZrTaTiMo
_chemical_formula_sum   'Hf40 Zr40 Ta40 Ti40 Mo40'
_cell_volume   3899.34652709
_cell_formula_units_Z   40
loop_
 _symmetry_equiv_pos_site_id
 _symmetry_equiv_pos_as_xyz
  1  'x, y, z'
loop_
 _atom_site_type_symbol
 _atom_site_label
 _atom_site_symmetry_multiplicity
 _atom_site_fract_x
 _atom_site_fract_y
 _atom_site_fract_z
 _atom_site_occupancy
  Hf  Hf0  1  0.91141045  0.10017147  0.63027411  1
  Hf  Hf1  1  0.89865209  0.70528745  0.35827770  1
  Hf  Hf2  1  0.77577582  0.39632691  -0.00162258  1
  Hf  Hf3  1  0.90500343  0.89940870  0.36379779  1
  Hf  Hf4  1  -0.00586180  0.79863652  0.02128418  1
  Hf  Hf5  1  0.77972351  0.59798291  0.26618612  1
  Hf  Hf6  1  0.79006646  0.20702743  0.75469753  1
  Hf  Hf7  1  0.68687120  0.50712716  0.12538457  1
  Hf  Hf8  1  0.41258706  0.41399370  0.49807114  1
  Hf  Hf9  1  0.81395035  0.19993320  0.00157531  1
  Hf  Hf10  1  0.19521864  0.59543110  0.23353180  1
  Hf  Hf11  1  0.89593881  0.50559955  0.11776232  1
  Hf  Hf12  1  0.28680682  0.90318726  0.86469871  1
  Hf  Hf13  1  0.11038551  0.90871734  0.13415021  1
  Hf  Hf14  1  0.49035011  0.90889497  0.61047038  1
  Hf  Hf15  1  0.20951135  0.19935166  -0.01775343  1
  Hf  Hf16  1  0.39011827  0.79240936  0.73272241  1
  Hf  Hf17  1  0.59872830  0.40614664  0.24589465  1
  Hf  Hf18  1  0.31263149  0.87549674  0.38787669  1
  Hf  Hf19  1  0.29030527  0.30373103  0.37373064  1
  Hf  Hf20  1  0.30867495  0.30407465  0.11411516  1
  Hf  Hf21  1  0.70842280  0.28904747  0.36853706  1
  Hf  Hf22  1  0.81000872  0.79546426  0.74269335  1
  Hf  Hf23  1  0.70666002  0.68293451  0.60776173  1
  Hf  Hf24  1  0.69041580  0.10809207  0.87906654  1
  Hf  Hf25  1  0.78621328  0.61575959  -0.00529105  1
  Hf  Hf26  1  0.79578583  0.59861985  0.75518794  1
  Hf  Hf27  1  0.19961507  0.00470356  -0.00652151  1
  Hf  Hf28  1  0.31657052  0.90833019  0.12238704  1
  Hf  Hf29  1  0.29028526  0.48550620  0.62215963  1
  Hf  Hf30  1  0.51534276  0.87721837  0.12886788  1
  Hf  Hf31  1  0.01838965  0.80146757  0.48756772  1
  Hf  Hf32  1  0.79539966  0.00797826  0.25460342  1
  Hf  Hf33  1  0.51376892  0.88946091  0.40692111  1
  Hf  Hf34  1  0.40946136  -0.01310554  0.26713859  1
  Hf  Hf35  1  0.39158577  0.19742026  0.25226881  1
  Hf  Hf36  1  0.22012353  0.40331146  0.76219606  1
  Hf  Hf37  1  0.88582759  0.70408826  0.14305502  1
  Hf  Hf38  1  0.70330837  0.10742257  0.61771587  1
  Hf  Hf39  1  0.50351622  0.31001273  0.37402950  1
  Zr  Zr40  1  0.28998969  0.69215356  0.87739356  1
  Zr  Zr41  1  -0.00161204  0.60066278  0.47776062  1
  Zr  Zr42  1  0.67762450  0.70559080  0.39367727  1
  Zr  Zr43  1  0.00797522  0.39793457  0.49908035  1
  Zr  Zr44  1  0.48374155  0.47532934  0.87215320  1
  Zr  Zr45  1  0.60347434  0.78946342  0.73298597  1
  Zr  Zr46  1  0.10957670  0.11921036  0.37181828  1
  Zr  Zr47  1  0.00886623  0.00891741  0.24828255  1
  Zr  Zr48  1  0.70036760  0.90272289  0.60754856  1
  Zr  Zr49  1  0.60705313  0.18875351  0.24328826  1
  Zr  Zr50  1  0.58675877  0.60239300  -0.00240871  1
  Zr  Zr51  1  0.60864818  0.21724451  0.01187178  1
  Zr  Zr52  1  0.21480612  0.18839564  0.76284913  1
  Zr  Zr53  1  0.17297141  0.79976892  0.74843721  1
  Zr  Zr54  1  0.47374430  0.70005391  0.38901984  1
  Zr  Zr55  1  0.80752768  0.40464652  0.25472814  1
  Zr  Zr56  1  0.90057094  0.11581732  0.37477014  1
  Zr  Zr57  1  0.00445691  0.43331121  0.75993852  1
  Zr  Zr58  1  -0.00801609  0.39013574  -0.00158138  1
  Zr  Zr59  1  0.89619064  0.30236214  0.86764162  1
  Zr  Zr60  1  0.50432674  0.10863588  0.60857349  1
  Zr  Zr61  1  0.39384457  0.41917818  0.25181010  1
  Zr  Zr62  1  0.19888288  -0.01143261  0.49223724  1
  Zr  Zr63  1  0.88898961  0.50848359  0.62207747  1
  Zr  Zr64  1  0.49207873  0.08237559  0.12677822  1
  Zr  Zr65  1  0.49143505  0.91582950  0.85729507  1
  Zr  Zr66  1  0.11205351  0.30777399  0.63972272  1
  Zr  Zr67  1  0.02332612  -0.01335138  0.75803138  1
  Zr  Zr68  1  0.70686644  0.08688987  0.11704671  1
  Zr  Zr69  1  0.08165608  0.70229705  0.88797307  1
  Zr  Zr70  1  0.41006821  0.80366836  -0.00955524  1
  Zr  Zr71  1  0.70029090  0.89374462  0.87036234  1
  Zr  Zr72  1  0.30724913  0.09438420  0.62358038  1
  Zr  Zr73  1  0.89922100  0.30822861  0.63825335  1
  Zr  Zr74  1  0.10590924  0.30640565  0.87518772  1
  Zr  Zr75  1  0.50198059  0.69067046  0.85921862  1
  Zr  Zr76  1  0.00489366  0.00513867  0.49405684  1
  Zr  Zr77  1  0.80015007  0.40278707  0.48361787  1
  Zr  Zr78  1  0.80432230  -0.00100319  0.75257599  1
  Zr  Zr79  1  0.50619438  0.10070608  0.39514062  1
  Ta  Ta80  1  0.21590136  0.00882736  0.25735963  1
  Ta  Ta81  1  0.68655332  0.47647624  0.61900701  1
  Ta  Ta82  1  0.39046718  0.59794608  0.00478722  1
  Ta  Ta83  1  0.81263148  0.20322908  0.23494283  1
  Ta  Ta84  1  0.89073604  0.90463228  0.13398669  1
  Ta  Ta85  1  0.09670619  0.50229146  0.10670046  1
  Ta  Ta86  1  0.81634057  0.79440731  0.50077570  1
  Ta  Ta87  1  0.58805293  -0.00478909  -0.00676888  1
  Ta  Ta88  1  0.92006246  0.69822120  0.62184612  1
  Ta  Ta89  1  0.41207737  0.18887455  -0.00371473  1
  Ta  Ta90  1  0.00064795  0.58997211  0.25175732  1
  Ta  Ta91  1  0.42372346  0.21099033  0.74734115  1
  Ta  Ta92  1  0.57395652  0.61079049  0.24968158  1
  Ta  Ta93  1  0.91651347  0.30144758  0.36586614  1
  Ta  Ta94  1  0.91167563  0.09278913  0.87783112  1
  Ta  Ta95  1  0.81118035  0.20656104  0.50458659  1
  Ta  Ta96  1  0.28792757  0.10458288  0.12581343  1
  Ta  Ta97  1  0.89701856  0.51473596  0.88638670  1
  Ta  Ta98  1  0.17938289  0.59131818  0.75871697  1
  Ta  Ta99  1  0.67944084  0.71421784  0.13357758  1
  Ta  Ta100  1  0.33261315  0.30678892  0.88302979  1
  Ta  Ta101  1  0.79568946  0.80494309  0.00332728  1
  Ta  Ta102  1  0.11156984  0.29623090  0.11379876  1
  Ta  Ta103  1  0.60997130  -0.02073653  0.26455626  1
  Ta  Ta104  1  0.91257558  0.89037583  0.88049150  1
  Ta  Ta105  1  0.70555684  0.90059660  0.39807149  1
  Ta  Ta106  1  0.22455976  0.79456707  0.24475069  1
  Ta  Ta107  1  0.38539513  0.61756979  0.23922091  1
  Ta  Ta108  1  0.38356136  0.58081336  0.74383709  1
  Ta  Ta109  1  0.91098051  0.89414241  0.61991450  1
  Ta  Ta110  1  0.09632356  0.52664571  0.62210664  1
  Ta  Ta111  1  0.57315866  0.58410401  0.51613896  1
  Ta  Ta112  1  0.37924015  0.61083455  0.51756103  1
  Ta  Ta113  1  0.59292702  0.58102921  0.73645731  1
  Ta  Ta114  1  0.80841336  -0.00679823  -0.00512421  1
  Ta  Ta115  1  0.19769700  0.20811791  0.50959546  1
  Ta  Ta116  1  0.10844990  0.09623476  0.62849912  1
  Ta  Ta117  1  0.68461458  0.49738860  0.87148388  1
  Ta  Ta118  1  0.01294240  0.21301237  0.23388943  1
  Ta  Ta119  1  0.19172823  0.39530010  0.23972814  1
  Ti  Ti120  1  0.81135509  0.00365173  0.49882870  1
  Ti  Ti121  1  0.20101738  0.40023840  0.49879898  1
  Ti  Ti122  1  0.29125693  0.90115452  0.62311723  1
  Ti  Ti123  1  0.00897810  0.19340993  0.75804767  1
  Ti  Ti124  1  0.58848573  0.02024743  0.74699242  1
  Ti  Ti125  1  0.00605038  0.20789694  0.50819822  1
  Ti  Ti126  1  0.78277350  0.40526459  0.75789573  1
  Ti  Ti127  1  0.10111266  0.89248677  0.62058027  1
  Ti  Ti128  1  0.66552701  0.49845179  0.38353654  1
  Ti  Ti129  1  0.89341963  0.70363287  0.87739350  1
  Ti  Ti130  1  0.60982285  0.22427561  0.50536280  1
  Ti  Ti131  1  0.11430853  0.89286985  0.35735328  1
  Ti  Ti132  1  0.79920905  0.59225903  0.47948562  1
  Ti  Ti133  1  0.32618565  0.09107185  0.86588915  1
  Ti  Ti134  1  0.91558261  0.09701099  0.12048584  1
  Ti  Ti135  1  0.00675647  0.40309788  0.24005307  1
  Ti  Ti136  1  0.28791013  0.49727664  0.89744234  1
  Ti  Ti137  1  0.00409695  -0.00230304  0.00068944  1
  Ti  Ti138  1  0.27321799  0.68487613  0.63424992  1
  Ti  Ti139  1  0.59019348  0.37524361  0.74255645  1
  Ti  Ti140  1  0.60968619  0.79371999  -0.01185692  1
  Ti  Ti141  1  0.39409946  0.21708550  0.50576465  1
  Ti  Ti142  1  0.01942623  0.79011735  0.24008236  1
  Ti  Ti143  1  0.11943957  0.69597016  0.36436400  1
  Ti  Ti144  1  0.10139517  0.30422633  0.36898014  1
  Ti  Ti145  1  0.19523118  0.79996202  0.00760666  1
  Ti  Ti146  1  0.77182783  0.81155937  0.25590744  1
  Ti  Ti147  1  0.50397147  0.30612304  0.12652562  1
  Ti  Ti148  1  0.30394628  0.10198996  0.38805175  1
  Ti  Ti149  1  0.90248696  0.30095206  0.12427782  1
  Ti  Ti150  1  0.10684105  0.49307630  0.36854278  1
  Ti  Ti151  1  0.48420828  0.50185030  0.11848102  1
  Ti  Ti152  1  0.20985462  0.77041807  0.50378025  1
  Ti  Ti153  1  0.70193812  0.09700069  0.38866122  1
  Ti  Ti154  1  0.29027912  0.49695342  0.10756842  1
  Ti  Ti155  1  0.09763174  0.51417196  0.90421795  1
  Ti  Ti156  1  0.29910881  0.51735413  0.37912511  1
  Ti  Ti157  1  0.30352727  0.70613648  0.11448939  1
  Ti  Ti158  1  0.01428292  0.18393169  -0.00075160  1
  Ti  Ti159  1  0.70177890  0.89862705  0.11940548  1
  Mo  Mo160  1  0.40779804  0.79182056  0.24895029  1
  Mo  Mo161  1  0.50047109  0.10679674  0.87414908  1
  Mo  Mo162  1  0.48928320  0.51608898  0.37459936  1
  Mo  Mo163  1  0.49328265  0.49366006  0.63674355  1
  Mo  Mo164  1  0.58889957  0.40288021  0.01082161  1
  Mo  Mo165  1  -0.01417501  0.60410708  0.01040361  1
  Mo  Mo166  1  0.10136761  0.70035825  0.13124608  1
  Mo  Mo167  1  0.40679298  0.39563317  0.00742339  1
  Mo  Mo168  1  0.60027064  0.40023945  0.49707772  1
  Mo  Mo169  1  0.30653014  0.29385340  0.61968104  1
  Mo  Mo170  1  0.60161864  0.78833847  0.52343372  1
  Mo  Mo171  1  0.38676085  0.79199594  0.52854796  1
  Mo  Mo172  1  0.10277242  0.09221217  0.87543400  1
  Mo  Mo173  1  0.48684685  0.68954061  0.63259333  1
  Mo  Mo174  1  0.59824303  0.79929504  0.26013926  1
  Mo  Mo175  1  0.19516527  0.60863807  0.01697352  1
  Mo  Mo176  1  0.29127976  0.69069011  0.37493505  1
  Mo  Mo177  1  0.19218594  0.59080049  0.49495653  1
  Mo  Mo178  1  0.51531379  0.28902245  0.87734611  1
  Mo  Mo179  1  0.70128234  0.69157320  0.86893069  1
  Mo  Mo180  1  0.49413609  0.69302415  0.12269243  1
  Mo  Mo181  1  0.09559589  0.70156918  0.62105636  1
  Mo  Mo182  1  -0.00995039  0.79677931  0.74931390  1
  Mo  Mo183  1  0.70568410  0.30218468  0.13653366  1
  Mo  Mo184  1  0.70424567  0.30195323  0.62151068  1
  Mo  Mo185  1  0.40080263  0.00644128  -0.00078935  1
  Mo  Mo186  1  0.61142099  0.00783888  0.49697777  1
  Mo  Mo187  1  -0.00430806  0.61217375  0.75582928  1
  Mo  Mo188  1  0.60292417  0.20166094  0.74416599  1
  Mo  Mo189  1  0.09421386  0.89724649  0.89027382  1
  Mo  Mo190  1  0.20282247  0.20564633  0.24584345  1
  Mo  Mo191  1  0.39491331  0.00654046  0.74316482  1
  Mo  Mo192  1  0.20361130  0.40167559  -0.00244301  1
  Mo  Mo193  1  0.91149863  0.49772455  0.36444603  1
  Mo  Mo194  1  0.20647967  -0.00314104  0.74837428  1
  Mo  Mo195  1  0.68829030  0.31215881  0.87260368  1
  Mo  Mo196  1  0.39453555  0.00397467  0.48997666  1
  Mo  Mo197  1  0.10712157  0.10593804  0.12352939  1
  Mo  Mo198  1  0.40272701  0.39120193  0.74452193  1
  Mo  Mo199  1  0.50805600  0.30889639  0.61732798  1
