# generated using pymatgen
data_HfZrTaTiMo
_symmetry_space_group_name_H-M   'P 1'
_cell_length_a   15.20837462
_cell_length_b   15.20336421
_cell_length_c   16.83861451
_cell_angle_alpha   90.05421595
_cell_angle_beta   89.96313753
_cell_angle_gamma   89.97600769
_symmetry_Int_Tables_number   1
_chemical_formula_structural   HfZrTaTiMo
_chemical_formula_sum   'Hf40 Zr40 Ta40 Ti40 Mo40'
_cell_volume   3893.39559634
_cell_formula_units_Z   40
loop_
 _symmetry_equiv_pos_site_id
 _symmetry_equiv_pos_as_xyz
  1  'x, y, z'
loop_
 _atom_site_type_symbol
 _atom_site_label
 _atom_site_symmetry_multiplicity
 _atom_site_fract_x
 _atom_site_fract_y
 _atom_site_fract_z
 _atom_site_occupancy
  Hf  Hf0  1  0.89668604  0.29599112  0.13582243  1
  Hf  Hf1  1  0.59721577  0.40185223  -0.00345107  1
  Hf  Hf2  1  0.78010309  0.40160690  0.51262300  1
  Hf  Hf3  1  0.09024730  0.89933903  0.37111546  1
  Hf  Hf4  1  0.41784398  0.00371967  0.25542845  1
  Hf  Hf5  1  0.50092366  0.29412437  0.63465594  1
  Hf  Hf6  1  0.80385525  0.62131264  0.24223488  1
  Hf  Hf7  1  0.29772957  0.50170162  0.62040889  1
  Hf  Hf8  1  0.20347041  -0.01143262  0.00821235  1
  Hf  Hf9  1  -0.00452149  0.60364331  0.00681862  1
  Hf  Hf10  1  0.18803127  0.40202052  0.24294705  1
  Hf  Hf11  1  0.62052619  0.19915680  -0.00019791  1
  Hf  Hf12  1  0.11443032  0.71258066  0.12222642  1
  Hf  Hf13  1  0.10110166  0.49282360  0.88004681  1
  Hf  Hf14  1  0.00424693  0.40488605  0.50760581  1
  Hf  Hf15  1  0.30126603  0.50203652  0.12840624  1
  Hf  Hf16  1  0.60168653  0.19531663  0.50284876  1
  Hf  Hf17  1  0.61850356  -0.01713213  0.24730321  1
  Hf  Hf18  1  0.48721718  0.27953415  0.36927857  1
  Hf  Hf19  1  0.88586805  0.91724102  0.12489615  1
  Hf  Hf20  1  0.79414748  0.80526221  -0.00774905  1
  Hf  Hf21  1  0.00383753  0.40580153  0.73215764  1
  Hf  Hf22  1  -0.00302512  0.38376115  0.00901141  1
  Hf  Hf23  1  0.20726309  0.19390164  0.49367542  1
  Hf  Hf24  1  0.69924832  0.29623066  0.36747658  1
  Hf  Hf25  1  0.49279856  0.08123793  0.62250083  1
  Hf  Hf26  1  0.20088976  0.58985444  0.75237735  1
  Hf  Hf27  1  0.89579189  0.88962477  0.62871215  1
  Hf  Hf28  1  0.39901568  0.39705992  -0.01344380  1
  Hf  Hf29  1  0.49626085  0.69240593  0.62364910  1
  Hf  Hf30  1  0.89512415  0.49446451  0.87395694  1
  Hf  Hf31  1  0.59315465  0.79574771  0.75643750  1
  Hf  Hf32  1  0.69112156  0.71865752  0.37740683  1
  Hf  Hf33  1  0.31348642  0.69683920  0.13344912  1
  Hf  Hf34  1  0.60979758  -0.02480333  0.50452276  1
  Hf  Hf35  1  -0.00251652  0.40595354  0.25198287  1
  Hf  Hf36  1  0.91001175  0.09478726  0.63081058  1
  Hf  Hf37  1  0.89978999  0.51439381  0.38695583  1
  Hf  Hf38  1  0.90055174  0.52480953  0.61492804  1
  Hf  Hf39  1  0.51490470  0.88503047  0.37642277  1
  Zr  Zr40  1  0.59434813  0.60654605  0.00403032  1
  Zr  Zr41  1  0.69426312  0.49677543  0.13618352  1
  Zr  Zr42  1  0.20536349  0.00457138  0.25955757  1
  Zr  Zr43  1  0.89161408  0.70319834  0.87288768  1
  Zr  Zr44  1  0.20409609  0.39844690  0.00170292  1
  Zr  Zr45  1  0.38225642  0.40107029  0.76801620  1
  Zr  Zr46  1  0.89814503  0.30086949  0.37873587  1
  Zr  Zr47  1  0.59918682  -0.00352932  0.76009299  1
  Zr  Zr48  1  -0.00413485  0.01458411  -0.00868712  1
  Zr  Zr49  1  0.89876610  0.72361061  0.39387326  1
  Zr  Zr50  1  0.29323028  0.89205859  0.13784312  1
  Zr  Zr51  1  -0.01214574  0.80097290  0.24330776  1
  Zr  Zr52  1  0.49535203  0.89565181  0.89562298  1
  Zr  Zr53  1  0.49651170  0.49582549  0.63951120  1
  Zr  Zr54  1  0.29883044  0.70623125  0.61223363  1
  Zr  Zr55  1  0.00822351  0.60431595  0.24994416  1
  Zr  Zr56  1  0.31507084  0.08849302  0.88891726  1
  Zr  Zr57  1  0.38855317  0.38360396  0.25593391  1
  Zr  Zr58  1  0.11634057  0.10991287  0.87170184  1
  Zr  Zr59  1  0.79209648  0.39497399  0.00114695  1
  Zr  Zr60  1  0.10954781  0.90705996  0.61657104  1
  Zr  Zr61  1  0.10666775  0.70766312  0.88180696  1
  Zr  Zr62  1  0.00161031  0.81473482  0.00463143  1
  Zr  Zr63  1  0.59833361  0.58931951  0.49741587  1
  Zr  Zr64  1  0.70743856  0.09251463  0.63081556  1
  Zr  Zr65  1  0.39905493  0.17688165  0.75283472  1
  Zr  Zr66  1  0.27871630  0.50075768  0.37898324  1
  Zr  Zr67  1  0.00802550  -0.00248909  0.75627504  1
  Zr  Zr68  1  0.69264809  0.50356535  0.36639178  1
  Zr  Zr69  1  0.70709786  0.08566204  0.37872419  1
  Zr  Zr70  1  0.39851087  0.59380284  -0.01884283  1
  Zr  Zr71  1  0.08451987  0.70071279  0.60257187  1
  Zr  Zr72  1  0.39699011  0.39074789  0.49391596  1
  Zr  Zr73  1  0.79868841  0.40123152  0.73601738  1
  Zr  Zr74  1  0.50675359  0.28830135  0.86864272  1
  Zr  Zr75  1  -0.00341698  0.61056873  0.74595851  1
  Zr  Zr76  1  0.91355306  0.09656453  0.37591003  1
  Zr  Zr77  1  0.58876860  0.18259302  0.24777176  1
  Zr  Zr78  1  0.90654258  0.13198887  0.86454488  1
  Zr  Zr79  1  0.21018715  0.80280106  0.74811517  1
  Ta  Ta80  1  0.39780364  0.61856810  0.76753990  1
  Ta  Ta81  1  0.69976433  0.50894398  0.86723292  1
  Ta  Ta82  1  0.71917566  0.09518500  0.12144544  1
  Ta  Ta83  1  0.00771631  0.20005202  0.50933229  1
  Ta  Ta84  1  0.39061040  -0.00654412  0.48282430  1
  Ta  Ta85  1  0.08651910  0.29307515  0.87351675  1
  Ta  Ta86  1  0.11753715  0.10560475  0.62610336  1
  Ta  Ta87  1  0.78041899  0.81901876  0.24080933  1
  Ta  Ta88  1  0.49575561  0.29614813  0.12535452  1
  Ta  Ta89  1  0.19564533  0.20410945  0.01671318  1
  Ta  Ta90  1  0.78728291  0.61324814  0.74302731  1
  Ta  Ta91  1  0.69963068  0.71535745  0.62552435  1
  Ta  Ta92  1  0.51320343  0.08384992  0.10763996  1
  Ta  Ta93  1  0.29216830  0.28497929  0.63052946  1
  Ta  Ta94  1  0.68657053  0.90758720  0.10216876  1
  Ta  Ta95  1  0.38538268  0.79227331  -0.00374879  1
  Ta  Ta96  1  0.49217091  0.50108419  0.13147951  1
  Ta  Ta97  1  0.19420914  0.39726430  0.50801077  1
  Ta  Ta98  1  0.89784260  0.50635104  0.12600359  1
  Ta  Ta99  1  0.40067968  0.19981898  0.00940910  1
  Ta  Ta100  1  0.01500314  0.20224054  0.24997742  1
  Ta  Ta101  1  0.01448116  0.21476869  0.73166693  1
  Ta  Ta102  1  0.21597281  0.21019230  0.24380531  1
  Ta  Ta103  1  0.10129434  0.50650430  0.11836704  1
  Ta  Ta104  1  0.79178705  0.01203047  -0.02608387  1
  Ta  Ta105  1  0.69621198  0.29294105  0.13870520  1
  Ta  Ta106  1  0.21805802  0.00375804  0.75058207  1
  Ta  Ta107  1  0.79632769  0.60178141  0.00794022  1
  Ta  Ta108  1  0.10319862  0.69115782  0.39313887  1
  Ta  Ta109  1  0.40576646  0.59383227  0.26638627  1
  Ta  Ta110  1  0.40055401  0.18939993  0.50326748  1
  Ta  Ta111  1  0.10724029  0.30300312  0.37734450  1
  Ta  Ta112  1  0.39765842  0.59634397  0.48368137  1
  Ta  Ta113  1  0.80283445  0.19993814  0.50879676  1
  Ta  Ta114  1  0.79788129  -0.00453655  0.77348920  1
  Ta  Ta115  1  0.10088828  0.10361632  0.13071097  1
  Ta  Ta116  1  0.20751005  0.81790935  0.48487093  1
  Ta  Ta117  1  0.49453067  0.88531167  0.11118818  1
  Ta  Ta118  1  0.59077316  0.79012176  0.23395595  1
  Ta  Ta119  1  0.80341179  0.19091594  0.24886959  1
  Ti  Ti120  1  0.39977005  0.79407980  0.25920014  1
  Ti  Ti121  1  0.58951986  0.39468318  0.49722175  1
  Ti  Ti122  1  0.80939235  -0.00056335  0.50412189  1
  Ti  Ti123  1  0.21018751  0.60869882  -0.00790539  1
  Ti  Ti124  1  0.79761580  0.40402177  0.25112239  1
  Ti  Ti125  1  0.49985876  0.88522599  0.62000774  1
  Ti  Ti126  1  0.01254279  0.00083487  0.50139255  1
  Ti  Ti127  1  0.18960467  0.38465451  0.74247142  1
  Ti  Ti128  1  0.51076857  0.09394461  0.89495648  1
  Ti  Ti129  1  0.89633185  0.29754104  0.61643144  1
  Ti  Ti130  1  0.39927977  -0.02719197  0.75394927  1
  Ti  Ti131  1  0.90844165  0.10389705  0.12678360  1
  Ti  Ti132  1  0.59127273  0.60288321  0.24745309  1
  Ti  Ti133  1  0.79330943  0.61587444  0.50846512  1
  Ti  Ti134  1  0.58810586  0.40012366  0.25182736  1
  Ti  Ti135  1  0.31123617  0.10101155  0.12517141  1
  Ti  Ti136  1  0.19902665  0.60878387  0.25466778  1
  Ti  Ti137  1  0.68707223  0.50859825  0.63322258  1
  Ti  Ti138  1  0.69431316  0.70840306  0.11901376  1
  Ti  Ti139  1  0.79480240  0.80892217  0.76084209  1
  Ti  Ti140  1  0.40475444  0.79950703  0.49001149  1
  Ti  Ti141  1  0.29716233  0.70780031  0.37650898  1
  Ti  Ti142  1  0.11035128  0.90275883  0.87415008  1
  Ti  Ti143  1  0.80105816  0.20890672  0.74083330  1
  Ti  Ti144  1  0.50017013  0.68990030  0.37762404  1
  Ti  Ti145  1  0.28112617  0.28566447  0.87214259  1
  Ti  Ti146  1  0.29913702  0.08551673  0.61985122  1
  Ti  Ti147  1  0.71735337  0.29895336  0.86936038  1
  Ti  Ti148  1  0.31723492  0.11319692  0.36706424  1
  Ti  Ti149  1  0.78239314  0.81869606  0.50680049  1
  Ti  Ti150  1  0.10597093  0.10327303  0.37261203  1
  Ti  Ti151  1  0.61221390  0.19617235  0.75110582  1
  Ti  Ti152  1  0.09486494  0.91026058  0.14097043  1
  Ti  Ti153  1  0.60972735  0.39520050  0.75301763  1
  Ti  Ti154  1  0.81729760  0.20513073  -0.00124963  1
  Ti  Ti155  1  0.68538894  0.70082005  0.87825432  1
  Ti  Ti156  1  0.51073077  0.50846607  0.85817396  1
  Ti  Ti157  1  0.88652817  0.91197593  0.36914663  1
  Ti  Ti158  1  0.31051633  0.90331514  0.61566381  1
  Ti  Ti159  1  -0.00212101  0.80416328  0.75502560  1
  Mo  Mo160  1  0.70215270  0.89607948  0.63542776  1
  Mo  Mo161  1  0.10003569  0.29722423  0.13106434  1
  Mo  Mo162  1  0.71037544  0.89116996  0.37399526  1
  Mo  Mo163  1  0.88761857  0.70246753  0.12066416  1
  Mo  Mo164  1  -0.00235695  0.60395326  0.49851437  1
  Mo  Mo165  1  0.60439162  0.59887160  0.75167222  1
  Mo  Mo166  1  0.29208559  0.49781848  0.86850437  1
  Mo  Mo167  1  0.20090519  0.60026224  0.49706358  1
  Mo  Mo168  1  0.59209064  0.79058197  0.00640880  1
  Mo  Mo169  1  0.20186596  0.80032831  -0.00096427  1
  Mo  Mo170  1  0.80529423  0.00255821  0.24176636  1
  Mo  Mo171  1  0.69306691  0.30084000  0.62507672  1
  Mo  Mo172  1  0.59569517  0.79083475  0.50752153  1
  Mo  Mo173  1  0.49979061  0.70103029  0.87114114  1
  Mo  Mo174  1  0.10919615  0.50072325  0.62178750  1
  Mo  Mo175  1  0.00523448  0.20327181  0.00988191  1
  Mo  Mo176  1  -0.00056307  0.01197522  0.24734264  1
  Mo  Mo177  1  0.20618732  0.19873314  0.74647937  1
  Mo  Mo178  1  0.20768532  0.00455417  0.48577695  1
  Mo  Mo179  1  0.88564991  0.71434652  0.61602997  1
  Mo  Mo180  1  0.28921949  0.29027608  0.37678122  1
  Mo  Mo181  1  0.09519001  0.50020482  0.38051043  1
  Mo  Mo182  1  0.49751083  0.49508346  0.36911916  1
  Mo  Mo183  1  0.30232039  0.70838633  0.87363374  1
  Mo  Mo184  1  0.39950084  0.80769979  0.74660596  1
  Mo  Mo185  1  0.29410511  0.89525320  0.87957773  1
  Mo  Mo186  1  0.69920285  0.11360265  0.86484321  1
  Mo  Mo187  1  0.49083918  0.69281754  0.13373723  1
  Mo  Mo188  1  0.49982964  0.09079409  0.38522766  1
  Mo  Mo189  1  0.60697642  0.00065904  -0.00565080  1
  Mo  Mo190  1  0.30466782  0.29484909  0.11900990  1
  Mo  Mo191  1  -0.00687235  0.81470924  0.49432324  1
  Mo  Mo192  1  0.70037691  0.89655602  0.88646928  1
  Mo  Mo193  1  0.90612937  0.30575295  0.86646907  1
  Mo  Mo194  1  0.10372135  0.29646658  0.61738225  1
  Mo  Mo195  1  0.90545974  0.90369009  0.86785924  1
  Mo  Mo196  1  0.30522148  0.89575312  0.36831721  1
  Mo  Mo197  1  0.19957883  0.78797211  0.26976998  1
  Mo  Mo198  1  0.40113990  -0.00151044  0.01344699  1
  Mo  Mo199  1  0.39940744  0.18754143  0.23227013  1
