# generated using pymatgen
data_HfZrTaTiMo
_symmetry_space_group_name_H-M   'P 1'
_cell_length_a   15.23322565
_cell_length_b   15.20672172
_cell_length_c   16.82746528
_cell_angle_alpha   89.99131085
_cell_angle_beta   89.92931878
_cell_angle_gamma   89.92234008
_symmetry_Int_Tables_number   1
_chemical_formula_structural   HfZrTaTiMo
_chemical_formula_sum   'Hf40 Zr40 Ta40 Ti40 Mo40'
_cell_volume   3898.03238286
_cell_formula_units_Z   40
loop_
 _symmetry_equiv_pos_site_id
 _symmetry_equiv_pos_as_xyz
  1  'x, y, z'
loop_
 _atom_site_type_symbol
 _atom_site_label
 _atom_site_symmetry_multiplicity
 _atom_site_fract_x
 _atom_site_fract_y
 _atom_site_fract_z
 _atom_site_occupancy
  Hf  Hf0  1  0.90952724  0.90568676  0.86920542  1
  Hf  Hf1  1  0.50386288  0.48448501  0.61577969  1
  Hf  Hf2  1  0.20554585  -0.02279094  -0.01852484  1
  Hf  Hf3  1  0.39952513  0.02657889  0.27241973  1
  Hf  Hf4  1  0.39149314  0.82327829  0.27511225  1
  Hf  Hf5  1  0.80706320  0.00027498  0.25834213  1
  Hf  Hf6  1  0.89325796  0.69954736  0.61400055  1
  Hf  Hf7  1  0.59510666  -0.00977391  -0.00204306  1
  Hf  Hf8  1  0.89758456  0.70427447  0.87644255  1
  Hf  Hf9  1  0.91189953  0.50386411  0.36270682  1
  Hf  Hf10  1  0.69803275  0.29518815  0.12819340  1
  Hf  Hf11  1  0.10807505  0.28039187  0.37486657  1
  Hf  Hf12  1  0.31831979  0.51410745  0.13824769  1
  Hf  Hf13  1  0.50073894  0.29600940  0.88971006  1
  Hf  Hf14  1  0.78851021  0.79632622  0.74975171  1
  Hf  Hf15  1  0.69868359  0.09828011  0.12812593  1
  Hf  Hf16  1  0.10356940  0.49530453  0.63486173  1
  Hf  Hf17  1  0.59755851  -0.00285294  0.27392046  1
  Hf  Hf18  1  0.10647926  0.49901401  0.14199478  1
  Hf  Hf19  1  0.80340908  0.39618226  0.00772930  1
  Hf  Hf20  1  0.60806379  0.40315263  0.75475820  1
  Hf  Hf21  1  0.38372693  0.80964519  0.00016619  1
  Hf  Hf22  1  0.90482681  0.90167932  0.39586900  1
  Hf  Hf23  1  0.59005244  0.20391112  0.49126513  1
  Hf  Hf24  1  0.69518515  0.89547268  0.12990530  1
  Hf  Hf25  1  0.11693121  0.89352287  0.12556146  1
  Hf  Hf26  1  0.27804192  0.70863920  0.87818140  1
  Hf  Hf27  1  0.48440871  0.90425354  0.13225390  1
  Hf  Hf28  1  0.90564655  0.30172611  0.61895463  1
  Hf  Hf29  1  0.30233892  0.50779099  0.62015827  1
  Hf  Hf30  1  0.49494236  0.89823228  0.60229258  1
  Hf  Hf31  1  0.28905018  0.72021059  0.60299637  1
  Hf  Hf32  1  0.89575783  0.49211767  0.87011071  1
  Hf  Hf33  1  0.20921819  0.39099232  0.49659298  1
  Hf  Hf34  1  0.20429739  0.18899820  0.24053433  1
  Hf  Hf35  1  0.89290463  0.11457770  0.86652996  1
  Hf  Hf36  1  0.21023209  0.19770102  -0.02070698  1
  Hf  Hf37  1  0.69176107  0.69553302  0.12716817  1
  Hf  Hf38  1  0.37882762  0.81184984  0.74741785  1
  Hf  Hf39  1  0.79763554  0.80035679  0.25687381  1
  Zr  Zr40  1  0.31538804  0.30447244  0.63087672  1
  Zr  Zr41  1  0.00069212  0.59741061  0.00758326  1
  Zr  Zr42  1  0.39349549  0.41080244  -0.00027434  1
  Zr  Zr43  1  0.89777350  0.10537920  0.62235114  1
  Zr  Zr44  1  0.28527358  0.50472870  0.36304298  1
  Zr  Zr45  1  0.20363358  -0.01073359  0.25847342  1
  Zr  Zr46  1  0.89903247  0.49406151  0.62914245  1
  Zr  Zr47  1  0.39495258  0.60562403  0.75210193  1
  Zr  Zr48  1  0.00873003  0.39512378  -0.00572736  1
  Zr  Zr49  1  0.21114467  -0.01159426  0.74668384  1
  Zr  Zr50  1  0.69063744  0.09372663  0.87160911  1
  Zr  Zr51  1  0.59419329  0.19819098  0.74221027  1
  Zr  Zr52  1  0.01354188  0.80002012  -0.00029287  1
  Zr  Zr53  1  0.90629443  0.90289560  0.11799702  1
  Zr  Zr54  1  0.80289540  0.20216332  0.26131027  1
  Zr  Zr55  1  0.78333302  0.59143524  0.75108421  1
  Zr  Zr56  1  0.71582261  0.29167815  0.88159817  1
  Zr  Zr57  1  0.41036367  0.00640813  0.74234705  1
  Zr  Zr58  1  0.09583093  0.67935792  0.36528535  1
  Zr  Zr59  1  0.09556665  0.09015029  0.10518742  1
  Zr  Zr60  1  0.90194621  0.10990825  0.10850102  1
  Zr  Zr61  1  0.49366599  0.69540282  0.60700613  1
  Zr  Zr62  1  0.40744643  0.61821201  0.26852593  1
  Zr  Zr63  1  0.91267482  0.10191400  0.39652808  1
  Zr  Zr64  1  0.01279804  0.40328620  0.49312092  1
  Zr  Zr65  1  0.79381759  0.60094001  0.00669649  1
  Zr  Zr66  1  0.59189132  0.79123677  0.26620728  1
  Zr  Zr67  1  0.00270753  0.38429875  0.25166725  1
  Zr  Zr68  1  0.79979905  -0.00177837  -0.00801275  1
  Zr  Zr69  1  0.90370399  0.89184768  0.61852305  1
  Zr  Zr70  1  -0.00050769  0.61384824  0.75069836  1
  Zr  Zr71  1  0.40701242  0.40227936  0.76458139  1
  Zr  Zr72  1  0.79022907  -0.00144112  0.74443451  1
  Zr  Zr73  1  0.49633497  0.11732337  0.12418937  1
  Zr  Zr74  1  0.89403835  0.70096114  0.37951780  1
  Zr  Zr75  1  0.20833068  0.59779432  0.00675823  1
  Zr  Zr76  1  0.59066780  0.80489786  0.74871566  1
  Zr  Zr77  1  0.27838583  0.11526597  0.39116306  1
  Zr  Zr78  1  0.59355321  0.60229712  0.75200694  1
  Zr  Zr79  1  0.10825121  0.29093863  0.11533813  1
  Ta  Ta80  1  0.58513885  0.59459558  0.00598354  1
  Ta  Ta81  1  0.01481401  -0.00152445  0.74250789  1
  Ta  Ta82  1  0.30219630  0.09260602  0.11618797  1
  Ta  Ta83  1  0.39741601  0.01059524  0.49095035  1
  Ta  Ta84  1  0.69379962  0.69669393  0.60458836  1
  Ta  Ta85  1  0.31016885  0.30097986  0.36481560  1
  Ta  Ta86  1  0.29264300  0.10841365  0.61902926  1
  Ta  Ta87  1  0.49979645  0.30194414  0.36344127  1
  Ta  Ta88  1  0.69033508  0.49684340  0.13495287  1
  Ta  Ta89  1  0.00427197  0.19996749  0.75463505  1
  Ta  Ta90  1  0.19962202  0.61048663  0.74617236  1
  Ta  Ta91  1  0.70371301  0.89396534  0.39895445  1
  Ta  Ta92  1  0.79728900  0.58529809  0.49590414  1
  Ta  Ta93  1  0.70762063  0.49344287  0.37164240  1
  Ta  Ta94  1  0.20858585  0.39907871  0.76718916  1
  Ta  Ta95  1  0.11313563  0.28920875  0.63873871  1
  Ta  Ta96  1  0.10258750  0.69812485  0.14347699  1
  Ta  Ta97  1  0.00186552  0.80696702  0.25283302  1
  Ta  Ta98  1  0.48721564  0.69241658  0.12371453  1
  Ta  Ta99  1  0.01731575  -0.00729971  0.51893438  1
  Ta  Ta100  1  0.58992502  0.79473840  0.00013869  1
  Ta  Ta101  1  0.39676332  0.00658022  -0.00638554  1
  Ta  Ta102  1  0.69840930  0.89616365  0.60044166  1
  Ta  Ta103  1  0.49511930  0.10412128  0.88088006  1
  Ta  Ta104  1  0.78942877  0.21188274  0.49647761  1
  Ta  Ta105  1  0.10923387  0.51029756  0.86771801  1
  Ta  Ta106  1  0.89700853  0.30187106  0.38702271  1
  Ta  Ta107  1  0.70043601  0.30107766  0.62291860  1
  Ta  Ta108  1  0.28907899  0.71219373  0.39290471  1
  Ta  Ta109  1  0.00229977  0.18548886  0.25310002  1
  Ta  Ta110  1  0.09256127  0.71104260  0.61540351  1
  Ta  Ta111  1  0.69405215  0.09672766  0.61218032  1
  Ta  Ta112  1  0.70126046  0.49346138  0.61340410  1
  Ta  Ta113  1  0.39507189  0.59476232  0.48518082  1
  Ta  Ta114  1  0.68656990  0.70162881  0.88546341  1
  Ta  Ta115  1  0.89494834  0.49918832  0.13989702  1
  Ta  Ta116  1  0.49297380  0.10917743  0.61409890  1
  Ta  Ta117  1  0.41409793  0.40077041  0.48490429  1
  Ta  Ta118  1  0.61413480  0.39238145  0.48589388  1
  Ta  Ta119  1  0.00539651  -0.00115180  0.25557166  1
  Ti  Ti120  1  0.59864419  0.40507195  0.00767483  1
  Ti  Ti121  1  0.60368039  0.19992599  0.00361243  1
  Ti  Ti122  1  0.50012250  0.31179904  0.12886421  1
  Ti  Ti123  1  0.41386503  0.40699432  0.25196563  1
  Ti  Ti124  1  0.21027455  0.39109622  0.24766755  1
  Ti  Ti125  1  0.79315588  0.59830066  0.25006451  1
  Ti  Ti126  1  0.49412664  0.51166725  0.88480749  1
  Ti  Ti127  1  0.79754440  0.39541429  0.24992107  1
  Ti  Ti128  1  0.80340494  0.38293036  0.75136058  1
  Ti  Ti129  1  0.70541743  0.10016574  0.38548780  1
  Ti  Ti130  1  0.10129415  0.89946257  0.38391423  1
  Ti  Ti131  1  0.39824717  0.20096927  0.74967903  1
  Ti  Ti132  1  0.78971457  0.80298710  -0.00444009  1
  Ti  Ti133  1  0.11339747  0.87475529  0.86311059  1
  Ti  Ti134  1  0.59559680  0.58559836  0.48813784  1
  Ti  Ti135  1  0.90177554  0.70009079  0.13416162  1
  Ti  Ti136  1  0.29441690  0.72172753  0.13223705  1
  Ti  Ti137  1  0.69211749  0.50031877  0.88586352  1
  Ti  Ti138  1  0.19406393  0.00702288  0.51332808  1
  Ti  Ti139  1  0.20228080  0.79862066  0.26414285  1
  Ti  Ti140  1  0.00193158  0.59701620  0.50098789  1
  Ti  Ti141  1  0.31292952  0.29371456  0.12504925  1
  Ti  Ti142  1  0.60188122  0.40204494  0.25861683  1
  Ti  Ti143  1  0.02545605  0.19358615  0.51073571  1
  Ti  Ti144  1  0.19842051  0.19444066  0.76752351  1
  Ti  Ti145  1  0.39569052  0.21179316  0.49920938  1
  Ti  Ti146  1  0.59173992  0.19729761  0.26307147  1
  Ti  Ti147  1  0.59821104  -0.00518065  0.74032531  1
  Ti  Ti148  1  0.20485811  0.39438199  -0.02498615  1
  Ti  Ti149  1  0.48861558  0.70366198  0.88469752  1
  Ti  Ti150  1  0.59446495  0.00552044  0.48766028  1
  Ti  Ti151  1  0.00349363  0.20192268  -0.02680097  1
  Ti  Ti152  1  0.69817242  0.69437357  0.38918826  1
  Ti  Ti153  1  0.90565522  0.29627767  0.12400374  1
  Ti  Ti154  1  0.59570711  0.59251003  0.26072460  1
  Ti  Ti155  1  0.50002491  0.90304054  0.87362665  1
  Ti  Ti156  1  0.50083241  0.70721474  0.39522832  1
  Ti  Ti157  1  0.31037294  0.09605936  0.87193653  1
  Ti  Ti158  1  0.18844570  0.59459459  0.49865842  1
  Ti  Ti159  1  0.00917888  0.39164538  0.76070043  1
  Mo  Mo160  1  0.10220403  0.29746428  0.86177094  1
  Mo  Mo161  1  0.50062687  0.90543405  0.39371502  1
  Mo  Mo162  1  0.20095697  0.20391913  0.50951300  1
  Mo  Mo163  1  0.30754860  0.29138615  0.86905024  1
  Mo  Mo164  1  0.29919270  0.90974573  0.60130693  1
  Mo  Mo165  1  0.40049542  0.19967523  0.00159133  1
  Mo  Mo166  1  0.80476883  0.20619742  0.00503473  1
  Mo  Mo167  1  0.09362761  0.69654646  0.87042554  1
  Mo  Mo168  1  0.18214437  0.81124871  0.49244044  1
  Mo  Mo169  1  0.28925721  0.90606923  0.39844103  1
  Mo  Mo170  1  0.00646956  0.79431190  0.49543939  1
  Mo  Mo171  1  0.79714189  0.20586805  0.73241681  1
  Mo  Mo172  1  0.10969966  0.89362802  0.62440330  1
  Mo  Mo173  1  0.51113357  0.50220634  0.13335087  1
  Mo  Mo174  1  0.10437711  0.10357494  0.63653873  1
  Mo  Mo175  1  0.49374777  0.11324342  0.38158568  1
  Mo  Mo176  1  0.90386093  0.30161937  0.86585381  1
  Mo  Mo177  1  0.09015326  0.08779979  0.38205614  1
  Mo  Mo178  1  0.00572866  0.80589638  0.74890543  1
  Mo  Mo179  1  0.18813957  0.79559081  0.73968179  1
  Mo  Mo180  1  0.30889378  0.89949166  0.86998335  1
  Mo  Mo181  1  0.29849779  0.50436522  0.87451086  1
  Mo  Mo182  1  0.01217908  0.00392874  -0.02446073  1
  Mo  Mo183  1  0.10512020  0.49192300  0.35557621  1
  Mo  Mo184  1  0.19587862  0.79063031  0.00709770  1
  Mo  Mo185  1  0.39464258  0.80690372  0.48363962  1
  Mo  Mo186  1  0.50616047  0.50070940  0.37830500  1
  Mo  Mo187  1  0.40402941  0.61107241  0.00350954  1
  Mo  Mo188  1  0.79803136  0.79174813  0.49885036  1
  Mo  Mo189  1  0.50663691  0.29926404  0.61831840  1
  Mo  Mo190  1  0.59940769  0.79323926  0.49168528  1
  Mo  Mo191  1  0.70238167  0.29846470  0.36574442  1
  Mo  Mo192  1  0.39635612  0.21762292  0.24474948  1
  Mo  Mo193  1  0.30509520  0.90773154  0.13141773  1
  Mo  Mo194  1  0.80145639  0.39985193  0.49394306  1
  Mo  Mo195  1  -0.00917453  0.60376893  0.23728178  1
  Mo  Mo196  1  0.69213627  0.88519080  0.87843689  1
  Mo  Mo197  1  0.79504087  0.00575012  0.50431661  1
  Mo  Mo198  1  0.09510296  0.08666952  0.86990537  1
  Mo  Mo199  1  0.20589468  0.60973252  0.24360043  1
