# generated using pymatgen
data_HfZrTaTiMo
_symmetry_space_group_name_H-M   'P 1'
_cell_length_a   15.21864456
_cell_length_b   15.21686035
_cell_length_c   16.79566836
_cell_angle_alpha   89.95896107
_cell_angle_beta   89.98577612
_cell_angle_gamma   90.02217567
_symmetry_Int_Tables_number   1
_chemical_formula_structural   HfZrTaTiMo
_chemical_formula_sum   'Hf40 Zr40 Ta40 Ti40 Mo40'
_cell_volume   3889.53928401
_cell_formula_units_Z   40
loop_
 _symmetry_equiv_pos_site_id
 _symmetry_equiv_pos_as_xyz
  1  'x, y, z'
loop_
 _atom_site_type_symbol
 _atom_site_label
 _atom_site_symmetry_multiplicity
 _atom_site_fract_x
 _atom_site_fract_y
 _atom_site_fract_z
 _atom_site_occupancy
  Hf  Hf0  1  0.29747300  0.08244171  0.87524615  1
  Hf  Hf1  1  0.31122010  0.10836466  0.12563501  1
  Hf  Hf2  1  0.29605805  0.48021820  0.63228693  1
  Hf  Hf3  1  0.39623967  -0.00208571  0.72861388  1
  Hf  Hf4  1  0.01131595  0.79143656  -0.01955734  1
  Hf  Hf5  1  0.89488356  0.90156577  0.39358159  1
  Hf  Hf6  1  0.70185242  0.31615999  0.63135337  1
  Hf  Hf7  1  0.40600720  0.39914284  -0.00445754  1
  Hf  Hf8  1  0.80814138  0.79673244  0.76173346  1
  Hf  Hf9  1  0.38294312  0.39150794  0.24958010  1
  Hf  Hf10  1  0.59016549  0.01269887  0.73815649  1
  Hf  Hf11  1  0.30538682  0.90516453  0.14372991  1
  Hf  Hf12  1  0.70707527  0.70610878  0.13256334  1
  Hf  Hf13  1  0.81318520  0.81832101  0.24626443  1
  Hf  Hf14  1  0.09166910  0.09344537  0.62810629  1
  Hf  Hf15  1  0.19587163  0.39279738  -0.01376889  1
  Hf  Hf16  1  0.91836694  0.70537270  0.38146034  1
  Hf  Hf17  1  0.29371673  0.70225358  0.13112181  1
  Hf  Hf18  1  0.80534588  0.80225864  -0.00802976  1
  Hf  Hf19  1  0.49844247  0.90733924  0.87408020  1
  Hf  Hf20  1  0.90852150  0.49129417  0.37109585  1
  Hf  Hf21  1  0.41470843  0.80215796  0.26778223  1
  Hf  Hf22  1  0.00675791  -0.00634143  -0.00604566  1
  Hf  Hf23  1  0.02387983  0.58912090  0.25381765  1
  Hf  Hf24  1  0.78943828  0.00708750  0.75295734  1
  Hf  Hf25  1  0.20709688  0.78564841  0.51181800  1
  Hf  Hf26  1  0.18906422  0.19309823  0.76185123  1
  Hf  Hf27  1  0.78261415  0.01364299  0.25217403  1
  Hf  Hf28  1  0.59484876  0.39282463  0.49191296  1
  Hf  Hf29  1  0.69591712  0.89276810  0.62185263  1
  Hf  Hf30  1  0.88881469  0.10347260  0.10945941  1
  Hf  Hf31  1  -0.01415787  0.20496457  0.24842730  1
  Hf  Hf32  1  0.80798721  0.20916142  0.75764741  1
  Hf  Hf33  1  0.89424526  0.11138802  0.62164683  1
  Hf  Hf34  1  0.30207481  0.10087412  0.38750205  1
  Hf  Hf35  1  0.68971959  0.29437493  0.36185160  1
  Hf  Hf36  1  0.49141176  0.50967333  0.37544889  1
  Hf  Hf37  1  0.51027588  0.70819077  0.13295943  1
  Hf  Hf38  1  0.41709728  0.80112168  0.49335187  1
  Hf  Hf39  1  0.18640497  -0.00961663  0.50898576  1
  Zr  Zr40  1  0.68651382  0.51286396  0.87607625  1
  Zr  Zr41  1  0.11496108  0.29757609  0.62584728  1
  Zr  Zr42  1  0.79217170  0.22176185  0.50450953  1
  Zr  Zr43  1  0.70909542  0.70305523  0.36709716  1
  Zr  Zr44  1  0.10160529  0.09620795  0.37011748  1
  Zr  Zr45  1  0.09763320  0.49779482  0.86748691  1
  Zr  Zr46  1  0.09471158  0.30804946  0.12552299  1
  Zr  Zr47  1  0.90760586  0.49407577  0.12910838  1
  Zr  Zr48  1  0.10325700  0.88290106  0.14251035  1
  Zr  Zr49  1  0.60354947  0.60205970  0.49250506  1
  Zr  Zr50  1  0.09456361  0.89422689  0.35999822  1
  Zr  Zr51  1  0.89000528  0.10569687  0.38372725  1
  Zr  Zr52  1  0.10699042  0.50796328  0.10703065  1
  Zr  Zr53  1  0.21099125  0.21035152  0.25507672  1
  Zr  Zr54  1  0.20603936  0.79428069  -0.01814310  1
  Zr  Zr55  1  -0.00864754  0.40644613  0.51506162  1
  Zr  Zr56  1  0.00460095  0.20624907  0.49575547  1
  Zr  Zr57  1  0.90530518  0.90393344  0.62549387  1
  Zr  Zr58  1  0.68650494  0.09998136  0.11000384  1
  Zr  Zr59  1  0.20557302  -0.00532721  0.00041692  1
  Zr  Zr60  1  -0.01714190  -0.00672033  0.24175530  1
  Zr  Zr61  1  0.41151669  0.58752941  0.23647531  1
  Zr  Zr62  1  0.81439014  0.60431955  0.24741367  1
  Zr  Zr63  1  0.40013743  0.19503845  0.75086329  1
  Zr  Zr64  1  0.01300494  0.20417653  -0.01352959  1
  Zr  Zr65  1  0.11095605  0.09715513  0.13309953  1
  Zr  Zr66  1  0.60007301  0.38222167  0.00699272  1
  Zr  Zr67  1  0.51682049  0.70390139  0.62393874  1
  Zr  Zr68  1  0.88670782  0.50755338  0.63069789  1
  Zr  Zr69  1  0.29343395  0.89821763  0.37065083  1
  Zr  Zr70  1  0.40319021  0.80368115  -0.00227223  1
  Zr  Zr71  1  0.11986405  0.69788964  0.37399709  1
  Zr  Zr72  1  -0.00715667  0.37866048  0.75190715  1
  Zr  Zr73  1  0.58672047  0.41474081  0.75386212  1
  Zr  Zr74  1  0.41416139  0.58888202  0.75030562  1
  Zr  Zr75  1  0.80848979  0.59842975  0.00130956  1
  Zr  Zr76  1  0.59615493  0.20369873  0.75762273  1
  Zr  Zr77  1  0.59344699  0.59181790  0.01505016  1
  Zr  Zr78  1  0.39219899  0.59954402  0.00059115  1
  Zr  Zr79  1  0.60645841  0.80393583  0.75833512  1
  Ta  Ta80  1  0.18688703  0.41430762  0.25877356  1
  Ta  Ta81  1  0.79933499  0.40824488  0.76485660  1
  Ta  Ta82  1  0.20598309  0.58036259  0.50396956  1
  Ta  Ta83  1  -0.01552057  0.40174429  -0.01622449  1
  Ta  Ta84  1  0.29131300  0.11637584  0.61124389  1
  Ta  Ta85  1  0.61317718  0.81037429  0.48310601  1
  Ta  Ta86  1  0.69628925  0.90521934  0.11461111  1
  Ta  Ta87  1  0.68653648  0.09705864  0.38929605  1
  Ta  Ta88  1  0.71956499  0.69825763  0.61875825  1
  Ta  Ta89  1  0.69619575  0.48885076  0.14339205  1
  Ta  Ta90  1  0.80753666  0.59977004  0.49363989  1
  Ta  Ta91  1  0.21110022  0.79194326  0.74576517  1
  Ta  Ta92  1  -0.00931558  0.60568777  0.75919775  1
  Ta  Ta93  1  0.10622841  0.69571386  0.12697199  1
  Ta  Ta94  1  0.78616281  -0.00194812  0.50488837  1
  Ta  Ta95  1  0.51045880  0.90946603  0.12894550  1
  Ta  Ta96  1  0.30707830  0.68607423  0.62251481  1
  Ta  Ta97  1  0.58007243  0.39398332  0.24776496  1
  Ta  Ta98  1  0.88458032  0.30191389  0.12469724  1
  Ta  Ta99  1  0.38860865  0.40696812  0.49429902  1
  Ta  Ta100  1  0.50526075  0.68889289  0.87223267  1
  Ta  Ta101  1  0.08900279  0.31407825  0.37165709  1
  Ta  Ta102  1  0.59239260  0.18624019  0.25228610  1
  Ta  Ta103  1  0.90376820  0.90666129  0.87253446  1
  Ta  Ta104  1  0.20357577  0.60235240  0.75571282  1
  Ta  Ta105  1  0.41215907  0.01297836  0.25879053  1
  Ta  Ta106  1  0.78975112  0.21065310  -0.01148826  1
  Ta  Ta107  1  0.48760145  0.30427864  0.62107438  1
  Ta  Ta108  1  0.49919106  0.11139665  0.39286032  1
  Ta  Ta109  1  0.58554023  -0.00182041  0.50967818  1
  Ta  Ta110  1  0.79574648  0.40028040  -0.00427974  1
  Ta  Ta111  1  0.89059290  0.09926679  0.88419001  1
  Ta  Ta112  1  0.01302667  0.80526876  0.51282786  1
  Ta  Ta113  1  0.39752840  0.38710692  0.76324215  1
  Ta  Ta114  1  0.32272622  0.67660124  0.38449697  1
  Ta  Ta115  1  0.11033839  0.90972445  0.85037212  1
  Ta  Ta116  1  0.70101332  0.49526412  0.35287014  1
  Ta  Ta117  1  0.40419373  0.19767892  -0.00999337  1
  Ta  Ta118  1  0.92121613  0.70679579  0.12377407  1
  Ta  Ta119  1  0.09952152  0.89442293  0.64585072  1
  Ti  Ti120  1  0.29540057  0.29872773  0.11420950  1
  Ti  Ti121  1  0.69551100  0.30188025  0.87324790  1
  Ti  Ti122  1  0.79627657  0.60595691  0.75850287  1
  Ti  Ti123  1  0.49782274  0.49987102  0.61472162  1
  Ti  Ti124  1  0.19749186  0.61033170  -0.02329192  1
  Ti  Ti125  1  0.39970250  -0.00162271  0.51341445  1
  Ti  Ti126  1  0.68610866  0.11211439  0.61222248  1
  Ti  Ti127  1  0.30022060  0.89181336  0.62480311  1
  Ti  Ti128  1  0.59351900  -0.00484860  0.26325565  1
  Ti  Ti129  1  0.59893230  0.80399751  -0.00353958  1
  Ti  Ti130  1  0.29446374  0.49356995  0.11858649  1
  Ti  Ti131  1  0.20472193  0.39230168  0.76266011  1
  Ti  Ti132  1  0.41087062  0.20564883  0.26006657  1
  Ti  Ti133  1  0.49593298  0.28666984  0.12514530  1
  Ti  Ti134  1  0.69245233  0.51518282  0.63127865  1
  Ti  Ti135  1  0.19512615  0.39030751  0.49392193  1
  Ti  Ti136  1  0.29574659  0.30212634  0.38240544  1
  Ti  Ti137  1  0.30671256  0.50260588  0.87105436  1
  Ti  Ti138  1  0.50145294  0.09827959  0.12321926  1
  Ti  Ti139  1  0.90672733  0.70310389  0.62056528  1
  Ti  Ti140  1  0.10190214  0.69373996  0.63472348  1
  Ti  Ti141  1  0.00357573  0.79275174  0.76019827  1
  Ti  Ti142  1  0.09965912  0.50489695  0.63987213  1
  Ti  Ti143  1  0.58926790  0.18562039  -0.02204188  1
  Ti  Ti144  1  0.69687636  0.70485101  0.88047744  1
  Ti  Ti145  1  0.60740832  0.81248258  0.26593328  1
  Ti  Ti146  1  0.21709890  0.59321936  0.25681544  1
  Ti  Ti147  1  0.39823582  0.21461263  0.50278178  1
  Ti  Ti148  1  0.89641062  0.89982436  0.11124707  1
  Ti  Ti149  1  0.70063557  0.92008336  0.88940388  1
  Ti  Ti150  1  0.40488787  0.79362527  0.74297331  1
  Ti  Ti151  1  0.01217169  0.60238241  0.50593790  1
  Ti  Ti152  1  0.88558465  0.30649058  0.35939549  1
  Ti  Ti153  1  0.69859359  0.29231306  0.13812122  1
  Ti  Ti154  1  -0.00232536  0.01525086  0.76039181  1
  Ti  Ti155  1  0.00027399  0.60430657  -0.02106585  1
  Ti  Ti156  1  0.29690732  0.29026910  0.88175803  1
  Ti  Ti157  1  0.30428621  0.89038804  0.85761895  1
  Ti  Ti158  1  0.41191337  0.00142275  0.00209217  1
  Ti  Ti159  1  0.79114824  0.41348608  0.49666056  1
  Mo  Mo160  1  0.59163953  -0.00432649  0.00016007  1
  Mo  Mo161  1  0.69662448  0.09975457  0.88326074  1
  Mo  Mo162  1  0.49578320  0.89871004  0.62258155  1
  Mo  Mo163  1  0.20518527  -0.00473014  0.73515574  1
  Mo  Mo164  1  0.20888576  0.78152810  0.25408428  1
  Mo  Mo165  1  0.49480859  0.49947907  0.87541779  1
  Mo  Mo166  1  0.50822704  0.70373534  0.37138715  1
  Mo  Mo167  1  0.21190764  0.19946171  -0.00827103  1
  Mo  Mo168  1  0.61027416  0.61034270  0.74556154  1
  Mo  Mo169  1  0.49479537  0.09363096  0.87686150  1
  Mo  Mo170  1  -0.00246593  0.78916154  0.24513376  1
  Mo  Mo171  1  0.39656549  0.59739428  0.50873329  1
  Mo  Mo172  1  0.89691070  0.70032815  0.87098621  1
  Mo  Mo173  1  0.89490696  0.30462442  0.62970044  1
  Mo  Mo174  1  0.78782612  0.19847813  0.24647274  1
  Mo  Mo175  1  0.48817784  0.29773722  0.37523103  1
  Mo  Mo176  1  0.59102818  0.20437878  0.50564873  1
  Mo  Mo177  1  0.29180887  0.49389546  0.38000824  1
  Mo  Mo178  1  0.20412175  0.20538029  0.49227707  1
  Mo  Mo179  1  0.10339976  0.70271777  0.85615108  1
  Mo  Mo180  1  -0.00528819  0.19300138  0.76460953  1
  Mo  Mo181  1  0.30863667  0.69904265  0.85939708  1
  Mo  Mo182  1  0.30312118  0.29923458  0.62390885  1
  Mo  Mo183  1  0.50640489  0.91820566  0.37844346  1
  Mo  Mo184  1  0.49402182  0.29824879  0.87720622  1
  Mo  Mo185  1  0.70188261  0.91112992  0.38278124  1
  Mo  Mo186  1  0.79950695  0.00034180  -0.00627856  1
  Mo  Mo187  1  0.00007152  0.39537747  0.24950095  1
  Mo  Mo188  1  0.49957990  0.48283595  0.13192750  1
  Mo  Mo189  1  0.89195257  0.50126892  0.87067274  1
  Mo  Mo190  1  0.09663497  0.09096743  0.86817304  1
  Mo  Mo191  1  0.89202508  0.30269146  0.88358646  1
  Mo  Mo192  1  0.10254840  0.29459011  0.87597416  1
  Mo  Mo193  1  0.10228851  0.49877184  0.38494121  1
  Mo  Mo194  1  -0.00291727  -0.00698786  0.50974298  1
  Mo  Mo195  1  0.21742145  0.00090542  0.24955825  1
  Mo  Mo196  1  0.79601649  0.39050523  0.24665196  1
  Mo  Mo197  1  0.60485207  0.59747885  0.24515260  1
  Mo  Mo198  1  0.49253008  0.10951480  0.60523994  1
  Mo  Mo199  1  0.80363684  0.79169697  0.50490241  1
