# generated using pymatgen
data_HfZrTaTiMo
_symmetry_space_group_name_H-M   'P 1'
_cell_length_a   15.16399172
_cell_length_b   15.18509424
_cell_length_c   16.82036097
_cell_angle_alpha   89.93123126
_cell_angle_beta   90.04238929
_cell_angle_gamma   89.92159735
_symmetry_Int_Tables_number   1
_chemical_formula_structural   HfZrTaTiMo
_chemical_formula_sum   'Hf40 Zr40 Ta40 Ti40 Mo40'
_cell_volume   3873.16058068
_cell_formula_units_Z   40
loop_
 _symmetry_equiv_pos_site_id
 _symmetry_equiv_pos_as_xyz
  1  'x, y, z'
loop_
 _atom_site_type_symbol
 _atom_site_label
 _atom_site_symmetry_multiplicity
 _atom_site_fract_x
 _atom_site_fract_y
 _atom_site_fract_z
 _atom_site_occupancy
  Hf  Hf0  1  0.08513434  0.48573072  0.62123158  1
  Hf  Hf1  1  0.00167048  0.00658916  0.49645977  1
  Hf  Hf2  1  0.59432985  0.80894715  0.48648220  1
  Hf  Hf3  1  0.39913882  0.81558636  0.74873065  1
  Hf  Hf4  1  0.09546880  0.50205260  0.38031646  1
  Hf  Hf5  1  0.20179395  0.60534876  0.50313515  1
  Hf  Hf6  1  0.70982566  0.28803197  0.13992638  1
  Hf  Hf7  1  0.61068758  0.17315989  0.01216510  1
  Hf  Hf8  1  0.80078564  0.58141493  0.76646234  1
  Hf  Hf9  1  0.58872193  0.19251046  0.75497500  1
  Hf  Hf10  1  0.68924980  0.89366677  0.89215372  1
  Hf  Hf11  1  0.41249200  0.60600391  0.74730874  1
  Hf  Hf12  1  0.90315654  0.49961688  0.13391576  1
  Hf  Hf13  1  0.20230562  0.38816407  0.50550935  1
  Hf  Hf14  1  0.58773455  0.40987298  0.49457915  1
  Hf  Hf15  1  0.19456983  0.79895881  0.23316260  1
  Hf  Hf16  1  0.68932276  0.89366039  0.62364305  1
  Hf  Hf17  1  0.29911565  0.30032391  0.87406736  1
  Hf  Hf18  1  0.89519303  0.11004154  0.62115062  1
  Hf  Hf19  1  -0.00654510  0.00578573  0.24263200  1
  Hf  Hf20  1  0.30535601  0.08429986  0.62117055  1
  Hf  Hf21  1  0.69460858  0.68670598  0.62734984  1
  Hf  Hf22  1  0.58335428  0.40257241  0.24314405  1
  Hf  Hf23  1  0.20559040  0.19028530  0.75152112  1
  Hf  Hf24  1  0.19397028  0.39967340  0.24877751  1
  Hf  Hf25  1  0.49572708  0.68715558  0.37826354  1
  Hf  Hf26  1  0.09581312  0.90852538  0.11222133  1
  Hf  Hf27  1  0.79408939  0.21443087  0.74407244  1
  Hf  Hf28  1  0.19143345  0.19874603  0.25711831  1
  Hf  Hf29  1  0.40852505  0.20172527  0.01797317  1
  Hf  Hf30  1  -0.00418399  0.59856694  0.75359381  1
  Hf  Hf31  1  0.49955978  0.11795851  0.61227065  1
  Hf  Hf32  1  0.90467708  0.89021751  0.36494919  1
  Hf  Hf33  1  0.32062712  0.50048180  0.36923471  1
  Hf  Hf34  1  0.09931098  0.89433908  0.88657122  1
  Hf  Hf35  1  -0.00465820  0.02765934  -0.00405640  1
  Hf  Hf36  1  0.30427749  0.89812639  0.88452311  1
  Hf  Hf37  1  0.10146401  0.70339940  0.63275029  1
  Hf  Hf38  1  0.79776451  0.79054093  0.75996115  1
  Hf  Hf39  1  0.20804892  0.79146326  0.01477861  1
  Zr  Zr40  1  0.80420814  0.57996740  -0.01243426  1
  Zr  Zr41  1  0.11342850  0.90190526  0.63880597  1
  Zr  Zr42  1  -0.00708244  0.22022414  0.49966307  1
  Zr  Zr43  1  0.88919852  0.90926418  0.11081639  1
  Zr  Zr44  1  0.00293518  0.21773267  0.74587827  1
  Zr  Zr45  1  0.89483191  0.90170594  0.89492141  1
  Zr  Zr46  1  0.39512160  0.41292835  0.00015030  1
  Zr  Zr47  1  0.79663070  0.79134315  0.23637378  1
  Zr  Zr48  1  0.18288953  0.40117578  0.00207265  1
  Zr  Zr49  1  0.20633614  -0.01988781  0.48533582  1
  Zr  Zr50  1  0.69673307  0.09400097  0.61426625  1
  Zr  Zr51  1  0.60017159  0.39083217  0.01416102  1
  Zr  Zr52  1  0.69307276  0.28976917  0.60302314  1
  Zr  Zr53  1  0.28966313  0.30034789  0.12508973  1
  Zr  Zr54  1  0.20088320  0.18929657  0.49509602  1
  Zr  Zr55  1  0.70116649  0.50240919  0.12962440  1
  Zr  Zr56  1  0.30920993  0.49657246  0.62884897  1
  Zr  Zr57  1  0.49927280  0.71218922  0.61704774  1
  Zr  Zr58  1  0.59697245  0.01161897  0.47415878  1
  Zr  Zr59  1  0.30764444  0.90621712  0.12990006  1
  Zr  Zr60  1  0.40178410  0.20961251  0.24656608  1
  Zr  Zr61  1  0.31079445  0.69513653  0.87912255  1
  Zr  Zr62  1  0.81830627  0.39574379  0.47854938  1
  Zr  Zr63  1  0.60031902  0.61124958  -0.00667639  1
  Zr  Zr64  1  0.00386031  0.80160501  0.50547233  1
  Zr  Zr65  1  0.78740172  0.59226665  0.48890650  1
  Zr  Zr66  1  -0.01705017  0.59324616  0.50118840  1
  Zr  Zr67  1  0.00368668  0.01379804  0.76655174  1
  Zr  Zr68  1  0.50809121  0.29449802  0.88251687  1
  Zr  Zr69  1  0.89761646  0.90160335  0.63066623  1
  Zr  Zr70  1  0.40880571  0.20891905  0.48394152  1
  Zr  Zr71  1  0.00186447  0.22039471  -0.00217691  1
  Zr  Zr72  1  0.41700610  0.39489469  0.75253134  1
  Zr  Zr73  1  0.19228037  0.60538268  0.24354384  1
  Zr  Zr74  1  0.68293249  0.89543945  0.12119109  1
  Zr  Zr75  1  0.79767110  -0.00533942  0.47896430  1
  Zr  Zr76  1  0.29202382  0.70798534  0.37490120  1
  Zr  Zr77  1  0.11011654  0.69401629  0.87863542  1
  Zr  Zr78  1  0.41237377  0.00823578  0.00549844  1
  Zr  Zr79  1  0.78806519  0.00477554  0.76107773  1
  Ta  Ta80  1  0.88426086  0.12370002  0.87577517  1
  Ta  Ta81  1  -0.00116954  0.79974491  0.75648237  1
  Ta  Ta82  1  0.69163062  0.29673828  0.36864806  1
  Ta  Ta83  1  0.42178812  0.79671651  0.00788469  1
  Ta  Ta84  1  0.89291868  0.32077738  0.87430420  1
  Ta  Ta85  1  0.29205866  0.50209374  0.86660788  1
  Ta  Ta86  1  0.09938290  0.11582127  0.12806881  1
  Ta  Ta87  1  0.59710319  0.79800710  0.75492299  1
  Ta  Ta88  1  0.90586076  0.70244707  0.88652000  1
  Ta  Ta89  1  0.21060627  -0.00496134  0.76336015  1
  Ta  Ta90  1  0.80087149  0.59723642  0.25732959  1
  Ta  Ta91  1  0.79903879  0.79325490  0.49701000  1
  Ta  Ta92  1  0.59966533  0.60940418  0.24753302  1
  Ta  Ta93  1  0.10319996  0.10134231  0.62573274  1
  Ta  Ta94  1  0.29944380  0.50522836  0.13172549  1
  Ta  Ta95  1  0.31609948  0.28870049  0.63014515  1
  Ta  Ta96  1  0.78718520  0.77439110  0.00794702  1
  Ta  Ta97  1  0.20093520  0.01508905  -0.00482115  1
  Ta  Ta98  1  0.32695241  0.69058093  0.12489093  1
  Ta  Ta99  1  0.90583968  0.29570308  0.14159069  1
  Ta  Ta100  1  0.41430650  0.58776565  0.50736222  1
  Ta  Ta101  1  0.69833090  0.70299886  0.37304492  1
  Ta  Ta102  1  0.48597477  0.51846211  0.12461141  1
  Ta  Ta103  1  0.20210585  0.00356980  0.25745001  1
  Ta  Ta104  1  0.71534794  0.08709790  0.15147816  1
  Ta  Ta105  1  0.10361578  0.89070766  0.36404170  1
  Ta  Ta106  1  0.08840120  0.70724625  0.37363095  1
  Ta  Ta107  1  0.71033161  0.28084796  0.88429135  1
  Ta  Ta108  1  0.09252414  0.09649460  0.37128656  1
  Ta  Ta109  1  0.29671075  0.70993338  0.62336713  1
  Ta  Ta110  1  0.71094135  0.48889831  0.62701544  1
  Ta  Ta111  1  0.40825030  0.01748999  0.75615030  1
  Ta  Ta112  1  0.49833963  0.89870277  0.14542632  1
  Ta  Ta113  1  0.40013216  -0.00343398  0.47121303  1
  Ta  Ta114  1  0.51186053  0.08682490  0.14909993  1
  Ta  Ta115  1  0.19689906  0.19619684  -0.00275860  1
  Ta  Ta116  1  0.29917094  0.30638968  0.37025000  1
  Ta  Ta117  1  0.50237433  0.90729891  0.87904977  1
  Ta  Ta118  1  0.20293199  0.59671018  0.74410772  1
  Ta  Ta119  1  0.19137066  0.39336681  0.74376963  1
  Ti  Ti120  1  0.50931801  0.71011221  0.87628791  1
  Ti  Ti121  1  0.31301606  0.10480652  0.87790898  1
  Ti  Ti122  1  0.09356629  0.30255216  0.37610710  1
  Ti  Ti123  1  0.60273221  0.19962326  0.25361154  1
  Ti  Ti124  1  0.51966265  0.50195979  0.63021986  1
  Ti  Ti125  1  0.09523500  0.49727234  0.12641273  1
  Ti  Ti126  1  0.09915398  0.49528157  0.87078134  1
  Ti  Ti127  1  0.80155768  0.39709078  0.26418340  1
  Ti  Ti128  1  0.89220864  0.69443220  0.62870707  1
  Ti  Ti129  1  -0.01275064  0.40797207  0.75343489  1
  Ti  Ti130  1  0.29808538  0.09585949  0.13100577  1
  Ti  Ti131  1  0.08736458  0.69261440  0.11345917  1
  Ti  Ti132  1  0.60723550  0.59335646  0.76548731  1
  Ti  Ti133  1  0.51994985  0.71059326  0.12959664  1
  Ti  Ti134  1  0.49123357  0.91753105  0.61848521  1
  Ti  Ti135  1  0.89972951  0.69615946  0.37248354  1
  Ti  Ti136  1  0.90298998  0.33036488  0.62360974  1
  Ti  Ti137  1  0.61777843  0.39099669  0.74636608  1
  Ti  Ti138  1  -0.00234957  0.79263619  0.23412260  1
  Ti  Ti139  1  0.38596845  0.80973428  0.49107133  1
  Ti  Ti140  1  0.40713645  0.79739588  0.25477367  1
  Ti  Ti141  1  -0.00214888  0.40190721  0.25675631  1
  Ti  Ti142  1  0.68406044  0.50353587  0.36725778  1
  Ti  Ti143  1  0.20900734  0.59116769  0.00721369  1
  Ti  Ti144  1  0.49872104  0.10598251  0.35826216  1
  Ti  Ti145  1  0.80966020  0.19645458  0.01102252  1
  Ti  Ti146  1  0.00435613  0.59712029  -0.00299087  1
  Ti  Ti147  1  0.79467539  0.19033458  0.46819040  1
  Ti  Ti148  1  0.60495941  -0.01691061  0.27126772  1
  Ti  Ti149  1  -0.00529636  0.60658139  0.24913077  1
  Ti  Ti150  1  0.80564006  0.38558294  0.00789985  1
  Ti  Ti151  1  -0.00616152  0.20182785  0.25602891  1
  Ti  Ti152  1  -0.00754837  0.40777033  0.00252298  1
  Ti  Ti153  1  0.78203771  0.01895078  -0.00191020  1
  Ti  Ti154  1  0.48970754  0.32195237  0.36983513  1
  Ti  Ti155  1  0.09809782  0.30309497  0.87094372  1
  Ti  Ti156  1  0.30289833  0.89496701  0.62422194  1
  Ti  Ti157  1  0.49700381  0.50505773  0.87945351  1
  Ti  Ti158  1  0.59329703  -0.00472793  0.75206086  1
  Ti  Ti159  1  0.70259707  0.47142125  0.87674672  1
  Mo  Mo160  1  0.39881182  0.60481108  -0.00364180  1
  Mo  Mo161  1  0.80710721  0.19746500  0.26375504  1
  Mo  Mo162  1  0.39949513  0.00202907  0.26477105  1
  Mo  Mo163  1  0.50523926  0.09334745  0.87739716  1
  Mo  Mo164  1  -0.00674490  0.78967986  0.00920040  1
  Mo  Mo165  1  0.39736661  0.40685935  0.23859994  1
  Mo  Mo166  1  0.08628349  0.30584121  0.13211200  1
  Mo  Mo167  1  0.91044755  0.49524467  0.88308618  1
  Mo  Mo168  1  0.50041099  0.31142805  0.62313910  1
  Mo  Mo169  1  0.69683553  0.09634944  0.87657742  1
  Mo  Mo170  1  0.40739091  0.60358937  0.24483615  1
  Mo  Mo171  1  0.90495628  0.10117079  0.37214427  1
  Mo  Mo172  1  0.60118984  0.59881304  0.50067328  1
  Mo  Mo173  1  0.89080375  0.50211520  0.62691379  1
  Mo  Mo174  1  0.20206455  0.79836901  0.49729050  1
  Mo  Mo175  1  0.79615505  0.39526670  0.75061171  1
  Mo  Mo176  1  0.49337179  0.89295842  0.36066432  1
  Mo  Mo177  1  0.59486855  -0.00186151  0.01334660  1
  Mo  Mo178  1  0.50728175  0.29913450  0.12630329  1
  Mo  Mo179  1  0.50061606  0.50290953  0.37098149  1
  Mo  Mo180  1  0.29962155  0.89714437  0.35822038  1
  Mo  Mo181  1  0.59574900  0.80113077  0.00051328  1
  Mo  Mo182  1  0.80005682  -0.00182477  0.26040877  1
  Mo  Mo183  1  0.59796964  0.79533464  0.26091211  1
  Mo  Mo184  1  0.90280209  0.29943645  0.35755096  1
  Mo  Mo185  1  0.70403907  0.88898381  0.36882303  1
  Mo  Mo186  1  0.10544963  0.29694837  0.63012813  1
  Mo  Mo187  1  0.60049705  0.20626343  0.47124827  1
  Mo  Mo188  1  0.10976897  0.10721498  0.87645693  1
  Mo  Mo189  1  0.20298608  0.80159064  0.75177906  1
  Mo  Mo190  1  0.39728064  0.40130206  0.50488254  1
  Mo  Mo191  1  0.70365465  0.69158662  0.12856378  1
  Mo  Mo192  1  0.90084519  0.50387493  0.35486068  1
  Mo  Mo193  1  0.90490553  0.69125696  0.11514212  1
  Mo  Mo194  1  0.89511485  0.11098401  0.12675448  1
  Mo  Mo195  1  0.29942136  0.10165498  0.36848933  1
  Mo  Mo196  1  0.39976367  0.19647296  0.74983788  1
  Mo  Mo197  1  0.69991199  0.09999572  0.35071992  1
  Mo  Mo198  1  0.00072283  0.39867508  0.49195367  1
  Mo  Mo199  1  0.69676546  0.69503691  0.86845095  1
