# generated using pymatgen
data_HfZrTaTiMo
_symmetry_space_group_name_H-M   'P 1'
_cell_length_a   15.20977604
_cell_length_b   15.22218908
_cell_length_c   16.84449864
_cell_angle_alpha   89.99963488
_cell_angle_beta   89.99768713
_cell_angle_gamma   89.95250275
_symmetry_Int_Tables_number   1
_chemical_formula_structural   HfZrTaTiMo
_chemical_formula_sum   'Hf40 Zr40 Ta40 Ti40 Mo40'
_cell_volume   3899.93951058
_cell_formula_units_Z   40
loop_
 _symmetry_equiv_pos_site_id
 _symmetry_equiv_pos_as_xyz
  1  'x, y, z'
loop_
 _atom_site_type_symbol
 _atom_site_label
 _atom_site_symmetry_multiplicity
 _atom_site_fract_x
 _atom_site_fract_y
 _atom_site_fract_z
 _atom_site_occupancy
  Hf  Hf0  1  0.39854545  0.79937598  0.74940888  1
  Hf  Hf1  1  0.19600678  0.40440744  0.49966560  1
  Hf  Hf2  1  0.78883328  0.00334341  0.01211106  1
  Hf  Hf3  1  0.00138909  0.19307995  -0.01345811  1
  Hf  Hf4  1  0.30256619  0.30941697  0.86859586  1
  Hf  Hf5  1  0.91098784  0.51943469  0.63370613  1
  Hf  Hf6  1  0.51744704  0.28743839  0.86249777  1
  Hf  Hf7  1  0.40813185  0.20137940  -0.00085251  1
  Hf  Hf8  1  0.09603178  0.89433491  0.61793753  1
  Hf  Hf9  1  0.88695594  0.09052724  0.87392667  1
  Hf  Hf10  1  0.61493971  0.17612254  0.00080914  1
  Hf  Hf11  1  -0.00437557  0.79141245  0.74854167  1
  Hf  Hf12  1  0.18221557  0.60864700  0.50528523  1
  Hf  Hf13  1  0.81213090  -0.00344489  0.25001801  1
  Hf  Hf14  1  0.20857015  0.80922581  0.00109650  1
  Hf  Hf15  1  0.40837399  0.41809973  0.25971585  1
  Hf  Hf16  1  0.51938093  0.29271293  0.13740176  1
  Hf  Hf17  1  0.20083154  0.20898853  0.51384187  1
  Hf  Hf18  1  0.39054981  -0.00520860  -0.00011980  1
  Hf  Hf19  1  -0.00729346  0.20586389  0.75710150  1
  Hf  Hf20  1  0.78346928  0.19023498  0.75381623  1
  Hf  Hf21  1  0.59455400  0.18033360  0.48660334  1
  Hf  Hf22  1  0.50818189  0.49955142  0.63074865  1
  Hf  Hf23  1  0.29213191  0.72228586  0.38568207  1
  Hf  Hf24  1  0.29707704  0.51654974  0.86095027  1
  Hf  Hf25  1  0.29265597  0.29242899  0.36827219  1
  Hf  Hf26  1  0.62587544  0.18449230  0.26703194  1
  Hf  Hf27  1  0.19015846  0.01040233  -0.01056275  1
  Hf  Hf28  1  0.21249717  0.42190286  0.01095773  1
  Hf  Hf29  1  -0.01446549  0.61051768  0.00860656  1
  Hf  Hf30  1  0.60151521  0.78998671  0.74804517  1
  Hf  Hf31  1  0.71232852  0.49380520  0.87224001  1
  Hf  Hf32  1  0.29058072  0.49834075  0.63255146  1
  Hf  Hf33  1  0.20282757  0.20419883  -0.00311837  1
  Hf  Hf34  1  0.20107545  -0.00421087  0.75475218  1
  Hf  Hf35  1  0.38555493  0.18115822  0.23520706  1
  Hf  Hf36  1  0.89706923  0.89170635  0.87845824  1
  Hf  Hf37  1  0.49475518  0.29369228  0.63280218  1
  Hf  Hf38  1  0.88533254  0.32063424  0.36965216  1
  Hf  Hf39  1  0.20072437  0.01641910  0.50714833  1
  Zr  Zr40  1  0.22010301  0.01485694  0.24130507  1
  Zr  Zr41  1  0.07978765  0.51860548  0.36453594  1
  Zr  Zr42  1  -0.01179623  0.40641553  -0.00199757  1
  Zr  Zr43  1  0.19843611  0.41470649  0.24381551  1
  Zr  Zr44  1  0.09189141  0.31012275  0.12175267  1
  Zr  Zr45  1  0.70180309  0.90816935  0.87662498  1
  Zr  Zr46  1  0.50724430  0.07874206  0.13203467  1
  Zr  Zr47  1  0.38822685  0.59616769  0.00167030  1
  Zr  Zr48  1  0.10484674  0.91338691  0.38795246  1
  Zr  Zr49  1  0.20111046  0.81878757  0.24588678  1
  Zr  Zr50  1  0.51372037  0.89701324  0.61933077  1
  Zr  Zr51  1  0.48827159  0.48432545  0.11112087  1
  Zr  Zr52  1  0.50551800  0.89159929  0.88659568  1
  Zr  Zr53  1  0.71585917  0.89394053  0.61664898  1
  Zr  Zr54  1  0.49740121  0.29299910  0.36267899  1
  Zr  Zr55  1  0.09790458  0.50473541  0.87473066  1
  Zr  Zr56  1  0.39911645  0.40635828  0.49557337  1
  Zr  Zr57  1  0.60105982  0.56420438  0.26391132  1
  Zr  Zr58  1  0.61411043  0.38418292  -0.00703299  1
  Zr  Zr59  1  0.88983375  0.31117685  0.13358278  1
  Zr  Zr60  1  0.72535116  0.87405702  0.37621926  1
  Zr  Zr61  1  0.60994360  0.38556388  0.48141512  1
  Zr  Zr62  1  0.59676272  0.58557538  0.49011736  1
  Zr  Zr63  1  0.30277632  0.89357915  0.61809989  1
  Zr  Zr64  1  0.00436858  0.20373634  0.50502332  1
  Zr  Zr65  1  0.51147192  0.68672509  0.13041619  1
  Zr  Zr66  1  0.18976528  0.61494234  0.01761653  1
  Zr  Zr67  1  0.60128228  -0.02833834  0.26137797  1
  Zr  Zr68  1  0.39850631  0.61513736  0.73847700  1
  Zr  Zr69  1  0.47937428  0.08058578  0.36253773  1
  Zr  Zr70  1  0.69272228  0.28519568  0.62570285  1
  Zr  Zr71  1  -0.00718786  0.41887001  0.50417908  1
  Zr  Zr72  1  0.31876555  0.32301281  0.11618605  1
  Zr  Zr73  1  -0.00352057  0.20058777  0.24694870  1
  Zr  Zr74  1  -0.00604465  0.81236704  0.26052682  1
  Zr  Zr75  1  0.49634894  0.87677349  0.11468723  1
  Zr  Zr76  1  0.09092866  0.30810392  0.36435932  1
  Zr  Zr77  1  0.71247657  0.49053488  0.62258004  1
  Zr  Zr78  1  0.91400793  0.09566835  0.38081513  1
  Zr  Zr79  1  0.40973776  0.00899134  0.50921899  1
  Ta  Ta80  1  0.79535345  0.20049660  0.49626361  1
  Ta  Ta81  1  0.00419389  0.80410075  -0.00031212  1
  Ta  Ta82  1  -0.00649036  -0.00069991  0.74905483  1
  Ta  Ta83  1  0.19333310  0.19999220  0.75737407  1
  Ta  Ta84  1  0.29693397  0.52098132  0.37444387  1
  Ta  Ta85  1  0.80965092  0.39599913  0.74980318  1
  Ta  Ta86  1  0.69842104  0.69091371  0.61598776  1
  Ta  Ta87  1  0.70352419  0.88093182  0.12951373  1
  Ta  Ta88  1  0.17926658  0.60445488  0.73632847  1
  Ta  Ta89  1  0.00667914  0.40890959  0.74830214  1
  Ta  Ta90  1  0.79879223  0.21602667  -0.00670931  1
  Ta  Ta91  1  0.01154021  0.00330639  0.24170824  1
  Ta  Ta92  1  0.49520078  0.69247172  0.37269602  1
  Ta  Ta93  1  0.40521743  0.81219435  0.25743778  1
  Ta  Ta94  1  0.30467240  0.10767151  0.64204622  1
  Ta  Ta95  1  0.29779980  0.30045356  0.64430118  1
  Ta  Ta96  1  0.50441283  0.49758070  0.87130787  1
  Ta  Ta97  1  0.60615497  0.59475863  -0.00580831  1
  Ta  Ta98  1  0.51247885  0.08537943  0.87426815  1
  Ta  Ta99  1  0.39551632  0.61663135  0.51210721  1
  Ta  Ta100  1  0.49792151  0.69288880  0.88402730  1
  Ta  Ta101  1  0.10040308  0.70386068  0.87424977  1
  Ta  Ta102  1  0.71872575  0.67301448  0.37852089  1
  Ta  Ta103  1  0.18880101  0.62299030  0.24813309  1
  Ta  Ta104  1  0.59946311  0.78357607  0.49387248  1
  Ta  Ta105  1  0.30978838  0.71940076  0.13149573  1
  Ta  Ta106  1  0.09585566  0.90101531  0.87164243  1
  Ta  Ta107  1  0.19929793  0.20534744  0.22998191  1
  Ta  Ta108  1  0.89500597  0.30416864  0.62570846  1
  Ta  Ta109  1  0.61486754  -0.00972868  0.48309797  1
  Ta  Ta110  1  0.20047631  0.78941748  0.74997993  1
  Ta  Ta111  1  0.89471862  0.09567672  0.62359866  1
  Ta  Ta112  1  0.41174294  0.00244401  0.75185494  1
  Ta  Ta113  1  0.60471421  0.59928218  0.75401770  1
  Ta  Ta114  1  -0.02542907  0.61959240  0.24869220  1
  Ta  Ta115  1  0.09521780  0.10139546  0.63756198  1
  Ta  Ta116  1  0.39067819  0.19959176  0.50564985  1
  Ta  Ta117  1  0.07939100  0.51300515  0.14111683  1
  Ta  Ta118  1  0.70241371  0.69902700  0.87838614  1
  Ta  Ta119  1  -0.00593402  0.79814723  0.48783874  1
  Ti  Ti120  1  0.70926086  0.09766958  0.13401999  1
  Ti  Ti121  1  0.61791416  0.00779690  0.74833573  1
  Ti  Ti122  1  -0.00188706  -0.00096988  -0.00121949  1
  Ti  Ti123  1  0.08452705  0.71533230  0.12896884  1
  Ti  Ti124  1  0.79803688  0.80110089  0.74846796  1
  Ti  Ti125  1  0.09828470  0.10222833  0.12085862  1
  Ti  Ti126  1  0.90496176  0.89794716  0.12025660  1
  Ti  Ti127  1  0.88874576  0.71038621  0.61587108  1
  Ti  Ti128  1  0.79460373  0.59489649  0.00072343  1
  Ti  Ti129  1  0.30160549  0.89187759  0.87144406  1
  Ti  Ti130  1  0.89097738  0.31473735  0.87524795  1
  Ti  Ti131  1  0.61097778  0.78840192  0.00248744  1
  Ti  Ti132  1  0.70811707  0.29457512  0.13528812  1
  Ti  Ti133  1  0.60845703  0.77646444  0.25848281  1
  Ti  Ti134  1  0.10096501  0.90929232  0.11931094  1
  Ti  Ti135  1  0.88090419  0.51048948  0.13075797  1
  Ti  Ti136  1  0.81658929  -0.00737670  0.49129307  1
  Ti  Ti137  1  0.08202795  0.69443638  0.62166246  1
  Ti  Ti138  1  0.89650966  0.69744750  0.87649818  1
  Ti  Ti139  1  0.69457223  0.48641967  0.12108455  1
  Ti  Ti140  1  0.70777311  0.68160605  0.12932323  1
  Ti  Ti141  1  0.50949397  0.10018550  0.63099429  1
  Ti  Ti142  1  0.49780258  0.88182931  0.38525610  1
  Ti  Ti143  1  0.11805851  0.11189601  0.36891064  1
  Ti  Ti144  1  0.80925641  0.77717315  0.24235665  1
  Ti  Ti145  1  0.40670047  0.40443451  0.75480866  1
  Ti  Ti146  1  0.38975401  0.61112336  0.25223928  1
  Ti  Ti147  1  0.70357010  0.08554460  0.61462000  1
  Ti  Ti148  1  0.31092483  0.91853769  0.38634065  1
  Ti  Ti149  1  0.90077558  0.10623189  0.12198142  1
  Ti  Ti150  1  0.30397745  0.09895098  0.86702021  1
  Ti  Ti151  1  0.90359482  0.90266957  0.61894489  1
  Ti  Ti152  1  0.10032253  0.30675321  0.87271823  1
  Ti  Ti153  1  0.10149099  0.31205344  0.63757285  1
  Ti  Ti154  1  0.79998407  0.61195042  0.75134945  1
  Ti  Ti155  1  0.40348537  0.19194967  0.75572695  1
  Ti  Ti156  1  0.80478098  0.78798295  0.00879054  1
  Ti  Ti157  1  0.61285246  0.39252104  0.75409597  1
  Ti  Ti158  1  0.77878461  0.40894540  0.25568676  1
  Ti  Ti159  1  0.90252180  0.50934691  0.86530106  1
  Mo  Mo160  1  0.30225193  0.90346012  0.11923809  1
  Mo  Mo161  1  0.09658453  0.50256254  0.62988895  1
  Mo  Mo162  1  -0.02611319  0.42849508  0.24601463  1
  Mo  Mo163  1  0.69472088  0.09844786  0.87657262  1
  Mo  Mo164  1  0.48345822  0.50694814  0.38009706  1
  Mo  Mo165  1  0.60605025  0.38930064  0.25980004  1
  Mo  Mo166  1  0.39398313  -0.01645803  0.24576672  1
  Mo  Mo167  1  0.19577056  0.39799151  0.74913939  1
  Mo  Mo168  1  0.89098985  0.70870690  0.11902737  1
  Mo  Mo169  1  0.40857764  0.39516148  -0.03290023  1
  Mo  Mo170  1  0.80443820  0.19212500  0.25087760  1
  Mo  Mo171  1  0.90766197  0.90356092  0.37738987  1
  Mo  Mo172  1  0.29179208  0.10645838  0.37891568  1
  Mo  Mo173  1  0.29524676  0.10597121  0.11006309  1
  Mo  Mo174  1  0.09652079  0.70618760  0.37565172  1
  Mo  Mo175  1  0.40735517  0.79881509  0.49492272  1
  Mo  Mo176  1  0.71578433  0.48104237  0.38481795  1
  Mo  Mo177  1  0.80644336  -0.00637094  0.74111162  1
  Mo  Mo178  1  -0.00735726  0.61130534  0.75628319  1
  Mo  Mo179  1  0.59180902  0.18073069  0.74667589  1
  Mo  Mo180  1  0.71312988  0.08581487  0.38616412  1
  Mo  Mo181  1  0.80080197  0.40628088  0.00070227  1
  Mo  Mo182  1  0.89183001  0.70818530  0.37850629  1
  Mo  Mo183  1  0.70973889  0.28761037  0.37408938  1
  Mo  Mo184  1  0.00164942  0.00518585  0.51482577  1
  Mo  Mo185  1  0.28803937  0.70880174  0.61351479  1
  Mo  Mo186  1  -0.01214403  0.61758225  0.49593464  1
  Mo  Mo187  1  0.19790520  0.80038320  0.50406983  1
  Mo  Mo188  1  0.09563706  0.09851226  0.86158232  1
  Mo  Mo189  1  0.39641710  0.78873780  -0.00858905  1
  Mo  Mo190  1  0.80951429  0.59484758  0.50260124  1
  Mo  Mo191  1  0.60832052  -0.01293932  0.01346095  1
  Mo  Mo192  1  0.71143239  0.29353844  0.86788605  1
  Mo  Mo193  1  0.80339540  0.78851717  0.50215734  1
  Mo  Mo194  1  0.79573481  0.59281493  0.24489038  1
  Mo  Mo195  1  0.87968976  0.52214531  0.37408429  1
  Mo  Mo196  1  0.50714271  0.69959894  0.61866542  1
  Mo  Mo197  1  0.29134871  0.70623147  0.87109659  1
  Mo  Mo198  1  0.28663403  0.52761313  0.14984634  1
  Mo  Mo199  1  0.80658330  0.39283576  0.50743626  1
