# generated using pymatgen
data_HfZrTaTiMo
_symmetry_space_group_name_H-M   'P 1'
_cell_length_a   15.22081365
_cell_length_b   15.21588460
_cell_length_c   16.80246817
_cell_angle_alpha   90.06034939
_cell_angle_beta   90.05548388
_cell_angle_gamma   90.07993913
_symmetry_Int_Tables_number   1
_chemical_formula_structural   HfZrTaTiMo
_chemical_formula_sum   'Hf40 Zr40 Ta40 Ti40 Mo40'
_cell_volume   3891.41266590
_cell_formula_units_Z   40
loop_
 _symmetry_equiv_pos_site_id
 _symmetry_equiv_pos_as_xyz
  1  'x, y, z'
loop_
 _atom_site_type_symbol
 _atom_site_label
 _atom_site_symmetry_multiplicity
 _atom_site_fract_x
 _atom_site_fract_y
 _atom_site_fract_z
 _atom_site_occupancy
  Hf  Hf0  1  0.02381984  0.39249702  0.24796342  1
  Hf  Hf1  1  0.61141910  0.40614982  0.73478367  1
  Hf  Hf2  1  0.19752141  -0.01922016  0.49744033  1
  Hf  Hf3  1  0.80320655  0.60965412  0.26360435  1
  Hf  Hf4  1  0.49137425  0.10062339  0.35347670  1
  Hf  Hf5  1  0.17806431  0.40793722  0.75795211  1
  Hf  Hf6  1  0.69818613  0.89820083  0.37573824  1
  Hf  Hf7  1  0.79344547  0.01187285  0.74807709  1
  Hf  Hf8  1  0.90587678  0.91590066  0.63002014  1
  Hf  Hf9  1  0.48840193  0.90993141  0.89120019  1
  Hf  Hf10  1  0.90084060  0.47762561  0.87714947  1
  Hf  Hf11  1  0.90691022  0.10501879  0.36560349  1
  Hf  Hf12  1  0.60385815  0.20960820  -0.00262756  1
  Hf  Hf13  1  0.30215760  0.08722065  0.62971533  1
  Hf  Hf14  1  0.60133468  0.60683813  0.49707663  1
  Hf  Hf15  1  0.59822607  0.40055316  -0.00180224  1
  Hf  Hf16  1  0.90623209  0.09499805  0.13998556  1
  Hf  Hf17  1  0.39985010  0.78898416  0.01908514  1
  Hf  Hf18  1  0.21439752  0.40580564  -0.01287204  1
  Hf  Hf19  1  0.50722693  0.30525775  0.85525334  1
  Hf  Hf20  1  0.89434632  0.11004678  0.87298701  1
  Hf  Hf21  1  0.29138672  0.88763991  0.89546316  1
  Hf  Hf22  1  0.60288432  0.60984159  0.75733697  1
  Hf  Hf23  1  0.18462904  0.18770077  0.75703531  1
  Hf  Hf24  1  0.91291861  0.50259978  0.12121597  1
  Hf  Hf25  1  0.69309941  0.90799386  0.87402412  1
  Hf  Hf26  1  0.40334441  0.60597317  0.25543985  1
  Hf  Hf27  1  0.91035244  0.90959183  0.36664497  1
  Hf  Hf28  1  0.69789190  0.10364803  0.12999421  1
  Hf  Hf29  1  0.29939151  0.08594876  0.88735552  1
  Hf  Hf30  1  0.60263832  0.79968399  0.00798262  1
  Hf  Hf31  1  0.90272376  0.69728027  0.12085920  1
  Hf  Hf32  1  0.01196259  0.81730325  0.50738572  1
  Hf  Hf33  1  0.68932536  0.89621401  0.62657097  1
  Hf  Hf34  1  0.69714620  0.09943907  0.37004232  1
  Hf  Hf35  1  0.20069167  0.77989673  0.51083303  1
  Hf  Hf36  1  0.01405512  0.60491900  0.26427708  1
  Hf  Hf37  1  0.90906245  0.90529506  0.86879188  1
  Hf  Hf38  1  0.21146824  0.78991012  0.74638814  1
  Hf  Hf39  1  0.18972687  0.21065855  -0.00441072  1
  Zr  Zr40  1  0.11613618  0.50213083  0.11600153  1
  Zr  Zr41  1  0.49428036  0.30478146  0.35058016  1
  Zr  Zr42  1  0.39318108  0.59904186  0.49939283  1
  Zr  Zr43  1  0.09180674  0.28518834  0.61563086  1
  Zr  Zr44  1  0.39374128  0.79660877  0.23142516  1
  Zr  Zr45  1  0.20168259  0.18858959  0.49448531  1
  Zr  Zr46  1  0.90336529  0.68817828  0.63229421  1
  Zr  Zr47  1  0.58006926  0.00163877  0.50082531  1
  Zr  Zr48  1  -0.00745423  0.19700092  0.00155867  1
  Zr  Zr49  1  0.01539356  0.60647579  0.49255362  1
  Zr  Zr50  1  0.39478167  -0.00795685  0.22807933  1
  Zr  Zr51  1  0.39709503  0.18746122  0.49423160  1
  Zr  Zr52  1  0.80179411  0.60876577  0.48873127  1
  Zr  Zr53  1  0.79966554  0.38924055  0.01107306  1
  Zr  Zr54  1  0.30884203  0.30318482  0.85522368  1
  Zr  Zr55  1  0.91067123  0.48942549  0.37430995  1
  Zr  Zr56  1  0.49266684  0.89588291  0.37116786  1
  Zr  Zr57  1  0.70438822  0.10022435  0.61629006  1
  Zr  Zr58  1  0.70071543  0.30615277  0.36666970  1
  Zr  Zr59  1  0.80406992  0.80249352  -0.00541644  1
  Zr  Zr60  1  0.09792666  0.70305931  0.12166204  1
  Zr  Zr61  1  0.48641912  0.28940588  0.64487886  1
  Zr  Zr62  1  0.39353767  0.39495912  0.50798988  1
  Zr  Zr63  1  0.30137632  0.30785128  0.13992174  1
  Zr  Zr64  1  0.01214748  0.79985584  0.74431265  1
  Zr  Zr65  1  0.61718040  0.19117680  0.74731469  1
  Zr  Zr66  1  0.80051863  0.80132279  0.49880667  1
  Zr  Zr67  1  0.58578837  0.59926034  -0.00811591  1
  Zr  Zr68  1  0.91561711  0.68914624  0.87514766  1
  Zr  Zr69  1  0.40405602  0.21377515  0.00132927  1
  Zr  Zr70  1  0.59757669  0.20999420  0.50210588  1
  Zr  Zr71  1  0.79074999  0.59979335  -0.01147340  1
  Zr  Zr72  1  0.10317518  0.09922619  0.13592319  1
  Zr  Zr73  1  0.59521112  0.40943009  0.51646059  1
  Zr  Zr74  1  0.39676941  0.80972378  0.50119272  1
  Zr  Zr75  1  0.50131795  0.70958796  0.63383918  1
  Zr  Zr76  1  0.79977595  0.00210846  0.00644795  1
  Zr  Zr77  1  0.80372181  0.40744913  0.50267021  1
  Zr  Zr78  1  0.59207962  0.80542163  0.22972557  1
  Zr  Zr79  1  0.70070046  0.50459474  0.13643123  1
  Ta  Ta80  1  0.69349610  0.50160227  0.36673845  1
  Ta  Ta81  1  0.28881597  0.69218197  0.12407563  1
  Ta  Ta82  1  0.01254268  0.38691503  0.00203496  1
  Ta  Ta83  1  0.29457942  0.29915145  0.64379648  1
  Ta  Ta84  1  0.79544815  0.80014683  0.24844743  1
  Ta  Ta85  1  0.70274230  0.70294816  0.63472431  1
  Ta  Ta86  1  0.30833338  0.50490676  0.12898297  1
  Ta  Ta87  1  0.90658462  0.29638512  0.13760401  1
  Ta  Ta88  1  0.49627058  0.12211255  0.13501268  1
  Ta  Ta89  1  0.28946785  0.89815754  0.36535743  1
  Ta  Ta90  1  0.29498098  0.09968221  0.11915171  1
  Ta  Ta91  1  0.19435952  -0.01597958  0.74850152  1
  Ta  Ta92  1  0.01088316  0.57553482  0.75016657  1
  Ta  Ta93  1  0.09551766  0.08784889  0.88060849  1
  Ta  Ta94  1  0.48183057  0.91236001  0.62790851  1
  Ta  Ta95  1  0.09828001  0.89858148  0.14249331  1
  Ta  Ta96  1  0.90912087  0.89318290  0.13553204  1
  Ta  Ta97  1  0.09243964  0.08043763  0.61889509  1
  Ta  Ta98  1  0.80260362  0.20435683  0.25036231  1
  Ta  Ta99  1  0.69986271  0.70020212  0.12689775  1
  Ta  Ta100  1  0.09790318  0.29503251  0.38494025  1
  Ta  Ta101  1  0.91121512  0.11828909  0.61901059  1
  Ta  Ta102  1  0.50124416  0.49989867  0.36916242  1
  Ta  Ta103  1  0.40819561  0.41060122  -0.00264435  1
  Ta  Ta104  1  0.29005780  0.70010473  0.37253084  1
  Ta  Ta105  1  0.69847746  0.49372229  0.86580998  1
  Ta  Ta106  1  0.58625327  -0.00185183  0.75147089  1
  Ta  Ta107  1  0.49627869  0.10229825  0.87138093  1
  Ta  Ta108  1  0.68798800  0.30143522  0.14474583  1
  Ta  Ta109  1  0.48358658  0.70288876  0.86974125  1
  Ta  Ta110  1  0.49907558  0.49113354  0.13797937  1
  Ta  Ta111  1  0.59743938  0.61386350  0.25960246  1
  Ta  Ta112  1  0.08925920  0.48796729  0.61527960  1
  Ta  Ta113  1  0.82273810  0.22023121  0.74239883  1
  Ta  Ta114  1  0.80950319  0.20322674  0.49540903  1
  Ta  Ta115  1  0.29207895  0.30049195  0.35922230  1
  Ta  Ta116  1  0.79349805  -0.00762761  0.24324888  1
  Ta  Ta117  1  0.30040789  0.49260812  0.37178921  1
  Ta  Ta118  1  0.79187625  0.79395887  0.75841077  1
  Ta  Ta119  1  0.72185014  0.30389292  0.86582983  1
  Ti  Ti120  1  0.47943664  0.50672787  0.64276950  1
  Ti  Ti121  1  0.00544373  -0.00942336  0.00527247  1
  Ti  Ti122  1  0.00725367  0.01140017  0.75077765  1
  Ti  Ti123  1  0.39897017  0.80450686  0.75299137  1
  Ti  Ti124  1  0.91009110  0.31351605  0.61012569  1
  Ti  Ti125  1  0.39063378  -0.00638928  0.75629138  1
  Ti  Ti126  1  0.91381342  0.71713449  0.37227113  1
  Ti  Ti127  1  0.59019434  0.00980925  0.01050719  1
  Ti  Ti128  1  0.27810987  0.90253171  0.11144124  1
  Ti  Ti129  1  0.20976071  0.61166778  -0.00842991  1
  Ti  Ti130  1  0.28497389  0.50175894  0.63876990  1
  Ti  Ti131  1  0.69475245  0.10544859  0.87922203  1
  Ti  Ti132  1  0.09690042  0.08735189  0.36353368  1
  Ti  Ti133  1  0.71675963  0.30118761  0.62418994  1
  Ti  Ti134  1  0.11462314  0.69997345  0.87755660  1
  Ti  Ti135  1  0.59835228  0.79489061  0.49751386  1
  Ti  Ti136  1  0.20378424  0.59875362  0.25522476  1
  Ti  Ti137  1  0.48823724  0.50017669  0.85869362  1
  Ti  Ti138  1  0.49326131  0.09613855  0.63458034  1
  Ti  Ti139  1  0.81139222  0.00523051  0.50025695  1
  Ti  Ti140  1  0.29209012  0.09395041  0.35789284  1
  Ti  Ti141  1  0.11142202  0.67778325  0.63234414  1
  Ti  Ti142  1  0.80584582  0.59390690  0.75684817  1
  Ti  Ti143  1  0.39680501  0.59321785  -0.00088914  1
  Ti  Ti144  1  0.30448113  0.68581274  0.63224034  1
  Ti  Ti145  1  -0.01489310  0.37696894  0.75238794  1
  Ti  Ti146  1  0.30342050  0.51824264  0.85845050  1
  Ti  Ti147  1  0.01079816  0.79829687  -0.00211055  1
  Ti  Ti148  1  0.90940265  0.29792110  0.37454485  1
  Ti  Ti149  1  0.79766933  0.20491723  0.00786364  1
  Ti  Ti150  1  0.09654332  0.50822367  0.88654048  1
  Ti  Ti151  1  0.10363809  0.90007606  0.88249663  1
  Ti  Ti152  1  0.11762412  0.49701287  0.38620104  1
  Ti  Ti153  1  0.18766499  0.20824511  0.25072333  1
  Ti  Ti154  1  0.72079979  0.51245040  0.62910240  1
  Ti  Ti155  1  0.10338626  0.88723775  0.35263883  1
  Ti  Ti156  1  0.80711779  0.40191758  0.24940860  1
  Ti  Ti157  1  0.59452216  0.80727227  0.75811426  1
  Ti  Ti158  1  0.59853257  -0.00408874  0.23433708  1
  Ti  Ti159  1  0.20394597  0.40011201  0.50507988  1
  Mo  Mo160  1  0.00302153  0.20394551  0.25618140  1
  Mo  Mo161  1  -0.00540993  0.79475605  0.25213832  1
  Mo  Mo162  1  0.20135544  0.40910898  0.25737848  1
  Mo  Mo163  1  0.90010940  0.29838716  0.87874065  1
  Mo  Mo164  1  0.80655480  0.40614270  0.73796385  1
  Mo  Mo165  1  0.69483673  0.70670934  0.36974213  1
  Mo  Mo166  1  0.38997373  0.61043710  0.75122943  1
  Mo  Mo167  1  0.18828173  -0.00136945  0.00481333  1
  Mo  Mo168  1  0.19997776  0.79150730  0.24974211  1
  Mo  Mo169  1  0.38513592  0.19732709  0.24474371  1
  Mo  Mo170  1  0.30307212  0.69589977  0.87892502  1
  Mo  Mo171  1  0.49991231  0.91523620  0.10730631  1
  Mo  Mo172  1  0.19197201  0.79940766  0.00292610  1
  Mo  Mo173  1  0.00173616  -0.00440555  0.25015097  1
  Mo  Mo174  1  0.00906051  0.39594460  0.49258787  1
  Mo  Mo175  1  0.60037145  0.19725932  0.24720129  1
  Mo  Mo176  1  0.38560482  0.00572372  0.49017521  1
  Mo  Mo177  1  -0.00170304  0.19320031  0.49095355  1
  Mo  Mo178  1  0.49867326  0.68068180  0.11940930  1
  Mo  Mo179  1  0.20956122  0.58695642  0.50275058  1
  Mo  Mo180  1  0.30241002  0.89484532  0.63172783  1
  Mo  Mo181  1  0.39592409  0.40779766  0.25299534  1
  Mo  Mo182  1  0.39924330  0.00671794  0.01821930  1
  Mo  Mo183  1  0.69664796  0.70102342  0.86243909  1
  Mo  Mo184  1  0.60199630  0.41030078  0.25097780  1
  Mo  Mo185  1  0.50124105  0.30875777  0.13796621  1
  Mo  Mo186  1  0.08740983  0.30280700  0.87320803  1
  Mo  Mo187  1  0.20346658  -0.00292318  0.25284369  1
  Mo  Mo188  1  0.00158933  0.19357976  0.75130459  1
  Mo  Mo189  1  0.11050158  0.70379995  0.37307301  1
  Mo  Mo190  1  0.00320129  0.00705439  0.49688809  1
  Mo  Mo191  1  0.39586199  0.18567637  0.75402535  1
  Mo  Mo192  1  0.18991437  0.59871877  0.75431517  1
  Mo  Mo193  1  0.10455756  0.89926049  0.62958545  1
  Mo  Mo194  1  0.90824637  0.49727160  0.63033438  1
  Mo  Mo195  1  0.39297485  0.40837260  0.74264948  1
  Mo  Mo196  1  0.70586257  0.90141126  0.12524329  1
  Mo  Mo197  1  0.09948582  0.30316665  0.12453295  1
  Mo  Mo198  1  0.00761304  0.59732325  -0.01099705  1
  Mo  Mo199  1  0.50117372  0.69873960  0.37850408  1
