# generated using pymatgen
data_HfZrTaTiMo
_symmetry_space_group_name_H-M   'P 1'
_cell_length_a   15.19398976
_cell_length_b   15.18471271
_cell_length_c   16.79715517
_cell_angle_alpha   89.95413406
_cell_angle_beta   90.06422637
_cell_angle_gamma   90.08556338
_symmetry_Int_Tables_number   1
_chemical_formula_structural   HfZrTaTiMo
_chemical_formula_sum   'Hf40 Zr40 Ta40 Ti40 Mo40'
_cell_volume   3875.37066370
_cell_formula_units_Z   40
loop_
 _symmetry_equiv_pos_site_id
 _symmetry_equiv_pos_as_xyz
  1  'x, y, z'
loop_
 _atom_site_type_symbol
 _atom_site_label
 _atom_site_symmetry_multiplicity
 _atom_site_fract_x
 _atom_site_fract_y
 _atom_site_fract_z
 _atom_site_occupancy
  Hf  Hf0  1  0.89452264  0.29643876  0.62621824  1
  Hf  Hf1  1  0.29943109  0.49606321  0.35717164  1
  Hf  Hf2  1  0.21172171  0.61876222  0.02478285  1
  Hf  Hf3  1  0.39735361  0.80384387  0.49904961  1
  Hf  Hf4  1  0.29785134  0.30551673  0.62145524  1
  Hf  Hf5  1  0.10257074  0.89207136  0.88283424  1
  Hf  Hf6  1  0.70537295  0.70277416  0.87548757  1
  Hf  Hf7  1  0.50701543  0.49298577  0.87832995  1
  Hf  Hf8  1  0.81055718  -0.00943334  0.51392324  1
  Hf  Hf9  1  0.39472217  0.19264864  0.48964577  1
  Hf  Hf10  1  0.30978779  0.10426783  0.63143637  1
  Hf  Hf11  1  0.40870898  0.20444987  0.77526865  1
  Hf  Hf12  1  0.10612084  0.69428023  0.86707346  1
  Hf  Hf13  1  0.30042540  0.11706531  0.12014588  1
  Hf  Hf14  1  0.10471150  0.09915466  0.64029817  1
  Hf  Hf15  1  0.50699985  0.89592322  0.89625246  1
  Hf  Hf16  1  0.50633327  0.91217830  0.61839569  1
  Hf  Hf17  1  0.38732264  0.58986664  0.49629876  1
  Hf  Hf18  1  0.39645833  0.37136550  0.00387605  1
  Hf  Hf19  1  0.19489853  0.41155812  0.01660273  1
  Hf  Hf20  1  0.19314689  0.21812486  -0.00966325  1
  Hf  Hf21  1  0.09447185  0.51067079  0.35775380  1
  Hf  Hf22  1  0.88807819  0.26370823  0.12492825  1
  Hf  Hf23  1  0.38955077  0.39829943  0.75688579  1
  Hf  Hf24  1  0.29439613  0.90866406  0.62522973  1
  Hf  Hf25  1  0.18378522  0.80640022  0.50311435  1
  Hf  Hf26  1  0.00230404  0.40797484  0.49374117  1
  Hf  Hf27  1  0.01240296  0.59081361  0.01431034  1
  Hf  Hf28  1  0.60163912  0.19967790  0.49193278  1
  Hf  Hf29  1  0.49978048  0.70371214  0.62006976  1
  Hf  Hf30  1  0.78918916  0.78054451  0.50174376  1
  Hf  Hf31  1  0.51165520  0.69915896  0.38010804  1
  Hf  Hf32  1  0.60114348  0.81181134  0.75988337  1
  Hf  Hf33  1  0.00899538  0.80832236  0.73089697  1
  Hf  Hf34  1  0.39868877  0.80058200  0.75133656  1
  Hf  Hf35  1  0.67814437  0.29544245  0.14034582  1
  Hf  Hf36  1  0.29935744  0.89536271  0.89096412  1
  Hf  Hf37  1  -0.00174336  0.38139836  0.01949364  1
  Hf  Hf38  1  0.09925512  0.90489961  0.10846067  1
  Hf  Hf39  1  0.09789384  0.91579270  0.37635118  1
  Zr  Zr40  1  0.80745517  0.58559420  0.75676695  1
  Zr  Zr41  1  0.61140910  0.79357430  0.25130171  1
  Zr  Zr42  1  -0.01036020  0.79586730  0.51633807  1
  Zr  Zr43  1  0.49932095  0.49906604  0.61887385  1
  Zr  Zr44  1  0.60281392  0.39700576  0.74787239  1
  Zr  Zr45  1  0.90426231  0.08000079  0.37545101  1
  Zr  Zr46  1  0.40483346  0.58108487  0.01328577  1
  Zr  Zr47  1  0.62151471  0.60744671  0.49703342  1
  Zr  Zr48  1  0.90269245  0.09453954  0.64956698  1
  Zr  Zr49  1  0.80170318  0.40290266  0.49044903  1
  Zr  Zr50  1  0.20043594  0.21048705  0.76637929  1
  Zr  Zr51  1  0.88198897  0.28018974  0.88293534  1
  Zr  Zr52  1  0.28704626  0.69868283  0.37205780  1
  Zr  Zr53  1  0.81464469  0.79955545  0.24891932  1
  Zr  Zr54  1  0.90941578  0.48646376  0.88214189  1
  Zr  Zr55  1  0.28112381  0.69302446  0.63270707  1
  Zr  Zr56  1  0.60263934  -0.00246649  0.24231892  1
  Zr  Zr57  1  0.00594830  0.18815448  0.48994505  1
  Zr  Zr58  1  0.70568532  0.90146927  0.37898985  1
  Zr  Zr59  1  0.69616463  0.30449564  0.35345127  1
  Zr  Zr60  1  0.50903670  0.69378983  0.11987852  1
  Zr  Zr61  1  0.08408108  0.11780031  0.11603132  1
  Zr  Zr62  1  0.29542224  0.90100671  0.11638490  1
  Zr  Zr63  1  0.29731846  0.69989782  0.86842988  1
  Zr  Zr64  1  0.28985004  0.50124657  0.87847877  1
  Zr  Zr65  1  0.49966851  0.29143874  0.62211409  1
  Zr  Zr66  1  0.61763702  0.01853317  -0.00081383  1
  Zr  Zr67  1  0.81550177  0.59840419  0.00120616  1
  Zr  Zr68  1  0.28667449  0.11026902  0.35775289  1
  Zr  Zr69  1  0.30797636  0.91646098  0.37528730  1
  Zr  Zr70  1  0.79487362  0.19244556  0.49451955  1
  Zr  Zr71  1  0.70960918  0.70555700  0.11264335  1
  Zr  Zr72  1  -0.00073260  -0.00726899  0.24306708  1
  Zr  Zr73  1  0.49625929  0.09254276  0.36410094  1
  Zr  Zr74  1  0.40051511  0.80232352  0.24866085  1
  Zr  Zr75  1  0.09886848  0.30249318  0.62246162  1
  Zr  Zr76  1  0.51000531  0.90057941  0.10970827  1
  Zr  Zr77  1  0.89693684  0.89590742  0.86899712  1
  Zr  Zr78  1  0.69915808  0.69737924  0.64114695  1
  Zr  Zr79  1  0.41590539  0.00283314  0.76563507  1
  Ta  Ta80  1  0.71224511  0.11113586  0.86279217  1
  Ta  Ta81  1  0.19090167  0.81014520  0.25183423  1
  Ta  Ta82  1  0.10286889  0.30427436  0.36749934  1
  Ta  Ta83  1  0.20382122  0.40869950  0.49075292  1
  Ta  Ta84  1  0.31064276  0.48794618  0.14629316  1
  Ta  Ta85  1  -0.00622892  0.40020532  0.74415132  1
  Ta  Ta86  1  0.69277805  0.09713186  0.64063887  1
  Ta  Ta87  1  0.60099862  0.40028624  0.49437034  1
  Ta  Ta88  1  -0.00007040  0.38533867  0.24043582  1
  Ta  Ta89  1  0.79382698  0.59897140  0.23941516  1
  Ta  Ta90  1  0.60794098  0.00503606  0.49991525  1
  Ta  Ta91  1  0.40435091  0.59634615  0.74995760  1
  Ta  Ta92  1  0.79752015  0.38999436  0.74829627  1
  Ta  Ta93  1  0.89715318  0.49286521  0.13357687  1
  Ta  Ta94  1  0.18457308  0.41739450  0.74785576  1
  Ta  Ta95  1  0.70449810  0.51114454  0.36563410  1
  Ta  Ta96  1  0.39017448  0.78472890  0.00938618  1
  Ta  Ta97  1  0.19682534  -0.00765127  0.76216559  1
  Ta  Ta98  1  0.70320697  0.90037518  0.63129870  1
  Ta  Ta99  1  0.71403579  0.49303989  0.62062017  1
  Ta  Ta100  1  0.61227212  0.58878961  -0.00040039  1
  Ta  Ta101  1  0.50623081  0.49544296  0.37576986  1
  Ta  Ta102  1  0.71322223  0.11053379  0.13281270  1
  Ta  Ta103  1  0.58629733  0.21268625  -0.00619039  1
  Ta  Ta104  1  0.19965582  0.01841480  0.50059886  1
  Ta  Ta105  1  0.91295349  0.69672777  0.86177913  1
  Ta  Ta106  1  0.49552071  0.30481360  0.36437980  1
  Ta  Ta107  1  0.50206650  0.69482330  0.88621021  1
  Ta  Ta108  1  -0.00261855  0.01145906  -0.01646280  1
  Ta  Ta109  1  0.01686936  0.58950035  0.73072719  1
  Ta  Ta110  1  0.90171674  0.89687453  0.10684561  1
  Ta  Ta111  1  0.50734114  0.12185413  0.12697535  1
  Ta  Ta112  1  0.71622830  0.90979715  0.10991774  1
  Ta  Ta113  1  -0.00178477  0.78549895  0.00054471  1
  Ta  Ta114  1  0.10046142  0.70950135  0.13455806  1
  Ta  Ta115  1  0.42055067  0.59190334  0.24650199  1
  Ta  Ta116  1  0.08501042  0.31097346  0.87154169  1
  Ta  Ta117  1  0.40666542  0.01684887  0.00121834  1
  Ta  Ta118  1  0.29921281  0.10075835  0.88480605  1
  Ta  Ta119  1  0.78495125  0.39412557  0.01703569  1
  Ti  Ti120  1  0.29695093  0.30726471  0.36345367  1
  Ti  Ti121  1  0.09801500  0.50351718  0.87608741  1
  Ti  Ti122  1  0.59828338  0.19568117  0.76068159  1
  Ti  Ti123  1  -0.01187379  0.60852920  0.23887261  1
  Ti  Ti124  1  0.19770655  0.20945680  0.49132174  1
  Ti  Ti125  1  0.80031106  0.39841686  0.24038909  1
  Ti  Ti126  1  0.39995479  0.00437773  0.23348203  1
  Ti  Ti127  1  0.70394631  0.90674077  0.87899151  1
  Ti  Ti128  1  -0.00485015  0.19037570  0.25762184  1
  Ti  Ti129  1  0.39920244  0.39469269  0.49218191  1
  Ti  Ti130  1  0.19490116  0.00957985  0.24160366  1
  Ti  Ti131  1  0.08477056  0.70545288  0.36846156  1
  Ti  Ti132  1  0.00885202  -0.01122441  0.51655397  1
  Ti  Ti133  1  0.18611531  0.21654630  0.24257545  1
  Ti  Ti134  1  0.80775619  -0.00211061  0.24171098  1
  Ti  Ti135  1  0.50614036  0.10030125  0.62616014  1
  Ti  Ti136  1  0.81365571  0.02327727  -0.00884346  1
  Ti  Ti137  1  0.17777762  0.59922395  0.49880002  1
  Ti  Ti138  1  0.19648582  0.01221844  -0.00664961  1
  Ti  Ti139  1  0.20424884  0.61228904  0.24063562  1
  Ti  Ti140  1  0.40016487  0.21229804  0.24518675  1
  Ti  Ti141  1  0.70619350  0.49140811  0.88081104  1
  Ti  Ti142  1  0.89192166  0.67966470  0.37837021  1
  Ti  Ti143  1  0.68928235  0.30450623  0.88141070  1
  Ti  Ti144  1  0.59301736  0.40291678  0.01372150  1
  Ti  Ti145  1  0.89874250  0.49530660  0.35692643  1
  Ti  Ti146  1  0.59748532  0.59648443  0.75550238  1
  Ti  Ti147  1  0.28943843  0.49982446  0.62506995  1
  Ti  Ti148  1  0.90558411  0.88387295  0.37992134  1
  Ti  Ti149  1  0.58589454  0.41866692  0.24157697  1
  Ti  Ti150  1  0.70255992  0.10107942  0.35875617  1
  Ti  Ti151  1  0.89192279  0.69131580  0.63558730  1
  Ti  Ti152  1  0.89947401  0.29616695  0.36335923  1
  Ti  Ti153  1  0.69592117  0.29440127  0.62431324  1
  Ti  Ti154  1  0.80489666  0.80288575  -0.00611685  1
  Ti  Ti155  1  -0.00077460  0.79939707  0.24489579  1
  Ti  Ti156  1  0.50597402  0.90332309  0.38891672  1
  Ti  Ti157  1  0.10260385  0.49794324  0.14758098  1
  Ti  Ti158  1  0.79647510  -0.00961055  0.75122532  1
  Ti  Ti159  1  -0.01077092  0.59875151  0.51391572  1
  Mo  Mo160  1  0.09702086  0.69692805  0.62359779  1
  Mo  Mo161  1  0.20109880  0.59508043  0.74705875  1
  Mo  Mo162  1  0.50968973  0.10260601  0.88231642  1
  Mo  Mo163  1  0.60629179  0.59724354  0.25218100  1
  Mo  Mo164  1  0.89116954  0.89653325  0.63820732  1
  Mo  Mo165  1  0.39798229  0.19711896  -0.00915031  1
  Mo  Mo166  1  0.60814960  0.79740609  -0.00968901  1
  Mo  Mo167  1  0.40359177  0.00792843  0.50270901  1
  Mo  Mo168  1  0.89125708  0.08095054  0.12001979  1
  Mo  Mo169  1  0.09487026  0.10263197  0.87081611  1
  Mo  Mo170  1  0.10302810  0.91207561  0.62700191  1
  Mo  Mo171  1  0.80458017  0.18925314  0.25879300  1
  Mo  Mo172  1  0.71065931  0.69335735  0.37020628  1
  Mo  Mo173  1  0.60821180  0.00535053  0.75844250  1
  Mo  Mo174  1  0.90146799  0.49417681  0.62641587  1
  Mo  Mo175  1  0.10645334  0.50177732  0.61312637  1
  Mo  Mo176  1  0.80355400  0.79930440  0.75260518  1
  Mo  Mo177  1  0.50879336  0.49234135  0.12278044  1
  Mo  Mo178  1  0.30351857  0.70062445  0.14595175  1
  Mo  Mo179  1  -0.01360683  0.18872532  -0.01167622  1
  Mo  Mo180  1  0.09241922  0.29941927  0.13056831  1
  Mo  Mo181  1  0.50535634  0.30216379  0.87619487  1
  Mo  Mo182  1  0.81663395  0.59117743  0.49924179  1
  Mo  Mo183  1  0.77640488  0.19352121  -0.00101643  1
  Mo  Mo184  1  0.19637180  0.79653779  0.00885376  1
  Mo  Mo185  1  0.70192283  0.49688849  0.12693117  1
  Mo  Mo186  1  0.28745330  0.30756351  0.87444077  1
  Mo  Mo187  1  0.19523602  0.40028801  0.24558236  1
  Mo  Mo188  1  0.89936820  0.09784836  0.85523997  1
  Mo  Mo189  1  0.59397101  0.20123245  0.25435822  1
  Mo  Mo190  1  -0.00327181  0.20729028  0.76045368  1
  Mo  Mo191  1  0.48569266  0.30098533  0.13519832  1
  Mo  Mo192  1  0.10554824  0.10727114  0.37120936  1
  Mo  Mo193  1  0.19954086  0.80671630  0.74405164  1
  Mo  Mo194  1  0.91022779  0.70094625  0.12445276  1
  Mo  Mo195  1  0.00696685  0.00591958  0.76482927  1
  Mo  Mo196  1  0.60419608  0.81219999  0.50041697  1
  Mo  Mo197  1  0.78466469  0.20752693  0.74495869  1
  Mo  Mo198  1  0.40316891  0.39695925  0.25121241  1
  Mo  Mo199  1  0.29077921  0.29826611  0.13511720  1
