# generated using pymatgen
data_HfZrTaTiMo
_symmetry_space_group_name_H-M   'P 1'
_cell_length_a   15.20587304
_cell_length_b   15.20571983
_cell_length_c   16.84689551
_cell_angle_alpha   89.96644309
_cell_angle_beta   89.99933748
_cell_angle_gamma   90.10945641
_symmetry_Int_Tables_number   1
_chemical_formula_structural   HfZrTaTiMo
_chemical_formula_sum   'Hf40 Zr40 Ta40 Ti40 Mo40'
_cell_volume   3895.26814724
_cell_formula_units_Z   40
loop_
 _symmetry_equiv_pos_site_id
 _symmetry_equiv_pos_as_xyz
  1  'x, y, z'
loop_
 _atom_site_type_symbol
 _atom_site_label
 _atom_site_symmetry_multiplicity
 _atom_site_fract_x
 _atom_site_fract_y
 _atom_site_fract_z
 _atom_site_occupancy
  Hf  Hf0  1  0.20002417  0.00694014  0.01794621  1
  Hf  Hf1  1  0.92223577  0.72079753  0.13439628  1
  Hf  Hf2  1  0.01401069  0.60349556  0.00660803  1
  Hf  Hf3  1  0.71303051  0.91119118  0.10839717  1
  Hf  Hf4  1  0.59972905  0.40306121  0.76192700  1
  Hf  Hf5  1  0.80548222  0.79926196  -0.00768174  1
  Hf  Hf6  1  0.70462827  0.90540548  0.38434474  1
  Hf  Hf7  1  0.20385532  0.59195003  0.75092037  1
  Hf  Hf8  1  0.61155018  -0.00179233  0.24836742  1
  Hf  Hf9  1  0.39628670  0.00650914  0.50728203  1
  Hf  Hf10  1  0.59648958  0.20006986  0.50451531  1
  Hf  Hf11  1  -0.02520557  -0.00858115  0.24125600  1
  Hf  Hf12  1  0.29316685  0.49269366  0.60986985  1
  Hf  Hf13  1  -0.00832614  0.20512836  0.76058140  1
  Hf  Hf14  1  0.59274917  0.79984812  0.77153612  1
  Hf  Hf15  1  0.58394495  0.39903853  0.48469898  1
  Hf  Hf16  1  0.70513988  0.28615419  0.11688344  1
  Hf  Hf17  1  0.49831882  0.89282617  0.37297821  1
  Hf  Hf18  1  0.59986308  0.79391197  0.24210073  1
  Hf  Hf19  1  0.70893120  0.70107867  0.36674572  1
  Hf  Hf20  1  0.19475905  0.21707504  0.74692938  1
  Hf  Hf21  1  0.78936008  0.20601699  0.77266711  1
  Hf  Hf22  1  0.09358798  0.30001478  0.14027595  1
  Hf  Hf23  1  0.00991655  0.60447202  0.50019226  1
  Hf  Hf24  1  0.58412440  0.19985518  0.75661327  1
  Hf  Hf25  1  0.79456458  0.78519269  0.75757782  1
  Hf  Hf26  1  0.92016428  0.71049606  0.36311539  1
  Hf  Hf27  1  0.60244079  0.39392951  -0.00566750  1
  Hf  Hf28  1  0.40703337  0.79917674  0.50037870  1
  Hf  Hf29  1  0.19785791  0.79489794  0.25479834  1
  Hf  Hf30  1  0.81349531  0.59266054  0.23320190  1
  Hf  Hf31  1  0.79572048  0.00390712  0.75585838  1
  Hf  Hf32  1  0.90002499  0.11104175  0.61499603  1
  Hf  Hf33  1  0.18401569  0.00627393  0.24077548  1
  Hf  Hf34  1  0.81728034  0.59220911  0.02002924  1
  Hf  Hf35  1  0.59079188  -0.00271370  0.51319723  1
  Hf  Hf36  1  0.08982802  0.89675939  0.37803726  1
  Hf  Hf37  1  0.19849844  0.01359264  0.73708846  1
  Hf  Hf38  1  0.19682812  0.80087915  0.76264779  1
  Hf  Hf39  1  -0.00702711  0.00466219  0.00767050  1
  Zr  Zr40  1  0.59644840  0.58911257  0.23021462  1
  Zr  Zr41  1  0.10863447  0.49969619  0.87733200  1
  Zr  Zr42  1  0.80116589  0.59085515  0.50528707  1
  Zr  Zr43  1  0.30127373  0.69886606  0.11607913  1
  Zr  Zr44  1  0.69811832  0.49572131  0.36324855  1
  Zr  Zr45  1  0.87564451  0.10693784  0.12013691  1
  Zr  Zr46  1  0.58960731  0.19131091  0.24956089  1
  Zr  Zr47  1  0.39137064  0.19454744  -0.00039283  1
  Zr  Zr48  1  0.18713709  0.20207488  0.01165662  1
  Zr  Zr49  1  0.89598150  0.09767060  0.39031378  1
  Zr  Zr50  1  0.30297820  0.92900403  0.88081230  1
  Zr  Zr51  1  0.10546450  0.10313391  0.87915022  1
  Zr  Zr52  1  0.39236798  0.39476312  0.75027010  1
  Zr  Zr53  1  0.60621586  0.59755823  0.51119200  1
  Zr  Zr54  1  0.29434564  0.89531666  0.62742334  1
  Zr  Zr55  1  0.59969181  0.19121999  -0.02286349  1
  Zr  Zr56  1  -0.00529108  0.59188339  0.74557691  1
  Zr  Zr57  1  0.81645397  0.40670549  0.75449245  1
  Zr  Zr58  1  0.60864926  0.60055024  0.00862024  1
  Zr  Zr59  1  0.39821326  0.60009821  0.24449274  1
  Zr  Zr60  1  0.30741082  0.69889563  0.62689176  1
  Zr  Zr61  1  0.79162972  0.19901085  0.26206396  1
  Zr  Zr62  1  0.50237127  0.90448981  0.11275740  1
  Zr  Zr63  1  0.30156976  0.31351489  0.14054703  1
  Zr  Zr64  1  0.20716567  0.21755002  0.48344647  1
  Zr  Zr65  1  0.41384037  0.58618794  0.49809832  1
  Zr  Zr66  1  0.90334208  0.89237316  0.62451489  1
  Zr  Zr67  1  0.19495779  0.01063596  0.50322697  1
  Zr  Zr68  1  0.81085590  0.82919295  0.24427679  1
  Zr  Zr69  1  0.80334833  0.78888140  0.51083590  1
  Zr  Zr70  1  0.69368995  0.31124439  0.62377745  1
  Zr  Zr71  1  0.40380578  0.40266508  0.26334698  1
  Zr  Zr72  1  0.30257199  0.89714809  0.12340080  1
  Zr  Zr73  1  0.90366523  0.30273933  0.61408222  1
  Zr  Zr74  1  0.90919689  0.49258138  0.37166687  1
  Zr  Zr75  1  0.27298606  0.49844591  0.38390171  1
  Zr  Zr76  1  0.00336932  0.00289963  0.74372224  1
  Zr  Zr77  1  0.72035649  0.50959211  0.88041088  1
  Zr  Zr78  1  0.41777784  0.59940031  0.75338212  1
  Zr  Zr79  1  0.30704958  0.70382861  0.37749759  1
  Ta  Ta80  1  0.10065762  0.49213497  0.61681339  1
  Ta  Ta81  1  0.38801119  0.37948542  0.48171691  1
  Ta  Ta82  1  0.69107709  0.89459021  0.63333211  1
  Ta  Ta83  1  0.89892279  0.68626708  0.87408164  1
  Ta  Ta84  1  0.40290705  0.80336747  0.77145288  1
  Ta  Ta85  1  0.09682531  0.90223175  0.87943530  1
  Ta  Ta86  1  0.90332364  0.90194649  0.87362084  1
  Ta  Ta87  1  0.71466924  0.47590351  0.12866792  1
  Ta  Ta88  1  -0.01673950  0.20953122  -0.00191511  1
  Ta  Ta89  1  -0.00012198  0.19681676  0.25339737  1
  Ta  Ta90  1  0.49747336  0.70487274  0.10883241  1
  Ta  Ta91  1  0.30592801  0.10757440  0.35770827  1
  Ta  Ta92  1  0.02365049  0.58982039  0.24457735  1
  Ta  Ta93  1  0.49819262  0.89125407  0.63511089  1
  Ta  Ta94  1  0.19118263  0.79351287  0.49492186  1
  Ta  Ta95  1  0.40310175  0.59264185  -0.00006117  1
  Ta  Ta96  1  0.60193945  0.79345866  0.50761079  1
  Ta  Ta97  1  0.51329008  0.68782967  0.37362598  1
  Ta  Ta98  1  0.30841108  0.49033325  0.88340147  1
  Ta  Ta99  1  0.10078535  0.70398526  0.62439925  1
  Ta  Ta100  1  0.69611789  0.10395049  0.62984938  1
  Ta  Ta101  1  0.28720083  0.30215532  0.87941611  1
  Ta  Ta102  1  0.78981504  0.00357151  0.51570717  1
  Ta  Ta103  1  0.00257172  0.40091443  0.01167359  1
  Ta  Ta104  1  0.19329926  0.79689408  -0.01117289  1
  Ta  Ta105  1  0.08443624  0.88631953  0.12298159  1
  Ta  Ta106  1  0.30390036  0.10969520  0.14481906  1
  Ta  Ta107  1  0.20769200  0.40581354  0.00904956  1
  Ta  Ta108  1  0.89956539  0.90358406  0.39405661  1
  Ta  Ta109  1  0.40455995  0.00592773  0.74003636  1
  Ta  Ta110  1  0.61932732  0.60910573  0.75899229  1
  Ta  Ta111  1  0.00259122  0.79412076  0.76266553  1
  Ta  Ta112  1  0.30207424  0.30583914  0.62013974  1
  Ta  Ta113  1  0.30026891  0.91074023  0.36988850  1
  Ta  Ta114  1  0.40419697  0.80302227  -0.02062227  1
  Ta  Ta115  1  0.49525160  0.09156141  0.37510493  1
  Ta  Ta116  1  0.09874340  0.10755801  0.36746264  1
  Ta  Ta117  1  0.60543410  0.38655498  0.25202364  1
  Ta  Ta118  1  0.30082975  0.69159309  0.87991472  1
  Ta  Ta119  1  0.30470513  0.11780086  0.62490440  1
  Ti  Ti120  1  0.90010056  0.69274636  0.63273359  1
  Ti  Ti121  1  0.47640682  0.08719280  0.87287063  1
  Ti  Ti122  1  0.39218392  0.19716439  0.75297602  1
  Ti  Ti123  1  0.40519771  0.19777451  0.49901242  1
  Ti  Ti124  1  0.50196775  0.47673781  0.62641113  1
  Ti  Ti125  1  0.69741933  0.90458031  0.87804133  1
  Ti  Ti126  1  0.11271390  0.69977473  0.12931881  1
  Ti  Ti127  1  0.60006881  0.79604827  -0.01673968  1
  Ti  Ti128  1  0.79688757  0.20319472  -0.03209754  1
  Ti  Ti129  1  0.20594498  0.60096069  -0.00258748  1
  Ti  Ti130  1  0.10284034  0.30398756  0.61839306  1
  Ti  Ti131  1  0.51378807  0.69867847  0.63363819  1
  Ti  Ti132  1  0.59317992  0.00260338  0.75223994  1
  Ti  Ti133  1  0.49319718  0.48312410  0.11704832  1
  Ti  Ti134  1  0.79435759  0.38722563  0.49106793  1
  Ti  Ti135  1  0.09650108  0.31132116  0.88376003  1
  Ti  Ti136  1  0.09502693  0.89426329  0.61940013  1
  Ti  Ti137  1  0.11299020  0.68126499  0.37192448  1
  Ti  Ti138  1  0.70495624  0.51065828  0.63613756  1
  Ti  Ti139  1  0.01727688  0.39548250  0.74948934  1
  Ti  Ti140  1  0.49899651  0.28803274  0.12399346  1
  Ti  Ti141  1  0.50153544  0.50553485  0.88223532  1
  Ti  Ti142  1  0.70425847  0.70542200  0.12292274  1
  Ti  Ti143  1  0.58660730  -0.00068304  -0.01426013  1
  Ti  Ti144  1  0.00339086  0.79784812  -0.01340478  1
  Ti  Ti145  1  0.90421169  0.30253047  0.37428336  1
  Ti  Ti146  1  0.81342251  0.38760621  -0.00564493  1
  Ti  Ti147  1  0.49258165  0.28461815  0.36788764  1
  Ti  Ti148  1  0.68221161  0.09717523  0.11301023  1
  Ti  Ti149  1  0.11517932  0.49847576  0.12830443  1
  Ti  Ti150  1  0.90462024  0.49061432  0.61435353  1
  Ti  Ti151  1  0.48205680  0.30882532  0.88082063  1
  Ti  Ti152  1  0.01147721  0.21357656  0.48860284  1
  Ti  Ti153  1  0.69680252  0.10209800  0.38718042  1
  Ti  Ti154  1  0.79348332  0.01500573  -0.02242595  1
  Ti  Ti155  1  0.40757664  0.00331577  0.24530457  1
  Ti  Ti156  1  0.40518948  0.80037349  0.24966520  1
  Ti  Ti157  1  0.89353588  0.31261309  0.13561953  1
  Ti  Ti158  1  0.91471663  0.49220816  0.88029272  1
  Ti  Ti159  1  0.00521679  0.00441577  0.50848062  1
  Mo  Mo160  1  0.49410352  0.09679180  0.11775549  1
  Mo  Mo161  1  0.18320761  0.39508861  0.49560798  1
  Mo  Mo162  1  0.69528836  0.70323405  0.63343767  1
  Mo  Mo163  1  0.91013642  0.31033984  0.88165639  1
  Mo  Mo164  1  0.70226586  0.29384404  0.38048011  1
  Mo  Mo165  1  0.29399349  0.29559196  0.35884475  1
  Mo  Mo166  1  0.89904345  0.90537283  0.10720331  1
  Mo  Mo167  1  0.09434211  0.31464557  0.35563108  1
  Mo  Mo168  1  0.20315341  0.59492604  0.24371388  1
  Mo  Mo169  1  0.49807046  0.49581000  0.37159539  1
  Mo  Mo170  1  0.10050197  0.70250846  0.87687516  1
  Mo  Mo171  1  0.40271338  0.39833989  -0.00187708  1
  Mo  Mo172  1  0.50161811  0.90778357  0.87859746  1
  Mo  Mo173  1  0.19419229  0.39947119  0.74849980  1
  Mo  Mo174  1  0.09259852  0.49768745  0.37416329  1
  Mo  Mo175  1  0.30333297  0.50199566  0.11520888  1
  Mo  Mo176  1  0.48079641  0.29317131  0.62080647  1
  Mo  Mo177  1  0.39856415  0.01029658  0.00820832  1
  Mo  Mo178  1  0.70883276  0.70043833  0.88597143  1
  Mo  Mo179  1  0.79501384  0.20264801  0.49214796  1
  Mo  Mo180  1  0.09080756  0.10359874  0.13680915  1
  Mo  Mo181  1  0.79055240  0.00646375  0.25455977  1
  Mo  Mo182  1  0.19635220  0.20548946  0.25961377  1
  Mo  Mo183  1  -0.00875632  0.40133751  0.24232863  1
  Mo  Mo184  1  0.91558496  0.49205946  0.12857105  1
  Mo  Mo185  1  0.00392843  0.39598852  0.49729017  1
  Mo  Mo186  1  0.00742935  0.79973769  0.50376242  1
  Mo  Mo187  1  0.50053496  0.69513711  0.88905533  1
  Mo  Mo188  1  0.09706187  0.11573670  0.61579426  1
  Mo  Mo189  1  0.01086557  0.80097071  0.25124583  1
  Mo  Mo190  1  0.40275284  0.19497333  0.24774344  1
  Mo  Mo191  1  0.89821479  0.09865993  0.88111151  1
  Mo  Mo192  1  0.69525275  0.30819694  0.87528842  1
  Mo  Mo193  1  0.49771084  0.10058914  0.63413570  1
  Mo  Mo194  1  0.80611401  0.59791330  0.74482927  1
  Mo  Mo195  1  0.79670292  0.39216074  0.25193165  1
  Mo  Mo196  1  0.29770362  0.11040883  0.86790810  1
  Mo  Mo197  1  0.18725197  0.41688197  0.24900896  1
  Mo  Mo198  1  0.68656879  0.09240911  0.86915605  1
  Mo  Mo199  1  0.19485020  0.60493975  0.50894006  1
