# generated using pymatgen
data_HfZrTaTiMo
_symmetry_space_group_name_H-M   'P 1'
_cell_length_a   15.16513128
_cell_length_b   15.18510275
_cell_length_c   16.83518383
_cell_angle_alpha   89.95558729
_cell_angle_beta   90.02001089
_cell_angle_gamma   89.89894681
_symmetry_Int_Tables_number   1
_chemical_formula_structural   HfZrTaTiMo
_chemical_formula_sum   'Hf40 Zr40 Ta40 Ti40 Mo40'
_cell_volume   3876.86733245
_cell_formula_units_Z   40
loop_
 _symmetry_equiv_pos_site_id
 _symmetry_equiv_pos_as_xyz
  1  'x, y, z'
loop_
 _atom_site_type_symbol
 _atom_site_label
 _atom_site_symmetry_multiplicity
 _atom_site_fract_x
 _atom_site_fract_y
 _atom_site_fract_z
 _atom_site_occupancy
  Hf  Hf0  1  0.90080052  0.90257100  0.11484684  1
  Hf  Hf1  1  0.60136553  0.80335712  0.75854611  1
  Hf  Hf2  1  0.20267896  0.79466281  0.76329374  1
  Hf  Hf3  1  0.39309964  0.20701259  0.74492778  1
  Hf  Hf4  1  0.10743469  0.30046174  0.63398724  1
  Hf  Hf5  1  0.68056763  0.09503548  0.61494133  1
  Hf  Hf6  1  0.00292642  0.59299180  0.75279115  1
  Hf  Hf7  1  -0.00818991  0.00979514  0.73668988  1
  Hf  Hf8  1  0.30873248  0.50799926  0.13915428  1
  Hf  Hf9  1  0.00406971  0.40465053  0.49721366  1
  Hf  Hf10  1  0.31574052  0.47676927  0.62766697  1
  Hf  Hf11  1  0.81035627  0.40615356  0.76100898  1
  Hf  Hf12  1  0.01982510  -0.01094124  0.51777184  1
  Hf  Hf13  1  0.60699552  0.18128502  0.24894154  1
  Hf  Hf14  1  0.79288864  0.01475986  0.26031311  1
  Hf  Hf15  1  0.29897633  0.52460255  0.87207116  1
  Hf  Hf16  1  0.00312501  0.19870390  0.24909242  1
  Hf  Hf17  1  0.40226822  0.79995653  0.74245001  1
  Hf  Hf18  1  0.80016319  0.79490757  0.49147635  1
  Hf  Hf19  1  0.91828375  0.90436574  0.37858129  1
  Hf  Hf20  1  0.20286429  -0.00343313  0.75602750  1
  Hf  Hf21  1  0.50536354  0.91168326  0.61612238  1
  Hf  Hf22  1  0.09348684  0.49932133  0.36370689  1
  Hf  Hf23  1  0.29811457  0.30677856  0.12827425  1
  Hf  Hf24  1  0.40228473  0.19862212  0.00339351  1
  Hf  Hf25  1  0.68230310  0.70766789  0.36579647  1
  Hf  Hf26  1  0.50319968  0.48847605  0.36888927  1
  Hf  Hf27  1  0.79670539  0.21400200  0.26673784  1
  Hf  Hf28  1  0.71512248  0.28909025  0.12118074  1
  Hf  Hf29  1  0.79350690  0.59826208  0.49309450  1
  Hf  Hf30  1  0.19863947  0.40632120  0.76234889  1
  Hf  Hf31  1  0.00048298  0.80425603  0.76389317  1
  Hf  Hf32  1  0.90256044  0.10118448  0.39362673  1
  Hf  Hf33  1  0.79458756  0.61760758  -0.00159557  1
  Hf  Hf34  1  0.28234814  0.09670673  0.12634164  1
  Hf  Hf35  1  0.08931206  0.71613363  0.62681623  1
  Hf  Hf36  1  0.68514185  0.10120813  0.40061384  1
  Hf  Hf37  1  0.39973636  0.79381566  0.50467378  1
  Hf  Hf38  1  0.30147418  0.70246122  0.36835269  1
  Hf  Hf39  1  0.29822798  0.10420084  0.62363548  1
  Zr  Zr40  1  -0.00009069  0.79154164  -0.00247914  1
  Zr  Zr41  1  0.80422652  0.20467811  -0.02818458  1
  Zr  Zr42  1  0.69514150  0.30033102  0.63580263  1
  Zr  Zr43  1  0.39027692  -0.00687575  0.00950144  1
  Zr  Zr44  1  0.68996606  0.50065364  0.12312974  1
  Zr  Zr45  1  0.30065034  0.09846558  0.37730730  1
  Zr  Zr46  1  0.08992171  0.69627325  0.13187597  1
  Zr  Zr47  1  0.29966256  0.71385675  0.13482626  1
  Zr  Zr48  1  0.78877206  0.81807171  0.25584053  1
  Zr  Zr49  1  0.90654131  0.50883667  0.12355472  1
  Zr  Zr50  1  0.20217332  0.60325996  0.49004702  1
  Zr  Zr51  1  0.78878179  -0.00493754  0.74637037  1
  Zr  Zr52  1  0.31203755  0.49884714  0.36346567  1
  Zr  Zr53  1  0.88413965  0.11043177  0.12370217  1
  Zr  Zr54  1  -0.00061790  0.20311696  0.00177865  1
  Zr  Zr55  1  0.90255144  0.29807649  0.62617901  1
  Zr  Zr56  1  0.80693434  0.40002375  -0.01263748  1
  Zr  Zr57  1  0.31626955  0.29750782  0.36497834  1
  Zr  Zr58  1  0.69925752  0.51189832  0.63312412  1
  Zr  Zr59  1  0.29613573  0.68879375  0.62124175  1
  Zr  Zr60  1  0.10901614  0.50700229  0.62466202  1
  Zr  Zr61  1  0.21305822  0.38533547  0.49231456  1
  Zr  Zr62  1  0.68865898  0.71177202  0.12884998  1
  Zr  Zr63  1  0.40194033  0.41238294  -0.00019461  1
  Zr  Zr64  1  -0.00738789  0.61319025  0.49786480  1
  Zr  Zr65  1  0.69839884  0.91630239  0.11612131  1
  Zr  Zr66  1  0.01291980  0.39810423  -0.00477735  1
  Zr  Zr67  1  0.40744242  0.19263604  0.24197894  1
  Zr  Zr68  1  0.09837476  0.72333910  0.36262065  1
  Zr  Zr69  1  0.60478346  0.18764781  -0.00721391  1
  Zr  Zr70  1  0.29344295  0.90307468  0.38114850  1
  Zr  Zr71  1  0.69853279  0.88372247  0.61512106  1
  Zr  Zr72  1  0.90857820  0.90934981  0.88278485  1
  Zr  Zr73  1  0.58963088  -0.00821232  -0.01530691  1
  Zr  Zr74  1  0.50243981  0.87861288  0.12908520  1
  Zr  Zr75  1  0.90314989  0.69984405  0.35281133  1
  Zr  Zr76  1  0.20629746  0.80733274  -0.01201197  1
  Zr  Zr77  1  0.60127764  0.39424158  -0.00881423  1
  Zr  Zr78  1  0.90427747  0.30528044  0.38520272  1
  Zr  Zr79  1  0.08869130  0.10060365  0.86950400  1
  Ta  Ta80  1  0.79817952  0.79137275  0.75523232  1
  Ta  Ta81  1  0.10657727  0.67828958  0.87762794  1
  Ta  Ta82  1  0.40268047  0.21265598  0.51026429  1
  Ta  Ta83  1  0.17596727  0.82142507  0.50328940  1
  Ta  Ta84  1  0.19084514  -0.00626117  0.24669412  1
  Ta  Ta85  1  0.50750665  0.30047844  0.12820813  1
  Ta  Ta86  1  0.30075018  0.30385948  0.87808093  1
  Ta  Ta87  1  0.40097855  -0.01015439  0.24515372  1
  Ta  Ta88  1  0.19412058  0.38778353  0.25485106  1
  Ta  Ta89  1  0.19653957  0.59467413  0.00677939  1
  Ta  Ta90  1  0.49394926  0.68048396  0.12720268  1
  Ta  Ta91  1  0.60699480  0.38407121  0.25309185  1
  Ta  Ta92  1  0.51762433  0.69376446  0.62032156  1
  Ta  Ta93  1  0.58917596  0.40202821  0.75528488  1
  Ta  Ta94  1  0.79562812  0.01270255  -0.01415113  1
  Ta  Ta95  1  0.88390653  0.69660854  0.63209994  1
  Ta  Ta96  1  0.59964022  0.60607198  0.75703966  1
  Ta  Ta97  1  -0.00152109  0.39276006  0.24464365  1
  Ta  Ta98  1  0.70401496  0.89167792  0.88055910  1
  Ta  Ta99  1  0.91260663  0.51004344  0.88103220  1
  Ta  Ta100  1  0.10063324  0.09087880  0.38078560  1
  Ta  Ta101  1  0.60087598  0.39552329  0.50104349  1
  Ta  Ta102  1  0.69701640  0.50924429  0.87197990  1
  Ta  Ta103  1  0.80865612  0.19021732  0.75858357  1
  Ta  Ta104  1  0.10832559  0.49280939  0.13398015  1
  Ta  Ta105  1  0.49512184  0.29481178  0.86769041  1
  Ta  Ta106  1  0.58109538  0.59753156  -0.00717771  1
  Ta  Ta107  1  0.48798284  0.69146925  0.87193698  1
  Ta  Ta108  1  0.89511215  0.50200314  0.36163703  1
  Ta  Ta109  1  0.40826098  0.78915728  -0.00631075  1
  Ta  Ta110  1  0.79644745  0.40832559  0.49812435  1
  Ta  Ta111  1  0.19591890  0.60167314  0.25120612  1
  Ta  Ta112  1  0.29073633  0.90290165  0.61880638  1
  Ta  Ta113  1  0.69522228  0.29872786  0.85625728  1
  Ta  Ta114  1  0.19642088  0.20505185  -0.00717857  1
  Ta  Ta115  1  0.79332368  0.59759497  0.24706312  1
  Ta  Ta116  1  0.31720327  0.90573085  0.87187108  1
  Ta  Ta117  1  0.59419008  0.18544217  0.75275026  1
  Ta  Ta118  1  0.50951255  0.89457389  0.38342437  1
  Ta  Ta119  1  0.90176645  0.50101762  0.62882893  1
  Ti  Ti120  1  0.00699943  0.00629205  0.00305631  1
  Ti  Ti121  1  0.49430005  0.49675611  0.86720511  1
  Ti  Ti122  1  0.11482610  0.90808922  0.11895202  1
  Ti  Ti123  1  0.49399491  0.09403698  0.38141540  1
  Ti  Ti124  1  0.80108812  0.40253071  0.24927891  1
  Ti  Ti125  1  0.60038451  0.59910478  0.49742892  1
  Ti  Ti126  1  0.90878612  0.88476901  0.62176902  1
  Ti  Ti127  1  0.60385238  0.78683781  -0.01609566  1
  Ti  Ti128  1  0.49480331  0.69372616  0.37672204  1
  Ti  Ti129  1  0.19878615  0.19556107  0.49799412  1
  Ti  Ti130  1  0.19554893  0.00480788  -0.00881791  1
  Ti  Ti131  1  0.41191872  0.00222161  0.74440884  1
  Ti  Ti132  1  0.01240682  0.81983854  0.23874450  1
  Ti  Ti133  1  0.59325107  0.59813160  0.25157556  1
  Ti  Ti134  1  0.49885001  0.49308993  0.13840219  1
  Ti  Ti135  1  0.78574391  0.21611213  0.49975511  1
  Ti  Ti136  1  0.20004876  0.39991458  -0.00719865  1
  Ti  Ti137  1  0.50581625  0.49672254  0.62802812  1
  Ti  Ti138  1  0.79742683  0.60789533  0.76076764  1
  Ti  Ti139  1  0.41044875  0.58545264  0.50347330  1
  Ti  Ti140  1  0.18970306  0.19334821  0.25344135  1
  Ti  Ti141  1  0.01054681  0.20172388  0.50201297  1
  Ti  Ti142  1  0.10202220  0.29219862  0.12558792  1
  Ti  Ti143  1  0.40160486  0.00850904  0.50551457  1
  Ti  Ti144  1  0.40167043  0.59740566  0.74199125  1
  Ti  Ti145  1  0.69918088  0.49443169  0.36897544  1
  Ti  Ti146  1  0.51355350  0.28868851  0.37973801  1
  Ti  Ti147  1  0.80157299  -0.00593942  0.50563814  1
  Ti  Ti148  1  0.40624539  0.79945501  0.25635877  1
  Ti  Ti149  1  0.89362760  0.70240110  0.88044464  1
  Ti  Ti150  1  0.51225564  0.08742795  0.12691423  1
  Ti  Ti151  1  0.00404886  0.00738927  0.24183935  1
  Ti  Ti152  1  0.89177760  0.10722997  0.61304296  1
  Ti  Ti153  1  0.30191051  0.10527604  0.87536305  1
  Ti  Ti154  1  0.49048338  0.30646462  0.62976545  1
  Ti  Ti155  1  0.89458651  0.70545761  0.13396578  1
  Ti  Ti156  1  0.59906392  -0.01553858  0.26180081  1
  Ti  Ti157  1  0.19440610  0.20245864  0.75869364  1
  Ti  Ti158  1  0.49224750  0.08847143  0.86889610  1
  Ti  Ti159  1  0.10216355  0.10532909  0.62879333  1
  Mo  Mo160  1  0.69304232  0.30999252  0.38207006  1
  Mo  Mo161  1  0.89802288  0.09958271  0.87063754  1
  Mo  Mo162  1  0.42111764  0.39290245  0.50251414  1
  Mo  Mo163  1  0.10442294  0.90422082  0.63546658  1
  Mo  Mo164  1  0.90473973  0.30898541  0.13161581  1
  Mo  Mo165  1  -0.00886569  0.80092179  0.50603565  1
  Mo  Mo166  1  0.49832475  0.10640916  0.62445103  1
  Mo  Mo167  1  0.40892822  0.60473876  0.25370111  1
  Mo  Mo168  1  0.20510725  0.60574588  0.74757170  1
  Mo  Mo169  1  0.20425287  0.00804036  0.50857709  1
  Mo  Mo170  1  0.49446481  0.89320034  0.87245256  1
  Mo  Mo171  1  0.10601721  0.28545068  0.37352088  1
  Mo  Mo172  1  0.41356320  0.39376238  0.24257209  1
  Mo  Mo173  1  0.29709979  0.29640834  0.62864052  1
  Mo  Mo174  1  0.30054201  0.90063823  0.13150684  1
  Mo  Mo175  1  0.58485286  0.79959827  0.25530771  1
  Mo  Mo176  1  0.40471993  0.40151034  0.75916155  1
  Mo  Mo177  1  0.69576311  0.90672210  0.39015688  1
  Mo  Mo178  1  0.30706275  0.70213238  0.87386760  1
  Mo  Mo179  1  0.39934401  0.60477980  0.00256738  1
  Mo  Mo180  1  0.00464069  0.59844775  -0.00370103  1
  Mo  Mo181  1  0.09941477  0.09640903  0.12095706  1
  Mo  Mo182  1  0.00036418  0.39784056  0.76028479  1
  Mo  Mo183  1  0.79519494  0.80790079  -0.00355201  1
  Mo  Mo184  1  0.10352748  0.50109493  0.88027631  1
  Mo  Mo185  1  0.59381646  0.78612911  0.49808846  1
  Mo  Mo186  1  0.20445808  0.81312639  0.24378617  1
  Mo  Mo187  1  -0.00281703  0.59605928  0.24528915  1
  Mo  Mo188  1  0.09778356  0.91261491  0.36928858  1
  Mo  Mo189  1  0.91443731  0.29861705  0.85489749  1
  Mo  Mo190  1  0.69335603  0.09471464  0.86024407  1
  Mo  Mo191  1  0.59155542  -0.00212534  0.76069982  1
  Mo  Mo192  1  0.10842884  0.90089701  0.88268114  1
  Mo  Mo193  1  0.69678376  0.69818935  0.87878192  1
  Mo  Mo194  1  0.10874392  0.29912845  0.86903662  1
  Mo  Mo195  1  0.70016674  0.69373524  0.62775011  1
  Mo  Mo196  1  0.59134199  -0.00422600  0.49431435  1
  Mo  Mo197  1  -0.00109328  0.20084970  0.74283220  1
  Mo  Mo198  1  0.69792880  0.09568342  0.12506663  1
  Mo  Mo199  1  0.58367955  0.20819088  0.50746164  1
