# generated using pymatgen
data_HfZrTaTiMo
_symmetry_space_group_name_H-M   'P 1'
_cell_length_a   15.21991975
_cell_length_b   15.20578579
_cell_length_c   16.85570957
_cell_angle_alpha   90.01017561
_cell_angle_beta   89.99379248
_cell_angle_gamma   89.92519121
_symmetry_Int_Tables_number   1
_chemical_formula_structural   HfZrTaTiMo
_chemical_formula_sum   'Hf40 Zr40 Ta40 Ti40 Mo40'
_cell_volume   3900.92760608
_cell_formula_units_Z   40
loop_
 _symmetry_equiv_pos_site_id
 _symmetry_equiv_pos_as_xyz
  1  'x, y, z'
loop_
 _atom_site_type_symbol
 _atom_site_label
 _atom_site_symmetry_multiplicity
 _atom_site_fract_x
 _atom_site_fract_y
 _atom_site_fract_z
 _atom_site_occupancy
  Hf  Hf0  1  0.89363103  0.69348682  0.62741813  1
  Hf  Hf1  1  0.10358019  0.88477415  0.12976274  1
  Hf  Hf2  1  -0.00589838  0.80128934  0.48181150  1
  Hf  Hf3  1  0.46670108  0.28672020  0.13906521  1
  Hf  Hf4  1  0.79075398  0.60196079  0.49795573  1
  Hf  Hf5  1  -0.00808912  0.20270574  0.75065119  1
  Hf  Hf6  1  0.70731629  0.50879585  0.63291641  1
  Hf  Hf7  1  0.70772932  0.90121917  0.12465074  1
  Hf  Hf8  1  0.80463075  0.79924356  0.24401330  1
  Hf  Hf9  1  0.02031621  -0.00138219  0.26614230  1
  Hf  Hf10  1  0.10894863  0.87870027  0.88032457  1
  Hf  Hf11  1  0.38014301  0.60033150  -0.01624294  1
  Hf  Hf12  1  0.42131590  -0.01457648  0.24822540  1
  Hf  Hf13  1  0.81106771  0.60275282  0.00151113  1
  Hf  Hf14  1  0.00322037  0.58612993  -0.01449509  1
  Hf  Hf15  1  0.38517270  0.19898071  0.49727985  1
  Hf  Hf16  1  0.50058521  0.09398473  0.37090495  1
  Hf  Hf17  1  0.58674590  0.81538907  0.24102676  1
  Hf  Hf18  1  0.70536426  0.71600350  0.89031020  1
  Hf  Hf19  1  0.50401856  0.10136301  0.63537497  1
  Hf  Hf20  1  0.10306183  0.08940300  0.89241661  1
  Hf  Hf21  1  -0.01157141  0.57141761  0.50017158  1
  Hf  Hf22  1  0.19690950  0.80178139  0.26523519  1
  Hf  Hf23  1  0.39754931  0.81397883  0.76369900  1
  Hf  Hf24  1  0.70290249  0.49823931  0.87579109  1
  Hf  Hf25  1  0.90424995  0.32005502  0.61872210  1
  Hf  Hf26  1  0.38153173  0.42315378  0.50025136  1
  Hf  Hf27  1  0.20950455  0.19993984  0.01643197  1
  Hf  Hf28  1  0.90735075  0.49446053  0.13341037  1
  Hf  Hf29  1  0.48906540  0.50423988  0.13178668  1
  Hf  Hf30  1  0.30578321  0.90092181  0.61744112  1
  Hf  Hf31  1  0.80159548  -0.00344257  0.75659301  1
  Hf  Hf32  1  0.39429429  0.20727493  0.74196631  1
  Hf  Hf33  1  0.09274534  0.69777503  0.61787077  1
  Hf  Hf34  1  0.69325811  0.70612776  0.37020412  1
  Hf  Hf35  1  0.19280370  0.42400739  -0.01484379  1
  Hf  Hf36  1  0.58346339  0.60633532  0.50069973  1
  Hf  Hf37  1  0.70439775  0.09611430  0.13385194  1
  Hf  Hf38  1  0.21391086  -0.01327610  0.00728402  1
  Hf  Hf39  1  0.19939680  0.20432471  0.23629135  1
  Zr  Zr40  1  0.49592632  0.30849997  0.61795345  1
  Zr  Zr41  1  0.01173268  -0.00755738  0.75023400  1
  Zr  Zr42  1  0.49793598  0.09283908  0.85706285  1
  Zr  Zr43  1  0.90443597  0.10100559  0.88826032  1
  Zr  Zr44  1  0.71076842  0.10614974  0.37343240  1
  Zr  Zr45  1  0.69824959  0.29541044  0.87518419  1
  Zr  Zr46  1  0.59451772  0.59387918  -0.00314855  1
  Zr  Zr47  1  0.20473400  0.57538625  0.50518356  1
  Zr  Zr48  1  0.39478256  0.39585576  -0.00385118  1
  Zr  Zr49  1  0.49490435  0.30922452  0.37384177  1
  Zr  Zr50  1  0.59343185  0.19700783  0.24461479  1
  Zr  Zr51  1  0.20410266  0.01522863  0.47729683  1
  Zr  Zr52  1  0.08377413  0.29652281  0.89356512  1
  Zr  Zr53  1  0.90472633  0.10933428  0.61251428  1
  Zr  Zr54  1  0.58984628  0.61003113  0.24233344  1
  Zr  Zr55  1  -0.00265118  0.20383849  0.24094333  1
  Zr  Zr56  1  0.60337369  0.38932632  0.01960224  1
  Zr  Zr57  1  0.18864653  0.19245538  0.75348980  1
  Zr  Zr58  1  0.37124209  0.40533665  0.25884124  1
  Zr  Zr59  1  0.70352905  0.50001997  0.35824325  1
  Zr  Zr60  1  0.59631938  0.40356655  0.74554530  1
  Zr  Zr61  1  0.10066533  0.68435623  0.38418489  1
  Zr  Zr62  1  0.40709183  -0.00661496  0.49480859  1
  Zr  Zr63  1  0.10187611  0.51124630  0.13135109  1
  Zr  Zr64  1  0.70434758  0.09890548  0.62675139  1
  Zr  Zr65  1  0.60632699  -0.01024117  -0.00447813  1
  Zr  Zr66  1  0.19068144  0.79410863  0.74085193  1
  Zr  Zr67  1  0.50683711  0.71245951  0.63860675  1
  Zr  Zr68  1  0.80255866  0.20837853  0.24910909  1
  Zr  Zr69  1  0.58736252  0.18987206  0.01437648  1
  Zr  Zr70  1  0.60383025  0.41101488  0.49506980  1
  Zr  Zr71  1  0.30832463  0.68671403  0.62080841  1
  Zr  Zr72  1  0.70399800  0.29942658  0.62119725  1
  Zr  Zr73  1  0.90430843  0.89738054  0.62209337  1
  Zr  Zr74  1  0.29444038  0.29471440  0.87374136  1
  Zr  Zr75  1  0.21861505  0.59517468  0.25776493  1
  Zr  Zr76  1  0.60798205  0.00082698  0.50027305  1
  Zr  Zr77  1  0.50195001  0.29785924  0.86996762  1
  Zr  Zr78  1  0.00591849  0.00365859  0.47941016  1
  Zr  Zr79  1  0.48298868  0.71754917  0.10334999  1
  Ta  Ta80  1  0.20375833  0.80498429  0.48967908  1
  Ta  Ta81  1  0.60499515  0.39430777  0.24072396  1
  Ta  Ta82  1  0.31559128  0.09841548  0.13972408  1
  Ta  Ta83  1  0.29391612  0.10071872  0.62654095  1
  Ta  Ta84  1  -0.00561450  -0.02525799  0.00714536  1
  Ta  Ta85  1  0.81774883  0.40917565  0.48731425  1
  Ta  Ta86  1  0.79157790  0.19676567  0.00707888  1
  Ta  Ta87  1  0.40820266  0.00108094  0.00937984  1
  Ta  Ta88  1  0.31523677  0.68434782  0.39016116  1
  Ta  Ta89  1  0.82276938  0.81150838  0.00750358  1
  Ta  Ta90  1  0.89393280  0.30412910  0.89324731  1
  Ta  Ta91  1  0.70261840  0.89224982  0.62912613  1
  Ta  Ta92  1  0.09184031  0.31259535  0.11203785  1
  Ta  Ta93  1  0.08431883  0.30117551  0.37159678  1
  Ta  Ta94  1  0.60295290  0.80792094  0.50121406  1
  Ta  Ta95  1  0.70190918  0.70286796  0.11107467  1
  Ta  Ta96  1  0.29510921  0.49955901  0.12084609  1
  Ta  Ta97  1  0.09618437  0.29723710  0.62480756  1
  Ta  Ta98  1  0.51105510  0.90610936  0.63925137  1
  Ta  Ta99  1  0.39387009  0.78141842  0.25124791  1
  Ta  Ta100  1  0.38378878  0.41324473  0.74848306  1
  Ta  Ta101  1  0.89965901  0.29716809  0.10643249  1
  Ta  Ta102  1  0.27435972  0.29367873  0.37980623  1
  Ta  Ta103  1  0.80436849  0.60106365  0.76087117  1
  Ta  Ta104  1  0.28433248  0.71757097  0.87943628  1
  Ta  Ta105  1  0.90468838  0.08572770  0.11784846  1
  Ta  Ta106  1  0.60007446  0.61237131  0.76249232  1
  Ta  Ta107  1  0.80060069  0.20625314  0.75452083  1
  Ta  Ta108  1  0.89149458  0.68935624  0.37086342  1
  Ta  Ta109  1  -0.00567530  0.80244702  0.26634861  1
  Ta  Ta110  1  0.70649543  0.49981788  0.13287538  1
  Ta  Ta111  1  0.69774971  0.90442106  0.36655369  1
  Ta  Ta112  1  0.21365225  -0.00729378  0.75203471  1
  Ta  Ta113  1  0.80492864  0.79664711  0.75540299  1
  Ta  Ta114  1  0.31475458  0.89265521  0.37178586  1
  Ta  Ta115  1  0.48277009  0.51855685  0.63723335  1
  Ta  Ta116  1  0.69722224  0.09775761  0.86683456  1
  Ta  Ta117  1  0.28345254  0.30669397  0.62431608  1
  Ta  Ta118  1  0.10504525  0.90262356  0.61542514  1
  Ta  Ta119  1  0.31330288  0.88934591  0.12964707  1
  Ti  Ti120  1  0.01582957  0.78093700  0.00285674  1
  Ti  Ti121  1  0.10093676  0.08991308  0.11892167  1
  Ti  Ti122  1  0.80685447  -0.00652506  0.49027476  1
  Ti  Ti123  1  0.09205781  0.48773366  0.63597114  1
  Ti  Ti124  1  0.00938663  0.20986405  0.49364374  1
  Ti  Ti125  1  0.91405116  0.70481914  0.86941173  1
  Ti  Ti126  1  0.60292901  0.20785206  0.49047707  1
  Ti  Ti127  1  0.47828661  0.52155560  0.36402438  1
  Ti  Ti128  1  0.50602901  0.90012385  0.87683906  1
  Ti  Ti129  1  0.41135194  0.79690773  0.50095472  1
  Ti  Ti130  1  0.30540886  0.08746822  0.87345518  1
  Ti  Ti131  1  0.18702094  0.61740015  -0.01117736  1
  Ti  Ti132  1  0.91822299  0.70610165  0.12823641  1
  Ti  Ti133  1  0.00215602  0.60742727  0.25354902  1
  Ti  Ti134  1  0.80479189  0.39092513  0.24871701  1
  Ti  Ti135  1  0.10483106  0.48197276  0.36326230  1
  Ti  Ti136  1  0.39726097  0.18857072  0.00140356  1
  Ti  Ti137  1  0.28112257  0.70121149  0.11649652  1
  Ti  Ti138  1  0.80290788  -0.00356781  -0.00611117  1
  Ti  Ti139  1  0.91295419  0.48784320  0.35607698  1
  Ti  Ti140  1  0.49869115  0.71013039  0.88538681  1
  Ti  Ti141  1  0.82028768  -0.00442728  0.25663475  1
  Ti  Ti142  1  0.49483293  0.50122495  0.86809265  1
  Ti  Ti143  1  0.80214580  0.21504823  0.48579417  1
  Ti  Ti144  1  0.91201589  0.11405503  0.37716053  1
  Ti  Ti145  1  0.39296106  0.60693857  0.76806463  1
  Ti  Ti146  1  0.81113708  0.40285126  0.75513989  1
  Ti  Ti147  1  0.18257612  0.38950067  0.50365330  1
  Ti  Ti148  1  0.80318463  0.40544384  0.00398433  1
  Ti  Ti149  1  0.10558441  0.09877884  0.61933962  1
  Ti  Ti150  1  -0.00446375  0.40473530  0.76160096  1
  Ti  Ti151  1  0.80364699  0.60424443  0.24002672  1
  Ti  Ti152  1  0.61223090  0.81161945  0.76424243  1
  Ti  Ti153  1  0.69804758  0.70692360  0.63235474  1
  Ti  Ti154  1  0.49472462  0.71158080  0.37629329  1
  Ti  Ti155  1  0.19833557  0.59075586  0.75693925  1
  Ti  Ti156  1  0.79514214  0.80463478  0.49310178  1
  Ti  Ti157  1  0.90471713  0.88960909  0.87268502  1
  Ti  Ti158  1  0.00011228  0.59667669  0.75639786  1
  Ti  Ti159  1  0.19015079  0.40063047  0.75766609  1
  Mo  Mo160  1  0.29500439  0.50919051  0.86158960  1
  Mo  Mo161  1  0.89637527  0.49535023  0.86835049  1
  Mo  Mo162  1  0.89724277  0.30521532  0.38019099  1
  Mo  Mo163  1  0.40448215  0.60363472  0.50407646  1
  Mo  Mo164  1  0.61476315  -0.00336125  0.25146554  1
  Mo  Mo165  1  0.18231736  0.39237761  0.24870143  1
  Mo  Mo166  1  0.39494826  0.60702191  0.24792291  1
  Mo  Mo167  1  0.10805551  0.89769924  0.37190866  1
  Mo  Mo168  1  0.61099555  0.19495509  0.74891632  1
  Mo  Mo169  1  0.38984939  0.19632833  0.26130960  1
  Mo  Mo170  1  0.70764530  0.30712424  0.12298896  1
  Mo  Mo171  1  0.49676808  0.09011595  0.12913273  1
  Mo  Mo172  1  0.49877850  0.90064187  0.11624360  1
  Mo  Mo173  1  0.28927776  0.49460180  0.64227438  1
  Mo  Mo174  1  -0.00802893  0.40095725  -0.00365737  1
  Mo  Mo175  1  0.39244715  0.81367678  -0.01425777  1
  Mo  Mo176  1  0.09616011  0.50260620  0.86008625  1
  Mo  Mo177  1  0.90139775  0.50206271  0.63938180  1
  Mo  Mo178  1  0.39499626  0.00154539  0.74493167  1
  Mo  Mo179  1  0.70290161  0.31135559  0.37766007  1
  Mo  Mo180  1  0.30151238  0.10113934  0.35428493  1
  Mo  Mo181  1  0.50611420  0.88597683  0.37855612  1
  Mo  Mo182  1  0.60666095  0.80301300  -0.00329835  1
  Mo  Mo183  1  -0.00403230  0.39626796  0.24583128  1
  Mo  Mo184  1  -0.00147004  0.18739542  0.01656587  1
  Mo  Mo185  1  0.11318728  0.11870707  0.37082830  1
  Mo  Mo186  1  0.19454041  0.20461447  0.50223434  1
  Mo  Mo187  1  0.28604894  0.30948394  0.11973686  1
  Mo  Mo188  1  0.30829925  0.90846341  0.87937320  1
  Mo  Mo189  1  0.29072383  0.49134847  0.38042806  1
  Mo  Mo190  1  -0.00662312  0.79197047  0.74696501  1
  Mo  Mo191  1  0.88997241  0.90023627  0.37420045  1
  Mo  Mo192  1  0.71485169  0.90183846  0.87899103  1
  Mo  Mo193  1  0.09497397  0.69859498  0.13203269  1
  Mo  Mo194  1  0.00779580  0.40000970  0.49954639  1
  Mo  Mo195  1  0.09592161  0.69562177  0.86649620  1
  Mo  Mo196  1  0.60414005  -0.01124562  0.75393986  1
  Mo  Mo197  1  0.21417752  -0.00073520  0.25515461  1
  Mo  Mo198  1  0.90988797  0.89904605  0.12799670  1
  Mo  Mo199  1  0.20356193  0.79339345  0.00590316  1
