# generated using pymatgen
data_HfZrTaTiMo
_symmetry_space_group_name_H-M   'P 1'
_cell_length_a   15.18745769
_cell_length_b   15.16925752
_cell_length_c   16.82126536
_cell_angle_alpha   90.03082195
_cell_angle_beta   89.91411357
_cell_angle_gamma   90.13981991
_symmetry_Int_Tables_number   1
_chemical_formula_structural   HfZrTaTiMo
_chemical_formula_sum   'Hf40 Zr40 Ta40 Ti40 Mo40'
_cell_volume   3875.30799421
_cell_formula_units_Z   40
loop_
 _symmetry_equiv_pos_site_id
 _symmetry_equiv_pos_as_xyz
  1  'x, y, z'
loop_
 _atom_site_type_symbol
 _atom_site_label
 _atom_site_symmetry_multiplicity
 _atom_site_fract_x
 _atom_site_fract_y
 _atom_site_fract_z
 _atom_site_occupancy
  Hf  Hf0  1  0.71260621  0.08706374  0.35994423  1
  Hf  Hf1  1  0.79556667  0.77434866  0.00013027  1
  Hf  Hf2  1  0.29118184  0.70079481  0.38075070  1
  Hf  Hf3  1  0.90587490  0.51750511  0.11475055  1
  Hf  Hf4  1  0.20910620  0.79977082  -0.00827706  1
  Hf  Hf5  1  0.30695981  0.31367469  0.13520947  1
  Hf  Hf6  1  0.89059466  0.70941810  0.37950932  1
  Hf  Hf7  1  0.89580842  0.49979423  0.37082317  1
  Hf  Hf8  1  0.11297236  0.50645268  0.12071580  1
  Hf  Hf9  1  0.82194940  -0.00560112  0.74669777  1
  Hf  Hf10  1  0.50848525  0.90323914  0.36933209  1
  Hf  Hf11  1  0.41958144  0.41167590  0.25366671  1
  Hf  Hf12  1  0.09868739  0.92725030  0.61561043  1
  Hf  Hf13  1  0.61418399  0.40575495  0.76997506  1
  Hf  Hf14  1  0.48831387  0.69777754  0.87016703  1
  Hf  Hf15  1  0.09925321  0.91180251  0.38493266  1
  Hf  Hf16  1  0.70819222  0.88740099  0.63004528  1
  Hf  Hf17  1  0.00423607  0.80020541  0.25094834  1
  Hf  Hf18  1  0.29479636  0.50459840  0.86190404  1
  Hf  Hf19  1  0.29891960  0.89847420  0.37883088  1
  Hf  Hf20  1  0.60705049  0.39469826  -0.01020899  1
  Hf  Hf21  1  0.28964126  0.27592475  0.62032505  1
  Hf  Hf22  1  0.02811136  0.00993778  0.75850719  1
  Hf  Hf23  1  0.50603786  0.89598372  0.13343017  1
  Hf  Hf24  1  0.49869574  0.50408018  0.63593221  1
  Hf  Hf25  1  0.72157643  0.10652274  0.87669513  1
  Hf  Hf26  1  0.30246091  0.30168943  0.36504556  1
  Hf  Hf27  1  0.00541242  0.21205610  0.74214105  1
  Hf  Hf28  1  -0.00349783  0.79510845  -0.00013189  1
  Hf  Hf29  1  0.81794683  -0.02164331  0.50752292  1
  Hf  Hf30  1  0.49120339  0.09347517  0.88451779  1
  Hf  Hf31  1  0.81674007  0.77567365  0.74674313  1
  Hf  Hf32  1  0.39712429  0.39331208  0.75471480  1
  Hf  Hf33  1  0.37983636  0.60111639  -0.00564738  1
  Hf  Hf34  1  0.60648300  0.20044992  0.76270935  1
  Hf  Hf35  1  0.29496529  0.50361043  0.38087952  1
  Hf  Hf36  1  0.18534930  0.38603253  0.74343534  1
  Hf  Hf37  1  0.06468827  0.70950127  0.63064013  1
  Hf  Hf38  1  0.88450193  0.30192473  0.87849914  1
  Hf  Hf39  1  0.30427511  0.90616103  0.86916313  1
  Zr  Zr40  1  0.10166644  0.30290826  0.36484069  1
  Zr  Zr41  1  0.20725769  0.40989854  -0.00438196  1
  Zr  Zr42  1  0.81830840  -0.00671643  -0.00156857  1
  Zr  Zr43  1  0.60715950  0.00677895  0.49965841  1
  Zr  Zr44  1  0.78858682  0.39184081  0.49951616  1
  Zr  Zr45  1  0.18588933  0.81439631  0.74920111  1
  Zr  Zr46  1  0.70611229  0.87794621  0.13824042  1
  Zr  Zr47  1  0.38505408  -0.01035097  0.01626247  1
  Zr  Zr48  1  0.61842969  0.21252287  0.48643502  1
  Zr  Zr49  1  0.41240647  0.00811064  0.24860731  1
  Zr  Zr50  1  0.09031130  0.69787225  0.12216913  1
  Zr  Zr51  1  0.49348186  0.49655710  0.11038767  1
  Zr  Zr52  1  0.70874561  0.30285207  0.63654159  1
  Zr  Zr53  1  0.50505801  0.30109518  0.62703078  1
  Zr  Zr54  1  0.18711179  0.59721713  0.51498212  1
  Zr  Zr55  1  0.17952427  0.59991840  0.74711870  1
  Zr  Zr56  1  0.29876871  0.10381735  0.36137168  1
  Zr  Zr57  1  0.40904781  0.19421831  0.49049291  1
  Zr  Zr58  1  0.89982640  0.30020050  0.36699286  1
  Zr  Zr59  1  0.50344925  0.11053218  0.11412024  1
  Zr  Zr60  1  0.78667969  0.60770536  0.24229675  1
  Zr  Zr61  1  0.60490063  0.79532468  0.49876745  1
  Zr  Zr62  1  0.50241805  0.69828574  0.12089256  1
  Zr  Zr63  1  0.39991255  0.79379753  0.51207541  1
  Zr  Zr64  1  0.90357853  0.51293142  0.89223346  1
  Zr  Zr65  1  0.57909082  0.58311584  0.25850083  1
  Zr  Zr66  1  0.60752730  -0.00144206  0.75443069  1
  Zr  Zr67  1  0.58530594  0.19794854  0.26159374  1
  Zr  Zr68  1  0.29397659  0.11163811  0.13608390  1
  Zr  Zr69  1  0.39203372  0.80198383  0.73604952  1
  Zr  Zr70  1  -0.00073379  0.40126440  0.51400860  1
  Zr  Zr71  1  0.91842769  0.10051912  0.37964697  1
  Zr  Zr72  1  -0.01237979  0.41819908  0.74084134  1
  Zr  Zr73  1  0.50258054  0.89558974  0.87176576  1
  Zr  Zr74  1  0.00082383  0.00896257  0.24281667  1
  Zr  Zr75  1  0.61227503  -0.01141237  -0.00685809  1
  Zr  Zr76  1  0.70089675  0.08539401  0.13448658  1
  Zr  Zr77  1  0.68107661  0.47227118  0.37126071  1
  Zr  Zr78  1  0.81834284  0.19111206  0.51089357  1
  Zr  Zr79  1  0.38948168  0.18346937  0.75569449  1
  Ta  Ta80  1  0.89064186  0.51463912  0.61981188  1
  Ta  Ta81  1  0.49786012  0.29765577  0.87880911  1
  Ta  Ta82  1  0.00242330  0.20612988  0.22845516  1
  Ta  Ta83  1  0.00023826  0.60150221  0.25684082  1
  Ta  Ta84  1  -0.01037310  0.20270058  0.01259823  1
  Ta  Ta85  1  0.28585096  0.09556791  0.88538069  1
  Ta  Ta86  1  0.81240191  0.19496379  0.23399132  1
  Ta  Ta87  1  0.39892890  0.40536422  0.50431315  1
  Ta  Ta88  1  0.60354488  0.78214907  0.25871483  1
  Ta  Ta89  1  0.09116720  0.29765574  0.88408701  1
  Ta  Ta90  1  0.78743821  0.59945899  0.49593746  1
  Ta  Ta91  1  0.51581700  0.32370759  0.37986293  1
  Ta  Ta92  1  0.39833546  0.39728090  -0.01063588  1
  Ta  Ta93  1  0.50906261  0.69535707  0.63322050  1
  Ta  Ta94  1  0.69166999  0.50260837  0.62457286  1
  Ta  Ta95  1  0.40264689  -0.00181582  0.50371526  1
  Ta  Ta96  1  0.50005247  0.90571089  0.63100841  1
  Ta  Ta97  1  0.19733108  -0.00577042  0.24157622  1
  Ta  Ta98  1  0.11001803  0.90462146  0.11415849  1
  Ta  Ta99  1  0.79859410  0.39443143  0.23208426  1
  Ta  Ta100  1  0.50254981  0.09846452  0.62857295  1
  Ta  Ta101  1  0.71529908  0.88013211  0.86721796  1
  Ta  Ta102  1  0.61164763  0.60407813  -0.01256884  1
  Ta  Ta103  1  0.90570129  0.89651916  0.12914089  1
  Ta  Ta104  1  0.60724444  0.78972678  0.74965471  1
  Ta  Ta105  1  0.20121250  0.80225929  0.24852091  1
  Ta  Ta106  1  0.09712333  0.09816282  0.11069650  1
  Ta  Ta107  1  0.29193682  0.69733926  0.12764358  1
  Ta  Ta108  1  0.10500460  0.30223460  0.12588948  1
  Ta  Ta109  1  0.79869341  0.58352988  0.75022891  1
  Ta  Ta110  1  0.09558370  0.50465879  0.37352245  1
  Ta  Ta111  1  0.19586270  0.39355534  0.50892061  1
  Ta  Ta112  1  0.71459189  0.88711307  0.36106988  1
  Ta  Ta113  1  0.39261112  0.20934745  -0.00594083  1
  Ta  Ta114  1  0.91450834  0.89142231  0.87237246  1
  Ta  Ta115  1  0.19186671  0.80551412  0.51135999  1
  Ta  Ta116  1  -0.01775286  0.81794091  0.50060121  1
  Ta  Ta117  1  0.58723563  0.59083547  0.49569267  1
  Ta  Ta118  1  0.92788068  0.08750448  0.62083725  1
  Ta  Ta119  1  0.19791421  0.20771992  0.00313315  1
  Ti  Ti120  1  0.70686659  0.09683107  0.63056415  1
  Ti  Ti121  1  0.89577626  0.90434847  0.36357904  1
  Ti  Ti122  1  0.81359160  0.20075262  0.74113843  1
  Ti  Ti123  1  0.69218154  0.29414254  0.12980610  1
  Ti  Ti124  1  0.69201293  0.50054064  0.11979893  1
  Ti  Ti125  1  0.60680992  0.20268388  -0.00863123  1
  Ti  Ti126  1  0.29172893  0.49415339  0.63105554  1
  Ti  Ti127  1  0.19252396  0.60676081  0.25429971  1
  Ti  Ti128  1  0.19070955  0.18359221  0.75578046  1
  Ti  Ti129  1  0.50161237  0.29917052  0.11872469  1
  Ti  Ti130  1  0.09547839  0.70460239  0.38347310  1
  Ti  Ti131  1  0.39550807  0.79543166  0.24873480  1
  Ti  Ti132  1  0.71698025  0.49582344  0.88456445  1
  Ti  Ti133  1  0.29010054  0.70025807  0.62681672  1
  Ti  Ti134  1  0.39853845  0.79534111  0.00292676  1
  Ti  Ti135  1  0.79933560  0.20299446  0.01608996  1
  Ti  Ti136  1  0.80026780  0.39335666  0.01661302  1
  Ti  Ti137  1  0.10271035  0.10473290  0.89733695  1
  Ti  Ti138  1  0.20017763  0.41359473  0.24730142  1
  Ti  Ti139  1  0.20536458  0.02175571  0.50133834  1
  Ti  Ti140  1  0.49802552  0.50137188  0.87564421  1
  Ti  Ti141  1  0.02671012  0.20168085  0.51494699  1
  Ti  Ti142  1  0.09055310  0.49978976  0.87751278  1
  Ti  Ti143  1  -0.00882874  0.60491720  0.49703354  1
  Ti  Ti144  1  0.70076822  0.68604876  0.62089403  1
  Ti  Ti145  1  0.18626409  0.61244201  -0.01917160  1
  Ti  Ti146  1  0.39113504  0.60512833  0.74813008  1
  Ti  Ti147  1  0.60783949  0.60308873  0.76314243  1
  Ti  Ti148  1  0.48773775  0.69357109  0.37665795  1
  Ti  Ti149  1  0.00305148  0.39734660  0.00659186  1
  Ti  Ti150  1  0.91617779  0.10206890  0.87902681  1
  Ti  Ti151  1  0.10669381  0.91668453  0.88826323  1
  Ti  Ti152  1  0.39466327  0.59895839  0.51367833  1
  Ti  Ti153  1  0.07000241  0.70358502  0.86297017  1
  Ti  Ti154  1  0.29014927  0.29295320  0.87314829  1
  Ti  Ti155  1  0.69464714  0.69437024  0.37925093  1
  Ti  Ti156  1  0.60230928  0.79089306  -0.00857674  1
  Ti  Ti157  1  0.38350145  0.60351347  0.24690093  1
  Ti  Ti158  1  0.10951945  0.11259868  0.36964262  1
  Ti  Ti159  1  0.00004233  0.40663289  0.23816660  1
  Mo  Mo160  1  0.40450323  0.21568735  0.25741953  1
  Mo  Mo161  1  0.29911851  0.88790242  0.13445619  1
  Mo  Mo162  1  0.29747526  0.90362665  0.61341981  1
  Mo  Mo163  1  0.80103471  0.40168327  0.74894401  1
  Mo  Mo164  1  0.80471862  0.79409198  0.24735626  1
  Mo  Mo165  1  0.09428462  0.50738024  0.62127540  1
  Mo  Mo166  1  0.10212160  0.30383411  0.62468551  1
  Mo  Mo167  1  -0.00372958  0.81661717  0.75256477  1
  Mo  Mo168  1  0.50151323  0.10218480  0.38133241  1
  Mo  Mo169  1  0.71366017  0.29231602  0.35282463  1
  Mo  Mo170  1  -0.02263383  0.61691403  0.74685974  1
  Mo  Mo171  1  0.00300999  -0.00138951  -0.00340496  1
  Mo  Mo172  1  0.29750504  0.51269904  0.12979817  1
  Mo  Mo173  1  0.68887112  0.68624130  0.12518598  1
  Mo  Mo174  1  0.89249678  0.69988710  0.87551428  1
  Mo  Mo175  1  0.80824748  -0.00630616  0.24625550  1
  Mo  Mo176  1  0.88297675  0.70060923  0.60754836  1
  Mo  Mo177  1  0.79587817  0.79298599  0.50030887  1
  Mo  Mo178  1  0.91495201  0.89276449  0.63031833  1
  Mo  Mo179  1  0.19919489  0.00191935  0.00874277  1
  Mo  Mo180  1  0.48191753  0.50711909  0.38855138  1
  Mo  Mo181  1  0.00376931  0.60362564  -0.00416499  1
  Mo  Mo182  1  0.19023895  0.20161087  0.23852929  1
  Mo  Mo183  1  0.29071885  0.70164508  0.86839954  1
  Mo  Mo184  1  0.30478776  0.08381857  0.62133067  1
  Mo  Mo185  1  0.20311566  0.20404686  0.49457861  1
  Mo  Mo186  1  0.39775155  0.00164459  0.74095885  1
  Mo  Mo187  1  0.89223456  0.70732210  0.13379079  1
  Mo  Mo188  1  0.69934451  0.68833669  0.86962052  1
  Mo  Mo189  1  0.60433336  -0.01215555  0.25794714  1
  Mo  Mo190  1  0.90121041  0.09869145  0.11936109  1
  Mo  Mo191  1  0.12264505  0.11846430  0.62174605  1
  Mo  Mo192  1  0.79207537  0.59300281  0.01088416  1
  Mo  Mo193  1  0.21716140  0.01303194  0.74940236  1
  Mo  Mo194  1  0.70888485  0.29833644  0.88212286  1
  Mo  Mo195  1  0.60842995  0.39180447  0.23475013  1
  Mo  Mo196  1  0.58949281  0.40510016  0.50953179  1
  Mo  Mo197  1  0.90147091  0.29645672  0.62846666  1
  Mo  Mo198  1  0.89939733  0.30794477  0.12130415  1
  Mo  Mo199  1  0.00793508  0.01272597  0.49517026  1
