# generated using pymatgen
data_HfZrTaTiMo
_symmetry_space_group_name_H-M   'P 1'
_cell_length_a   15.20203156
_cell_length_b   15.21781200
_cell_length_c   16.86238885
_cell_angle_alpha   90.01133715
_cell_angle_beta   89.94642700
_cell_angle_gamma   90.05078280
_symmetry_Int_Tables_number   1
_chemical_formula_structural   HfZrTaTiMo
_chemical_formula_sum   'Hf40 Zr40 Ta40 Ti40 Mo40'
_cell_volume   3900.96968753
_cell_formula_units_Z   40
loop_
 _symmetry_equiv_pos_site_id
 _symmetry_equiv_pos_as_xyz
  1  'x, y, z'
loop_
 _atom_site_type_symbol
 _atom_site_label
 _atom_site_symmetry_multiplicity
 _atom_site_fract_x
 _atom_site_fract_y
 _atom_site_fract_z
 _atom_site_occupancy
  Hf  Hf0  1  0.79333983  0.18185485  0.75056656  1
  Hf  Hf1  1  0.81414228  0.21450226  0.00215993  1
  Hf  Hf2  1  0.31462704  0.70333162  0.11663295  1
  Hf  Hf3  1  0.21219552  -0.00207531  0.49694697  1
  Hf  Hf4  1  0.89062316  0.50197758  0.37083961  1
  Hf  Hf5  1  0.79934089  0.61422797  0.00296417  1
  Hf  Hf6  1  0.88808791  0.71024414  0.62583236  1
  Hf  Hf7  1  0.48846829  0.49968788  0.61337665  1
  Hf  Hf8  1  0.80655204  0.80299934  0.49082317  1
  Hf  Hf9  1  0.69945738  0.68884380  0.37833774  1
  Hf  Hf10  1  0.09862422  0.89953435  0.13898235  1
  Hf  Hf11  1  0.91016319  0.10039600  0.88262328  1
  Hf  Hf12  1  0.60989173  -0.00909464  0.24846001  1
  Hf  Hf13  1  0.30899307  0.90819481  0.12188182  1
  Hf  Hf14  1  0.68772743  0.30058160  0.64346753  1
  Hf  Hf15  1  0.20674084  0.81472973  0.75013641  1
  Hf  Hf16  1  0.00185105  -0.00170095  0.50856980  1
  Hf  Hf17  1  0.71527841  0.10907696  0.37890733  1
  Hf  Hf18  1  0.12067488  0.28297076  0.87397001  1
  Hf  Hf19  1  0.10611117  0.10438166  0.14912545  1
  Hf  Hf20  1  0.19952234  0.59694446  0.75207418  1
  Hf  Hf21  1  0.72141907  0.90261358  0.61609976  1
  Hf  Hf22  1  -0.00498464  0.60421947  0.74482661  1
  Hf  Hf23  1  -0.01032947  0.39626246  0.50721391  1
  Hf  Hf24  1  0.57676890  0.79970343  0.27304879  1
  Hf  Hf25  1  0.39083364  0.19634940  0.00327917  1
  Hf  Hf26  1  0.48777199  0.50228723  0.38246851  1
  Hf  Hf27  1  0.39867468  0.40016822  0.75752865  1
  Hf  Hf28  1  0.29882259  0.28983107  0.61269720  1
  Hf  Hf29  1  0.00897955  0.00749087  0.73523517  1
  Hf  Hf30  1  0.60138353  0.40812350  0.00683740  1
  Hf  Hf31  1  0.30230847  0.70981855  0.87984681  1
  Hf  Hf32  1  0.40636808  0.59528169  0.76210863  1
  Hf  Hf33  1  0.87623315  0.50062162  0.85709186  1
  Hf  Hf34  1  0.20076147  0.01759097  0.00325589  1
  Hf  Hf35  1  0.08426484  0.48027890  0.87343370  1
  Hf  Hf36  1  0.69688571  0.72778856  0.13501773  1
  Hf  Hf37  1  0.40747662  0.59929565  -0.01023631  1
  Hf  Hf38  1  0.89409501  0.29389028  0.37333086  1
  Hf  Hf39  1  0.59613117  0.60940305  0.00563621  1
  Zr  Zr40  1  0.80806029  0.00641274  0.25150507  1
  Zr  Zr41  1  0.50503384  0.10101342  0.37038642  1
  Zr  Zr42  1  0.60456013  0.20515259  0.23889034  1
  Zr  Zr43  1  0.59155202  0.80322540  0.49951645  1
  Zr  Zr44  1  0.90590648  0.90854943  0.37368067  1
  Zr  Zr45  1  0.28357718  0.48852076  0.89525967  1
  Zr  Zr46  1  -0.01255635  0.78891125  0.00919799  1
  Zr  Zr47  1  0.51024837  0.29736746  0.86606962  1
  Zr  Zr48  1  0.87792276  0.89382980  0.12295117  1
  Zr  Zr49  1  0.29993263  0.69603355  0.62646528  1
  Zr  Zr50  1  0.89899707  0.29556507  0.64314386  1
  Zr  Zr51  1  0.50047615  0.87383281  0.12560486  1
  Zr  Zr52  1  0.49240115  0.09085178  0.13329253  1
  Zr  Zr53  1  0.71236527  0.31264441  0.86359321  1
  Zr  Zr54  1  0.29086921  0.11022042  0.87342837  1
  Zr  Zr55  1  0.59601669  0.20802793  0.01301659  1
  Zr  Zr56  1  -0.00249172  0.58289359  -0.00644905  1
  Zr  Zr57  1  0.09408308  0.49651956  0.37609170  1
  Zr  Zr58  1  -0.00103583  0.19222857  0.49998096  1
  Zr  Zr59  1  0.70218340  0.89491662  0.87101611  1
  Zr  Zr60  1  -0.00352495  0.59994112  0.51210935  1
  Zr  Zr61  1  0.19494131  0.80479521  0.00033582  1
  Zr  Zr62  1  0.20500617  0.39108064  0.74572546  1
  Zr  Zr63  1  0.10411990  0.70019308  0.37714647  1
  Zr  Zr64  1  0.09592969  0.70253985  0.87457266  1
  Zr  Zr65  1  0.91532498  0.10337063  0.11540535  1
  Zr  Zr66  1  0.30149940  0.10797109  0.14712706  1
  Zr  Zr67  1  0.81210594  -0.01592580  0.75416495  1
  Zr  Zr68  1  0.20839606  0.59146504  0.25683607  1
  Zr  Zr69  1  0.60605940  0.01033848  0.73712252  1
  Zr  Zr70  1  0.10516721  0.89331341  0.36914897  1
  Zr  Zr71  1  0.69931047  0.51230697  0.13331503  1
  Zr  Zr72  1  0.60488078  0.40072862  0.49679989  1
  Zr  Zr73  1  0.92264124  0.30364691  0.85905767  1
  Zr  Zr74  1  0.28272996  0.49906754  0.11048203  1
  Zr  Zr75  1  0.20185867  0.40228783  0.49375060  1
  Zr  Zr76  1  0.58894120  -0.00599308  -0.00038422  1
  Zr  Zr77  1  0.39691930  -0.00287746  0.73394053  1
  Zr  Zr78  1  -0.01259594  0.77944694  0.24049224  1
  Zr  Zr79  1  0.79674097  0.40229086  0.23948626  1
  Ta  Ta80  1  0.09835286  0.29160223  0.36472701  1
  Ta  Ta81  1  0.81141433  0.41102486  0.00836255  1
  Ta  Ta82  1  0.10039574  0.66878365  0.12536051  1
  Ta  Ta83  1  0.09969070  0.29612238  0.63006979  1
  Ta  Ta84  1  0.81101678  0.61697100  0.24585858  1
  Ta  Ta85  1  0.48749482  0.50495441  0.13314926  1
  Ta  Ta86  1  0.00217886  0.39311251  0.24053741  1
  Ta  Ta87  1  0.20975291  -0.00695557  0.26380941  1
  Ta  Ta88  1  0.91594357  0.50882275  0.13071913  1
  Ta  Ta89  1  0.69694652  0.30438505  0.37014069  1
  Ta  Ta90  1  0.69296353  0.10760338  0.88359778  1
  Ta  Ta91  1  0.09940115  0.49828229  0.62577222  1
  Ta  Ta92  1  0.00877715  -0.00401850  -0.00138474  1
  Ta  Ta93  1  0.41311531  0.79874033  0.74582170  1
  Ta  Ta94  1  0.61483483  0.78795792  0.73272501  1
  Ta  Ta95  1  0.49628880  0.09529380  0.87061102  1
  Ta  Ta96  1  0.40469520  0.38979930  0.00216452  1
  Ta  Ta97  1  0.70987421  0.09403294  0.11483572  1
  Ta  Ta98  1  0.40592037  -0.02468076  0.26683579  1
  Ta  Ta99  1  0.38457902  0.80257157  0.50754740  1
  Ta  Ta100  1  0.59214452  0.60130307  0.25335864  1
  Ta  Ta101  1  0.49447390  0.29951844  0.62674095  1
  Ta  Ta102  1  0.70000780  0.70091458  0.87181973  1
  Ta  Ta103  1  0.81064756  0.20519090  0.23673486  1
  Ta  Ta104  1  0.40701628  -0.00088383  0.50389920  1
  Ta  Ta105  1  0.39065234  0.19850300  0.74636450  1
  Ta  Ta106  1  0.59964911  0.20585281  0.50051037  1
  Ta  Ta107  1  0.79262632  0.20370249  0.50848977  1
  Ta  Ta108  1  0.68825973  0.50473804  0.63853599  1
  Ta  Ta109  1  0.67547186  0.50838216  0.85821806  1
  Ta  Ta110  1  0.90215674  0.69371962  0.37987218  1
  Ta  Ta111  1  0.20606696  0.01028117  0.73485019  1
  Ta  Ta112  1  0.60484197  0.01207664  0.51040542  1
  Ta  Ta113  1  0.20128348  0.19481343  0.47999182  1
  Ta  Ta114  1  0.58474597  0.39992614  0.24680920  1
  Ta  Ta115  1  0.40028793  0.19792627  0.49358593  1
  Ta  Ta116  1  0.88659638  0.49571767  0.63921137  1
  Ta  Ta117  1  -0.00475441  0.81319412  0.74284919  1
  Ta  Ta118  1  0.77716075  0.61772425  0.74045724  1
  Ta  Ta119  1  0.88747589  0.71168914  0.86255271  1
  Ti  Ti120  1  0.69328058  0.91117665  0.38986755  1
  Ti  Ti121  1  0.51577928  0.70217565  0.86514219  1
  Ti  Ti122  1  0.88613958  0.08918935  0.62087482  1
  Ti  Ti123  1  0.20371617  0.39236557  0.25652175  1
  Ti  Ti124  1  0.09892540  0.09863370  0.86656757  1
  Ti  Ti125  1  0.50111737  0.89767714  0.86400213  1
  Ti  Ti126  1  0.00837992  0.79896360  0.50598296  1
  Ti  Ti127  1  0.41635003  0.80616606  -0.01190779  1
  Ti  Ti128  1  0.50101710  0.69466852  0.61992707  1
  Ti  Ti129  1  0.29653722  0.30212629  0.13194542  1
  Ti  Ti130  1  0.11157880  0.89519565  0.61986285  1
  Ti  Ti131  1  0.11715076  0.11249496  0.62196646  1
  Ti  Ti132  1  0.21106616  0.60698678  0.49513201  1
  Ti  Ti133  1  0.10307391  0.91004286  0.86980409  1
  Ti  Ti134  1  0.60850814  0.79930046  -0.00307742  1
  Ti  Ti135  1  0.08985958  0.09555875  0.35804730  1
  Ti  Ti136  1  0.21644486  0.79209968  0.24632825  1
  Ti  Ti137  1  0.90991263  0.89532060  0.88214612  1
  Ti  Ti138  1  0.79779039  -0.00642302  -0.00494388  1
  Ti  Ti139  1  0.40053711  0.61445469  0.25641232  1
  Ti  Ti140  1  0.70477693  0.30393354  0.12353668  1
  Ti  Ti141  1  0.59975757  0.60077133  0.50020296  1
  Ti  Ti142  1  0.29913184  0.49774234  0.61633072  1
  Ti  Ti143  1  0.50009616  0.89601551  0.62278292  1
  Ti  Ti144  1  0.30485076  0.10223029  0.36497294  1
  Ti  Ti145  1  0.50123522  0.11441364  0.62311432  1
  Ti  Ti146  1  0.30609349  0.88288259  0.37926280  1
  Ti  Ti147  1  0.49937140  0.30395482  0.37715211  1
  Ti  Ti148  1  0.47699555  0.70135858  0.39030266  1
  Ti  Ti149  1  0.30774322  0.91135097  0.87833320  1
  Ti  Ti150  1  0.79180140  0.59069294  0.50871386  1
  Ti  Ti151  1  0.79202750  0.40067847  0.50512122  1
  Ti  Ti152  1  0.00563823  0.37556163  0.01568437  1
  Ti  Ti153  1  0.39196174  0.41321010  0.25038406  1
  Ti  Ti154  1  0.30749175  0.31068166  0.37793101  1
  Ti  Ti155  1  0.40119087  0.22057167  0.25441347  1
  Ti  Ti156  1  0.10436579  0.29208267  0.13712203  1
  Ti  Ti157  1  0.69662235  0.49775785  0.36561958  1
  Ti  Ti158  1  0.10246864  0.70251226  0.62490923  1
  Ti  Ti159  1  0.78608627  0.80819855  0.26696097  1
  Mo  Mo160  1  0.38870218  0.79232063  0.26009787  1
  Mo  Mo161  1  0.20815398  0.20476760  0.27388390  1
  Mo  Mo162  1  0.20150143  0.19035214  0.74118782  1
  Mo  Mo163  1  0.19098547  0.59779008  0.00085135  1
  Mo  Mo164  1  0.19622804  0.38071533  0.00859695  1
  Mo  Mo165  1  0.50110332  0.69059852  0.13086574  1
  Mo  Mo166  1  0.91489174  0.90007958  0.61560940  1
  Mo  Mo167  1  0.58688349  0.19424688  0.75025639  1
  Mo  Mo168  1  0.30956120  0.29383847  0.87902341  1
  Mo  Mo169  1  0.48626132  0.31414826  0.13247108  1
  Mo  Mo170  1  0.49443632  0.90324940  0.39226007  1
  Mo  Mo171  1  0.69296798  0.69569224  0.60992676  1
  Mo  Mo172  1  0.79196026  0.40802977  0.74839349  1
  Mo  Mo173  1  0.30421905  0.50391067  0.37557570  1
  Mo  Mo174  1  0.00799255  0.19021870  0.73865921  1
  Mo  Mo175  1  0.39875053  0.39120635  0.49675100  1
  Mo  Mo176  1  0.30402016  0.90060154  0.62216853  1
  Mo  Mo177  1  0.89513739  0.69439806  0.12727837  1
  Mo  Mo178  1  0.10056026  0.48048795  0.12716617  1
  Mo  Mo179  1  0.50052947  0.50015985  0.88173802  1
  Mo  Mo180  1  0.39635913  0.60045313  0.50125747  1
  Mo  Mo181  1  0.80493195  0.79843245  0.74489183  1
  Mo  Mo182  1  0.91003786  0.30454508  0.12280098  1
  Mo  Mo183  1  0.00386413  0.40260105  0.73841928  1
  Mo  Mo184  1  0.69843112  0.10527732  0.61542473  1
  Mo  Mo185  1  0.19622366  0.79956422  0.50812727  1
  Mo  Mo186  1  0.02447353  0.18889566  0.00213866  1
  Mo  Mo187  1  -0.00293522  0.20063384  0.25618366  1
  Mo  Mo188  1  0.69548123  0.90705965  0.12227927  1
  Mo  Mo189  1  0.79267386  0.80251467  -0.00662000  1
  Mo  Mo190  1  0.90673766  0.10839403  0.37317313  1
  Mo  Mo191  1  0.80448294  0.01288206  0.49555513  1
  Mo  Mo192  1  0.29943861  0.69822137  0.38424950  1
  Mo  Mo193  1  0.00524220  -0.00231354  0.25215194  1
  Mo  Mo194  1  0.58529094  0.60938583  0.74433922  1
  Mo  Mo195  1  0.19381612  0.20855583  0.01208826  1
  Mo  Mo196  1  0.58631669  0.40961616  0.74494760  1
  Mo  Mo197  1  0.30598467  0.10404220  0.61137622  1
  Mo  Mo198  1  0.40053824  -0.00803844  -0.01343329  1
  Mo  Mo199  1  -0.00038556  0.58966198  0.24924160  1
