# generated using pymatgen
data_HfZrTaTiMo
_symmetry_space_group_name_H-M   'P 1'
_cell_length_a   15.20831084
_cell_length_b   15.21833060
_cell_length_c   16.84495771
_cell_angle_alpha   90.01767144
_cell_angle_beta   90.03437834
_cell_angle_gamma   90.07569746
_symmetry_Int_Tables_number   1
_chemical_formula_structural   HfZrTaTiMo
_chemical_formula_sum   'Hf40 Zr40 Ta40 Ti40 Mo40'
_cell_volume   3898.67866752
_cell_formula_units_Z   40
loop_
 _symmetry_equiv_pos_site_id
 _symmetry_equiv_pos_as_xyz
  1  'x, y, z'
loop_
 _atom_site_type_symbol
 _atom_site_label
 _atom_site_symmetry_multiplicity
 _atom_site_fract_x
 _atom_site_fract_y
 _atom_site_fract_z
 _atom_site_occupancy
  Hf  Hf0  1  0.60479365  0.79941881  0.76527632  1
  Hf  Hf1  1  0.49687794  0.69360005  0.11581949  1
  Hf  Hf2  1  0.49926820  0.51147469  0.62900498  1
  Hf  Hf3  1  0.90883582  0.70458805  0.62437451  1
  Hf  Hf4  1  0.90601648  0.49870840  0.14323486  1
  Hf  Hf5  1  0.20579773  0.78427279  0.76590825  1
  Hf  Hf6  1  0.59680085  0.19911091  0.25093252  1
  Hf  Hf7  1  0.81108604  0.60982731  0.76212643  1
  Hf  Hf8  1  0.09382650  0.89268439  0.88499623  1
  Hf  Hf9  1  0.50434177  0.51053531  0.38134239  1
  Hf  Hf10  1  0.48386621  0.09729042  0.88081143  1
  Hf  Hf11  1  0.80665811  0.81152723  0.25270609  1
  Hf  Hf12  1  0.30101703  0.50462687  0.36793181  1
  Hf  Hf13  1  0.41041276  0.79322190  -0.01762302  1
  Hf  Hf14  1  0.81263781  0.79876797  0.48655664  1
  Hf  Hf15  1  0.38158421  0.00038190  0.24022789  1
  Hf  Hf16  1  0.58660563  0.00051244  0.75348532  1
  Hf  Hf17  1  0.41633237  0.39707870  0.24484246  1
  Hf  Hf18  1  0.69137617  0.89174414  0.62146543  1
  Hf  Hf19  1  0.50721345  0.29646989  0.39631589  1
  Hf  Hf20  1  0.81425376  0.39816706  -0.00875584  1
  Hf  Hf21  1  0.59986163  0.60017285  0.25013925  1
  Hf  Hf22  1  0.10040221  0.89873457  0.36516672  1
  Hf  Hf23  1  0.48494379  0.29729436  0.87538749  1
  Hf  Hf24  1  0.89587364  0.89877779  0.63441192  1
  Hf  Hf25  1  0.11387035  0.67929102  0.62866017  1
  Hf  Hf26  1  0.29922877  0.89054868  0.10135386  1
  Hf  Hf27  1  0.27733104  0.51152531  0.61780438  1
  Hf  Hf28  1  0.49854168  0.71561158  0.62746907  1
  Hf  Hf29  1  0.19736516  0.17951773  0.23680476  1
  Hf  Hf30  1  0.30157490  0.29359799  0.61172458  1
  Hf  Hf31  1  0.90523510  0.49887027  0.35409121  1
  Hf  Hf32  1  0.82016075  0.60901173  -0.00151538  1
  Hf  Hf33  1  0.01981705  0.39733652  0.75100908  1
  Hf  Hf34  1  0.11951762  0.49101762  0.88993092  1
  Hf  Hf35  1  -0.00373846  0.78125275  0.01579223  1
  Hf  Hf36  1  0.60019399  0.61384202  0.50028522  1
  Hf  Hf37  1  0.40244690  0.80740929  0.77089706  1
  Hf  Hf38  1  0.29976798  0.09555046  0.63303929  1
  Hf  Hf39  1  0.69739215  0.10437167  0.61838478  1
  Zr  Zr40  1  0.00120815  0.00067187  0.23286660  1
  Zr  Zr41  1  0.19467283  0.61059023  0.02357111  1
  Zr  Zr42  1  0.80885923  0.40285689  0.76101361  1
  Zr  Zr43  1  -0.00683253  0.21437087  0.23586584  1
  Zr  Zr44  1  0.19276070  0.78814042  0.50018216  1
  Zr  Zr45  1  0.80314866  0.20148252  0.75652631  1
  Zr  Zr46  1  0.70654529  0.30721520  0.61035416  1
  Zr  Zr47  1  0.48429517  0.10068270  0.38302746  1
  Zr  Zr48  1  0.90512877  0.29248486  0.61322688  1
  Zr  Zr49  1  0.90113062  0.29775561  0.38414021  1
  Zr  Zr50  1  0.90972731  0.50365752  0.62523991  1
  Zr  Zr51  1  0.80418618  0.59174784  0.48998201  1
  Zr  Zr52  1  0.61138251  0.39565397  0.25084717  1
  Zr  Zr53  1  0.60423363  0.60291402  -0.01099874  1
  Zr  Zr54  1  0.70365451  0.49925722  0.12647005  1
  Zr  Zr55  1  0.47879173  0.50284061  0.88026490  1
  Zr  Zr56  1  0.20453590  0.38914799  0.23458240  1
  Zr  Zr57  1  0.79817917  0.00701610  -0.00809513  1
  Zr  Zr58  1  0.70184218  0.90964681  0.37990859  1
  Zr  Zr59  1  0.89435610  0.09106762  0.36848121  1
  Zr  Zr60  1  0.71093687  0.30036424  0.39652493  1
  Zr  Zr61  1  0.59611745  0.79566282  0.25507182  1
  Zr  Zr62  1  0.50531175  0.29111101  0.61378643  1
  Zr  Zr63  1  0.28928534  0.12026986  0.88031572  1
  Zr  Zr64  1  0.10387318  0.50860903  0.34869202  1
  Zr  Zr65  1  0.09814641  0.88735076  0.63827039  1
  Zr  Zr66  1  0.40030207  0.41205331  0.50147825  1
  Zr  Zr67  1  0.09273788  0.10125510  0.87320015  1
  Zr  Zr68  1  0.09516779  0.10007067  0.63496036  1
  Zr  Zr69  1  0.58901733  -0.01443795  -0.01185090  1
  Zr  Zr70  1  0.30359085  0.28372516  0.37894248  1
  Zr  Zr71  1  0.58904056  -0.00310845  0.25045539  1
  Zr  Zr72  1  0.37693594  0.40028389  0.74648019  1
  Zr  Zr73  1  0.68514789  0.09595131  0.11777340  1
  Zr  Zr74  1  -0.00334276  -0.01248399  0.49993130  1
  Zr  Zr75  1  0.28822135  0.70063133  0.36566212  1
  Zr  Zr76  1  0.71857873  0.28988092  0.11711891  1
  Zr  Zr77  1  -0.01399240  0.20340689  0.01051080  1
  Zr  Zr78  1  0.79670453  -0.00015990  0.75525943  1
  Zr  Zr79  1  0.60248091  0.40127592  0.75508588  1
  Ta  Ta80  1  0.80370161  0.80649507  0.00537486  1
  Ta  Ta81  1  0.60095688  0.60542745  0.76058340  1
  Ta  Ta82  1  0.10102600  0.10206540  0.37436075  1
  Ta  Ta83  1  0.50663432  0.29933974  0.11404531  1
  Ta  Ta84  1  0.59143233  0.19826131  0.75341824  1
  Ta  Ta85  1  0.10748658  0.30893421  0.61493117  1
  Ta  Ta86  1  -0.00393349  0.79963434  0.22885360  1
  Ta  Ta87  1  0.10970529  0.90275621  0.11165334  1
  Ta  Ta88  1  0.20079858  -0.00510789  0.50396762  1
  Ta  Ta89  1  0.70526813  0.70580389  0.12122762  1
  Ta  Ta90  1  0.10755870  0.29898385  0.88571251  1
  Ta  Ta91  1  0.01612744  0.40418035  0.02130720  1
  Ta  Ta92  1  0.00488029  0.41234878  0.49499644  1
  Ta  Ta93  1  0.59790431  0.39818151  -0.00328584  1
  Ta  Ta94  1  0.29597117  0.91427629  0.89264669  1
  Ta  Ta95  1  0.69638552  0.10797565  0.38908801  1
  Ta  Ta96  1  0.39139345  0.61266606  0.75163481  1
  Ta  Ta97  1  0.20585395  0.58278978  0.76243041  1
  Ta  Ta98  1  0.19139863  0.40558614  0.49005827  1
  Ta  Ta99  1  0.70320930  0.51171237  0.63208915  1
  Ta  Ta100  1  0.30012349  0.88905350  0.63168697  1
  Ta  Ta101  1  0.70643199  0.70130729  0.63168840  1
  Ta  Ta102  1  0.69912920  0.89441609  0.12142295  1
  Ta  Ta103  1  0.00659493  0.19370759  0.49998249  1
  Ta  Ta104  1  0.92559583  0.50928703  0.88302418  1
  Ta  Ta105  1  0.28657027  0.08523544  0.37654407  1
  Ta  Ta106  1  0.87896100  0.11190729  0.12648970  1
  Ta  Ta107  1  -0.00935603  -0.00429515  0.01353639  1
  Ta  Ta108  1  0.59820545  0.20066035  -0.00785022  1
  Ta  Ta109  1  0.48546631  0.89779955  0.38079551  1
  Ta  Ta110  1  0.28432001  0.08959237  0.10573243  1
  Ta  Ta111  1  0.31939270  0.50793442  0.12409438  1
  Ta  Ta112  1  0.10047641  0.29842626  0.37620205  1
  Ta  Ta113  1  0.29776782  0.89916148  0.37281180  1
  Ta  Ta114  1  0.40230224  0.60675790  0.24378786  1
  Ta  Ta115  1  0.58829111  -0.00065027  0.50203572  1
  Ta  Ta116  1  0.01388824  0.61163649  0.48719381  1
  Ta  Ta117  1  0.39858778  0.80312791  0.24374513  1
  Ta  Ta118  1  0.20344355  0.22308937  0.75129880  1
  Ta  Ta119  1  0.48322509  0.10213181  0.11170722  1
  Ti  Ti120  1  0.49063318  0.90939830  0.62466295  1
  Ti  Ti121  1  0.49181306  0.10437052  0.62149599  1
  Ti  Ti122  1  0.71165420  0.49413333  0.36584758  1
  Ti  Ti123  1  0.91463506  0.30100914  0.87655460  1
  Ti  Ti124  1  0.00095159  0.19985405  0.74808030  1
  Ti  Ti125  1  0.80102758  0.00232577  0.50499473  1
  Ti  Ti126  1  0.89836088  0.89036490  0.87378836  1
  Ti  Ti127  1  0.20157292  0.80447034  0.23733480  1
  Ti  Ti128  1  0.39803483  0.19684968  0.24080473  1
  Ti  Ti129  1  0.50129435  0.89977310  0.11788534  1
  Ti  Ti130  1  0.38280849  0.61917141  0.50689119  1
  Ti  Ti131  1  0.39468324  0.80673431  0.50379007  1
  Ti  Ti132  1  0.18652821  0.20828140  0.01398529  1
  Ti  Ti133  1  0.80581687  0.61804623  0.25171802  1
  Ti  Ti134  1  0.09055931  0.68597765  0.88523267  1
  Ti  Ti135  1  0.59576073  0.80483277  0.49332614  1
  Ti  Ti136  1  -0.00508572  -0.00168997  0.75396269  1
  Ti  Ti137  1  0.69458174  0.10682986  0.87515961  1
  Ti  Ti138  1  0.60735952  0.79676398  -0.01359937  1
  Ti  Ti139  1  0.69779184  0.29732348  0.87975163  1
  Ti  Ti140  1  0.09038516  0.70314485  0.35405984  1
  Ti  Ti141  1  0.71776876  0.70677103  0.87605072  1
  Ti  Ti142  1  0.39157506  0.00231225  0.75460269  1
  Ti  Ti143  1  0.61562302  0.41998701  0.50323828  1
  Ti  Ti144  1  0.70632492  0.49983581  0.87622412  1
  Ti  Ti145  1  0.19833441  0.19114469  0.49837862  1
  Ti  Ti146  1  0.48611236  0.70680467  0.37822573  1
  Ti  Ti147  1  0.30930573  0.29323521  0.12200198  1
  Ti  Ti148  1  0.29092732  0.32354966  0.88774072  1
  Ti  Ti149  1  0.01295941  0.59650847  0.75597587  1
  Ti  Ti150  1  0.70004995  0.69772947  0.37393063  1
  Ti  Ti151  1  0.20994427  0.40233557  0.02395571  1
  Ti  Ti152  1  0.38893408  -0.00447443  0.50505064  1
  Ti  Ti153  1  0.79420852  0.00701573  0.24446219  1
  Ti  Ti154  1  0.70604273  0.89957522  0.87424538  1
  Ti  Ti155  1  0.90047448  0.09939143  0.87729641  1
  Ti  Ti156  1  0.19933555  -0.00446741  0.75654501  1
  Ti  Ti157  1  0.29906244  0.68114493  0.88821447  1
  Ti  Ti158  1  -0.00821430  0.78679788  0.76295066  1
  Ti  Ti159  1  0.39246498  0.20834514  0.00468141  1
  Mo  Mo160  1  0.50409272  0.69492104  0.87363047  1
  Mo  Mo161  1  0.20660194  0.61081875  0.22703661  1
  Mo  Mo162  1  0.18641892  0.00552699  -0.00581981  1
  Mo  Mo163  1  0.00260860  0.58989640  0.01142593  1
  Mo  Mo164  1  0.80696652  0.41242860  0.50097479  1
  Mo  Mo165  1  0.09486322  0.09364850  0.11482095  1
  Mo  Mo166  1  0.88943607  0.90613639  0.12006359  1
  Mo  Mo167  1  0.19999821  -0.00805675  0.24492927  1
  Mo  Mo168  1  0.00736788  0.39640395  0.23845478  1
  Mo  Mo169  1  0.81386107  0.37283290  0.24874848  1
  Mo  Mo170  1  0.80132153  0.79892615  0.75633044  1
  Mo  Mo171  1  0.39070769  0.18139151  0.49893297  1
  Mo  Mo172  1  0.79150205  0.19444269  0.25285362  1
  Mo  Mo173  1  0.10231907  0.70625424  0.13572342  1
  Mo  Mo174  1  0.40050269  0.39631056  0.01329361  1
  Mo  Mo175  1  0.81390752  0.18196602  0.50759884  1
  Mo  Mo176  1  0.50412497  0.49423932  0.11595041  1
  Mo  Mo177  1  0.00091575  0.79180040  0.49234676  1
  Mo  Mo178  1  0.89130831  0.70077541  0.13075257  1
  Mo  Mo179  1  0.60087803  0.18939157  0.50343633  1
  Mo  Mo180  1  0.89534695  0.30416274  0.12200584  1
  Mo  Mo181  1  0.29808367  0.49881346  0.89095460  1
  Mo  Mo182  1  0.40311310  0.19365114  0.74777078  1
  Mo  Mo183  1  0.90459080  0.09612369  0.62555190  1
  Mo  Mo184  1  0.30456512  0.70709296  0.12830650  1
  Mo  Mo185  1  0.39448481  0.00313447  0.00430766  1
  Mo  Mo186  1  0.09568356  0.49584930  0.62046083  1
  Mo  Mo187  1  0.79514950  0.20248485  -0.02169083  1
  Mo  Mo188  1  0.10549002  0.29910714  0.12034526  1
  Mo  Mo189  1  0.00050494  0.61416685  0.24236421  1
  Mo  Mo190  1  0.30578253  0.70367319  0.63044868  1
  Mo  Mo191  1  0.19377801  0.59371115  0.49073727  1
  Mo  Mo192  1  0.91262333  0.70377479  0.87541686  1
  Mo  Mo193  1  0.19846114  0.39726454  0.75149650  1
  Mo  Mo194  1  0.19707976  0.79825347  -0.01622494  1
  Mo  Mo195  1  0.49630898  0.90255662  0.87406937  1
  Mo  Mo196  1  0.91090357  0.89063495  0.37191150  1
  Mo  Mo197  1  0.39825466  0.59584361  0.00442179  1
  Mo  Mo198  1  0.91209320  0.70537592  0.36682212  1
  Mo  Mo199  1  0.10696600  0.50150958  0.14157600  1
