# generated using pymatgen
data_HfZrTaTiMo
_symmetry_space_group_name_H-M   'P 1'
_cell_length_a   15.20774153
_cell_length_b   15.22365293
_cell_length_c   16.80724051
_cell_angle_alpha   89.96757744
_cell_angle_beta   89.97589131
_cell_angle_gamma   89.88846011
_symmetry_Int_Tables_number   1
_chemical_formula_structural   HfZrTaTiMo
_chemical_formula_sum   'Hf40 Zr40 Ta40 Ti40 Mo40'
_cell_volume   3891.15993092
_cell_formula_units_Z   40
loop_
 _symmetry_equiv_pos_site_id
 _symmetry_equiv_pos_as_xyz
  1  'x, y, z'
loop_
 _atom_site_type_symbol
 _atom_site_label
 _atom_site_symmetry_multiplicity
 _atom_site_fract_x
 _atom_site_fract_y
 _atom_site_fract_z
 _atom_site_occupancy
  Hf  Hf0  1  -0.00456599  0.40000732  0.74015280  1
  Hf  Hf1  1  0.89938350  0.70698372  0.87268508  1
  Hf  Hf2  1  0.39696647  0.59728422  0.23650995  1
  Hf  Hf3  1  0.38748064  -0.00857161  0.23958569  1
  Hf  Hf4  1  0.39413372  0.19482175  0.24549186  1
  Hf  Hf5  1  0.10137661  0.71809795  0.87491642  1
  Hf  Hf6  1  0.63124739  0.17382666  -0.00009304  1
  Hf  Hf7  1  0.61182758  0.39686633  0.75788326  1
  Hf  Hf8  1  0.40139559  0.60017905  0.50807038  1
  Hf  Hf9  1  -0.00619038  0.40269674  0.50915381  1
  Hf  Hf10  1  0.69915954  0.90208849  0.36423066  1
  Hf  Hf11  1  0.51233243  0.29723070  0.10049665  1
  Hf  Hf12  1  0.89463511  0.69412161  0.36921224  1
  Hf  Hf13  1  0.29693865  0.09407759  0.87692187  1
  Hf  Hf14  1  0.79592321  0.41539053  0.49917249  1
  Hf  Hf15  1  0.29671758  0.91429117  0.64075021  1
  Hf  Hf16  1  0.49838625  0.49215447  0.09879707  1
  Hf  Hf17  1  0.30282745  0.31279253  0.11363260  1
  Hf  Hf18  1  -0.01100392  0.80517581  0.72894793  1
  Hf  Hf19  1  0.30387805  0.89030799  0.85845598  1
  Hf  Hf20  1  0.19673735  0.40852931  0.24825500  1
  Hf  Hf21  1  0.60586334  -0.00876818  0.50943545  1
  Hf  Hf22  1  0.20059504  0.40163873  0.76611418  1
  Hf  Hf23  1  0.00770450  0.19813164  0.24905104  1
  Hf  Hf24  1  -0.00992056  0.18335807  0.00775032  1
  Hf  Hf25  1  -0.00537700  0.60900297  0.73001670  1
  Hf  Hf26  1  0.89669686  0.91600041  0.86384905  1
  Hf  Hf27  1  0.40921412  0.38377728  0.76877232  1
  Hf  Hf28  1  0.89515851  0.89675818  0.37709450  1
  Hf  Hf29  1  0.90538418  0.49256010  0.13689992  1
  Hf  Hf30  1  0.10431930  0.90028356  0.38820612  1
  Hf  Hf31  1  0.50846585  0.08271844  0.87992872  1
  Hf  Hf32  1  0.20964737  0.41562532  -0.01444408  1
  Hf  Hf33  1  0.50210910  0.69646437  0.37517730  1
  Hf  Hf34  1  0.38867134  -0.01048616  0.00575253  1
  Hf  Hf35  1  0.71020458  0.28995854  0.38117111  1
  Hf  Hf36  1  0.16908138  0.00304341  0.00168368  1
  Hf  Hf37  1  0.62034021  0.59556528  0.50295338  1
  Hf  Hf38  1  0.18583267  0.21399543  -0.01472209  1
  Hf  Hf39  1  0.09668008  0.30386423  0.37875342  1
  Zr  Zr40  1  0.40402359  0.18987583  0.49630139  1
  Zr  Zr41  1  0.51281769  0.49217732  0.63011166  1
  Zr  Zr42  1  0.31042443  0.49706365  0.63287825  1
  Zr  Zr43  1  0.50351607  0.49377632  0.38031031  1
  Zr  Zr44  1  0.20113888  0.61325203  0.24462656  1
  Zr  Zr45  1  0.79412964  0.82095017  -0.00335196  1
  Zr  Zr46  1  0.70597301  0.29668566  0.62148990  1
  Zr  Zr47  1  0.80425795  0.60670535  -0.00187661  1
  Zr  Zr48  1  0.19650711  0.00945336  0.24749342  1
  Zr  Zr49  1  0.70219916  0.49497026  0.11193184  1
  Zr  Zr50  1  0.70191975  0.90686596  0.14217802  1
  Zr  Zr51  1  0.09376871  0.50989924  0.38194850  1
  Zr  Zr52  1  0.89448391  0.71367022  0.13908163  1
  Zr  Zr53  1  0.40367705  0.39978541  0.24733656  1
  Zr  Zr54  1  0.39781562  0.80128254  0.51821719  1
  Zr  Zr55  1  0.87571152  0.11161329  0.85637751  1
  Zr  Zr56  1  0.60059499  0.18582362  0.75123163  1
  Zr  Zr57  1  0.50763237  0.08791890  0.12071762  1
  Zr  Zr58  1  0.38711317  0.60361682  0.00317603  1
  Zr  Zr59  1  0.00701535  0.38922245  -0.00157270  1
  Zr  Zr60  1  0.60764941  0.39449165  0.24978910  1
  Zr  Zr61  1  0.30082628  0.29651539  0.37508590  1
  Zr  Zr62  1  0.70202505  0.49558390  0.89122580  1
  Zr  Zr63  1  0.10561019  0.29944733  0.62200459  1
  Zr  Zr64  1  0.20509193  0.61358234  0.73817904  1
  Zr  Zr65  1  0.00129596  0.60590882  0.00839309  1
  Zr  Zr66  1  0.72339414  0.28217692  0.87632334  1
  Zr  Zr67  1  0.79288022  0.59658751  0.75168031  1
  Zr  Zr68  1  0.48939510  0.89276635  0.37299321  1
  Zr  Zr69  1  0.60459453  0.59585714  0.24642548  1
  Zr  Zr70  1  0.60659374  0.19828522  0.24559993  1
  Zr  Zr71  1  0.10947796  0.09660712  0.63357761  1
  Zr  Zr72  1  0.50644370  0.08913521  0.36822705  1
  Zr  Zr73  1  0.09086347  0.51551525  0.87088068  1
  Zr  Zr74  1  0.49172748  0.70729442  0.86787719  1
  Zr  Zr75  1  0.89185815  0.10276848  0.37423802  1
  Zr  Zr76  1  0.29430589  0.71527529  0.37897570  1
  Zr  Zr77  1  0.21267074  0.20371142  0.76161525  1
  Zr  Zr78  1  0.07492217  0.09645929  0.85439445  1
  Zr  Zr79  1  0.31310040  0.28873537  0.62652167  1
  Ta  Ta80  1  0.10208505  0.10133151  0.38590932  1
  Ta  Ta81  1  0.20427073  0.19137790  0.49789758  1
  Ta  Ta82  1  0.19840634  0.61305404  0.00538469  1
  Ta  Ta83  1  0.68882661  0.71115386  0.87577849  1
  Ta  Ta84  1  0.60028516  0.39174498  0.49901334  1
  Ta  Ta85  1  0.20653794  0.81024995  0.00250634  1
  Ta  Ta86  1  0.50790524  0.29248509  0.38151849  1
  Ta  Ta87  1  0.90222656  0.30602371  0.37038709  1
  Ta  Ta88  1  0.39763306  -0.00073203  0.50836141  1
  Ta  Ta89  1  0.50708337  0.49837255  0.89241676  1
  Ta  Ta90  1  0.79439421  0.02064117  0.00249981  1
  Ta  Ta91  1  -0.00361734  0.19941789  0.50361062  1
  Ta  Ta92  1  0.50919246  0.89318620  0.64494976  1
  Ta  Ta93  1  0.10102348  0.71473588  0.12284425  1
  Ta  Ta94  1  0.60697348  0.18988840  0.50399671  1
  Ta  Ta95  1  -0.01383986  0.60743497  0.51337204  1
  Ta  Ta96  1  0.59455872  0.79529627  0.24821266  1
  Ta  Ta97  1  0.69009171  0.69983410  0.63111883  1
  Ta  Ta98  1  0.19511585  0.80247673  0.51796798  1
  Ta  Ta99  1  0.00299656  -0.00205316  0.25465638  1
  Ta  Ta100  1  0.20846567  0.40547378  0.50036613  1
  Ta  Ta101  1  0.40644703  0.80631136  0.00136942  1
  Ta  Ta102  1  0.09191443  0.90978068  0.62189836  1
  Ta  Ta103  1  0.08976020  0.90603549  0.12784281  1
  Ta  Ta104  1  0.78536051  0.80793276  0.74235801  1
  Ta  Ta105  1  0.19832051  0.60910560  0.51150333  1
  Ta  Ta106  1  0.49992292  0.88641655  0.12887407  1
  Ta  Ta107  1  0.51028304  0.29296244  0.89497768  1
  Ta  Ta108  1  -0.01181600  0.80110948  0.51449007  1
  Ta  Ta109  1  0.40702446  0.00992458  0.74942917  1
  Ta  Ta110  1  0.69429297  0.70498696  0.12382811  1
  Ta  Ta111  1  0.28318368  0.10781056  0.11229950  1
  Ta  Ta112  1  0.20061756  0.81467675  0.24699983  1
  Ta  Ta113  1  0.09183667  0.70658671  0.38772606  1
  Ta  Ta114  1  0.60049125  -0.03126796  -0.00397852  1
  Ta  Ta115  1  0.00482844  0.82109369  -0.00012081  1
  Ta  Ta116  1  0.29939896  0.50603439  0.38363930  1
  Ta  Ta117  1  0.39191855  0.79586143  0.23996268  1
  Ta  Ta118  1  0.10187939  0.50393849  0.61867017  1
  Ta  Ta119  1  0.00587378  0.59892749  0.24629457  1
  Ti  Ti120  1  0.89840270  0.49306524  0.87324564  1
  Ti  Ti121  1  0.20146732  0.19738869  0.24885522  1
  Ti  Ti122  1  0.88288170  0.50628154  0.62272451  1
  Ti  Ti123  1  0.10666508  0.50213201  0.12399242  1
  Ti  Ti124  1  0.50380779  0.29137090  0.62353471  1
  Ti  Ti125  1  0.80542375  0.18830546  0.50899085  1
  Ti  Ti126  1  0.68577213  0.90917426  0.86046340  1
  Ti  Ti127  1  0.59541641  0.79352043  0.50611737  1
  Ti  Ti128  1  0.29873494  0.71284752  0.12091106  1
  Ti  Ti129  1  0.71503280  0.51054377  0.36905384  1
  Ti  Ti130  1  0.31208182  0.51199966  0.86839777  1
  Ti  Ti131  1  0.19143450  0.80063825  0.73217284  1
  Ti  Ti132  1  0.40438485  0.39489572  0.49841929  1
  Ti  Ti133  1  0.09807607  0.90707088  0.85798944  1
  Ti  Ti134  1  0.71593093  0.29424885  0.12048588  1
  Ti  Ti135  1  0.49694460  0.09694064  0.62989580  1
  Ti  Ti136  1  0.78819026  0.79850294  0.50821344  1
  Ti  Ti137  1  0.71599327  0.09873438  0.14541316  1
  Ti  Ti138  1  0.49014458  0.69410127  0.64701466  1
  Ti  Ti139  1  0.00828130  0.80146697  0.25393576  1
  Ti  Ti140  1  0.90208921  0.10685522  0.63890716  1
  Ti  Ti141  1  0.90004557  0.09399131  0.13745958  1
  Ti  Ti142  1  0.89892270  0.29461632  0.13913574  1
  Ti  Ti143  1  0.89790921  0.90776413  0.13646826  1
  Ti  Ti144  1  0.70734540  0.70348580  0.36810398  1
  Ti  Ti145  1  0.81336833  0.38355947  0.00080079  1
  Ti  Ti146  1  0.80497147  0.39803530  0.25418757  1
  Ti  Ti147  1  -0.00963056  0.00678170  0.50686040  1
  Ti  Ti148  1  0.59732302  0.59647522  0.75567423  1
  Ti  Ti149  1  0.39516479  0.19807135  -0.00372102  1
  Ti  Ti150  1  0.70463747  0.09293840  0.36775425  1
  Ti  Ti151  1  0.21222535  0.00300827  0.49964812  1
  Ti  Ti152  1  0.50766398  0.69958479  0.11401553  1
  Ti  Ti153  1  0.90227458  0.50096985  0.36533329  1
  Ti  Ti154  1  0.91718287  0.29552908  0.86717449  1
  Ti  Ti155  1  0.80659494  0.39255233  0.74275258  1
  Ti  Ti156  1  0.70997027  0.08248408  0.62952808  1
  Ti  Ti157  1  0.09915182  0.30047077  0.13035622  1
  Ti  Ti158  1  0.88088364  0.91540087  0.62023442  1
  Ti  Ti159  1  0.29587530  0.70247057  0.86977425  1
  Mo  Mo160  1  0.80830281  0.00336063  0.25180927  1
  Mo  Mo161  1  0.50023848  0.89452105  0.86154353  1
  Mo  Mo162  1  -0.00740771  -0.00244724  0.73391213  1
  Mo  Mo163  1  0.80114621  0.00134216  0.50499019  1
  Mo  Mo164  1  0.79858532  0.79487172  0.25074157  1
  Mo  Mo165  1  0.39987893  0.39539336  -0.01736247  1
  Mo  Mo166  1  0.87991377  0.70998835  0.61828149  1
  Mo  Mo167  1  0.09295130  0.10443116  0.12780730  1
  Mo  Mo168  1  0.30100735  0.70379996  0.62884825  1
  Mo  Mo169  1  0.70253124  0.08227370  0.86930419  1
  Mo  Mo170  1  0.00174511  0.40197783  0.24785802  1
  Mo  Mo171  1  0.09234882  0.30117222  0.86939117  1
  Mo  Mo172  1  0.69920353  0.50128417  0.63085754  1
  Mo  Mo173  1  0.81373348  0.19939939  0.01346718  1
  Mo  Mo174  1  0.90029184  0.29565871  0.62025348  1
  Mo  Mo175  1  0.59891782  0.79759711  0.00031877  1
  Mo  Mo176  1  0.29191012  0.50641415  0.11868112  1
  Mo  Mo177  1  0.60404640  -0.00991232  0.74130101  1
  Mo  Mo178  1  0.59750269  -0.00550394  0.24959851  1
  Mo  Mo179  1  -0.00720144  0.21081568  0.73839915  1
  Mo  Mo180  1  0.61335717  0.38810661  -0.00471105  1
  Mo  Mo181  1  0.80257670  0.60998169  0.50179912  1
  Mo  Mo182  1  0.30938731  0.09889015  0.63066123  1
  Mo  Mo183  1  0.31100987  0.29924992  0.88368283  1
  Mo  Mo184  1  0.41267989  0.19432768  0.75703207  1
  Mo  Mo185  1  0.29146581  0.89651097  0.11935082  1
  Mo  Mo186  1  0.40447464  0.59321466  0.75987625  1
  Mo  Mo187  1  0.60034601  0.79116910  0.74871860  1
  Mo  Mo188  1  0.80058616  0.20498452  0.73382078  1
  Mo  Mo189  1  0.69880032  0.89057213  0.62063819  1
  Mo  Mo190  1  0.79219106  -0.00182341  0.73875764  1
  Mo  Mo191  1  0.09359243  0.70542852  0.61260027  1
  Mo  Mo192  1  0.60097796  0.60969896  -0.00183006  1
  Mo  Mo193  1  0.29633097  0.90610890  0.38242503  1
  Mo  Mo194  1  0.39062612  0.79121722  0.74025105  1
  Mo  Mo195  1  0.29348228  0.08601866  0.37878616  1
  Mo  Mo196  1  0.19608567  -0.00641662  0.75397014  1
  Mo  Mo197  1  0.80465790  0.20729050  0.24874687  1
  Mo  Mo198  1  0.79951148  0.59518339  0.24966274  1
  Mo  Mo199  1  -0.02267963  -0.00720361  0.00536584  1
