# generated using pymatgen
data_HfZrTaTiMo
_symmetry_space_group_name_H-M   'P 1'
_cell_length_a   15.20035683
_cell_length_b   15.21866620
_cell_length_c   16.81483840
_cell_angle_alpha   90.05689395
_cell_angle_beta   90.01038669
_cell_angle_gamma   89.99664021
_symmetry_Int_Tables_number   1
_chemical_formula_structural   HfZrTaTiMo
_chemical_formula_sum   'Hf40 Zr40 Ta40 Ti40 Mo40'
_cell_volume   3889.76040106
_cell_formula_units_Z   40
loop_
 _symmetry_equiv_pos_site_id
 _symmetry_equiv_pos_as_xyz
  1  'x, y, z'
loop_
 _atom_site_type_symbol
 _atom_site_label
 _atom_site_symmetry_multiplicity
 _atom_site_fract_x
 _atom_site_fract_y
 _atom_site_fract_z
 _atom_site_occupancy
  Hf  Hf0  1  0.80665665  0.41394943  0.01445569  1
  Hf  Hf1  1  0.60714847  0.00301001  0.49206047  1
  Hf  Hf2  1  0.59479964  0.80046028  0.49282260  1
  Hf  Hf3  1  -0.00889997  0.40345868  0.49674443  1
  Hf  Hf4  1  0.90199409  0.70577818  0.12176913  1
  Hf  Hf5  1  0.20216158  0.60244728  0.49587338  1
  Hf  Hf6  1  0.70650248  0.50338456  0.87204235  1
  Hf  Hf7  1  0.10002541  0.50426893  0.87283826  1
  Hf  Hf8  1  0.89604485  0.29533334  0.88388632  1
  Hf  Hf9  1  0.30025243  0.29734435  0.87576093  1
  Hf  Hf10  1  0.80977810  -0.00184467  0.74673125  1
  Hf  Hf11  1  0.10631230  0.10023217  0.61593837  1
  Hf  Hf12  1  0.31549272  0.70305798  0.12106781  1
  Hf  Hf13  1  0.30354942  0.29339582  0.61250158  1
  Hf  Hf14  1  0.32200641  0.49366889  0.13258936  1
  Hf  Hf15  1  0.49275061  0.89439805  0.12007688  1
  Hf  Hf16  1  0.50876786  0.49724885  0.38979148  1
  Hf  Hf17  1  0.90082046  0.10797759  0.38768871  1
  Hf  Hf18  1  0.20731390  0.39985766  0.48853830  1
  Hf  Hf19  1  0.20150173  0.80327957  0.50279768  1
  Hf  Hf20  1  0.09762175  0.90088948  0.63283068  1
  Hf  Hf21  1  0.31026829  0.50284206  0.37374040  1
  Hf  Hf22  1  0.69067889  0.29818415  0.88310371  1
  Hf  Hf23  1  -0.00453722  0.39698623  0.24961276  1
  Hf  Hf24  1  0.41708292  0.59575565  -0.00777106  1
  Hf  Hf25  1  0.21017344  0.18606448  0.24377640  1
  Hf  Hf26  1  0.57744492  0.79594102  -0.01410382  1
  Hf  Hf27  1  0.29969973  0.10591897  0.38240808  1
  Hf  Hf28  1  0.30555847  0.90053439  0.85992598  1
  Hf  Hf29  1  0.71678379  0.09504096  0.88632049  1
  Hf  Hf30  1  0.70211402  0.09938602  0.36831581  1
  Hf  Hf31  1  0.87686835  0.90735853  0.89717910  1
  Hf  Hf32  1  0.70086077  0.90882460  0.62357559  1
  Hf  Hf33  1  0.51198941  0.10824103  0.64125069  1
  Hf  Hf34  1  0.20700183  0.40018069  0.00504367  1
  Hf  Hf35  1  0.00448537  0.00363982  -0.00143215  1
  Hf  Hf36  1  0.49716385  0.50404181  0.85880557  1
  Hf  Hf37  1  0.49344967  0.90097961  0.63608765  1
  Hf  Hf38  1  0.79012654  0.60023162  0.23950345  1
  Hf  Hf39  1  0.60218329  0.79374139  0.25159916  1
  Zr  Zr40  1  0.70399902  0.70153346  0.88137393  1
  Zr  Zr41  1  0.89857777  0.09651054  0.59956289  1
  Zr  Zr42  1  0.10182892  0.69271252  0.62862506  1
  Zr  Zr43  1  -0.01293033  0.19777737  0.74422887  1
  Zr  Zr44  1  0.69563607  0.30327285  0.12360684  1
  Zr  Zr45  1  0.39252300  0.80444033  0.25377945  1
  Zr  Zr46  1  0.20440251  0.38674717  0.25834382  1
  Zr  Zr47  1  0.60220475  0.41383761  0.24416154  1
  Zr  Zr48  1  0.29623888  0.50490225  0.63274019  1
  Zr  Zr49  1  0.91050866  0.70275125  0.89463927  1
  Zr  Zr50  1  -0.02033816  0.80214410  0.75058664  1
  Zr  Zr51  1  0.70196467  0.70230763  0.62883388  1
  Zr  Zr52  1  0.70173526  0.49845556  0.62587650  1
  Zr  Zr53  1  0.89602303  0.70036309  0.36800052  1
  Zr  Zr54  1  0.27976381  0.90041603  0.11774838  1
  Zr  Zr55  1  0.10689308  0.09965015  0.86462075  1
  Zr  Zr56  1  0.00462115  0.19454593  0.25064297  1
  Zr  Zr57  1  0.40299120  0.00443573  0.50530113  1
  Zr  Zr58  1  0.10190612  0.50065159  0.13430052  1
  Zr  Zr59  1  0.59742852  0.00000316  0.24796533  1
  Zr  Zr60  1  0.10373010  0.28002759  0.38905839  1
  Zr  Zr61  1  0.09973148  0.30038793  0.88345977  1
  Zr  Zr62  1  0.90302143  0.90575009  0.39136981  1
  Zr  Zr63  1  0.40899564  0.37808832  0.26431746  1
  Zr  Zr64  1  0.19161922  -0.02303387  0.26516282  1
  Zr  Zr65  1  0.10879099  0.71699941  0.13098458  1
  Zr  Zr66  1  0.20449824  0.60525150  -0.00178794  1
  Zr  Zr67  1  0.57983768  0.41187526  0.00210312  1
  Zr  Zr68  1  0.09812015  0.71177114  0.36738005  1
  Zr  Zr69  1  0.58619688  0.80165743  0.76758252  1
  Zr  Zr70  1  0.80603168  0.19425163  0.01336430  1
  Zr  Zr71  1  0.40078048  0.00397730  -0.00323635  1
  Zr  Zr72  1  0.09356877  0.29975533  0.61102705  1
  Zr  Zr73  1  0.09614302  0.88980619  0.86516121  1
  Zr  Zr74  1  0.70769096  0.50295285  0.38012338  1
  Zr  Zr75  1  0.90351759  0.51107553  0.62709531  1
  Zr  Zr76  1  -0.00096528  0.39886549  0.74688447  1
  Zr  Zr77  1  0.49480051  0.50116384  0.62085374  1
  Zr  Zr78  1  0.59902306  0.38989309  0.74752433  1
  Zr  Zr79  1  0.78795279  0.19633150  0.73985891  1
  Ta  Ta80  1  -0.00330147  -0.00074929  0.25057549  1
  Ta  Ta81  1  0.49307714  0.90473412  0.37095669  1
  Ta  Ta82  1  0.29881975  0.49826562  0.85930564  1
  Ta  Ta83  1  0.80570341  0.60520103  0.49659497  1
  Ta  Ta84  1  0.20763473  -0.00690306  0.50129698  1
  Ta  Ta85  1  0.21200989  0.60591100  0.25359546  1
  Ta  Ta86  1  0.90338205  0.09527054  0.12951084  1
  Ta  Ta87  1  0.09631895  0.50608004  0.36664224  1
  Ta  Ta88  1  0.58702000  0.19086963  0.00788581  1
  Ta  Ta89  1  0.80376257  -0.00222504  0.24371853  1
  Ta  Ta90  1  0.00478440  0.81969061  0.24799939  1
  Ta  Ta91  1  0.60021615  -0.00014635  -0.00832825  1
  Ta  Ta92  1  0.30684887  0.09352975  0.64374286  1
  Ta  Ta93  1  0.78505845  0.21050105  0.50439623  1
  Ta  Ta94  1  0.69836682  0.29798965  0.36771717  1
  Ta  Ta95  1  0.39437113  0.00983743  0.24497436  1
  Ta  Ta96  1  0.30342481  0.29133484  0.11787906  1
  Ta  Ta97  1  0.00109206  0.60250666  0.49524941  1
  Ta  Ta98  1  0.59017802  0.20442639  0.24277302  1
  Ta  Ta99  1  0.10395004  0.28960900  0.11786088  1
  Ta  Ta100  1  0.61238330  0.00300109  0.76472683  1
  Ta  Ta101  1  0.90212096  0.89962938  0.11447010  1
  Ta  Ta102  1  0.49605864  0.29850259  0.62127886  1
  Ta  Ta103  1  -0.00072512  0.59345622  0.00756991  1
  Ta  Ta104  1  0.39953190  0.19778656  0.00179446  1
  Ta  Ta105  1  0.79838028  0.81175100  0.24792042  1
  Ta  Ta106  1  0.70169093  0.89933670  0.11219579  1
  Ta  Ta107  1  0.79823453  0.20063516  0.24230717  1
  Ta  Ta108  1  0.20733822  0.18315012  0.00645658  1
  Ta  Ta109  1  0.89932247  0.89561469  0.60309758  1
  Ta  Ta110  1  0.39466577  0.80282652  0.49742777  1
  Ta  Ta111  1  0.00579226  0.60782250  0.75805350  1
  Ta  Ta112  1  0.30612717  0.70508998  0.37185493  1
  Ta  Ta113  1  0.49870311  0.69457051  0.37828587  1
  Ta  Ta114  1  0.90133459  0.50068627  0.37203730  1
  Ta  Ta115  1  0.60313120  0.38372865  0.50052608  1
  Ta  Ta116  1  0.50192143  0.10741601  0.86284280  1
  Ta  Ta117  1  0.80442441  0.39555304  0.74667148  1
  Ta  Ta118  1  0.30778676  0.10160572  0.85234416  1
  Ta  Ta119  1  0.20301072  0.21113267  0.74276024  1
  Ti  Ti120  1  0.30131037  0.69943801  0.87534655  1
  Ti  Ti121  1  0.51174024  0.68019866  0.12411878  1
  Ti  Ti122  1  0.60426682  0.60396739  0.50639233  1
  Ti  Ti123  1  0.19446213  0.80403912  -0.01140077  1
  Ti  Ti124  1  0.20224062  0.00128101  -0.00671740  1
  Ti  Ti125  1  0.00657088  0.19566650  0.00524884  1
  Ti  Ti126  1  0.79820979  0.60188492  0.00952496  1
  Ti  Ti127  1  0.20312810  0.78060385  0.75071539  1
  Ti  Ti128  1  0.69577866  0.70928995  0.11409231  1
  Ti  Ti129  1  0.69037705  0.28840752  0.62616746  1
  Ti  Ti130  1  0.48975010  0.30639180  0.11756949  1
  Ti  Ti131  1  0.69491838  0.09508470  0.12550241  1
  Ti  Ti132  1  0.90101850  0.50115792  0.87532559  1
  Ti  Ti133  1  0.48997307  0.70400829  0.62431998  1
  Ti  Ti134  1  -0.00044605  0.40242030  0.01096708  1
  Ti  Ti135  1  0.29910775  0.89732774  0.64434752  1
  Ti  Ti136  1  0.59310812  0.19906733  0.49624082  1
  Ti  Ti137  1  0.49520777  0.11255227  0.37212803  1
  Ti  Ti138  1  0.88850311  0.30233534  0.37381786  1
  Ti  Ti139  1  0.49224320  0.29572881  0.87457774  1
  Ti  Ti140  1  0.68066318  0.52045458  0.11936052  1
  Ti  Ti141  1  0.89850017  0.70583077  0.61844532  1
  Ti  Ti142  1  -0.00488645  0.00320686  0.75256491  1
  Ti  Ti143  1  0.39885907  0.60796463  0.50399303  1
  Ti  Ti144  1  0.79714961  0.39854801  0.50290880  1
  Ti  Ti145  1  0.42031963  0.59725084  0.25244187  1
  Ti  Ti146  1  0.59775645  0.60733120  0.74642191  1
  Ti  Ti147  1  0.40467241  0.19246869  0.23948944  1
  Ti  Ti148  1  0.10741770  0.08445873  0.12510435  1
  Ti  Ti149  1  0.79124601  0.80555658  0.75277764  1
  Ti  Ti150  1  0.10593057  0.49970180  0.63523213  1
  Ti  Ti151  1  -0.00270997  0.60003639  0.24512085  1
  Ti  Ti152  1  0.80994654  0.60759991  0.75340286  1
  Ti  Ti153  1  0.39070488  0.39029496  0.74693150  1
  Ti  Ti154  1  0.69685950  0.70113244  0.37383750  1
  Ti  Ti155  1  0.39348163  0.61870928  0.74792816  1
  Ti  Ti156  1  0.09437584  0.08708465  0.39599875  1
  Ti  Ti157  1  0.80406072  0.40177513  0.24016809  1
  Ti  Ti158  1  0.79122238  0.80250760  0.49257679  1
  Ti  Ti159  1  0.90799955  0.29839471  0.12575753  1
  Mo  Mo160  1  0.38672272  0.79477180  -0.00750772  1
  Mo  Mo161  1  0.88037374  0.30902399  0.61535034  1
  Mo  Mo162  1  0.30466826  0.89919392  0.38065924  1
  Mo  Mo163  1  0.20197860  0.40010117  0.74885734  1
  Mo  Mo164  1  0.49745119  0.50204152  0.12784677  1
  Mo  Mo165  1  0.48566319  0.69836780  0.86823227  1
  Mo  Mo166  1  0.69530604  0.10149939  0.61841645  1
  Mo  Mo167  1  -0.00790751  0.20462405  0.49369903  1
  Mo  Mo168  1  0.40870727  0.20041940  0.50167640  1
  Mo  Mo169  1  0.29982358  0.09717116  0.12550537  1
  Mo  Mo170  1  0.79640216  0.00318790  0.01771525  1
  Mo  Mo171  1  0.09747913  0.90196486  0.38722575  1
  Mo  Mo172  1  0.20896800  0.18382217  0.50799435  1
  Mo  Mo173  1  0.59845617  0.60936637  0.25223096  1
  Mo  Mo174  1  0.90973495  0.10256733  0.87916724  1
  Mo  Mo175  1  0.39605528  0.39390442  -0.00599445  1
  Mo  Mo176  1  0.79296451  0.79892204  0.01239325  1
  Mo  Mo177  1  0.40896121  -0.00313265  0.75249353  1
  Mo  Mo178  1  0.40259491  0.20806935  0.75080375  1
  Mo  Mo179  1  0.60060939  0.20068022  0.75647523  1
  Mo  Mo180  1  0.49629608  0.91096739  0.87041609  1
  Mo  Mo181  1  -0.00493321  0.78948822  0.50748605  1
  Mo  Mo182  1  0.40870411  0.39387860  0.49161305  1
  Mo  Mo183  1  0.60735543  0.60174149  -0.00417971  1
  Mo  Mo184  1  0.89867201  0.50230328  0.12690438  1
  Mo  Mo185  1  0.19988677  0.00083845  0.74384174  1
  Mo  Mo186  1  0.08967838  0.90197370  0.11910047  1
  Mo  Mo187  1  0.49954878  0.10508109  0.12484354  1
  Mo  Mo188  1  0.20122323  0.60236513  0.75804407  1
  Mo  Mo189  1  0.10678385  0.69755568  0.87539262  1
  Mo  Mo190  1  0.31809160  0.28823490  0.39419318  1
  Mo  Mo191  1  0.70169127  0.89329833  0.37099178  1
  Mo  Mo192  1  0.01109474  -0.00909377  0.50031156  1
  Mo  Mo193  1  0.69594848  0.90324823  0.88393183  1
  Mo  Mo194  1  0.39362803  0.79331720  0.74809554  1
  Mo  Mo195  1  0.19870739  0.79572720  0.25606014  1
  Mo  Mo196  1  0.51235820  0.28763105  0.37673914  1
  Mo  Mo197  1  0.79364426  -0.00088597  0.49858690  1
  Mo  Mo198  1  0.00576684  0.79706231  0.00138276  1
  Mo  Mo199  1  0.31079111  0.70871776  0.62631654  1
