# generated using pymatgen
data_HfZrTaTiMo
_symmetry_space_group_name_H-M   'P 1'
_cell_length_a   15.20453851
_cell_length_b   15.22460521
_cell_length_c   16.81808343
_cell_angle_alpha   90.02321953
_cell_angle_beta   90.00356619
_cell_angle_gamma   89.97306586
_symmetry_Int_Tables_number   1
_chemical_formula_structural   HfZrTaTiMo
_chemical_formula_sum   'Hf40 Zr40 Ta40 Ti40 Mo40'
_cell_volume   3893.10126669
_cell_formula_units_Z   40
loop_
 _symmetry_equiv_pos_site_id
 _symmetry_equiv_pos_as_xyz
  1  'x, y, z'
loop_
 _atom_site_type_symbol
 _atom_site_label
 _atom_site_symmetry_multiplicity
 _atom_site_fract_x
 _atom_site_fract_y
 _atom_site_fract_z
 _atom_site_occupancy
  Hf  Hf0  1  0.70331209  0.09935715  0.14379112  1
  Hf  Hf1  1  0.40553629  -0.00268768  0.49112788  1
  Hf  Hf2  1  0.90229926  0.52428710  0.62130287  1
  Hf  Hf3  1  0.49295228  0.89691037  0.86701736  1
  Hf  Hf4  1  0.29106181  0.30164049  0.12483073  1
  Hf  Hf5  1  0.19324342  0.19805518  0.49932159  1
  Hf  Hf6  1  0.78680262  0.20099446  0.52179326  1
  Hf  Hf7  1  0.00032841  0.61549493  0.25212955  1
  Hf  Hf8  1  0.09547644  0.69520112  0.62630379  1
  Hf  Hf9  1  0.50306485  0.89682440  0.62982970  1
  Hf  Hf10  1  0.18982386  0.20071623  0.25306084  1
  Hf  Hf11  1  0.59949635  -0.00128416  0.49210552  1
  Hf  Hf12  1  0.10254426  0.30239952  0.64140528  1
  Hf  Hf13  1  0.90038494  0.09427050  0.88329966  1
  Hf  Hf14  1  0.02414770  0.59537558  -0.00227446  1
  Hf  Hf15  1  0.60784285  0.21650137  0.73544171  1
  Hf  Hf16  1  0.69789115  0.10544681  0.36389717  1
  Hf  Hf17  1  0.50322550  0.09171333  0.85849397  1
  Hf  Hf18  1  0.41514057  0.60959931  0.25902861  1
  Hf  Hf19  1  0.50341053  0.30727788  0.86458428  1
  Hf  Hf20  1  0.90844982  0.49361822  0.11246784  1
  Hf  Hf21  1  0.29825133  0.50383264  0.14829059  1
  Hf  Hf22  1  0.31339912  0.69483917  0.87360425  1
  Hf  Hf23  1  -0.00204075  -0.00722215  0.75231110  1
  Hf  Hf24  1  0.61255002  0.79774849  0.49888815  1
  Hf  Hf25  1  0.89444236  0.89234278  0.36124399  1
  Hf  Hf26  1  0.60821797  0.60494022  0.74511222  1
  Hf  Hf27  1  0.91181679  0.10036978  0.10160543  1
  Hf  Hf28  1  0.02724204  0.20044377  -0.01759884  1
  Hf  Hf29  1  0.40729550  0.59872642  0.74343444  1
  Hf  Hf30  1  -0.00562091  0.40670223  0.76241643  1
  Hf  Hf31  1  0.89300348  0.30085676  0.88816645  1
  Hf  Hf32  1  0.39916872  0.79937779  0.74561151  1
  Hf  Hf33  1  0.10856663  0.49707545  0.14332854  1
  Hf  Hf34  1  0.38433795  0.41043408  -0.00530494  1
  Hf  Hf35  1  0.29625185  0.10122360  0.37830182  1
  Hf  Hf36  1  0.76988346  -0.00138686  0.00408508  1
  Hf  Hf37  1  -0.00087688  0.20484561  0.51195507  1
  Hf  Hf38  1  0.48974365  0.09242723  0.64461348  1
  Hf  Hf39  1  0.88848909  0.89388912  0.88826684  1
  Zr  Zr40  1  0.01589811  0.80383969  0.49261146  1
  Zr  Zr41  1  0.30387214  0.49646159  0.62080283  1
  Zr  Zr42  1  0.90530888  0.09660705  0.38228857  1
  Zr  Zr43  1  -0.00219382  0.01679395  0.24312065  1
  Zr  Zr44  1  0.29452964  0.09622779  0.63437677  1
  Zr  Zr45  1  0.20287290  0.61535945  0.48239225  1
  Zr  Zr46  1  0.49595550  0.49921928  0.38596928  1
  Zr  Zr47  1  0.67983682  0.90280623  0.14975942  1
  Zr  Zr48  1  0.88655917  0.30289594  0.38642720  1
  Zr  Zr49  1  0.28862062  0.87910474  0.37742494  1
  Zr  Zr50  1  0.60344699  0.39445708  0.50591187  1
  Zr  Zr51  1  0.81024274  0.61520007  0.75974845  1
  Zr  Zr52  1  0.61613142  0.18894277  -0.00803725  1
  Zr  Zr53  1  0.89104355  0.50994471  0.37529326  1
  Zr  Zr54  1  0.40305951  0.20562913  -0.00402141  1
  Zr  Zr55  1  0.19218181  -0.00659851  0.50297099  1
  Zr  Zr56  1  -0.00173053  0.00100946  0.51305536  1
  Zr  Zr57  1  0.59384007  0.19402268  0.51081262  1
  Zr  Zr58  1  0.10476852  0.91839734  0.11983281  1
  Zr  Zr59  1  0.50814019  0.08801461  0.12062201  1
  Zr  Zr60  1  0.10401126  0.50420811  0.63282225  1
  Zr  Zr61  1  0.22305420  0.60412486  0.00441318  1
  Zr  Zr62  1  0.69495226  0.89273986  0.35271256  1
  Zr  Zr63  1  0.89386103  0.50457900  0.89233813  1
  Zr  Zr64  1  0.48159539  0.31233002  0.62519372  1
  Zr  Zr65  1  0.50398828  0.49185323  0.13280126  1
  Zr  Zr66  1  0.59574659  0.80771541  0.00804177  1
  Zr  Zr67  1  0.81025383  0.20329028  0.73682439  1
  Zr  Zr68  1  0.40250960  -0.00925201  0.25680485  1
  Zr  Zr69  1  -0.01394296  0.79336013  0.75783501  1
  Zr  Zr70  1  0.81080430  0.20052476  0.24684054  1
  Zr  Zr71  1  0.40061911  0.19064471  0.24486168  1
  Zr  Zr72  1  0.17400953  0.39727339  -0.01472298  1
  Zr  Zr73  1  0.79667292  -0.01997241  0.51506453  1
  Zr  Zr74  1  0.58487649  0.39926899  -0.00327901  1
  Zr  Zr75  1  0.39095636  -0.00765006  -0.00143552  1
  Zr  Zr76  1  0.79069882  0.39291791  0.24204306  1
  Zr  Zr77  1  0.70412395  0.09011328  0.85303910  1
  Zr  Zr78  1  0.80025568  0.59770330  0.23162975  1
  Zr  Zr79  1  0.19747573  0.39940543  0.49366879  1
  Ta  Ta80  1  0.00167780  0.20811694  0.24407820  1
  Ta  Ta81  1  0.78411057  0.39772668  0.00578297  1
  Ta  Ta82  1  0.71593872  0.69130809  0.37028801  1
  Ta  Ta83  1  0.89990421  0.29692132  0.10365711  1
  Ta  Ta84  1  0.10024806  0.09936735  0.64515434  1
  Ta  Ta85  1  0.01602457  0.80913670  0.00082217  1
  Ta  Ta86  1  0.19942690  0.00523668  0.25125562  1
  Ta  Ta87  1  0.39316251  0.78987303  0.00424197  1
  Ta  Ta88  1  0.28132868  0.09065361  0.11747343  1
  Ta  Ta89  1  0.11583736  0.70950113  0.88040057  1
  Ta  Ta90  1  0.78644153  0.40851940  0.74531843  1
  Ta  Ta91  1  0.79687527  0.40706304  0.50932076  1
  Ta  Ta92  1  0.39617294  0.40388343  0.75675791  1
  Ta  Ta93  1  0.30434301  0.30654325  0.37324495  1
  Ta  Ta94  1  0.40376546  0.78362950  0.49074078  1
  Ta  Ta95  1  0.81777212  0.77783010  0.49776316  1
  Ta  Ta96  1  0.69061262  0.89257573  0.86950470  1
  Ta  Ta97  1  0.51517240  0.69889478  0.87592248  1
  Ta  Ta98  1  0.41273585  0.38468740  0.25322861  1
  Ta  Ta99  1  0.31000766  0.71071932  0.14079975  1
  Ta  Ta100  1  0.00037103  0.41034296  0.49830517  1
  Ta  Ta101  1  -0.00950143  0.61434633  0.47999192  1
  Ta  Ta102  1  0.90033706  0.31793894  0.62527921  1
  Ta  Ta103  1  0.68470675  0.30034150  0.12257568  1
  Ta  Ta104  1  0.69643543  0.49290734  0.37408089  1
  Ta  Ta105  1  0.59312259  0.22183846  0.25477172  1
  Ta  Ta106  1  0.29979246  0.70035621  0.62034648  1
  Ta  Ta107  1  0.10042744  0.50037278  0.36070850  1
  Ta  Ta108  1  0.19774712  0.79413486  0.74933933  1
  Ta  Ta109  1  0.38971467  0.20470861  0.75789471  1
  Ta  Ta110  1  -0.00363065  0.39303501  0.25138190  1
  Ta  Ta111  1  0.09718506  0.91334327  0.36330024  1
  Ta  Ta112  1  0.91526360  0.70493958  0.10941731  1
  Ta  Ta113  1  0.68970473  0.50399778  0.87993463  1
  Ta  Ta114  1  0.60357077  0.60699997  0.00631336  1
  Ta  Ta115  1  0.11968404  0.71050430  0.13104871  1
  Ta  Ta116  1  0.79499869  0.79624272  0.01907859  1
  Ta  Ta117  1  0.80539625  0.78772280  0.22985201  1
  Ta  Ta118  1  0.29733005  0.49910097  0.36167192  1
  Ta  Ta119  1  0.10679470  0.89536478  0.63313142  1
  Ti  Ti120  1  0.48740008  0.88479279  0.13373503  1
  Ti  Ti121  1  0.41109910  0.79629311  0.26694521  1
  Ti  Ti122  1  0.50174548  0.29301922  0.38421086  1
  Ti  Ti123  1  0.29460879  0.30036748  0.63350593  1
  Ti  Ti124  1  0.21069842  0.19252363  -0.01797217  1
  Ti  Ti125  1  0.09402267  0.30035362  0.37324654  1
  Ti  Ti126  1  0.49390870  0.51239283  0.87694458  1
  Ti  Ti127  1  0.30171901  0.08816437  0.86580957  1
  Ti  Ti128  1  0.69250585  0.07748807  0.63993731  1
  Ti  Ti129  1  0.11670036  0.71861545  0.35871209  1
  Ti  Ti130  1  0.01330572  0.60542052  0.77035594  1
  Ti  Ti131  1  0.70226736  0.30641985  0.87131499  1
  Ti  Ti132  1  0.90242010  0.70256312  0.90097961  1
  Ti  Ti133  1  0.61419935  0.79712791  0.74292692  1
  Ti  Ti134  1  0.20077713  -0.01114544  0.75767137  1
  Ti  Ti135  1  0.59526894  0.41649731  0.74325072  1
  Ti  Ti136  1  0.19730994  0.19884302  0.76490981  1
  Ti  Ti137  1  0.89647504  0.90509018  0.11934395  1
  Ti  Ti138  1  0.00495789  0.80836565  0.23889634  1
  Ti  Ti139  1  0.79047294  0.60314965  0.01147850  1
  Ti  Ti140  1  0.70089751  0.50719958  0.62020270  1
  Ti  Ti141  1  0.09200612  0.30056857  0.12410096  1
  Ti  Ti142  1  0.17741210  0.00336138  -0.01755309  1
  Ti  Ti143  1  0.90161443  0.09368670  0.63274420  1
  Ti  Ti144  1  0.49510325  0.50723356  0.60804619  1
  Ti  Ti145  1  0.00191354  0.19955385  0.75968714  1
  Ti  Ti146  1  0.39582221  0.20468548  0.50087866  1
  Ti  Ti147  1  0.60626006  0.60718698  0.25020599  1
  Ti  Ti148  1  0.50290614  0.69536559  0.61558204  1
  Ti  Ti149  1  0.69368721  0.49748480  0.12453209  1
  Ti  Ti150  1  0.28629068  0.50259253  0.85963188  1
  Ti  Ti151  1  0.79946321  -0.03164977  0.73501851  1
  Ti  Ti152  1  0.70779968  0.70428930  0.88326786  1
  Ti  Ti153  1  0.29443526  0.30474874  0.86845593  1
  Ti  Ti154  1  0.29384527  0.89358736  0.12703061  1
  Ti  Ti155  1  0.41664824  0.60644849  0.01237865  1
  Ti  Ti156  1  0.30029124  0.89331086  0.62129270  1
  Ti  Ti157  1  0.28347593  0.88914370  0.87962499  1
  Ti  Ti158  1  0.72117283  0.70149037  0.62268597  1
  Ti  Ti159  1  0.60878284  0.60495274  0.49687138  1
  Mo  Mo160  1  0.49980725  0.70354231  0.12780113  1
  Mo  Mo161  1  0.69379557  0.30706163  0.37728252  1
  Mo  Mo162  1  0.70362096  0.31522753  0.63278871  1
  Mo  Mo163  1  0.59137588  -0.00573069  -0.00096679  1
  Mo  Mo164  1  0.09792971  0.10493643  0.37438590  1
  Mo  Mo165  1  0.20189628  0.80832794  0.24513060  1
  Mo  Mo166  1  0.20959835  0.80496900  0.00263528  1
  Mo  Mo167  1  0.30776496  0.69266952  0.36831048  1
  Mo  Mo168  1  0.20431563  0.61018945  0.26234719  1
  Mo  Mo169  1  0.10813192  0.09422344  0.85719854  1
  Mo  Mo170  1  0.90121279  0.87774755  0.62703807  1
  Mo  Mo171  1  0.38468952  -0.00778684  0.75619812  1
  Mo  Mo172  1  0.09982834  0.89836441  0.87650427  1
  Mo  Mo173  1  0.19741547  0.39387426  0.25999372  1
  Mo  Mo174  1  0.50037330  0.10526156  0.37571751  1
  Mo  Mo175  1  -0.00071934  0.39894290  -0.00229690  1
  Mo  Mo176  1  -0.00208103  -0.00215853  -0.00709824  1
  Mo  Mo177  1  0.20239800  0.60804054  0.75193800  1
  Mo  Mo178  1  0.10185760  0.30030588  0.85700813  1
  Mo  Mo179  1  0.58809163  0.78123290  0.25242641  1
  Mo  Mo180  1  0.79151519  0.60152083  0.49726269  1
  Mo  Mo181  1  0.10594229  0.50950964  0.86405420  1
  Mo  Mo182  1  0.58625437  0.00890981  0.26845383  1
  Mo  Mo183  1  0.59876618  0.40220776  0.25697185  1
  Mo  Mo184  1  0.70385170  0.88634821  0.62592152  1
  Mo  Mo185  1  0.90419448  0.70836377  0.36200956  1
  Mo  Mo186  1  0.79384497  0.20535389  -0.00014767  1
  Mo  Mo187  1  0.40517735  0.60227189  0.49828565  1
  Mo  Mo188  1  0.20549100  0.80006776  0.50625466  1
  Mo  Mo189  1  0.50197499  0.89410572  0.37756434  1
  Mo  Mo190  1  0.80409092  -0.00695912  0.23928918  1
  Mo  Mo191  1  0.60296388  -0.01466296  0.74355810  1
  Mo  Mo192  1  0.90637457  0.69995577  0.62237107  1
  Mo  Mo193  1  0.79324553  0.79296759  0.75623394  1
  Mo  Mo194  1  0.20512153  0.39611366  0.75852769  1
  Mo  Mo195  1  0.49776822  0.29773979  0.12576935  1
  Mo  Mo196  1  0.11151566  0.11548562  0.11474783  1
  Mo  Mo197  1  0.39148260  0.39457620  0.49134640  1
  Mo  Mo198  1  0.69872132  0.69478018  0.12460138  1
  Mo  Mo199  1  0.51823821  0.70310153  0.38136471  1
