# generated using pymatgen
data_Ti24Cu95.9988Te96
_symmetry_space_group_name_H-M   'P 1'
_cell_length_a   16.75780000
_cell_length_b   16.75780000
_cell_length_c   20.52410000
_cell_angle_alpha   90.00000000
_cell_angle_beta   90.00000000
_cell_angle_gamma   120.00000000
_symmetry_Int_Tables_number   1
_chemical_formula_structural   Ti24Cu95.9988Te96
_chemical_formula_sum   'Ti24 Cu95.9988 Te96'
_cell_volume   4991.47338266
_cell_formula_units_Z   1
loop_
 _symmetry_equiv_pos_site_id
 _symmetry_equiv_pos_as_xyz
  1  'x, y, z'
loop_
 _atom_type_symbol
 _atom_type_oxidation_number
  Ti4+  4.0
  Cu+  1.0
  Te2-  -2.0
loop_
 _atom_site_type_symbol
 _atom_site_label
 _atom_site_symmetry_multiplicity
 _atom_site_fract_x
 _atom_site_fract_y
 _atom_site_fract_z
 _atom_site_occupancy
  Ti4+  Ti1  1  0.00000000  0.00000000  0.26000000  1.0
  Ti4+  Ti1  1  0.00000000  0.50000000  0.26000000  1.0
  Ti4+  Ti1  1  0.50000000  0.00000000  0.26000000  1.0
  Ti4+  Ti1  1  0.50000000  0.50000000  0.26000000  1.0
  Ti4+  Ti1  1  0.33333333  0.16666667  0.59333333  1.0
  Ti4+  Ti1  1  0.33333333  0.66666667  0.59333333  1.0
  Ti4+  Ti1  1  0.83333333  0.16666667  0.59333333  1.0
  Ti4+  Ti1  1  0.83333333  0.66666667  0.59333333  1.0
  Ti4+  Ti1  1  0.16666667  0.33333333  0.92666667  1.0
  Ti4+  Ti1  1  0.16666667  0.83333333  0.92666667  1.0
  Ti4+  Ti1  1  0.66666667  0.33333333  0.92666667  1.0
  Ti4+  Ti1  1  0.66666667  0.83333333  0.92666667  1.0
  Ti4+  Ti2  1  0.00000000  0.00000000  0.75510000  1.0
  Ti4+  Ti2  1  0.00000000  0.50000000  0.75510000  1.0
  Ti4+  Ti2  1  0.50000000  0.00000000  0.75510000  1.0
  Ti4+  Ti2  1  0.50000000  0.50000000  0.75510000  1.0
  Ti4+  Ti2  1  0.33333333  0.16666667  0.08843333  1.0
  Ti4+  Ti2  1  0.33333333  0.66666667  0.08843333  1.0
  Ti4+  Ti2  1  0.83333333  0.16666667  0.08843333  1.0
  Ti4+  Ti2  1  0.83333333  0.66666667  0.08843333  1.0
  Ti4+  Ti2  1  0.16666667  0.33333333  0.42176667  1.0
  Ti4+  Ti2  1  0.16666667  0.83333333  0.42176667  1.0
  Ti4+  Ti2  1  0.66666667  0.33333333  0.42176667  1.0
  Ti4+  Ti2  1  0.66666667  0.83333333  0.42176667  1.0
  Cu+  Cu4  1  0.90690000  0.81380000  0.80990000  1.0
  Cu+  Cu4  1  0.85286667  0.92643333  0.47656667  1.0
  Cu+  Cu4  1  0.24023333  0.25976667  0.14323333  1.0
  Cu+  Cu4  1  0.68620000  0.59310000  0.80990000  1.0
  Cu+  Cu4  1  0.18620000  0.59310000  0.80990000  1.0
  Cu+  Cu4  1  0.07356667  0.92643333  0.47656667  1.0
  Cu+  Cu4  1  0.57356667  0.64713333  0.47656667  1.0
  Cu+  Cu4  1  0.01953333  0.25976667  0.14323333  1.0
  Cu+  Cu4  1  0.85286667  0.42643333  0.47656667  1.0
  Cu+  Cu4  1  0.07356667  0.14713333  0.47656667  1.0
  Cu+  Cu4  1  0.51953333  0.25976667  0.14323333  1.0
  Cu+  Cu4  1  0.74023333  0.25976667  0.14323333  1.0
  Cu+  Cu1  1  0.16350000  0.08175000  0.16992000  1.0
  Cu+  Cu1  1  0.16350000  0.58175000  0.16992000  1.0
  Cu+  Cu1  1  0.66350000  0.08175000  0.16992000  1.0
  Cu+  Cu1  1  0.66350000  0.58175000  0.16992000  1.0
  Cu+  Cu1  1  0.41825000  0.33650000  0.16992000  1.0
  Cu+  Cu1  1  0.41825000  0.83650000  0.16992000  1.0
  Cu+  Cu1  1  0.91825000  0.33650000  0.16992000  1.0
  Cu+  Cu1  1  0.91825000  0.83650000  0.16992000  1.0
  Cu+  Cu1  1  0.41825000  0.08175000  0.16992000  1.0
  Cu+  Cu1  1  0.41825000  0.58175000  0.16992000  1.0
  Cu+  Cu1  1  0.91825000  0.08175000  0.16992000  1.0
  Cu+  Cu1  1  0.91825000  0.58175000  0.16992000  1.0
  Cu+  Cu1  1  0.49683333  0.24841667  0.50325333  1.0
  Cu+  Cu1  1  0.49683333  0.74841667  0.50325333  1.0
  Cu+  Cu1  1  0.99683333  0.24841667  0.50325333  1.0
  Cu+  Cu1  1  0.99683333  0.74841667  0.50325333  1.0
  Cu+  Cu1  1  0.25158333  0.00316667  0.50325333  1.0
  Cu+  Cu1  1  0.25158333  0.50316667  0.50325333  1.0
  Cu+  Cu1  1  0.75158333  0.00316667  0.50325333  1.0
  Cu+  Cu1  1  0.75158333  0.50316667  0.50325333  1.0
  Cu+  Cu1  1  0.25158333  0.24841667  0.50325333  1.0
  Cu+  Cu1  1  0.25158333  0.74841667  0.50325333  1.0
  Cu+  Cu1  1  0.75158333  0.24841667  0.50325333  1.0
  Cu+  Cu1  1  0.75158333  0.74841667  0.50325333  1.0
  Cu+  Cu1  1  0.33016667  0.41508333  0.83658667  1.0
  Cu+  Cu1  1  0.33016667  0.91508333  0.83658667  1.0
  Cu+  Cu1  1  0.83016667  0.41508333  0.83658667  1.0
  Cu+  Cu1  1  0.83016667  0.91508333  0.83658667  1.0
  Cu+  Cu1  1  0.08491667  0.16983333  0.83658667  1.0
  Cu+  Cu1  1  0.08491667  0.66983333  0.83658667  1.0
  Cu+  Cu1  1  0.58491667  0.16983333  0.83658667  1.0
  Cu+  Cu1  1  0.58491667  0.66983333  0.83658667  1.0
  Cu+  Cu1  1  0.08491667  0.41508333  0.83658667  1.0
  Cu+  Cu1  1  0.08491667  0.91508333  0.83658667  1.0
  Cu+  Cu1  1  0.58491667  0.41508333  0.83658667  1.0
  Cu+  Cu1  1  0.58491667  0.91508333  0.83658667  1.0
  Cu+  Cu2  1  0.16790000  0.08395000  0.67566000  1.0
  Cu+  Cu2  1  0.16790000  0.58395000  0.67566000  1.0
  Cu+  Cu2  1  0.66790000  0.08395000  0.67566000  1.0
  Cu+  Cu2  1  0.66790000  0.58395000  0.67566000  1.0
  Cu+  Cu2  1  0.41605000  0.33210000  0.67566000  1.0
  Cu+  Cu2  1  0.41605000  0.83210000  0.67566000  1.0
  Cu+  Cu2  1  0.91605000  0.33210000  0.67566000  1.0
  Cu+  Cu2  1  0.91605000  0.83210000  0.67566000  1.0
  Cu+  Cu2  1  0.41605000  0.08395000  0.67566000  1.0
  Cu+  Cu2  1  0.41605000  0.58395000  0.67566000  1.0
  Cu+  Cu2  1  0.91605000  0.08395000  0.67566000  1.0
  Cu+  Cu2  1  0.91605000  0.58395000  0.67566000  1.0
  Cu+  Cu2  1  0.00123333  0.25061667  0.00899333  1.0
  Cu+  Cu2  1  0.00123333  0.75061667  0.00899333  1.0
  Cu+  Cu2  1  0.50123333  0.25061667  0.00899333  1.0
  Cu+  Cu2  1  0.50123333  0.75061667  0.00899333  1.0
  Cu+  Cu2  1  0.24938333  0.49876667  0.00899333  1.0
  Cu+  Cu2  1  0.24938333  0.99876667  0.00899333  1.0
  Cu+  Cu2  1  0.74938333  0.49876667  0.00899333  1.0
  Cu+  Cu2  1  0.74938333  0.99876667  0.00899333  1.0
  Cu+  Cu2  1  0.24938333  0.25061667  0.00899333  1.0
  Cu+  Cu2  1  0.24938333  0.75061667  0.00899333  1.0
  Cu+  Cu2  1  0.74938333  0.25061667  0.00899333  1.0
  Cu+  Cu2  1  0.74938333  0.75061667  0.00899333  1.0
  Cu+  Cu2  1  0.33456667  0.41728333  0.34232667  1.0
  Cu+  Cu2  1  0.33456667  0.91728333  0.34232667  1.0
  Cu+  Cu2  1  0.83456667  0.41728333  0.34232667  1.0
  Cu+  Cu2  1  0.83456667  0.91728333  0.34232667  1.0
  Cu+  Cu2  1  0.08271667  0.16543333  0.34232667  1.0
  Cu+  Cu2  1  0.08271667  0.66543333  0.34232667  1.0
  Cu+  Cu2  1  0.58271667  0.16543333  0.34232667  1.0
  Cu+  Cu2  1  0.58271667  0.66543333  0.34232667  1.0
  Cu+  Cu2  1  0.08271667  0.41728333  0.34232667  1.0
  Cu+  Cu2  1  0.08271667  0.91728333  0.34232667  1.0
  Cu+  Cu2  1  0.58271667  0.41728333  0.34232667  1.0
  Cu+  Cu2  1  0.58271667  0.91728333  0.34232667  1.0
  Cu+  Cu3  1  0.00000000  0.00000000  0.11282000  1.0
  Cu+  Cu3  1  0.00000000  0.50000000  0.11282000  1.0
  Cu+  Cu3  1  0.50000000  0.00000000  0.11282000  1.0
  Cu+  Cu3  1  0.50000000  0.50000000  0.11282000  1.0
  Cu+  Cu3  1  0.33333333  0.16666667  0.44615333  1.0
  Cu+  Cu3  1  0.33333333  0.66666667  0.44615333  1.0
  Cu+  Cu3  1  0.83333333  0.16666667  0.44615333  1.0
  Cu+  Cu3  1  0.83333333  0.66666667  0.44615333  1.0
  Cu+  Cu3  1  0.16666667  0.33333333  0.77948667  1.0
  Cu+  Cu3  1  0.16666667  0.83333333  0.77948667  1.0
  Cu+  Cu3  1  0.66666667  0.33333333  0.77948667  1.0
  Cu+  Cu3  1  0.66666667  0.83333333  0.77948667  1.0
  Te2-  Te1  1  0.00000000  0.00000000  0.38940000  1.0
  Te2-  Te1  1  0.00000000  0.50000000  0.38940000  1.0
  Te2-  Te1  1  0.50000000  0.00000000  0.38940000  1.0
  Te2-  Te1  1  0.50000000  0.50000000  0.38940000  1.0
  Te2-  Te1  1  0.33333333  0.16666667  0.72273333  1.0
  Te2-  Te1  1  0.33333333  0.66666667  0.72273333  1.0
  Te2-  Te1  1  0.83333333  0.16666667  0.72273333  1.0
  Te2-  Te1  1  0.83333333  0.66666667  0.72273333  1.0
  Te2-  Te1  1  0.16666667  0.33333333  0.05606667  1.0
  Te2-  Te1  1  0.16666667  0.83333333  0.05606667  1.0
  Te2-  Te1  1  0.66666667  0.33333333  0.05606667  1.0
  Te2-  Te1  1  0.66666667  0.83333333  0.05606667  1.0
  Te2-  Te2  1  0.49473000  0.24736500  0.88391000  1.0
  Te2-  Te2  1  0.49473000  0.74736500  0.88391000  1.0
  Te2-  Te2  1  0.99473000  0.24736500  0.88391000  1.0
  Te2-  Te2  1  0.99473000  0.74736500  0.88391000  1.0
  Te2-  Te2  1  0.25263500  0.00527000  0.88391000  1.0
  Te2-  Te2  1  0.25263500  0.50527000  0.88391000  1.0
  Te2-  Te2  1  0.75263500  0.00527000  0.88391000  1.0
  Te2-  Te2  1  0.75263500  0.50527000  0.88391000  1.0
  Te2-  Te2  1  0.25263500  0.24736500  0.88391000  1.0
  Te2-  Te2  1  0.25263500  0.74736500  0.88391000  1.0
  Te2-  Te2  1  0.75263500  0.24736500  0.88391000  1.0
  Te2-  Te2  1  0.75263500  0.74736500  0.88391000  1.0
  Te2-  Te2  1  0.32806333  0.41403167  0.21724333  1.0
  Te2-  Te2  1  0.32806333  0.91403167  0.21724333  1.0
  Te2-  Te2  1  0.82806333  0.41403167  0.21724333  1.0
  Te2-  Te2  1  0.82806333  0.91403167  0.21724333  1.0
  Te2-  Te2  1  0.08596833  0.17193667  0.21724333  1.0
  Te2-  Te2  1  0.08596833  0.67193667  0.21724333  1.0
  Te2-  Te2  1  0.58596833  0.17193667  0.21724333  1.0
  Te2-  Te2  1  0.58596833  0.67193667  0.21724333  1.0
  Te2-  Te2  1  0.08596833  0.41403167  0.21724333  1.0
  Te2-  Te2  1  0.08596833  0.91403167  0.21724333  1.0
  Te2-  Te2  1  0.58596833  0.41403167  0.21724333  1.0
  Te2-  Te2  1  0.58596833  0.91403167  0.21724333  1.0
  Te2-  Te2  1  0.16139667  0.08069833  0.55057667  1.0
  Te2-  Te2  1  0.16139667  0.58069833  0.55057667  1.0
  Te2-  Te2  1  0.66139667  0.08069833  0.55057667  1.0
  Te2-  Te2  1  0.66139667  0.58069833  0.55057667  1.0
  Te2-  Te2  1  0.41930167  0.33860333  0.55057667  1.0
  Te2-  Te2  1  0.41930167  0.83860333  0.55057667  1.0
  Te2-  Te2  1  0.91930167  0.33860333  0.55057667  1.0
  Te2-  Te2  1  0.91930167  0.83860333  0.55057667  1.0
  Te2-  Te2  1  0.41930167  0.08069833  0.55057667  1.0
  Te2-  Te2  1  0.41930167  0.58069833  0.55057667  1.0
  Te2-  Te2  1  0.91930167  0.08069833  0.55057667  1.0
  Te2-  Te2  1  0.91930167  0.58069833  0.55057667  1.0
  Te2-  Te3  1  0.00000000  0.00000000  0.88180000  1.0
  Te2-  Te3  1  0.00000000  0.50000000  0.88180000  1.0
  Te2-  Te3  1  0.50000000  0.00000000  0.88180000  1.0
  Te2-  Te3  1  0.50000000  0.50000000  0.88180000  1.0
  Te2-  Te3  1  0.33333333  0.16666667  0.21513333  1.0
  Te2-  Te3  1  0.33333333  0.66666667  0.21513333  1.0
  Te2-  Te3  1  0.83333333  0.16666667  0.21513333  1.0
  Te2-  Te3  1  0.83333333  0.66666667  0.21513333  1.0
  Te2-  Te3  1  0.16666667  0.33333333  0.54846667  1.0
  Te2-  Te3  1  0.16666667  0.83333333  0.54846667  1.0
  Te2-  Te3  1  0.66666667  0.33333333  0.54846667  1.0
  Te2-  Te3  1  0.66666667  0.83333333  0.54846667  1.0
  Te2-  Te4  1  0.32770000  0.41385000  0.71080000  1.0
  Te2-  Te4  1  0.32770000  0.91385000  0.71080000  1.0
  Te2-  Te4  1  0.82770000  0.41385000  0.71080000  1.0
  Te2-  Te4  1  0.82770000  0.91385000  0.71080000  1.0
  Te2-  Te4  1  0.08615000  0.17230000  0.71080000  1.0
  Te2-  Te4  1  0.08615000  0.67230000  0.71080000  1.0
  Te2-  Te4  1  0.58615000  0.17230000  0.71080000  1.0
  Te2-  Te4  1  0.58615000  0.67230000  0.71080000  1.0
  Te2-  Te4  1  0.08615000  0.41385000  0.71080000  1.0
  Te2-  Te4  1  0.08615000  0.91385000  0.71080000  1.0
  Te2-  Te4  1  0.58615000  0.41385000  0.71080000  1.0
  Te2-  Te4  1  0.58615000  0.91385000  0.71080000  1.0
  Te2-  Te4  1  0.16103333  0.08051667  0.04413333  1.0
  Te2-  Te4  1  0.16103333  0.58051667  0.04413333  1.0
  Te2-  Te4  1  0.66103333  0.08051667  0.04413333  1.0
  Te2-  Te4  1  0.66103333  0.58051667  0.04413333  1.0
  Te2-  Te4  1  0.41948333  0.33896667  0.04413333  1.0
  Te2-  Te4  1  0.41948333  0.83896667  0.04413333  1.0
  Te2-  Te4  1  0.91948333  0.33896667  0.04413333  1.0
  Te2-  Te4  1  0.91948333  0.83896667  0.04413333  1.0
  Te2-  Te4  1  0.41948333  0.08051667  0.04413333  1.0
  Te2-  Te4  1  0.41948333  0.58051667  0.04413333  1.0
  Te2-  Te4  1  0.91948333  0.08051667  0.04413333  1.0
  Te2-  Te4  1  0.91948333  0.58051667  0.04413333  1.0
  Te2-  Te4  1  0.49436667  0.24718333  0.37746667  1.0
  Te2-  Te4  1  0.49436667  0.74718333  0.37746667  1.0
  Te2-  Te4  1  0.99436667  0.24718333  0.37746667  1.0
  Te2-  Te4  1  0.99436667  0.74718333  0.37746667  1.0
  Te2-  Te4  1  0.25281667  0.00563333  0.37746667  1.0
  Te2-  Te4  1  0.25281667  0.50563333  0.37746667  1.0
  Te2-  Te4  1  0.75281667  0.00563333  0.37746667  1.0
  Te2-  Te4  1  0.75281667  0.50563333  0.37746667  1.0
  Te2-  Te4  1  0.25281667  0.24718333  0.37746667  1.0
  Te2-  Te4  1  0.25281667  0.74718333  0.37746667  1.0
  Te2-  Te4  1  0.75281667  0.24718333  0.37746667  1.0
  Te2-  Te4  1  0.75281667  0.74718333  0.37746667  1.0








































































































































