# generated using pymatgen
data_AgSbTe2
_symmetry_space_group_name_H-M   'P 1'
_cell_length_a   18.31228065
_cell_length_b   18.30510507
_cell_length_c   18.31111042
_cell_angle_alpha   90.00236865
_cell_angle_beta   89.99704581
_cell_angle_gamma   90.00178928
_symmetry_Int_Tables_number   1
_chemical_formula_structural   AgSbTe2
_chemical_formula_sum   'Ag54 Sb54 Te108'
_cell_volume   6138.03474051
_cell_formula_units_Z   54
loop_
 _symmetry_equiv_pos_site_id
 _symmetry_equiv_pos_as_xyz
  1  'x, y, z'
loop_
 _atom_site_type_symbol
 _atom_site_label
 _atom_site_symmetry_multiplicity
 _atom_site_fract_x
 _atom_site_fract_y
 _atom_site_fract_z
 _atom_site_occupancy
  Ag  Ag0  1  0.50150350  0.00531508  0.84204704  1
  Ag  Ag1  1  0.50518279  0.00003225  0.16159121  1
  Ag  Ag2  1  0.49747049  0.32814854  0.83920374  1
  Ag  Ag3  1  0.00423468  0.66456669  0.66462226  1
  Ag  Ag4  1  0.16723138  0.33114518  0.83267499  1
  Ag  Ag5  1  -0.00456932  -0.00299241  0.33169661  1
  Ag  Ag6  1  0.16458911  0.83773349  0.33310233  1
  Ag  Ag7  1  0.00199941  0.67269450  0.33259788  1
  Ag  Ag8  1  0.17345434  0.16721010  -0.00092766  1
  Ag  Ag9  1  0.82624252  -0.00112993  0.17036919  1
  Ag  Ag10  1  0.34164346  0.50128025  0.16553944  1
  Ag  Ag11  1  0.33098015  0.83383422  0.83649147  1
  Ag  Ag12  1  0.66480545  0.67085420  0.00414558  1
  Ag  Ag13  1  0.66959470  0.49831865  0.83632570  1
  Ag  Ag14  1  0.83593991  0.33541814  0.83435660  1
  Ag  Ag15  1  0.83082017  0.84215425  0.00290905  1
  Ag  Ag16  1  0.49593328  0.84035268  0.66784782  1
  Ag  Ag17  1  0.66349495  0.83891374  0.16600919  1
  Ag  Ag18  1  0.49741156  0.16610518  0.00210581  1
  Ag  Ag19  1  0.34154101  0.00481116  0.00402982  1
  Ag  Ag20  1  0.16359351  0.00459724  0.49685561  1
  Ag  Ag21  1  0.66210612  0.50574358  0.16393357  1
  Ag  Ag22  1  0.17258541  0.32812877  0.16425867  1
  Ag  Ag23  1  -0.00539796  0.49847439  0.83338924  1
  Ag  Ag24  1  -0.00250361  0.50352809  0.16625487  1
  Ag  Ag25  1  0.49492292  0.16329762  0.66617606  1
  Ag  Ag26  1  0.50258617  0.49204454  0.00369240  1
  Ag  Ag27  1  0.66097495  -0.00309319  0.00776160  1
  Ag  Ag28  1  0.83053335  0.16140714  0.00595427  1
  Ag  Ag29  1  0.33654492  0.83425521  0.16298900  1
  Ag  Ag30  1  0.33103282  0.66892976  0.33044449  1
  Ag  Ag31  1  0.66802252  0.50222188  0.49752986  1
  Ag  Ag32  1  0.33119350  0.67126812  0.66299501  1
  Ag  Ag33  1  0.32895748  0.16681762  0.50131888  1
  Ag  Ag34  1  0.83295205  0.00191052  0.48928972  1
  Ag  Ag35  1  0.83253345  0.49559893  0.33276267  1
  Ag  Ag36  1  0.83113235  0.15997461  0.33057975  1
  Ag  Ag37  1  0.00170757  0.83472862  0.16843313  1
  Ag  Ag38  1  0.66363681  -0.00253564  0.66454791  1
  Ag  Ag39  1  0.66563162  0.83970808  0.49478794  1
  Ag  Ag40  1  0.49658939  0.32845830  0.50117945  1
  Ag  Ag41  1  0.49972039  0.66841230  0.16586504  1
  Ag  Ag42  1  0.00460970  0.83081484  0.83422852  1
  Ag  Ag43  1  0.00745781  0.16486663  0.49978360  1
  Ag  Ag44  1  0.16691259  -0.00033671  0.17008806  1
  Ag  Ag45  1  0.33644209  0.32510901  0.00133764  1
  Ag  Ag46  1  0.49478784  0.33339827  0.15787784  1
  Ag  Ag47  1  0.00326549  0.33660881  0.66941349  1
  Ag  Ag48  1  0.83402464  0.49819543  0.66552886  1
  Ag  Ag49  1  0.17012446  0.16455964  0.66024215  1
  Ag  Ag50  1  0.16980478  0.32378744  0.50379186  1
  Ag  Ag51  1  0.17013612  0.83960475  0.66408771  1
  Ag  Ag52  1  0.67193189  -0.00155246  0.32872466  1
  Ag  Ag53  1  0.50262203  0.16521812  0.32935880  1
  Sb  Sb54  1  0.33500929  0.16407320  0.16667625  1
  Sb  Sb55  1  0.16741424  0.16107825  0.33604183  1
  Sb  Sb56  1  0.33328599  -0.00211448  0.32767187  1
  Sb  Sb57  1  0.66529110  0.16388980  0.49935466  1
  Sb  Sb58  1  0.66715302  0.67003516  0.32770285  1
  Sb  Sb59  1  0.16250319  0.50308339  0.33100512  1
  Sb  Sb60  1  0.33027355  0.33431971  0.67088877  1
  Sb  Sb61  1  0.16145109  0.49689602  0.66681644  1
  Sb  Sb62  1  0.50007718  0.66795951  0.83832680  1
  Sb  Sb63  1  0.16601742  0.66455484  0.83182074  1
  Sb  Sb64  1  0.00456610  0.33291777  -0.00339371  1
  Sb  Sb65  1  0.33526275  0.16335793  0.83373931  1
  Sb  Sb66  1  0.83393401  0.66185832  0.83330387  1
  Sb  Sb67  1  0.00163091  0.16713711  0.83018113  1
  Sb  Sb68  1  -0.00168356  -0.00009272  0.00637999  1
  Sb  Sb69  1  0.82907725  0.00339817  0.83723705  1
  Sb  Sb70  1  0.00121535  0.33104976  0.33524351  1
  Sb  Sb71  1  0.66597351  0.66925736  0.66971516  1
  Sb  Sb72  1  -0.00186699  0.83828948  0.49737790  1
  Sb  Sb73  1  0.50337799  0.49825232  0.67042161  1
  Sb  Sb74  1  0.66706118  0.33105246  0.66790895  1
  Sb  Sb75  1  -0.00511336  0.66752405  0.00215288  1
  Sb  Sb76  1  0.83349694  0.67088464  0.49775346  1
  Sb  Sb77  1  0.17050280  0.00297564  0.83447505  1
  Sb  Sb78  1  0.83644497  0.83813041  0.32791149  1
  Sb  Sb79  1  0.83491959  0.83156918  0.67007684  1
  Sb  Sb80  1  0.66572987  0.83253611  0.83780510  1
  Sb  Sb81  1  0.34037741  0.66913909  0.00393084  1
  Sb  Sb82  1  0.33792198  0.49444330  0.49535288  1
  Sb  Sb83  1  0.83160412  0.33057910  0.16248299  1
  Sb  Sb84  1  0.66551335  0.32978986  0.33217718  1
  Sb  Sb85  1  -0.00453483  0.49628290  0.49992635  1
  Sb  Sb86  1  0.17035085  0.67103920  0.16788381  1
  Sb  Sb87  1  0.16545170  0.84093562  0.00156598  1
  Sb  Sb88  1  0.66359055  0.16953641  0.83509195  1
  Sb  Sb89  1  0.33388391  0.33462651  0.32676143  1
  Sb  Sb90  1  0.33390840  0.50206528  0.83746565  1
  Sb  Sb91  1  0.17154225  0.49194323  0.00264084  1
  Sb  Sb92  1  0.65926546  0.33125371  0.00050329  1
  Sb  Sb93  1  0.82687747  0.49646741  0.00065859  1
  Sb  Sb94  1  0.33559034  0.83833496  0.49917180  1
  Sb  Sb95  1  0.82985799  0.67103926  0.16669868  1
  Sb  Sb96  1  0.83377773  0.16858074  0.66578283  1
  Sb  Sb97  1  0.66323592  0.16197817  0.16584127  1
  Sb  Sb98  1  0.50473339  0.49482815  0.32573381  1
  Sb  Sb99  1  0.50226041  0.84053069  0.00000466  1
  Sb  Sb100  1  0.33745950  -0.00253870  0.67036483  1
  Sb  Sb101  1  0.83363267  0.33009694  0.50238218  1
  Sb  Sb102  1  0.00066007  0.16438696  0.17081746  1
  Sb  Sb103  1  -0.00089205  -0.00023356  0.66246961  1
  Sb  Sb104  1  0.49824652  0.83847181  0.33189865  1
  Sb  Sb105  1  0.49998924  0.66405220  0.49556862  1
  Sb  Sb106  1  0.50020277  0.00563885  0.49866551  1
  Sb  Sb107  1  0.16677197  0.66883561  0.50033453  1
  Te  Te108  1  0.16739277  0.16666277  0.16585525  1
  Te  Te109  1  0.16735358  0.16572429  0.49916687  1
  Te  Te110  1  0.16796313  0.17116705  0.83246162  1
  Te  Te111  1  0.16284056  0.49620218  0.16740941  1
  Te  Te112  1  0.16765742  0.49019333  0.49927485  1
  Te  Te113  1  0.16207784  0.49262877  0.83465236  1
  Te  Te114  1  0.16529310  0.83724563  0.16722751  1
  Te  Te115  1  0.16675589  0.83742428  0.50144906  1
  Te  Te116  1  0.16598824  0.83421179  0.83097884  1
  Te  Te117  1  0.49886841  0.16700498  0.16520487  1
  Te  Te118  1  0.49939958  0.16999154  0.50356236  1
  Te  Te119  1  0.49920501  0.16665715  0.83321661  1
  Te  Te120  1  0.50067816  0.49613092  0.16591617  1
  Te  Te121  1  0.50641771  0.49370174  0.49993944  1
  Te  Te122  1  0.50202034  0.49692985  0.83832197  1
  Te  Te123  1  0.49988239  0.83697862  0.16668129  1
  Te  Te124  1  0.50420618  0.83258174  0.50447194  1
  Te  Te125  1  0.49787405  0.83559038  0.82916187  1
  Te  Te126  1  0.83378522  0.16214485  0.16707176  1
  Te  Te127  1  0.83468590  0.16205054  0.49746887  1
  Te  Te128  1  0.83340880  0.17325496  0.83581780  1
  Te  Te129  1  0.83531454  0.49901108  0.16801042  1
  Te  Te130  1  0.82810556  0.49906894  0.49990725  1
  Te  Te131  1  0.83490748  0.49572523  0.83363227  1
  Te  Te132  1  0.83348723  0.83751763  0.16359162  1
  Te  Te133  1  0.82701664  0.84042653  0.50093081  1
  Te  Te134  1  0.83776414  0.83389543  0.83896769  1
  Te  Te135  1  0.16822238  0.00768752  0.00260286  1
  Te  Te136  1  0.16585346  -0.00278278  0.33116327  1
  Te  Te137  1  0.16711720  0.00194379  0.66552711  1
  Te  Te138  1  0.17148225  0.32724825  0.00245522  1
  Te  Te139  1  0.16702666  0.33252441  0.33003673  1
  Te  Te140  1  0.16507569  0.32998436  0.66637713  1
  Te  Te141  1  0.16714786  0.66598830  -0.00032479  1
  Te  Te142  1  0.16459277  0.67286588  0.33415414  1
  Te  Te143  1  0.16548106  0.67093507  0.66581632  1
  Te  Te144  1  0.50101040  0.00215628  0.00038715  1
  Te  Te145  1  0.50302409  0.00534632  0.32858712  1
  Te  Te146  1  0.50151405  0.00131328  0.66553430  1
  Te  Te147  1  0.49815686  0.32876446  -0.00049895  1
  Te  Te148  1  0.49954954  0.32609753  0.33516488  1
  Te  Te149  1  0.49844543  0.32945098  0.66915327  1
  Te  Te150  1  0.50492527  0.66234565  0.00550149  1
  Te  Te151  1  0.49650642  0.66681368  0.32727614  1
  Te  Te152  1  0.49666929  0.66943619  0.66615383  1
  Te  Te153  1  0.83149771  0.00271458  0.00266550  1
  Te  Te154  1  0.83373952  0.00000539  0.33125661  1
  Te  Te155  1  0.82697719  0.00014456  0.66631801  1
  Te  Te156  1  0.83246828  0.32619004  -0.00502654  1
  Te  Te157  1  0.83346753  0.33188952  0.33259035  1
  Te  Te158  1  0.83653556  0.33640791  0.67050048  1
  Te  Te159  1  0.82645096  0.67243379  0.00014461  1
  Te  Te160  1  0.83906007  0.66040445  0.33332033  1
  Te  Te161  1  0.83804512  0.66145261  0.66530321  1
  Te  Te162  1  -0.00049798  0.16705253  -0.00084751  1
  Te  Te163  1  -0.00379986  0.16244786  0.33793164  1
  Te  Te164  1  0.00309128  0.16892907  0.66271385  1
  Te  Te165  1  -0.00058506  0.50135424  0.00038016  1
  Te  Te166  1  -0.00457701  0.50198683  0.33123221  1
  Te  Te167  1  -0.00337929  0.50040051  0.66820019  1
  Te  Te168  1  -0.00339681  0.83244638  0.00194113  1
  Te  Te169  1  0.00216638  0.83418620  0.33081836  1
  Te  Te170  1  0.00315755  0.83064435  0.66787304  1
  Te  Te171  1  0.33456038  0.16513530  -0.00033243  1
  Te  Te172  1  0.33967376  0.16726908  0.33954496  1
  Te  Te173  1  0.33275846  0.16718503  0.66399437  1
  Te  Te174  1  0.33900946  0.49970932  0.00555466  1
  Te  Te175  1  0.33314657  0.50639820  0.32704021  1
  Te  Te176  1  0.33352374  0.50858002  0.66619436  1
  Te  Te177  1  0.33292046  0.83707429  0.00165845  1
  Te  Te178  1  0.32975815  0.82981549  0.33033701  1
  Te  Te179  1  0.33209572  0.83197420  0.66596711  1
  Te  Te180  1  0.66605243  0.16001035  -0.00031773  1
  Te  Te181  1  0.66826520  0.16066847  0.33270314  1
  Te  Te182  1  0.66218093  0.16064820  0.66736980  1
  Te  Te183  1  0.66363680  0.49971754  0.00214940  1
  Te  Te184  1  0.67163897  0.50219109  0.33168189  1
  Te  Te185  1  0.67163421  0.50098141  0.66855486  1
  Te  Te186  1  0.66807018  0.83570159  0.00358699  1
  Te  Te187  1  0.66691902  0.83729118  0.33126437  1
  Te  Te188  1  0.66509452  0.83555450  0.66723410  1
  Te  Te189  1  0.00278131  -0.00266874  0.17093327  1
  Te  Te190  1  0.00102207  0.00305510  0.49608669  1
  Te  Te191  1  -0.00134489  -0.00660848  0.83297418  1
  Te  Te192  1  0.00122327  0.33731844  0.16642613  1
  Te  Te193  1  0.00210033  0.32871592  0.50422001  1
  Te  Te194  1  0.00231556  0.33436458  0.83038285  1
  Te  Te195  1  0.00067709  0.66736262  0.16959824  1
  Te  Te196  1  0.00101799  0.66651561  0.49982935  1
  Te  Te197  1  0.00000358  0.66691778  0.83048800  1
  Te  Te198  1  0.33214629  -0.00327767  0.16364737  1
  Te  Te199  1  0.32832963  0.00557293  0.49933392  1
  Te  Te200  1  0.33845078  -0.00635935  0.83886228  1
  Te  Te201  1  0.33389899  0.33495929  0.16265601  1
  Te  Te202  1  0.33353324  0.32955507  0.50061140  1
  Te  Te203  1  0.33420200  0.33595368  0.83897948  1
  Te  Te204  1  0.33654013  0.66950709  0.16887565  1
  Te  Te205  1  0.33319528  0.66556537  0.49844971  1
  Te  Te206  1  0.33289484  0.67349665  0.82999339  1
  Te  Te207  1  0.66610735  -0.00086756  0.16720645  1
  Te  Te208  1  0.66680778  -0.00162684  0.49846939  1
  Te  Te209  1  0.66124373  -0.00090935  0.83256508  1
  Te  Te210  1  0.66275394  0.34248699  0.16740781  1
  Te  Te211  1  0.66284399  0.33822731  0.49979362  1
  Te  Te212  1  0.66317247  0.33922345  0.83345180  1
  Te  Te213  1  0.66300782  0.66749565  0.16427467  1
  Te  Te214  1  0.66621149  0.66615064  0.49956317  1
  Te  Te215  1  0.66639012  0.65974312  0.83902938  1
