# generated using pymatgen
data_AgSbTe2
_symmetry_space_group_name_H-M   'P 1'
_cell_length_a   18.32852748
_cell_length_b   18.32906648
_cell_length_c   18.33900634
_cell_angle_alpha   90.00130462
_cell_angle_beta   90.00420378
_cell_angle_gamma   90.00007396
_symmetry_Int_Tables_number   1
_chemical_formula_structural   AgSbTe2
_chemical_formula_sum   'Ag54 Sb54 Te108'
_cell_volume   6160.89377408
_cell_formula_units_Z   54
loop_
 _symmetry_equiv_pos_site_id
 _symmetry_equiv_pos_as_xyz
  1  'x, y, z'
loop_
 _atom_site_type_symbol
 _atom_site_label
 _atom_site_symmetry_multiplicity
 _atom_site_fract_x
 _atom_site_fract_y
 _atom_site_fract_z
 _atom_site_occupancy
  Ag  Ag0  1  0.49865748  0.82880530  0.01144780  1
  Ag  Ag1  1  0.00128452  0.83152385  0.49967571  1
  Ag  Ag2  1  0.16517827  0.32785630  0.83699190  1
  Ag  Ag3  1  0.66656071  0.33255044  0.65717171  1
  Ag  Ag4  1  0.66713441  0.67393127  0.66009457  1
  Ag  Ag5  1  0.16225341  0.34335184  0.49896220  1
  Ag  Ag6  1  0.00365659  -0.00294456  0.66872041  1
  Ag  Ag7  1  0.16843523  0.66258059  0.17565224  1
  Ag  Ag8  1  0.83859944  -0.00679146  0.82705422  1
  Ag  Ag9  1  0.16613103  0.50507787  0.65430384  1
  Ag  Ag10  1  0.84445669  0.51000032  0.33427605  1
  Ag  Ag11  1  0.83626455  -0.00372787  0.50146882  1
  Ag  Ag12  1  0.83823559  0.67451859  0.83615724  1
  Ag  Ag13  1  0.16142734  0.50094436  0.34025647  1
  Ag  Ag14  1  0.32263778  -0.00366625  0.66714787  1
  Ag  Ag15  1  0.16508020  0.16854593  0.66934941  1
  Ag  Ag16  1  0.00164760  0.15957827  0.83897308  1
  Ag  Ag17  1  0.67171069  0.16374310  0.83082694  1
  Ag  Ag18  1  0.16304010  0.17397168  -0.00631315  1
  Ag  Ag19  1  0.67076087  0.16788427  0.17232118  1
  Ag  Ag20  1  0.67027074  0.83187579  0.49666326  1
  Ag  Ag21  1  0.32017265  0.51117217  0.49886537  1
  Ag  Ag22  1  0.16623286  0.65881045  0.49659644  1
  Ag  Ag23  1  0.67294472  0.83224803  0.82849461  1
  Ag  Ag24  1  -0.00383830  0.83857047  0.82726963  1
  Ag  Ag25  1  0.00420104  0.17011760  0.16348733  1
  Ag  Ag26  1  0.16488381  0.33660362  0.16502291  1
  Ag  Ag27  1  0.49359376  0.66777590  0.16774402  1
  Ag  Ag28  1  0.00101278  0.00480244  -0.00863092  1
  Ag  Ag29  1  0.83087456  0.82801014  0.33503968  1
  Ag  Ag30  1  0.49435833  0.34055154  0.16499206  1
  Ag  Ag31  1  0.00808563  0.32747881  0.00276780  1
  Ag  Ag32  1  0.66979905  0.16837536  0.49903024  1
  Ag  Ag33  1  0.33235434  0.66523881  0.00883879  1
  Ag  Ag34  1  0.67232757  0.67026185  0.33324139  1
  Ag  Ag35  1  0.31791881  0.16705470  0.83348328  1
  Ag  Ag36  1  0.50915750  0.82898854  0.33000465  1
  Ag  Ag37  1  0.49602862  0.50725059  0.00476569  1
  Ag  Ag38  1  0.66795674  0.33582895  0.33629079  1
  Ag  Ag39  1  0.00192510  0.66512599  0.33263698  1
  Ag  Ag40  1  0.66189343  0.82765808  0.17798375  1
  Ag  Ag41  1  0.33808638  0.82707663  0.17253590  1
  Ag  Ag42  1  0.00776801  0.50752090  0.49208311  1
  Ag  Ag43  1  0.83414433  0.66804253  0.17529375  1
  Ag  Ag44  1  0.32591505  0.82944992  0.49847502  1
  Ag  Ag45  1  0.32275698  0.66848972  0.32807484  1
  Ag  Ag46  1  0.16352141  0.66539501  0.82823488  1
  Ag  Ag47  1  0.83843365  0.33187624  0.49736801  1
  Ag  Ag48  1  0.49991297  0.83183594  0.66337740  1
  Ag  Ag49  1  0.16668539  0.83123242  0.66488987  1
  Ag  Ag50  1  0.32687049  0.33751897  0.00233622  1
  Ag  Ag51  1  0.16347130  0.17602848  0.33386904  1
  Ag  Ag52  1  -0.00023596  -0.00845882  0.33772882  1
  Ag  Ag53  1  0.00392939  0.49990504  0.17346515  1
  Sb  Sb54  1  0.16333309  0.82526928  0.33830496  1
  Sb  Sb55  1  0.16418072  -0.00073853  0.16885516  1
  Sb  Sb56  1  0.67046639  -0.00287674  0.66615950  1
  Sb  Sb57  1  0.84211052  0.16685281  -0.00028846  1
  Sb  Sb58  1  0.00321615  0.50190682  0.83274669  1
  Sb  Sb59  1  0.66831934  0.50359013  0.83172368  1
  Sb  Sb60  1  0.49781789  0.50666251  0.32921474  1
  Sb  Sb61  1  0.50136123  -0.00619380  0.16725962  1
  Sb  Sb62  1  0.66580035  0.33086648  0.00315284  1
  Sb  Sb63  1  0.49611685  0.50511657  0.66799779  1
  Sb  Sb64  1  0.49674464  0.33164367  0.83769859  1
  Sb  Sb65  1  0.49578924  0.16473403  0.00138593  1
  Sb  Sb66  1  0.50507195  -0.00496969  0.50072588  1
  Sb  Sb67  1  0.00072205  0.83083756  0.16988456  1
  Sb  Sb68  1  0.67242240  -0.00098771  -0.00143416  1
  Sb  Sb69  1  0.83262337  0.50163694  0.00601839  1
  Sb  Sb70  1  0.00641922  0.66697954  0.00414041  1
  Sb  Sb71  1  0.83655963  0.33735655  0.17337086  1
  Sb  Sb72  1  0.33211805  0.67204110  0.66489610  1
  Sb  Sb73  1  0.32807455  0.16629350  0.16319892  1
  Sb  Sb74  1  0.66174839  0.67003024  0.00387899  1
  Sb  Sb75  1  0.66917894  0.50290717  0.49754928  1
  Sb  Sb76  1  0.32746569  0.50692503  0.17022153  1
  Sb  Sb77  1  0.83878138  0.50216536  0.65967748  1
  Sb  Sb78  1  0.83763959  0.16617422  0.33425514  1
  Sb  Sb79  1  0.83122322  0.83256351  0.00100866  1
  Sb  Sb80  1  0.33145106  0.16313672  0.50352004  1
  Sb  Sb81  1  0.32712061  -0.00051296  -0.00407548  1
  Sb  Sb82  1  0.49949757  0.33499787  0.49430960  1
  Sb  Sb83  1  0.83468808  0.83182017  0.66219740  1
  Sb  Sb84  1  0.16905542  0.83374949  -0.00362790  1
  Sb  Sb85  1  0.32549805  -0.00846160  0.33824686  1
  Sb  Sb86  1  0.67318562  -0.00401994  0.33476095  1
  Sb  Sb87  1  0.50487470  -0.00261135  0.83236221  1
  Sb  Sb88  1  0.49569554  0.67010862  0.49259283  1
  Sb  Sb89  1  0.83742870  0.16572508  0.66585341  1
  Sb  Sb90  1  0.00030794  0.67133072  0.66282019  1
  Sb  Sb91  1  -0.00071143  0.16500354  0.49862353  1
  Sb  Sb92  1  0.33189310  0.33056655  0.66874279  1
  Sb  Sb93  1  0.83799167  0.66889668  0.49525448  1
  Sb  Sb94  1  0.49840688  0.16343082  0.33077536  1
  Sb  Sb95  1  0.49768095  0.67010690  0.83867854  1
  Sb  Sb96  1  0.49845025  0.16236500  0.66748103  1
  Sb  Sb97  1  0.15973256  -0.00241292  0.50200442  1
  Sb  Sb98  1  0.00042095  0.33710622  0.33139082  1
  Sb  Sb99  1  0.83632195  -0.00441853  0.16874150  1
  Sb  Sb100  1  0.66881503  0.50296531  0.16922509  1
  Sb  Sb101  1  0.32905043  0.49847305  0.83210997  1
  Sb  Sb102  1  0.33175774  0.33895203  0.32904487  1
  Sb  Sb103  1  0.33122565  0.83700234  0.83050727  1
  Sb  Sb104  1  0.16934649  0.49586964  0.00331429  1
  Sb  Sb105  1  0.83793511  0.33243718  0.82837548  1
  Sb  Sb106  1  0.00293675  0.32979765  0.66797951  1
  Sb  Sb107  1  0.15893926  0.00284394  0.83030257  1
  Te  Te108  1  0.16488994  0.16816764  0.16887918  1
  Te  Te109  1  0.16755967  0.16992190  0.50139129  1
  Te  Te110  1  0.16158326  0.16629681  0.83205002  1
  Te  Te111  1  0.16345177  0.50008237  0.16908868  1
  Te  Te112  1  0.16403384  0.49917425  0.49844312  1
  Te  Te113  1  0.16582482  0.50135313  0.82899219  1
  Te  Te114  1  0.17047974  0.82719203  0.16575232  1
  Te  Te115  1  0.16417171  0.83227853  0.50378165  1
  Te  Te116  1  0.16358054  0.82990692  0.82939679  1
  Te  Te117  1  0.50289456  0.16899694  0.16638158  1
  Te  Te118  1  0.50874163  0.16594792  0.49949045  1
  Te  Te119  1  0.51229366  0.16565563  0.83388907  1
  Te  Te120  1  0.49941200  0.50079931  0.16394344  1
  Te  Te121  1  0.49111758  0.50096388  0.50054087  1
  Te  Te122  1  0.49870578  0.50065503  0.84076394  1
  Te  Te123  1  0.50096968  0.83063734  0.16921068  1
  Te  Te124  1  0.50474727  0.83264052  0.50217186  1
  Te  Te125  1  0.50431162  0.83297298  0.82536152  1
  Te  Te126  1  0.83123736  0.16669389  0.16663500  1
  Te  Te127  1  0.82938695  0.16917349  0.49983694  1
  Te  Te128  1  0.83204781  0.16497223  0.83289136  1
  Te  Te129  1  0.83849265  0.50574752  0.17290310  1
  Te  Te130  1  0.83763154  0.49694139  0.49470166  1
  Te  Te131  1  0.83496323  0.50621859  0.83290218  1
  Te  Te132  1  0.82964514  0.82846713  0.17035591  1
  Te  Te133  1  0.83494829  0.83403207  0.49615726  1
  Te  Te134  1  0.83436959  0.83298246  0.83475553  1
  Te  Te135  1  0.16075719  0.00609073  0.00123882  1
  Te  Te136  1  0.15904909  0.00757155  0.33528646  1
  Te  Te137  1  0.16378846  -0.00175840  0.66570838  1
  Te  Te138  1  0.16732835  0.33373676  0.00062293  1
  Te  Te139  1  0.16832520  0.33643344  0.33149500  1
  Te  Te140  1  0.16773222  0.32961430  0.66667559  1
  Te  Te141  1  0.17198162  0.66579627  -0.00182346  1
  Te  Te142  1  0.16408400  0.66464019  0.33527573  1
  Te  Te143  1  0.16659738  0.66837663  0.66555366  1
  Te  Te144  1  0.49866363  -0.00894525  -0.00025035  1
  Te  Te145  1  0.49652485  -0.00972456  0.33361759  1
  Te  Te146  1  0.49526170  -0.00675480  0.66641153  1
  Te  Te147  1  0.49668567  0.33290910  0.00544871  1
  Te  Te148  1  0.50396453  0.33293268  0.32617189  1
  Te  Te149  1  0.50576673  0.33456516  0.66705586  1
  Te  Te150  1  0.49533622  0.66870752  0.00514889  1
  Te  Te151  1  0.50541005  0.67057813  0.32724016  1
  Te  Te152  1  0.50584977  0.67026505  0.66776501  1
  Te  Te153  1  0.84151233  -0.00008930  -0.00510215  1
  Te  Te154  1  0.83998701  -0.00402467  0.33696263  1
  Te  Te155  1  0.83966083  -0.00031860  0.66558091  1
  Te  Te156  1  0.83919540  0.33560853  -0.00088310  1
  Te  Te157  1  0.82723461  0.33288120  0.33830344  1
  Te  Te158  1  0.82666960  0.33444888  0.65988441  1
  Te  Te159  1  0.83398693  0.66540337  -0.00229814  1
  Te  Te160  1  0.83393779  0.66717875  0.33474708  1
  Te  Te161  1  0.82720029  0.66479294  0.67360966  1
  Te  Te162  1  0.00382758  0.16673953  0.00079147  1
  Te  Te163  1  0.00371484  0.16636080  0.33061705  1
  Te  Te164  1  0.00451185  0.16272451  0.66996321  1
  Te  Te165  1  -0.00035355  0.49616071  0.00451498  1
  Te  Te166  1  0.00071873  0.50033231  0.33334521  1
  Te  Te167  1  0.00660808  0.49957317  0.66166332  1
  Te  Te168  1  0.00045940  0.83664535  -0.00287915  1
  Te  Te169  1  -0.00244248  0.83131164  0.33446981  1
  Te  Te170  1  0.00183284  0.83510340  0.66570246  1
  Te  Te171  1  0.32840530  0.16799363  -0.00488213  1
  Te  Te172  1  0.32799314  0.16374362  0.33347246  1
  Te  Te173  1  0.33048520  0.16255648  0.67178464  1
  Te  Te174  1  0.33635788  0.49971344  -0.00009101  1
  Te  Te175  1  0.33032997  0.50632060  0.33829569  1
  Te  Te176  1  0.32803885  0.49985894  0.66127401  1
  Te  Te177  1  0.33716497  0.83138485  -0.00093706  1
  Te  Te178  1  0.33071644  0.82830062  0.33625425  1
  Te  Te179  1  0.33143484  0.83577747  0.66398553  1
  Te  Te180  1  0.66510666  0.16575777  -0.00044657  1
  Te  Te181  1  0.66585269  0.16665093  0.33389228  1
  Te  Te182  1  0.66610025  0.16759937  0.66491303  1
  Te  Te183  1  0.65925379  0.49918236  0.00047158  1
  Te  Te184  1  0.66671477  0.50224151  0.33372207  1
  Te  Te185  1  0.66606102  0.49977718  0.66580548  1
  Te  Te186  1  0.66095999  0.83470123  -0.00408882  1
  Te  Te187  1  0.66889977  0.83319229  0.33491788  1
  Te  Te188  1  0.66687596  0.83324432  0.66606608  1
  Te  Te189  1  -0.00092693  0.00366557  0.16902051  1
  Te  Te190  1  -0.00491373  -0.00197409  0.49939928  1
  Te  Te191  1  -0.00250010  -0.00048137  0.83159279  1
  Te  Te192  1  0.00239057  0.33193477  0.16511440  1
  Te  Te193  1  0.00106514  0.33271405  0.50100800  1
  Te  Te194  1  0.00400107  0.33061963  0.83649708  1
  Te  Te195  1  0.00137740  0.66541181  0.16954028  1
  Te  Te196  1  0.00351190  0.66935748  0.49735335  1
  Te  Te197  1  0.00209679  0.66985006  0.83401972  1
  Te  Te198  1  0.33319747  -0.00885489  0.16643569  1
  Te  Te199  1  0.33383443  -0.00651835  0.50580712  1
  Te  Te200  1  0.33584360  0.00605051  0.82912184  1
  Te  Te201  1  0.33129187  0.33275667  0.16292015  1
  Te  Te202  1  0.32937579  0.33216139  0.49858045  1
  Te  Te203  1  0.32879746  0.32842095  0.83715117  1
  Te  Te204  1  0.33150795  0.66774382  0.16829580  1
  Te  Te205  1  0.32979972  0.67039265  0.49888649  1
  Te  Te206  1  0.32722029  0.66767851  0.83564857  1
  Te  Te207  1  0.66836965  0.00319798  0.16641739  1
  Te  Te208  1  0.67416132  -0.00200666  0.50064308  1
  Te  Te209  1  0.67500485  -0.00159171  0.83228596  1
  Te  Te210  1  0.66806694  0.33164202  0.17041877  1
  Te  Te211  1  0.66486107  0.33509152  0.49743178  1
  Te  Te212  1  0.66783891  0.33150179  0.83169249  1
  Te  Te213  1  0.67033359  0.66915967  0.16940640  1
  Te  Te214  1  0.66624351  0.66990353  0.49900946  1
  Te  Te215  1  0.66767057  0.67095572  0.83361656  1
