# generated using pymatgen
data_AgSbTe2
_symmetry_space_group_name_H-M   'P 1'
_cell_length_a   18.36671035
_cell_length_b   18.36689897
_cell_length_c   18.37265339
_cell_angle_alpha   90.00022875
_cell_angle_beta   89.99916835
_cell_angle_gamma   90.00574985
_symmetry_Int_Tables_number   1
_chemical_formula_structural   AgSbTe2
_chemical_formula_sum   'Ag54 Sb54 Te108'
_cell_volume   6197.82192228
_cell_formula_units_Z   54
loop_
 _symmetry_equiv_pos_site_id
 _symmetry_equiv_pos_as_xyz
  1  'x, y, z'
loop_
 _atom_site_type_symbol
 _atom_site_label
 _atom_site_symmetry_multiplicity
 _atom_site_fract_x
 _atom_site_fract_y
 _atom_site_fract_z
 _atom_site_occupancy
  Ag  Ag0  1  -0.01056687  0.84025794  0.49558344  1
  Ag  Ag1  1  0.82859301  -0.00065457  0.17061605  1
  Ag  Ag2  1  0.18228182  0.16440572  0.33302867  1
  Ag  Ag3  1  0.66048099  0.16879992  0.49532774  1
  Ag  Ag4  1  -0.00777218  0.49715894  0.49816030  1
  Ag  Ag5  1  0.50645767  0.48978911  0.66018319  1
  Ag  Ag6  1  0.17170424  0.16388941  0.01365954  1
  Ag  Ag7  1  0.34429594  0.32145486  0.33770854  1
  Ag  Ag8  1  0.66422535  0.49696600  0.82282589  1
  Ag  Ag9  1  0.15965048  0.84785188  0.33568714  1
  Ag  Ag10  1  0.34142288  0.00608061  0.01000798  1
  Ag  Ag11  1  0.50173444  0.16540716  0.00527062  1
  Ag  Ag12  1  0.50448933  0.00366699  0.83267677  1
  Ag  Ag13  1  -0.00000534  0.15831822  0.49548139  1
  Ag  Ag14  1  0.82952731  0.82710269  0.33638599  1
  Ag  Ag15  1  0.16071131  0.00373809  0.49558361  1
  Ag  Ag16  1  0.33648684  0.16564450  0.17945864  1
  Ag  Ag17  1  0.66113749  0.16363720  0.82903987  1
  Ag  Ag18  1  0.34416904  0.16833547  0.49000628  1
  Ag  Ag19  1  0.50331641  0.49458383  0.01248269  1
  Ag  Ag20  1  0.00927524  0.16397333  0.17364855  1
  Ag  Ag21  1  0.66292752  0.34214917  0.33862478  1
  Ag  Ag22  1  0.81701955  0.51317123  0.33601512  1
  Ag  Ag23  1  0.66388090  0.33757171  0.65722006  1
  Ag  Ag24  1  0.34780510  0.33071928  0.65762529  1
  Ag  Ag25  1  -0.01712072  0.68024726  0.33728038  1
  Ag  Ag26  1  -0.00168556  0.32415394  0.66054048  1
  Ag  Ag27  1  0.17171795  0.49601915  0.66321941  1
  Ag  Ag28  1  0.66903253  0.00122488  0.33048325  1
  Ag  Ag29  1  0.82340177  0.83490573  0.65259707  1
  Ag  Ag30  1  -0.00049833  0.00149789  0.33401175  1
  Ag  Ag31  1  0.50771630  0.83859833  0.66515317  1
  Ag  Ag32  1  0.50510404  0.48962452  0.33731979  1
  Ag  Ag33  1  0.66526655  0.66423401  0.65490652  1
  Ag  Ag34  1  -0.00073853  0.00519951  0.00466550  1
  Ag  Ag35  1  0.00030066  0.00769113  0.65003303  1
  Ag  Ag36  1  0.66814792  0.83590196  0.18155773  1
  Ag  Ag37  1  0.66726375  0.49937432  0.49779047  1
  Ag  Ag38  1  0.67117358  0.82788817  0.49851465  1
  Ag  Ag39  1  0.66990313  0.65523925  0.33604313  1
  Ag  Ag40  1  0.66297459  0.16413391  0.17897541  1
  Ag  Ag41  1  -0.00241469  0.16337739  0.82285150  1
  Ag  Ag42  1  0.50553568  0.16907219  0.65457989  1
  Ag  Ag43  1  0.66473021  0.00366400  0.01003577  1
  Ag  Ag44  1  0.16688362  0.32506177  0.17184748  1
  Ag  Ag45  1  0.33474865  0.01091422  0.33114261  1
  Ag  Ag46  1  0.66438363  0.50693775  0.18426230  1
  Ag  Ag47  1  0.66603707  0.83835379  0.81896367  1
  Ag  Ag48  1  0.50994191  0.66276304  0.17292492  1
  Ag  Ag49  1  0.82570062  0.67530306  0.18040584  1
  Ag  Ag50  1  0.49761808  0.16871168  0.33464948  1
  Ag  Ag51  1  0.34223205  0.66821956  0.33432890  1
  Ag  Ag52  1  0.82917289  0.66967131  0.49279227  1
  Ag  Ag53  1  0.50412980  0.32993455  0.49887040  1
  Sb  Sb54  1  0.66990684  0.00011267  0.66213039  1
  Sb  Sb55  1  0.50892430  0.83628646  0.33710717  1
  Sb  Sb56  1  0.33852793  0.67177745  0.00947081  1
  Sb  Sb57  1  0.50309367  0.32682538  0.82385881  1
  Sb  Sb58  1  0.50447686  0.66820891  0.83496886  1
  Sb  Sb59  1  0.82917206  0.16075512  0.66366285  1
  Sb  Sb60  1  0.33740970  0.16619696  0.83249412  1
  Sb  Sb61  1  0.17098350  0.49223600  -0.00226503  1
  Sb  Sb62  1  0.16303171  0.66640458  0.83003306  1
  Sb  Sb63  1  0.16069900  0.66861485  0.49649561  1
  Sb  Sb64  1  0.50020927  0.33171067  0.17652750  1
  Sb  Sb65  1  0.50130112  0.00545850  0.50013880  1
  Sb  Sb66  1  0.66550177  0.67059842  0.00787294  1
  Sb  Sb67  1  -0.00786384  0.66658146  0.65723020  1
  Sb  Sb68  1  -0.00690678  0.49519539  0.17607239  1
  Sb  Sb69  1  0.82533721  0.33643666  0.49789029  1
  Sb  Sb70  1  0.66288226  0.32772506  0.00270038  1
  Sb  Sb71  1  0.16963603  0.32783403  0.49774198  1
  Sb  Sb72  1  0.34069283  0.84208149  0.17269290  1
  Sb  Sb73  1  -0.00767195  0.84324696  0.82336247  1
  Sb  Sb74  1  0.16640675  0.32863782  0.83191086  1
  Sb  Sb75  1  0.83477085  -0.00689294  0.49308813  1
  Sb  Sb76  1  0.50907418  0.66132420  0.49357408  1
  Sb  Sb77  1  0.16629333  0.83138671  0.65899727  1
  Sb  Sb78  1  0.00239500  0.32335539  -0.00188173  1
  Sb  Sb79  1  0.83049959  0.83628182  0.00573563  1
  Sb  Sb80  1  0.34069938  0.83720316  0.83222020  1
  Sb  Sb81  1  0.16504950  0.84653827  0.01220347  1
  Sb  Sb82  1  0.82231453  0.50246819  0.00927460  1
  Sb  Sb83  1  0.16233920  0.00624187  0.17699935  1
  Sb  Sb84  1  0.83266192  0.32890019  0.17227816  1
  Sb  Sb85  1  0.82909164  0.33230602  0.82889258  1
  Sb  Sb86  1  -0.00668608  0.49474135  0.82445093  1
  Sb  Sb87  1  0.50495324  0.83932952  -0.00087405  1
  Sb  Sb88  1  0.34462473  0.49876391  0.83009286  1
  Sb  Sb89  1  0.82591371  0.00024829  0.83659127  1
  Sb  Sb90  1  0.82967898  0.16465209  0.00155416  1
  Sb  Sb91  1  0.33779499  0.32474256  0.00518518  1
  Sb  Sb92  1  0.33671137  0.83975489  0.49596662  1
  Sb  Sb93  1  -0.00770656  0.84342064  0.17751900  1
  Sb  Sb94  1  0.50707384  0.00120740  0.16688353  1
  Sb  Sb95  1  0.00035940  0.67060778  0.01310357  1
  Sb  Sb96  1  0.16730263  0.17044123  0.66124564  1
  Sb  Sb97  1  0.82637421  0.16207300  0.33502328  1
  Sb  Sb98  1  0.34052853  0.49361145  0.17029296  1
  Sb  Sb99  1  0.16644622  0.66052418  0.17226999  1
  Sb  Sb100  1  0.82845883  0.66783063  0.82823090  1
  Sb  Sb101  1  0.16747984  0.00209953  0.83048949  1
  Sb  Sb102  1  0.34419186  0.66149257  0.65771409  1
  Sb  Sb103  1  0.82569102  0.50377751  0.65798160  1
  Sb  Sb104  1  0.16966789  0.49425176  0.33737954  1
  Sb  Sb105  1  -0.00295533  0.32635920  0.33977344  1
  Sb  Sb106  1  0.33822701  0.49374425  0.49765159  1
  Sb  Sb107  1  0.33279518  0.00638289  0.66092129  1
  Te  Te108  1  0.16802641  0.16607149  0.17056694  1
  Te  Te109  1  0.15823839  0.16360966  0.49697428  1
  Te  Te110  1  0.15947408  0.16518257  0.83577513  1
  Te  Te111  1  0.16619895  0.49094345  0.16352725  1
  Te  Te112  1  0.16651239  0.50005293  0.50451892  1
  Te  Te113  1  0.16497299  0.49847722  0.82836610  1
  Te  Te114  1  0.16700078  0.83013806  0.17546578  1
  Te  Te115  1  0.16674970  0.83762426  0.49498951  1
  Te  Te116  1  0.16530022  0.83270803  0.83402167  1
  Te  Te117  1  0.50166727  0.16688454  0.16709511  1
  Te  Te118  1  0.50151236  0.16735566  0.49755693  1
  Te  Te119  1  0.50206150  0.16331594  0.84012325  1
  Te  Te120  1  0.50457506  0.49936349  0.17062269  1
  Te  Te121  1  0.50367514  0.49622577  0.49928756  1
  Te  Te122  1  0.50625679  0.50077066  0.82250797  1
  Te  Te123  1  0.50754472  0.82600486  0.16609924  1
  Te  Te124  1  0.50440339  0.83502838  0.50525741  1
  Te  Te125  1  0.50570153  0.83729259  0.82968842  1
  Te  Te126  1  0.82334075  0.16232115  0.16662105  1
  Te  Te127  1  0.84104654  0.16827615  0.50100469  1
  Te  Te128  1  0.83607346  0.16592368  0.83352370  1
  Te  Te129  1  0.82649022  0.50125581  0.17342070  1
  Te  Te130  1  0.83119830  0.50419216  0.49615852  1
  Te  Te131  1  0.82506840  0.50044604  0.83620135  1
  Te  Te132  1  0.82812170  0.83499670  0.17113470  1
  Te  Te133  1  0.83146205  0.83163246  0.49660462  1
  Te  Te134  1  0.82612624  0.83266565  0.83128223  1
  Te  Te135  1  0.16536515  0.00655505  -0.00142720  1
  Te  Te136  1  0.16512937  0.00472936  0.33599694  1
  Te  Te137  1  0.16169115  -0.00123844  0.66220574  1
  Te  Te138  1  0.16991796  0.32549231  0.00406185  1
  Te  Te139  1  0.16677769  0.32691127  0.33133434  1
  Te  Te140  1  0.15823570  0.33729935  0.66575590  1
  Te  Te141  1  0.16875602  0.66636235  0.00000725  1
  Te  Te142  1  0.17206525  0.66275672  0.33341640  1
  Te  Te143  1  0.16924737  0.65977694  0.66536683  1
  Te  Te144  1  0.50235565  0.00332825  -0.00127279  1
  Te  Te145  1  0.49665661  0.00324725  0.33327060  1
  Te  Te146  1  0.49789610  0.00423478  0.66901757  1
  Te  Te147  1  0.49918100  0.33399361  -0.00345070  1
  Te  Te148  1  0.50203826  0.33058895  0.33667831  1
  Te  Te149  1  0.50442015  0.32958673  0.66189070  1
  Te  Te150  1  0.49922363  0.65849624  0.00554355  1
  Te  Te151  1  0.50446356  0.67051704  0.33138740  1
  Te  Te152  1  0.50624508  0.66738141  0.66730339  1
  Te  Te153  1  0.83130454  -0.00031613  0.00667291  1
  Te  Te154  1  0.83383667  -0.00338195  0.32988110  1
  Te  Te155  1  0.84256000  -0.00626639  0.66990711  1
  Te  Te156  1  0.83389612  0.33599437  0.00106194  1
  Te  Te157  1  0.82701470  0.34709587  0.33285597  1
  Te  Te158  1  0.83689758  0.33434977  0.66480668  1
  Te  Te159  1  0.83528961  0.66816033  0.00844551  1
  Te  Te160  1  0.82885044  0.66816054  0.33526470  1
  Te  Te161  1  0.82600126  0.67339529  0.66203305  1
  Te  Te162  1  -0.00109533  0.16412607  0.00901037  1
  Te  Te163  1  -0.00768585  0.16374370  0.33330473  1
  Te  Te164  1  0.00046679  0.16427633  0.66521504  1
  Te  Te165  1  0.00149320  0.50060123  -0.00189906  1
  Te  Te166  1  0.00347116  0.49634754  0.33875847  1
  Te  Te167  1  -0.00226148  0.50049588  0.66205274  1
  Te  Te168  1  0.00023756  0.83912774  -0.00180354  1
  Te  Te169  1  -0.00032292  0.83605123  0.33581628  1
  Te  Te170  1  0.00003293  0.83413348  0.65915500  1
  Te  Te171  1  0.33566921  0.16279471  -0.00101144  1
  Te  Te172  1  0.33701505  0.16638640  0.33475704  1
  Te  Te173  1  0.33624492  0.17108725  0.66423815  1
  Te  Te174  1  0.34018845  0.49975248  -0.00127017  1
  Te  Te175  1  0.33812792  0.50429805  0.33263681  1
  Te  Te176  1  0.33607531  0.49371604  0.66485570  1
  Te  Te177  1  0.33330740  0.84315401  0.00104940  1
  Te  Te178  1  0.32960482  0.83129013  0.33310636  1
  Te  Te179  1  0.33850266  0.83258796  0.66559260  1
  Te  Te180  1  0.66330607  0.16385520  -0.00783899  1
  Te  Te181  1  0.66753345  0.16088249  0.33550033  1
  Te  Te182  1  0.66537249  0.16677621  0.66749500  1
  Te  Te183  1  0.66029434  0.49897297  -0.00706418  1
  Te  Te184  1  0.66054872  0.49949364  0.33868282  1
  Te  Te185  1  0.66578442  0.49875620  0.66213830  1
  Te  Te186  1  0.66621029  0.84031410  -0.00429055  1
  Te  Te187  1  0.66776818  0.84217014  0.33785696  1
  Te  Te188  1  0.66525943  0.83775768  0.66138736  1
  Te  Te189  1  -0.00360632  0.00467589  0.16687817  1
  Te  Te190  1  -0.00149900  -0.00145707  0.49412868  1
  Te  Te191  1  -0.00032120  0.00461030  0.84291717  1
  Te  Te192  1  0.00183989  0.32651197  0.16638582  1
  Te  Te193  1  0.00110732  0.33740420  0.50284939  1
  Te  Te194  1  -0.00152399  0.32647409  0.82752911  1
  Te  Te195  1  -0.00324798  0.66472964  0.17652487  1
  Te  Te196  1  -0.00555388  0.66295010  0.49512373  1
  Te  Te197  1  -0.00281650  0.66739424  0.83634889  1
  Te  Te198  1  0.33382014  0.00560846  0.16878500  1
  Te  Te199  1  0.32842329  0.00669342  0.49513684  1
  Te  Te200  1  0.33848630  0.00041827  0.83411733  1
  Te  Te201  1  0.33006736  0.32676490  0.17231837  1
  Te  Te202  1  0.33540896  0.32877138  0.49814103  1
  Te  Te203  1  0.33264371  0.33329759  0.82368467  1
  Te  Te204  1  0.33545360  0.66683845  0.17281174  1
  Te  Te205  1  0.33375269  0.66751837  0.49407494  1
  Te  Te206  1  0.33213988  0.66816820  0.83398507  1
  Te  Te207  1  0.66679306  0.00036681  0.16766789  1
  Te  Te208  1  0.66695245  0.00787630  0.49618804  1
  Te  Te209  1  0.66366605  0.00181375  0.82875500  1
  Te  Te210  1  0.66690965  0.32833193  0.17011500  1
  Te  Te211  1  0.66478170  0.32920963  0.49889744  1
  Te  Te212  1  0.66667199  0.33043863  0.82891797  1
  Te  Te213  1  0.66775202  0.66511773  0.16810308  1
  Te  Te214  1  0.66798061  0.66719451  0.49751982  1
  Te  Te215  1  0.66688060  0.66932790  0.83227178  1
