# generated using pymatgen
data_AgSbTe2
_symmetry_space_group_name_H-M   'P 1'
_cell_length_a   18.31573945
_cell_length_b   18.31526006
_cell_length_c   18.31133374
_cell_angle_alpha   90.00292344
_cell_angle_beta   90.00114962
_cell_angle_gamma   89.99827723
_symmetry_Int_Tables_number   1
_chemical_formula_structural   AgSbTe2
_chemical_formula_sum   'Ag54 Sb54 Te108'
_cell_volume   6142.67479651
_cell_formula_units_Z   54
loop_
 _symmetry_equiv_pos_site_id
 _symmetry_equiv_pos_as_xyz
  1  'x, y, z'
loop_
 _atom_site_type_symbol
 _atom_site_label
 _atom_site_symmetry_multiplicity
 _atom_site_fract_x
 _atom_site_fract_y
 _atom_site_fract_z
 _atom_site_occupancy
  Ag  Ag0  1  0.33440329  0.15948604  0.83332984  1
  Ag  Ag1  1  0.00172985  0.16414606  0.48727950  1
  Ag  Ag2  1  0.33307693  0.33943629  0.00004057  1
  Ag  Ag3  1  0.84383275  0.17009533  0.33303872  1
  Ag  Ag4  1  0.00233129  0.66917646  0.66735109  1
  Ag  Ag5  1  0.49473760  0.33266551  0.50268950  1
  Ag  Ag6  1  0.66434685  0.16162581  0.49171835  1
  Ag  Ag7  1  0.65708267  0.66903092  0.66325671  1
  Ag  Ag8  1  0.67065608  0.16576294  0.17058036  1
  Ag  Ag9  1  0.83556317  0.82675373  0.00092293  1
  Ag  Ag10  1  0.00676666  0.83708697  0.16643541  1
  Ag  Ag11  1  -0.00244068  0.00991198  0.33037789  1
  Ag  Ag12  1  0.82504686  0.50172356  0.00539271  1
  Ag  Ag13  1  0.49528249  0.66898589  0.50314247  1
  Ag  Ag14  1  0.66772516  0.49901381  0.16189315  1
  Ag  Ag15  1  0.15677521  0.16619698  0.32904016  1
  Ag  Ag16  1  0.83202992  0.49535541  0.32566848  1
  Ag  Ag17  1  0.49744546  -0.00968670  0.83664670  1
  Ag  Ag18  1  0.33455469  0.50562243  0.49864865  1
  Ag  Ag19  1  0.33086092  0.66506102  0.00388003  1
  Ag  Ag20  1  0.65632682  0.83017179  0.83391179  1
  Ag  Ag21  1  0.32932300  0.82841890  0.15947736  1
  Ag  Ag22  1  0.49919976  0.33627873  0.83708896  1
  Ag  Ag23  1  0.66211980  0.83357026  0.50186386  1
  Ag  Ag24  1  0.50124349  0.82967746  0.66888313  1
  Ag  Ag25  1  0.66278733  0.00158133  0.00660792  1
  Ag  Ag26  1  0.49463641  0.67294255  0.16334342  1
  Ag  Ag27  1  0.34029860  0.66858957  0.66432001  1
  Ag  Ag28  1  0.50114767  -0.00585567  0.16404411  1
  Ag  Ag29  1  0.33398504  0.17135966  0.50014193  1
  Ag  Ag30  1  0.17271631  0.33278150  0.49610396  1
  Ag  Ag31  1  0.66456218  0.33706777  0.00274238  1
  Ag  Ag32  1  0.33863873  0.83365543  0.83914837  1
  Ag  Ag33  1  0.83351288  0.33277490  0.16591790  1
  Ag  Ag34  1  0.66170926  0.50699439  0.84433229  1
  Ag  Ag35  1  0.16560033  0.83073440  0.00419576  1
  Ag  Ag36  1  0.17572802  -0.00050379  0.84512940  1
  Ag  Ag37  1  0.17359187  0.67330832  0.16410829  1
  Ag  Ag38  1  0.16999856  0.50490785  0.00198922  1
  Ag  Ag39  1  -0.00028940  0.83400444  0.49320673  1
  Ag  Ag40  1  0.33729058  0.66682334  0.33350271  1
  Ag  Ag41  1  0.50181525  -0.00269399  0.49777825  1
  Ag  Ag42  1  0.66021945  0.66995426  0.33539893  1
  Ag  Ag43  1  -0.00103413  0.16344280  0.17461139  1
  Ag  Ag44  1  0.50275339  0.50072948  -0.00110015  1
  Ag  Ag45  1  0.49907046  0.67294249  0.83315033  1
  Ag  Ag46  1  0.66717051  0.00172113  0.32915040  1
  Ag  Ag47  1  0.83252999  0.16765750  0.65705262  1
  Ag  Ag48  1  0.00836056  0.66622061  0.00193091  1
  Ag  Ag49  1  0.16818680  -0.00564927  0.16278227  1
  Ag  Ag50  1  0.17663256  0.66566308  0.49415547  1
  Ag  Ag51  1  -0.00221478  0.32195392  0.32705764  1
  Ag  Ag52  1  0.00253136  0.33685639  0.00629524  1
  Ag  Ag53  1  0.16700544  0.16443485  0.00705622  1
  Sb  Sb54  1  0.00002259  0.33425550  0.66474038  1
  Sb  Sb55  1  0.66517960  0.83452278  0.16505716  1
  Sb  Sb56  1  -0.00430744  0.49906250  0.16417264  1
  Sb  Sb57  1  0.83127289  0.66342356  0.16418596  1
  Sb  Sb58  1  0.33139591  0.16263456  0.16608263  1
  Sb  Sb59  1  0.33964857  0.50351070  0.83603928  1
  Sb  Sb60  1  0.17091587  0.00016936  0.49486533  1
  Sb  Sb61  1  0.83260189  0.32965027  0.49274808  1
  Sb  Sb62  1  -0.00422426  0.50199293  0.83908504  1
  Sb  Sb63  1  0.50381239  0.33383029  0.16492977  1
  Sb  Sb64  1  0.16562747  0.83601205  0.32645988  1
  Sb  Sb65  1  0.33509061  -0.00315655  0.33170359  1
  Sb  Sb66  1  0.33570551  -0.00333527  -0.00087775  1
  Sb  Sb67  1  0.66019256  0.50148596  0.49641564  1
  Sb  Sb68  1  0.82923636  0.83458053  0.66979551  1
  Sb  Sb69  1  0.00266798  0.83256915  0.83726703  1
  Sb  Sb70  1  0.16493432  0.16609664  0.66431801  1
  Sb  Sb71  1  0.16802315  0.50410465  0.67080772  1
  Sb  Sb72  1  0.16333398  0.49860243  0.32915874  1
  Sb  Sb73  1  0.33734682  0.50757563  0.16592023  1
  Sb  Sb74  1  0.83277201  0.00352230  0.16734633  1
  Sb  Sb75  1  0.82528363  0.66670494  0.83608873  1
  Sb  Sb76  1  0.50415756  0.50376808  0.32851666  1
  Sb  Sb77  1  0.33526373  0.33727534  0.66724658  1
  Sb  Sb78  1  0.83122497  0.49810813  0.66663548  1
  Sb  Sb79  1  0.83058505  0.66724954  0.49896017  1
  Sb  Sb80  1  0.17367287  0.32974042  0.83686068  1
  Sb  Sb81  1  0.17038734  0.83006018  0.67034914  1
  Sb  Sb82  1  0.83280304  0.83381826  0.32859442  1
  Sb  Sb83  1  0.66087462  0.16431154  0.83553558  1
  Sb  Sb84  1  0.00501302  0.16564205  0.83721140  1
  Sb  Sb85  1  0.66448895  0.33622611  0.67009781  1
  Sb  Sb86  1  0.16210039  0.33181447  0.16623807  1
  Sb  Sb87  1  0.50166248  0.83136731  0.33648739  1
  Sb  Sb88  1  0.49553625  0.16955152  -0.00082321  1
  Sb  Sb89  1  0.00124828  -0.00111377  0.00678641  1
  Sb  Sb90  1  0.66446649  -0.00413966  0.66486109  1
  Sb  Sb91  1  0.33488509  -0.00557864  0.66826505  1
  Sb  Sb92  1  0.82657478  0.00158870  0.49761982  1
  Sb  Sb93  1  0.32961011  0.33615508  0.33211416  1
  Sb  Sb94  1  0.00105222  -0.00372184  0.65899324  1
  Sb  Sb95  1  0.67064445  0.33082102  0.32839192  1
  Sb  Sb96  1  0.66122983  0.66479660  0.00155090  1
  Sb  Sb97  1  0.00518442  0.50105548  0.49808564  1
  Sb  Sb98  1  0.33548977  0.82949603  0.49999237  1
  Sb  Sb99  1  0.50033152  0.50878795  0.67167587  1
  Sb  Sb100  1  0.49799900  0.82788083  -0.00343760  1
  Sb  Sb101  1  0.50060671  0.16571325  0.33468317  1
  Sb  Sb102  1  0.82721947  0.33388885  0.84306562  1
  Sb  Sb103  1  0.00063072  0.66739608  0.32990576  1
  Sb  Sb104  1  0.50238605  0.16162744  0.66412331  1
  Sb  Sb105  1  0.82885964  -0.00070406  0.83671045  1
  Sb  Sb106  1  0.17465971  0.67122424  0.84075589  1
  Sb  Sb107  1  0.83587796  0.16842178  0.00522712  1
  Te  Te108  1  0.16541761  0.16524820  0.16684642  1
  Te  Te109  1  0.16672179  0.16508387  0.49854855  1
  Te  Te110  1  0.17266094  0.16184641  0.83469706  1
  Te  Te111  1  0.16695952  0.50477788  0.16119504  1
  Te  Te112  1  0.17217379  0.50203063  0.49963286  1
  Te  Te113  1  0.16680632  0.49876385  0.84199698  1
  Te  Te114  1  0.16627220  0.83332104  0.16450930  1
  Te  Te115  1  0.16405123  0.83027932  0.50070091  1
  Te  Te116  1  0.17069750  0.83845496  0.83886089  1
  Te  Te117  1  0.50406327  0.16142944  0.16677012  1
  Te  Te118  1  0.50062560  0.16465164  0.50072508  1
  Te  Te119  1  0.49384001  0.16643565  0.83149078  1
  Te  Te120  1  0.50598307  0.50220379  0.16129420  1
  Te  Te121  1  0.49509952  0.50242171  0.49930080  1
  Te  Te122  1  0.50360841  0.49866124  0.83728438  1
  Te  Te123  1  0.49726543  0.83355152  0.16551779  1
  Te  Te124  1  0.50182955  0.83160678  0.50303625  1
  Te  Te125  1  0.49954274  0.83282299  0.83309920  1
  Te  Te126  1  0.83214276  0.16986696  0.16967836  1
  Te  Te127  1  0.83291492  0.16666673  0.49543365  1
  Te  Te128  1  0.83354179  0.16724691  0.83092395  1
  Te  Te129  1  0.82959636  0.49745010  0.16513284  1
  Te  Te130  1  0.83223501  0.49787273  0.49646209  1
  Te  Te131  1  0.82466285  0.49947927  0.83957004  1
  Te  Te132  1  0.83855169  0.83265654  0.16044397  1
  Te  Te133  1  0.83401778  0.83426416  0.50067605  1
  Te  Te134  1  0.82937577  0.83397032  0.83962753  1
  Te  Te135  1  0.16759889  0.00078654  0.00311629  1
  Te  Te136  1  0.16523674  0.00488943  0.32766846  1
  Te  Te137  1  0.16689173  -0.00118182  0.67523363  1
  Te  Te138  1  0.16646824  0.33203018  -0.00065789  1
  Te  Te139  1  0.16207631  0.33077784  0.33692278  1
  Te  Te140  1  0.16647288  0.33538296  0.65817649  1
  Te  Te141  1  0.16824273  0.66805065  0.00158906  1
  Te  Te142  1  0.16958841  0.66604120  0.33268013  1
  Te  Te143  1  0.16547721  0.66644976  0.66156481  1
  Te  Te144  1  0.50371481  0.00167125  0.00128320  1
  Te  Te145  1  0.50469427  -0.00114098  0.33199980  1
  Te  Te146  1  0.50047758  -0.00761263  0.66876563  1
  Te  Te147  1  0.50100347  0.33649992  -0.00075618  1
  Te  Te148  1  0.49899006  0.33550695  0.34059391  1
  Te  Te149  1  0.50006014  0.33355063  0.66449340  1
  Te  Te150  1  0.49567848  0.66267071  0.00125697  1
  Te  Te151  1  0.50020735  0.66578679  0.33237908  1
  Te  Te152  1  0.50020611  0.66925978  0.66593579  1
  Te  Te153  1  0.82603649  -0.00336977  0.00023457  1
  Te  Te154  1  0.83158998  0.00446254  0.33320564  1
  Te  Te155  1  0.83372187  0.00738970  0.66836953  1
  Te  Te156  1  0.83332002  0.33631568  0.00564170  1
  Te  Te157  1  0.83716483  0.33218055  0.32792174  1
  Te  Te158  1  0.83347791  0.32830815  0.66893540  1
  Te  Te159  1  0.84043092  0.66499849  -0.00095283  1
  Te  Te160  1  0.82790350  0.66254912  0.33203282  1
  Te  Te161  1  0.83688295  0.66604276  0.66770193  1
  Te  Te162  1  0.00429527  0.16912913  0.00405937  1
  Te  Te163  1  0.00049143  0.16596296  0.33147192  1
  Te  Te164  1  -0.00419122  0.16596799  0.66413521  1
  Te  Te165  1  0.00121367  0.49988009  0.00001237  1
  Te  Te166  1  -0.00649205  0.49594460  0.33244209  1
  Te  Te167  1  -0.00129110  0.50800800  0.66781158  1
  Te  Te168  1  0.00177561  0.83216592  0.00246538  1
  Te  Te169  1  -0.00168970  0.83632780  0.33322438  1
  Te  Te170  1  -0.00206044  0.82873421  0.66378355  1
  Te  Te171  1  0.32800161  0.17070537  -0.00067750  1
  Te  Te172  1  0.32930262  0.16673506  0.33751363  1
  Te  Te173  1  0.33317625  0.16765630  0.66507104  1
  Te  Te174  1  0.33384393  0.50037099  0.00002596  1
  Te  Te175  1  0.33197728  0.50474739  0.33815582  1
  Te  Te176  1  0.33333369  0.50736570  0.66050622  1
  Te  Te177  1  0.33055572  0.83010627  -0.00064027  1
  Te  Te178  1  0.33279705  0.82719836  0.32726329  1
  Te  Te179  1  0.33784842  0.82760436  0.67178574  1
  Te  Te180  1  0.66733286  0.16708103  0.00307569  1
  Te  Te181  1  0.66640671  0.16424798  0.33234765  1
  Te  Te182  1  0.67074319  0.16721020  0.66254645  1
  Te  Te183  1  0.66638394  0.50113384  0.00134090  1
  Te  Te184  1  0.67152595  0.50131778  0.32890212  1
  Te  Te185  1  0.66835243  0.50766593  0.67104052  1
  Te  Te186  1  0.66942754  0.83433896  -0.00219066  1
  Te  Te187  1  0.66926159  0.83449809  0.33769482  1
  Te  Te188  1  0.66556304  0.82905193  0.66512559  1
  Te  Te189  1  0.00101168  0.00065565  0.17007903  1
  Te  Te190  1  0.00214270  -0.00059913  0.49386834  1
  Te  Te191  1  0.00384556  -0.00034072  0.83281037  1
  Te  Te192  1  -0.00225807  0.33145192  0.16563573  1
  Te  Te193  1  0.00286412  0.33017150  0.49859103  1
  Te  Te194  1  0.00135013  0.33360057  0.83852754  1
  Te  Te195  1  0.00369147  0.67004531  0.16296937  1
  Te  Te196  1  0.00168354  0.66948344  0.49864583  1
  Te  Te197  1  0.00250439  0.66781280  0.83512637  1
  Te  Te198  1  0.33547765  -0.00568500  0.16679808  1
  Te  Te199  1  0.34036435  0.00310347  0.49994536  1
  Te  Te200  1  0.33637202  -0.00070023  0.83342455  1
  Te  Te201  1  0.33415431  0.33340381  0.16081462  1
  Te  Te202  1  0.33377920  0.33084696  0.49920440  1
  Te  Te203  1  0.33891440  0.33271867  0.83678727  1
  Te  Te204  1  0.33447441  0.66772879  0.16558495  1
  Te  Te205  1  0.33453113  0.66937698  0.49853548  1
  Te  Te206  1  0.33835417  0.66907344  0.83488469  1
  Te  Te207  1  0.66430068  0.00025224  0.16765803  1
  Te  Te208  1  0.66100605  -0.00024230  0.49827342  1
  Te  Te209  1  0.66099372  -0.00384923  0.83603185  1
  Te  Te210  1  0.66827394  0.33136052  0.16264686  1
  Te  Te211  1  0.66204309  0.33099495  0.50073037  1
  Te  Te212  1  0.65974341  0.33349382  0.83793356  1
  Te  Te213  1  0.66205236  0.66637442  0.17117013  1
  Te  Te214  1  0.66347238  0.66818225  0.49811947  1
  Te  Te215  1  0.66048040  0.66845773  0.83381693  1
