# generated using pymatgen
data_AgSbTe2
_symmetry_space_group_name_H-M   'P 1'
_cell_length_a   18.32368070
_cell_length_b   18.32312410
_cell_length_c   18.32371932
_cell_angle_alpha   89.99907554
_cell_angle_beta   90.00148159
_cell_angle_gamma   89.99888592
_symmetry_Int_Tables_number   1
_chemical_formula_structural   AgSbTe2
_chemical_formula_sum   'Ag54 Sb54 Te108'
_cell_volume   6152.13516466
_cell_formula_units_Z   54
loop_
 _symmetry_equiv_pos_site_id
 _symmetry_equiv_pos_as_xyz
  1  'x, y, z'
loop_
 _atom_site_type_symbol
 _atom_site_label
 _atom_site_symmetry_multiplicity
 _atom_site_fract_x
 _atom_site_fract_y
 _atom_site_fract_z
 _atom_site_occupancy
  Ag  Ag0  1  0.83427718  0.67150817  0.50988003  1
  Ag  Ag1  1  -0.01041875  0.84158151  0.50441886  1
  Ag  Ag2  1  0.49933733  -0.00218280  0.50729079  1
  Ag  Ag3  1  0.51163524  0.33167445  0.17044035  1
  Ag  Ag4  1  -0.00128843  0.15977594  0.51045641  1
  Ag  Ag5  1  0.67172698  0.33569276  0.00817327  1
  Ag  Ag6  1  0.33563574  0.15469326  0.83167901  1
  Ag  Ag7  1  -0.00927763  0.49657478  0.16365488  1
  Ag  Ag8  1  0.17192951  0.67169175  0.15816813  1
  Ag  Ag9  1  0.83281630  -0.00708928  0.50445279  1
  Ag  Ag10  1  0.32799181  0.67275803  -0.00140733  1
  Ag  Ag11  1  0.66570815  0.33264870  0.32052580  1
  Ag  Ag12  1  0.82310040  0.33931798  0.16648021  1
  Ag  Ag13  1  0.16677500  -0.00238707  0.51147421  1
  Ag  Ag14  1  0.33568892  0.49961922  0.50552193  1
  Ag  Ag15  1  0.82854298  0.83294393  0.66699464  1
  Ag  Ag16  1  0.33790289  0.50187378  0.83254720  1
  Ag  Ag17  1  0.67110079  0.49002203  0.16009614  1
  Ag  Ag18  1  0.83154447  0.49696646  0.32496304  1
  Ag  Ag19  1  0.50483024  0.15748519  0.66782364  1
  Ag  Ag20  1  0.17765824  -0.00509890  0.16451480  1
  Ag  Ag21  1  0.16652691  0.83755413  0.66943957  1
  Ag  Ag22  1  0.49600180  0.66779574  0.16570751  1
  Ag  Ag23  1  0.00091694  0.16916141  0.82850268  1
  Ag  Ag24  1  0.00001669  0.66240391  -0.00061249  1
  Ag  Ag25  1  0.83541213  0.66726289  0.83236672  1
  Ag  Ag26  1  0.67061404  0.83794246  0.51067414  1
  Ag  Ag27  1  0.33460942  -0.00723473  -0.00111978  1
  Ag  Ag28  1  -0.00818767  0.33881236  -0.00071396  1
  Ag  Ag29  1  -0.00442655  0.00090867  0.66373780  1
  Ag  Ag30  1  -0.00649080  0.32727770  0.67212909  1
  Ag  Ag31  1  0.16749705  0.67007912  0.83824009  1
  Ag  Ag32  1  0.66479087  0.16974549  0.83072596  1
  Ag  Ag33  1  0.49995427  0.16182898  0.33458613  1
  Ag  Ag34  1  0.33649751  0.83775579  0.83656449  1
  Ag  Ag35  1  -0.00511693  0.33345762  0.33090585  1
  Ag  Ag36  1  0.66281986  -0.00277032  0.66770582  1
  Ag  Ag37  1  0.83261390  0.82645669  -0.01027515  1
  Ag  Ag38  1  0.33897599  0.00192106  0.32818310  1
  Ag  Ag39  1  0.83270860  0.50182054  -0.00021968  1
  Ag  Ag40  1  0.66734760  0.49612537  0.83143900  1
  Ag  Ag41  1  0.16450939  0.32783850  0.83248480  1
  Ag  Ag42  1  0.17578607  -0.00285555  0.82998758  1
  Ag  Ag43  1  0.82816605  0.50295626  0.66992605  1
  Ag  Ag44  1  0.50833925  0.49890297  0.66855083  1
  Ag  Ag45  1  0.50879629  0.84089078  0.66731630  1
  Ag  Ag46  1  0.34142160  0.32981421  0.33008204  1
  Ag  Ag47  1  0.49513494  0.00001586  0.82613524  1
  Ag  Ag48  1  0.66334475  0.83630867  0.82766437  1
  Ag  Ag49  1  0.33646645  0.83772768  0.15975975  1
  Ag  Ag50  1  0.49935517  0.84479487  0.33571788  1
  Ag  Ag51  1  0.49632313  -0.00128572  0.17074914  1
  Ag  Ag52  1  0.66174666  0.17714763  0.16315015  1
  Ag  Ag53  1  0.66858829  0.33128100  0.66963782  1
  Sb  Sb54  1  0.50058438  0.32838975  0.49776618  1
  Sb  Sb55  1  0.00376967  -0.00092815  -0.00662237  1
  Sb  Sb56  1  0.00053335  0.83612850  0.82793803  1
  Sb  Sb57  1  -0.00376472  0.49647589  0.83682006  1
  Sb  Sb58  1  0.50133802  0.32872433  0.83396031  1
  Sb  Sb59  1  0.16610130  0.16034935  0.66969059  1
  Sb  Sb60  1  0.16533562  0.33381701  0.16204144  1
  Sb  Sb61  1  0.33667466  -0.00106167  0.67014741  1
  Sb  Sb62  1  0.33494725  0.33373802  0.66703196  1
  Sb  Sb63  1  0.33697284  0.50306598  0.16305586  1
  Sb  Sb64  1  0.33247977  0.16537396  0.50390950  1
  Sb  Sb65  1  0.66696187  0.66149888  0.33141240  1
  Sb  Sb66  1  0.16652608  0.83212525  -0.00581953  1
  Sb  Sb67  1  -0.00357106  0.66902739  0.67217084  1
  Sb  Sb68  1  0.16301916  0.67258051  0.50275491  1
  Sb  Sb69  1  0.83297552  0.65969236  0.16216971  1
  Sb  Sb70  1  0.82731619  0.82918955  0.33944976  1
  Sb  Sb71  1  0.50338963  0.49695434  0.33525856  1
  Sb  Sb72  1  0.00376465  0.83020139  0.16802521  1
  Sb  Sb73  1  0.50071756  0.83388949  -0.00291070  1
  Sb  Sb74  1  0.83314235  0.33529255  0.49864337  1
  Sb  Sb75  1  0.16500447  0.49890800  0.33283700  1
  Sb  Sb76  1  0.16504901  0.32880956  0.50501721  1
  Sb  Sb77  1  -0.00366975  0.17157366  0.16484881  1
  Sb  Sb78  1  0.49911793  0.67057913  0.83594912  1
  Sb  Sb79  1  0.17211337  0.16580954  0.33387444  1
  Sb  Sb80  1  -0.00056631  0.49941716  0.49862089  1
  Sb  Sb81  1  0.00473077  0.00558813  0.34161177  1
  Sb  Sb82  1  0.66778419  0.67070612  0.66840347  1
  Sb  Sb83  1  0.82993509  0.00234412  0.17007605  1
  Sb  Sb84  1  0.83117924  -0.00605544  0.82743034  1
  Sb  Sb85  1  0.83281673  0.33852096  0.83605653  1
  Sb  Sb86  1  0.33656199  0.83407095  0.50286834  1
  Sb  Sb87  1  0.16705542  0.16574752  -0.00283289  1
  Sb  Sb88  1  0.33268961  0.66739137  0.67393125  1
  Sb  Sb89  1  0.17201312  0.83678132  0.33610354  1
  Sb  Sb90  1  0.66242044  0.00288353  -0.00657442  1
  Sb  Sb91  1  0.83188899  0.16926572  -0.00157249  1
  Sb  Sb92  1  0.82826064  0.17191395  0.33517938  1
  Sb  Sb93  1  0.16451664  0.50220130  0.67046799  1
  Sb  Sb94  1  0.34036632  0.15951374  0.16337297  1
  Sb  Sb95  1  0.50365398  0.67238915  0.49808744  1
  Sb  Sb96  1  0.50100219  0.16577846  -0.00185551  1
  Sb  Sb97  1  0.66513329  0.50291993  0.50441622  1
  Sb  Sb98  1  -0.00184448  0.66275541  0.32857508  1
  Sb  Sb99  1  0.66875940  0.16192254  0.50347254  1
  Sb  Sb100  1  0.33517272  0.66839930  0.32756381  1
  Sb  Sb101  1  0.16110670  0.50253582  -0.00154433  1
  Sb  Sb102  1  0.66899698  0.66252929  -0.00197501  1
  Sb  Sb103  1  0.66093114  0.83426289  0.16335942  1
  Sb  Sb104  1  0.33550299  0.33363278  0.00014415  1
  Sb  Sb105  1  0.50591165  0.49999979  -0.00353035  1
  Sb  Sb106  1  0.65906429  0.00420317  0.33828999  1
  Sb  Sb107  1  0.83046541  0.16508042  0.66710520  1
  Te  Te108  1  0.16609145  0.15927553  0.16584084  1
  Te  Te109  1  0.16148413  0.15939051  0.50136456  1
  Te  Te110  1  0.16796548  0.16593078  0.83196559  1
  Te  Te111  1  0.16475077  0.50468798  0.16643377  1
  Te  Te112  1  0.17345267  0.50211631  0.50156963  1
  Te  Te113  1  0.17157936  0.50619503  0.83263850  1
  Te  Te114  1  0.17121787  0.83400425  0.16757021  1
  Te  Te115  1  0.16623381  0.83728304  0.50499731  1
  Te  Te116  1  0.16729058  0.83405529  0.82989140  1
  Te  Te117  1  0.50233264  0.16685802  0.16763133  1
  Te  Te118  1  0.49984617  0.16006506  0.50236972  1
  Te  Te119  1  0.50233857  0.16397432  0.83069876  1
  Te  Te120  1  0.50500007  0.49831135  0.16747938  1
  Te  Te121  1  0.49656035  0.50278461  0.50452630  1
  Te  Te122  1  0.50229487  0.50036507  0.82981248  1
  Te  Te123  1  0.49698747  0.83571021  0.16558042  1
  Te  Te124  1  0.50254330  0.83634730  0.50359818  1
  Te  Te125  1  0.50081103  0.83588501  0.83076706  1
  Te  Te126  1  0.82606134  0.17155658  0.16698665  1
  Te  Te127  1  0.83986538  0.15990048  0.49971916  1
  Te  Te128  1  0.83026248  0.16312648  0.83350325  1
  Te  Te129  1  0.83130018  0.49902952  0.16518946  1
  Te  Te130  1  0.83331094  0.50495432  0.50712313  1
  Te  Te131  1  0.83026043  0.50434703  0.83218510  1
  Te  Te132  1  0.83271730  0.83205882  0.16780587  1
  Te  Te133  1  0.83087971  0.83259077  0.50140987  1
  Te  Te134  1  0.83386241  0.82897142  0.83046823  1
  Te  Te135  1  0.17141793  -0.00100400  -0.00181182  1
  Te  Te136  1  0.17323498  0.00008881  0.32768006  1
  Te  Te137  1  0.16522641  -0.00320496  0.66920598  1
  Te  Te138  1  0.16277984  0.33390040  -0.00688193  1
  Te  Te139  1  0.16430339  0.33292767  0.33421139  1
  Te  Te140  1  0.16248097  0.33323488  0.67318184  1
  Te  Te141  1  0.16572664  0.66723390  -0.00082827  1
  Te  Te142  1  0.16643847  0.66784079  0.32730940  1
  Te  Te143  1  0.16412491  0.67400184  0.67182806  1
  Te  Te144  1  0.49481175  -0.00083640  0.00246404  1
  Te  Te145  1  0.49876530  0.00148768  0.33145794  1
  Te  Te146  1  0.50057162  -0.00171518  0.66708976  1
  Te  Te147  1  0.50472250  0.33348100  0.00813102  1
  Te  Te148  1  0.50144955  0.33088852  0.33172159  1
  Te  Te149  1  0.50284364  0.33805594  0.66567315  1
  Te  Te150  1  0.49363148  0.66690675  0.00620864  1
  Te  Te151  1  0.49985248  0.67027823  0.32753084  1
  Te  Te152  1  0.49945582  0.66339719  0.66603496  1
  Te  Te153  1  0.83414338  -0.00659287  0.00161435  1
  Te  Te154  1  0.83348072  -0.00098480  0.34004394  1
  Te  Te155  1  0.83530001  -0.00262683  0.66307951  1
  Te  Te156  1  0.83271024  0.33556989  0.00273786  1
  Te  Te157  1  0.83228422  0.33724355  0.33144245  1
  Te  Te158  1  0.83379439  0.33574192  0.66636755  1
  Te  Te159  1  0.83547829  0.66530738  -0.00282009  1
  Te  Te160  1  0.83395526  0.65853824  0.33605841  1
  Te  Te161  1  0.83387565  0.66744530  0.66966489  1
  Te  Te162  1  -0.00090433  0.17106555  -0.00537908  1
  Te  Te163  1  -0.00045220  0.17338999  0.33312924  1
  Te  Te164  1  -0.00038914  0.16592766  0.66869114  1
  Te  Te165  1  -0.00529063  0.49939820  0.00242241  1
  Te  Te166  1  -0.00425937  0.49458204  0.33019926  1
  Te  Te167  1  -0.00508449  0.49556905  0.66653395  1
  Te  Te168  1  -0.00731971  0.83058796  0.00087017  1
  Te  Te169  1  -0.00122642  0.83403023  0.33973390  1
  Te  Te170  1  -0.00432267  0.83540050  0.66286161  1
  Te  Te171  1  0.33372829  0.16456161  -0.00962589  1
  Te  Te172  1  0.33897565  0.16742835  0.33473649  1
  Te  Te173  1  0.34208674  0.16864070  0.67251487  1
  Te  Te174  1  0.33401073  0.50250139  -0.00595413  1
  Te  Te175  1  0.33396062  0.49514701  0.33325142  1
  Te  Te176  1  0.33387122  0.50017374  0.66972728  1
  Te  Te177  1  0.33314322  0.83330568  -0.00140998  1
  Te  Te178  1  0.33934586  0.83656152  0.33157147  1
  Te  Te179  1  0.33320134  0.83270865  0.67157872  1
  Te  Te180  1  0.66725762  0.17234180  -0.00353951  1
  Te  Te181  1  0.66134168  0.17238853  0.33322809  1
  Te  Te182  1  0.66449359  0.16629174  0.66915238  1
  Te  Te183  1  0.67155225  0.49672167  -0.00330501  1
  Te  Te184  1  0.67101258  0.49373388  0.33521936  1
  Te  Te185  1  0.66748469  0.49936850  0.66854899  1
  Te  Te186  1  0.67317647  0.83374535  -0.00516183  1
  Te  Te187  1  0.65898033  0.83326325  0.33294457  1
  Te  Te188  1  0.66780018  0.83504511  0.66971708  1
  Te  Te189  1  0.00036295  0.00112705  0.16626305  1
  Te  Te190  1  0.00328392  0.00028686  0.50249749  1
  Te  Te191  1  0.00344981  0.00536738  0.82921974  1
  Te  Te192  1  0.00076575  0.33622337  0.16471154  1
  Te  Te193  1  0.00103306  0.33019092  0.50045016  1
  Te  Te194  1  -0.00054473  0.33109035  0.83345587  1
  Te  Te195  1  0.00356470  0.66237367  0.16111287  1
  Te  Te196  1  -0.00387039  0.66941826  0.49906357  1
  Te  Te197  1  0.00122685  0.66644325  0.83890709  1
  Te  Te198  1  0.33535591  -0.00084208  0.16575259  1
  Te  Te199  1  0.33310684  -0.00027148  0.49443985  1
  Te  Te200  1  0.33490337  -0.00200568  0.83354083  1
  Te  Te201  1  0.33272042  0.33269998  0.16972512  1
  Te  Te202  1  0.33165644  0.33611866  0.49462311  1
  Te  Te203  1  0.33037003  0.33925343  0.83514906  1
  Te  Te204  1  0.33322653  0.66961219  0.16216213  1
  Te  Te205  1  0.33223145  0.66122027  0.49806314  1
  Te  Te206  1  0.33205169  0.66782057  0.83833258  1
  Te  Te207  1  0.66306055  0.00424114  0.16531626  1
  Te  Te208  1  0.66429335  -0.00259062  0.50451309  1
  Te  Te209  1  0.66414335  -0.00107582  0.82945252  1
  Te  Te210  1  0.66741176  0.33419835  0.16469471  1
  Te  Te211  1  0.66728545  0.33306795  0.50995119  1
  Te  Te212  1  0.66599633  0.33355109  0.82855321  1
  Te  Te213  1  0.66031392  0.66380252  0.16553909  1
  Te  Te214  1  0.67238569  0.67399195  0.49775231  1
  Te  Te215  1  0.66926498  0.66561099  0.83503010  1
