# generated using pymatgen
data_AgSbTe2
_symmetry_space_group_name_H-M   'P 1'
_cell_length_a   18.31319858
_cell_length_b   18.31463243
_cell_length_c   18.30944688
_cell_angle_alpha   90.00139367
_cell_angle_beta   90.00012312
_cell_angle_gamma   89.99941558
_symmetry_Int_Tables_number   1
_chemical_formula_structural   AgSbTe2
_chemical_formula_sum   'Ag54 Sb54 Te108'
_cell_volume   6140.97933685
_cell_formula_units_Z   54
loop_
 _symmetry_equiv_pos_site_id
 _symmetry_equiv_pos_as_xyz
  1  'x, y, z'
loop_
 _atom_site_type_symbol
 _atom_site_label
 _atom_site_symmetry_multiplicity
 _atom_site_fract_x
 _atom_site_fract_y
 _atom_site_fract_z
 _atom_site_occupancy
  Ag  Ag0  1  0.82851779  0.00001409  0.82864376  1
  Ag  Ag1  1  0.16683686  0.33392127  0.16771741  1
  Ag  Ag2  1  0.00089150  0.67274609  0.33079586  1
  Ag  Ag3  1  0.82845849  0.16357545  0.33857556  1
  Ag  Ag4  1  0.66996272  0.84375045  0.49927627  1
  Ag  Ag5  1  0.83200501  0.16853814  0.00096067  1
  Ag  Ag6  1  0.33811583  0.16900065  0.16689948  1
  Ag  Ag7  1  0.49671477  0.33025495  0.17007019  1
  Ag  Ag8  1  0.66942388  0.00176090  0.66764395  1
  Ag  Ag9  1  0.50236427  0.32991353  0.83356203  1
  Ag  Ag10  1  0.49697003  0.16468138  0.66243775  1
  Ag  Ag11  1  0.32935848  0.32240562  0.66440274  1
  Ag  Ag12  1  0.17049747  0.66391869  0.16108400  1
  Ag  Ag13  1  0.00117707  0.83606737  0.83376463  1
  Ag  Ag14  1  0.17021942  0.16258143  0.67074576  1
  Ag  Ag15  1  -0.00272561  -0.00285928  0.33927976  1
  Ag  Ag16  1  0.83644256  0.49413995  0.00035991  1
  Ag  Ag17  1  0.67033646  0.84359273  0.83162090  1
  Ag  Ag18  1  0.83144259  0.32349317  0.83416324  1
  Ag  Ag19  1  0.83765082  0.67882767  0.83232205  1
  Ag  Ag20  1  0.66661275  0.16235669  0.16858128  1
  Ag  Ag21  1  0.49962000  0.49736277  0.33150473  1
  Ag  Ag22  1  0.83075079  0.83777598  0.33490283  1
  Ag  Ag23  1  0.16845792  0.84360845  0.67168674  1
  Ag  Ag24  1  0.16680396  0.67620043  0.83719016  1
  Ag  Ag25  1  0.83243990  0.67100879  0.49942215  1
  Ag  Ag26  1  -0.00379082  0.83022362  0.16943764  1
  Ag  Ag27  1  0.00369786  0.32282714  0.66336598  1
  Ag  Ag28  1  0.67040841  0.84037036  0.17285144  1
  Ag  Ag29  1  0.67073571  0.16025429  0.83201869  1
  Ag  Ag30  1  0.51124491  0.00349441  0.50115965  1
  Ag  Ag31  1  0.33566207  0.33310659  0.33278421  1
  Ag  Ag32  1  0.50611406  0.83561235  0.33279585  1
  Ag  Ag33  1  0.16468290  0.16778430  -0.00334859  1
  Ag  Ag34  1  0.32883754  0.67138025  0.00190410  1
  Ag  Ag35  1  0.16408583  -0.00462531  0.82964679  1
  Ag  Ag36  1  0.66934757  0.49409095  0.49884359  1
  Ag  Ag37  1  0.83479660  0.32890675  0.16673594  1
  Ag  Ag38  1  0.83594354  0.32131420  0.49929758  1
  Ag  Ag39  1  0.49281487  0.66440957  0.17234889  1
  Ag  Ag40  1  0.82923463  0.00460057  0.50354768  1
  Ag  Ag41  1  0.66792251  0.00231617  -0.00852993  1
  Ag  Ag42  1  0.33106275  0.67505189  0.67086636  1
  Ag  Ag43  1  0.33376328  0.66581944  0.32823856  1
  Ag  Ag44  1  0.32885004  0.00271269  0.67161693  1
  Ag  Ag45  1  0.32640018  0.83582319  0.83045350  1
  Ag  Ag46  1  0.00019621  0.00375725  0.66604007  1
  Ag  Ag47  1  0.16272657  0.33057366  0.50296823  1
  Ag  Ag48  1  0.16404180  0.49793958  0.00264511  1
  Ag  Ag49  1  0.67176315  0.16226301  0.50007524  1
  Ag  Ag50  1  0.50536630  0.16633684  0.33442777  1
  Ag  Ag51  1  0.33462514  -0.00134012  -0.00883246  1
  Ag  Ag52  1  0.00086013  0.50127313  0.16739313  1
  Ag  Ag53  1  -0.00907266  0.16551968  0.50139042  1
  Sb  Sb54  1  -0.00565249  0.16130359  0.82574563  1
  Sb  Sb55  1  0.66349132  0.67499194  0.66556304  1
  Sb  Sb56  1  0.49630365  0.84144242  0.66327665  1
  Sb  Sb57  1  0.83628932  0.83737060  0.66517662  1
  Sb  Sb58  1  0.83335514  0.49778550  0.66870939  1
  Sb  Sb59  1  0.66310847  0.32888239  0.33354589  1
  Sb  Sb60  1  -0.00278771  0.16673689  0.17124282  1
  Sb  Sb61  1  0.16758775  0.83463245  -0.00688437  1
  Sb  Sb62  1  0.16725495  0.49732874  0.67218648  1
  Sb  Sb63  1  0.83016850  0.49830914  0.33116586  1
  Sb  Sb64  1  0.49737209  0.66645534  0.83637460  1
  Sb  Sb65  1  0.66980539  0.49812616  0.82952179  1
  Sb  Sb66  1  0.16307602  0.66263704  0.50055026  1
  Sb  Sb67  1  0.49975726  0.49378386  0.66152669  1
  Sb  Sb68  1  0.33171722  0.33008189  0.00092181  1
  Sb  Sb69  1  0.66665677  0.67083846  0.33338429  1
  Sb  Sb70  1  0.33527356  0.16681884  0.50007486  1
  Sb  Sb71  1  0.83233362  0.00446555  0.16816202  1
  Sb  Sb72  1  0.16267108  0.00557032  0.50862506  1
  Sb  Sb73  1  0.16576246  0.00028987  0.16066252  1
  Sb  Sb74  1  0.50278403  0.16555028  0.00206503  1
  Sb  Sb75  1  0.66962563  0.49803100  0.16953990  1
  Sb  Sb76  1  0.16420937  0.83246118  0.33680284  1
  Sb  Sb77  1  0.00270420  0.67048791  0.66486391  1
  Sb  Sb78  1  0.33723089  0.83404825  0.50365488  1
  Sb  Sb79  1  0.33326831  0.83369413  0.16426731  1
  Sb  Sb80  1  0.66675426  0.32305698  0.66547634  1
  Sb  Sb81  1  0.50324864  0.00438600  0.82761224  1
  Sb  Sb82  1  0.33270835  0.50379384  0.83434433  1
  Sb  Sb83  1  -0.00563731  0.49534738  0.49497881  1
  Sb  Sb84  1  0.50186489  0.32695293  0.49672572  1
  Sb  Sb85  1  0.33727389  0.49838156  0.49781569  1
  Sb  Sb86  1  -0.00195652  0.33253439  -0.00252053  1
  Sb  Sb87  1  0.66987370  0.32661105  -0.00009954  1
  Sb  Sb88  1  0.33132844  0.00106765  0.33482759  1
  Sb  Sb89  1  0.32817348  0.49653330  0.16672922  1
  Sb  Sb90  1  0.16884667  0.49919112  0.32790791  1
  Sb  Sb91  1  0.50435702  0.67053822  0.49413242  1
  Sb  Sb92  1  0.83221544  0.83708835  0.00028442  1
  Sb  Sb93  1  -0.00104900  0.00101935  -0.00436245  1
  Sb  Sb94  1  0.16624370  0.16775773  0.33433211  1
  Sb  Sb95  1  0.67263705  0.00078501  0.33866320  1
  Sb  Sb96  1  0.66517153  0.67190791  0.00009338  1
  Sb  Sb97  1  0.83553301  0.66561798  0.16630808  1
  Sb  Sb98  1  0.33608937  0.16187317  0.83442711  1
  Sb  Sb99  1  0.50285083  0.00251208  0.17277107  1
  Sb  Sb100  1  -0.00147400  0.50400000  0.83741225  1
  Sb  Sb101  1  0.83258310  0.16430585  0.66313472  1
  Sb  Sb102  1  0.49940770  0.49997903  0.00632707  1
  Sb  Sb103  1  0.00522208  0.66628704  0.00484103  1
  Sb  Sb104  1  0.50025626  0.83478148  0.00485881  1
  Sb  Sb105  1  0.00156952  0.33131305  0.33565851  1
  Sb  Sb106  1  0.16518673  0.32918321  0.83326557  1
  Sb  Sb107  1  -0.00668661  0.84016592  0.49969040  1
  Te  Te108  1  0.16707522  0.16830461  0.16470565  1
  Te  Te109  1  0.16559154  0.17208321  0.50275849  1
  Te  Te110  1  0.16516740  0.16275017  0.83418850  1
  Te  Te111  1  0.16227186  0.50044677  0.16258214  1
  Te  Te112  1  0.16495082  0.49138627  0.50068849  1
  Te  Te113  1  0.16522308  0.50576555  0.84140118  1
  Te  Te114  1  0.16249914  0.83044636  0.16795903  1
  Te  Te115  1  0.16579157  0.83149010  0.50804101  1
  Te  Te116  1  0.16615457  0.83413700  0.83181470  1
  Te  Te117  1  0.50257447  0.16901492  0.16897357  1
  Te  Te118  1  0.50240945  0.16369864  0.49795886  1
  Te  Te119  1  0.50512516  0.17103558  0.83195862  1
  Te  Te120  1  0.50170049  0.49756175  0.17203677  1
  Te  Te121  1  0.50754094  0.49914404  0.49323384  1
  Te  Te122  1  0.50171196  0.49130291  0.83419882  1
  Te  Te123  1  0.50239813  0.83167445  0.17226123  1
  Te  Te124  1  0.50575384  0.83815386  0.49526004  1
  Te  Te125  1  0.50515028  0.83158980  0.83249627  1
  Te  Te126  1  0.83103746  0.17021004  0.16563747  1
  Te  Te127  1  0.83178489  0.16483435  0.49943794  1
  Te  Te128  1  0.83098981  0.16476054  0.83511490  1
  Te  Te129  1  0.83638082  0.49436705  0.16313239  1
  Te  Te130  1  0.82765251  0.50223771  0.49946996  1
  Te  Te131  1  0.83318384  0.49689245  0.83963956  1
  Te  Te132  1  0.83225861  0.83365420  0.17066238  1
  Te  Te133  1  0.82996583  0.83456767  0.49726917  1
  Te  Te134  1  0.83247898  0.83619415  0.83340227  1
  Te  Te135  1  0.16988933  0.00547833  -0.00706234  1
  Te  Te136  1  0.15930145  -0.00027419  0.33430778  1
  Te  Te137  1  0.16747159  0.00243311  0.66970870  1
  Te  Te138  1  0.16577394  0.33178827  0.00355017  1
  Te  Te139  1  0.17301257  0.33357820  0.32889644  1
  Te  Te140  1  0.16824183  0.33063535  0.66646287  1
  Te  Te141  1  0.16992734  0.66674221  0.00027865  1
  Te  Te142  1  0.16845078  0.66559007  0.33117991  1
  Te  Te143  1  0.17122899  0.66516101  0.66917612  1
  Te  Te144  1  0.49554173  0.00027801  0.00040397  1
  Te  Te145  1  0.49679832  0.00150370  0.33987710  1
  Te  Te146  1  0.49945928  0.00524678  0.66160590  1
  Te  Te147  1  0.49975711  0.33453039  0.00245300  1
  Te  Te148  1  0.49586023  0.32863023  0.33077809  1
  Te  Te149  1  0.49526518  0.32745121  0.66754195  1
  Te  Te150  1  0.49285229  0.66542158  0.00688602  1
  Te  Te151  1  0.49779233  0.66994283  0.33050376  1
  Te  Te152  1  0.49203490  0.66413385  0.66613441  1
  Te  Te153  1  0.83074348  0.00486908  -0.00473061  1
  Te  Te154  1  0.83779648  0.00028066  0.33461031  1
  Te  Te155  1  0.83461023  -0.00039370  0.66793056  1
  Te  Te156  1  0.83415117  0.32983705  0.00033246  1
  Te  Te157  1  0.83396451  0.32971960  0.33335485  1
  Te  Te158  1  0.83651960  0.33218738  0.66604144  1
  Te  Te159  1  0.83360040  0.66378130  -0.00494116  1
  Te  Te160  1  0.83612502  0.66871122  0.33424959  1
  Te  Te161  1  0.83301896  0.66643886  0.66957753  1
  Te  Te162  1  0.00075842  0.16602408  0.00141613  1
  Te  Te163  1  -0.00433841  0.16340140  0.33864030  1
  Te  Te164  1  0.00438319  0.16472298  0.66269309  1
  Te  Te165  1  -0.00012141  0.49948333  0.00536352  1
  Te  Te166  1  -0.00078288  0.50498865  0.32730556  1
  Te  Te167  1  0.00085386  0.49537134  0.66521648  1
  Te  Te168  1  -0.00010614  0.83392437  0.00100947  1
  Te  Te169  1  -0.00208076  0.83326628  0.33283714  1
  Te  Te170  1  0.00602016  0.83726170  0.67037736  1
  Te  Te171  1  0.33055530  0.16347827  0.00322941  1
  Te  Te172  1  0.33610090  0.16836797  0.32897968  1
  Te  Te173  1  0.33318188  0.16479488  0.66734378  1
  Te  Te174  1  0.32877971  0.50652195  0.00023577  1
  Te  Te175  1  0.33898464  0.50043014  0.33277929  1
  Te  Te176  1  0.33419654  0.49962003  0.66569411  1
  Te  Te177  1  0.33392077  0.83542907  -0.00500882  1
  Te  Te178  1  0.33660822  0.83013690  0.33342983  1
  Te  Te179  1  0.33037587  0.83534536  0.67024138  1
  Te  Te180  1  0.66964019  0.16209879  0.00074369  1
  Te  Te181  1  0.66729711  0.16464732  0.33065591  1
  Te  Te182  1  0.66225996  0.16175821  0.66658660  1
  Te  Te183  1  0.67267227  0.50182667  -0.00044379  1
  Te  Te184  1  0.66145216  0.50094324  0.33822372  1
  Te  Te185  1  0.66530849  0.50155354  0.65903099  1
  Te  Te186  1  0.66659850  0.84008780  -0.00213192  1
  Te  Te187  1  0.66817062  0.83522508  0.33213481  1
  Te  Te188  1  0.66539076  0.84048335  0.66601077  1
  Te  Te189  1  -0.00011878  -0.00611702  0.16961084  1
  Te  Te190  1  -0.00342063  0.00463262  0.50329162  1
  Te  Te191  1  -0.00005630  -0.00427176  0.82961965  1
  Te  Te192  1  0.00107130  0.33512345  0.16767847  1
  Te  Te193  1  -0.00191238  0.32996244  0.50206188  1
  Te  Te194  1  -0.00479031  0.33453326  0.82507629  1
  Te  Te195  1  0.00189051  0.66924300  0.17034635  1
  Te  Te196  1  -0.00570767  0.66588792  0.49560539  1
  Te  Te197  1  -0.00077180  0.67225040  0.83164418  1
  Te  Te198  1  0.33309196  0.00543781  0.16454821  1
  Te  Te199  1  0.33366514  -0.00022131  0.50575634  1
  Te  Te200  1  0.33588850  -0.00328006  0.83197637  1
  Te  Te201  1  0.33299667  0.33019203  0.16681185  1
  Te  Te202  1  0.32981426  0.33322916  0.50009540  1
  Te  Te203  1  0.33511659  0.33266049  0.82966653  1
  Te  Te204  1  0.33186338  0.66735272  0.16773685  1
  Te  Te205  1  0.33287931  0.66578752  0.49842689  1
  Te  Te206  1  0.33215383  0.67094451  0.83292536  1
  Te  Te207  1  0.66633831  0.00020012  0.15984554  1
  Te  Te208  1  0.66984984  0.00140072  0.50195682  1
  Te  Te209  1  0.66633916  0.00090381  0.83181107  1
  Te  Te210  1  0.66820569  0.32927522  0.16688645  1
  Te  Te211  1  0.67259238  0.32841135  0.50042053  1
  Te  Te212  1  0.66955013  0.33020088  0.83239684  1
  Te  Te213  1  0.66249493  0.67094291  0.16533084  1
  Te  Te214  1  0.67267224  0.67282727  0.50151343  1
  Te  Te215  1  0.67058630  0.67036216  0.83285752  1
