# generated using pymatgen
data_AgSbTe2
_symmetry_space_group_name_H-M   'P 1'
_cell_length_a   18.33085585
_cell_length_b   18.32288454
_cell_length_c   18.33574061
_cell_angle_alpha   90.00019829
_cell_angle_beta   90.00147242
_cell_angle_gamma   90.00133446
_symmetry_Int_Tables_number   1
_chemical_formula_structural   AgSbTe2
_chemical_formula_sum   'Ag54 Sb54 Te108'
_cell_volume   6158.50138664
_cell_formula_units_Z   54
loop_
 _symmetry_equiv_pos_site_id
 _symmetry_equiv_pos_as_xyz
  1  'x, y, z'
loop_
 _atom_site_type_symbol
 _atom_site_label
 _atom_site_symmetry_multiplicity
 _atom_site_fract_x
 _atom_site_fract_y
 _atom_site_fract_z
 _atom_site_occupancy
  Ag  Ag0  1  0.00588991  0.66846045  -0.00016120  1
  Ag  Ag1  1  0.83742076  0.50647980  0.66438784  1
  Ag  Ag2  1  0.49247741  0.16241920  0.33304909  1
  Ag  Ag3  1  0.83707934  0.67157852  0.16601838  1
  Ag  Ag4  1  0.83685137  0.33582372  0.83706212  1
  Ag  Ag5  1  0.16560981  -0.01204969  0.82407568  1
  Ag  Ag6  1  0.66245164  0.16538981  0.50172048  1
  Ag  Ag7  1  0.67698636  -0.00167902  0.66513172  1
  Ag  Ag8  1  0.66905401  0.50940609  0.16823784  1
  Ag  Ag9  1  0.32902481  0.66588072  0.67125145  1
  Ag  Ag10  1  0.15486912  0.82271974  -0.00960748  1
  Ag  Ag11  1  0.32249054  0.50937993  0.83398798  1
  Ag  Ag12  1  -0.00863273  0.83055178  0.16278818  1
  Ag  Ag13  1  -0.00278224  0.50760376  0.50719267  1
  Ag  Ag14  1  0.82994789  -0.01480198  0.16633534  1
  Ag  Ag15  1  0.67331633  0.50275658  0.49714438  1
  Ag  Ag16  1  -0.00011261  0.33549127  0.33456523  1
  Ag  Ag17  1  0.33278899  0.16341898  0.49963247  1
  Ag  Ag18  1  0.33205056  0.66496863  0.33554337  1
  Ag  Ag19  1  0.83962758  0.66860832  0.49873236  1
  Ag  Ag20  1  0.15919555  0.83528350  0.67266290  1
  Ag  Ag21  1  0.48860265  0.66805247  0.83422163  1
  Ag  Ag22  1  0.50503195  0.83169742  0.33383160  1
  Ag  Ag23  1  0.84076917  0.16267036  0.66533450  1
  Ag  Ag24  1  0.33127178  0.17012708  0.83109190  1
  Ag  Ag25  1  0.16211132  0.66855066  0.15432005  1
  Ag  Ag26  1  0.83987664  0.83208066  0.66785428  1
  Ag  Ag27  1  0.83292756  0.83115307  0.32103302  1
  Ag  Ag28  1  -0.00459222  0.34199982  -0.00248793  1
  Ag  Ag29  1  0.16850661  0.66948566  0.84147775  1
  Ag  Ag30  1  0.49848727  -0.00324319  0.49639138  1
  Ag  Ag31  1  -0.00067691  -0.00676959  0.66637300  1
  Ag  Ag32  1  -0.00053630  0.82700524  0.50822329  1
  Ag  Ag33  1  0.49878012  0.16614750  0.00672344  1
  Ag  Ag34  1  0.66940081  0.66671485  0.00160132  1
  Ag  Ag35  1  0.31939908  0.66593769  -0.00284850  1
  Ag  Ag36  1  0.16291191  0.51004830  0.00029281  1
  Ag  Ag37  1  0.67827966  0.82793472  0.16109641  1
  Ag  Ag38  1  0.49799446  0.67060803  0.49722974  1
  Ag  Ag39  1  0.83860348  0.82804681  0.00855339  1
  Ag  Ag40  1  0.49670014  0.50860625  0.33457705  1
  Ag  Ag41  1  0.00324691  0.50698002  0.83078087  1
  Ag  Ag42  1  -0.00241099  0.33348737  0.66817986  1
  Ag  Ag43  1  0.16725648  -0.00466483  0.50578001  1
  Ag  Ag44  1  0.17309018  0.16854017  0.34081961  1
  Ag  Ag45  1  0.83469996  0.33671789  0.15984831  1
  Ag  Ag46  1  0.67739445  0.34148584  0.00161791  1
  Ag  Ag47  1  0.67780081  0.83056303  0.83810373  1
  Ag  Ag48  1  -0.00012777  0.82722905  0.83066300  1
  Ag  Ag49  1  0.16222439  0.15685725  0.66183666  1
  Ag  Ag50  1  0.16248848  0.67091159  0.50156223  1
  Ag  Ag51  1  0.33511615  0.16525047  0.17209319  1
  Ag  Ag52  1  0.50583234  0.00015275  0.17578787  1
  Ag  Ag53  1  0.16627018  0.50620396  0.33255750  1
  Sb  Sb54  1  0.67202836  0.33524467  0.32947186  1
  Sb  Sb55  1  0.32391786  0.33505176  0.66826834  1
  Sb  Sb56  1  0.00039302  -0.00699052  -0.00477191  1
  Sb  Sb57  1  0.50478023  0.50353372  0.66279880  1
  Sb  Sb58  1  0.50235581  0.83365082  0.00296231  1
  Sb  Sb59  1  0.83852540  0.66769348  0.83439603  1
  Sb  Sb60  1  0.50531996  0.33000707  0.16651255  1
  Sb  Sb61  1  0.50074270  0.83234840  0.66286740  1
  Sb  Sb62  1  0.15881429  0.33817511  0.83298558  1
  Sb  Sb63  1  0.67637509  0.33029518  0.67072015  1
  Sb  Sb64  1  0.66320912  0.16221143  0.83021164  1
  Sb  Sb65  1  0.50187358  0.33312762  0.49766024  1
  Sb  Sb66  1  0.16397949  0.82906224  0.33517744  1
  Sb  Sb67  1  0.83449552  -0.00686191  0.50063367  1
  Sb  Sb68  1  0.33227969  0.83296739  0.16740565  1
  Sb  Sb69  1  0.33296433  -0.00405738  -0.00062090  1
  Sb  Sb70  1  0.83621571  0.50602892  0.33501624  1
  Sb  Sb71  1  0.33503374  0.49938676  0.16491362  1
  Sb  Sb72  1  0.67128937  0.83053230  0.49912570  1
  Sb  Sb73  1  0.83837606  -0.00180994  0.83270849  1
  Sb  Sb74  1  0.32761381  -0.00335555  0.66577764  1
  Sb  Sb75  1  0.32743877  0.82883930  0.83308018  1
  Sb  Sb76  1  -0.00374166  0.50581609  0.16521951  1
  Sb  Sb77  1  0.67051273  0.50621343  0.83404022  1
  Sb  Sb78  1  0.15989618  0.50626862  0.66640010  1
  Sb  Sb79  1  0.49657127  0.16388127  0.66271274  1
  Sb  Sb80  1  0.66717323  -0.00347935  -0.00159851  1
  Sb  Sb81  1  0.66383828  0.16360967  0.16936218  1
  Sb  Sb82  1  0.83578236  0.33908991  0.50142616  1
  Sb  Sb83  1  0.33128533  0.50287141  0.50287314  1
  Sb  Sb84  1  0.32952300  0.33413505  0.33348227  1
  Sb  Sb85  1  0.83809551  0.50565042  -0.00211577  1
  Sb  Sb86  1  0.83018159  0.16724346  -0.00285923  1
  Sb  Sb87  1  0.16034251  0.33897233  0.16705334  1
  Sb  Sb88  1  0.50086244  0.67142085  0.16843777  1
  Sb  Sb89  1  0.16551272  -0.00553667  0.16860994  1
  Sb  Sb90  1  0.00101759  0.16511552  0.50290028  1
  Sb  Sb91  1  0.00101895  -0.00079611  0.33796186  1
  Sb  Sb92  1  0.00498401  0.66507812  0.33223575  1
  Sb  Sb93  1  0.33453184  -0.00211711  0.33430122  1
  Sb  Sb94  1  0.66414067  0.66673644  0.33110958  1
  Sb  Sb95  1  0.33045371  0.33621451  -0.00118976  1
  Sb  Sb96  1  0.50460749  0.33807948  0.83539399  1
  Sb  Sb97  1  0.83335944  0.16410916  0.33725705  1
  Sb  Sb98  1  0.17061124  0.16620679  -0.00170117  1
  Sb  Sb99  1  0.66734480  0.67094620  0.66886495  1
  Sb  Sb100  1  0.49546945  -0.00509857  0.83059953  1
  Sb  Sb101  1  0.16351692  0.33410244  0.50007352  1
  Sb  Sb102  1  0.00229372  0.16346991  0.16689938  1
  Sb  Sb103  1  0.00395319  0.16711584  0.83103383  1
  Sb  Sb104  1  0.66484621  -0.00106530  0.33723714  1
  Sb  Sb105  1  0.00387793  0.67013059  0.66985116  1
  Sb  Sb106  1  0.49876477  0.50078829  0.00352985  1
  Sb  Sb107  1  0.32890898  0.83218023  0.49978897  1
  Te  Te108  1  0.17126658  0.16519528  0.16902649  1
  Te  Te109  1  0.16592727  0.16615254  0.50009229  1
  Te  Te110  1  0.17105779  0.16801471  0.83226309  1
  Te  Te111  1  0.16673957  0.50634364  0.16907173  1
  Te  Te112  1  0.16376927  0.50318769  0.49806770  1
  Te  Te113  1  0.16396289  0.50370361  0.83279464  1
  Te  Te114  1  0.16493027  0.82878313  0.16667675  1
  Te  Te115  1  0.16274384  0.83434891  0.49915036  1
  Te  Te116  1  0.16506449  0.83067147  0.83270702  1
  Te  Te117  1  0.49857993  0.16296934  0.17016468  1
  Te  Te118  1  0.50059935  0.16548036  0.49678262  1
  Te  Te119  1  0.49514525  0.16556250  0.83348690  1
  Te  Te120  1  0.50512102  0.49916839  0.17245855  1
  Te  Te121  1  0.49962934  0.50356764  0.49544505  1
  Te  Te122  1  0.49914442  0.50636696  0.83352683  1
  Te  Te123  1  0.49974049  0.83933604  0.17090049  1
  Te  Te124  1  0.50134763  0.83284640  0.49564669  1
  Te  Te125  1  0.50223435  0.82866626  0.83378749  1
  Te  Te126  1  0.83340528  0.17187255  0.16718125  1
  Te  Te127  1  0.82961446  0.16473404  0.50409288  1
  Te  Te128  1  0.83221058  0.16915392  0.82805728  1
  Te  Te129  1  0.82882423  0.50046902  0.16720366  1
  Te  Te130  1  0.83519829  0.50564542  0.50161769  1
  Te  Te131  1  0.83782048  0.49856593  0.82873296  1
  Te  Te132  1  0.83416829  0.82844235  0.16459530  1
  Te  Te133  1  0.83681002  0.82876960  0.50827152  1
  Te  Te134  1  0.83669912  0.83375137  0.82738293  1
  Te  Te135  1  0.16692924  -0.00432012  -0.00198732  1
  Te  Te136  1  0.16698045  0.00473225  0.33799432  1
  Te  Te137  1  0.16569033  -0.00266754  0.66482319  1
  Te  Te138  1  0.16023413  0.33853965  0.00060216  1
  Te  Te139  1  0.16140919  0.33352291  0.33290093  1
  Te  Te140  1  0.15836895  0.32477755  0.66717207  1
  Te  Te141  1  0.16319272  0.66631858  -0.00176940  1
  Te  Te142  1  0.17129983  0.66543294  0.34355887  1
  Te  Te143  1  0.16966733  0.66964816  0.65902425  1
  Te  Te144  1  0.49955194  0.00471871  0.00079621  1
  Te  Te145  1  0.49965255  0.00099065  0.33574973  1
  Te  Te146  1  0.50139992  -0.00118373  0.66025448  1
  Te  Te147  1  0.50223366  0.32871627  -0.00000809  1
  Te  Te148  1  0.50054407  0.33141772  0.33243898  1
  Te  Te149  1  0.50060913  0.33376061  0.66756580  1
  Te  Te150  1  0.50740411  0.66697660  -0.00165956  1
  Te  Te151  1  0.49678462  0.66786332  0.33365676  1
  Te  Te152  1  0.49440731  0.66672636  0.66468101  1
  Te  Te153  1  0.83309452  -0.00304144  0.00444520  1
  Te  Te154  1  0.83338382  -0.00503104  0.32856924  1
  Te  Te155  1  0.83657821  -0.00012812  0.66656814  1
  Te  Te156  1  0.83466044  0.33255538  -0.00137738  1
  Te  Te157  1  0.83938284  0.33319689  0.32995784  1
  Te  Te158  1  0.83873697  0.33122913  0.66789755  1
  Te  Te159  1  0.83042841  0.66931377  0.00074846  1
  Te  Te160  1  0.83326352  0.67127283  0.33349792  1
  Te  Te161  1  0.83310586  0.66749740  0.66500593  1
  Te  Te162  1  0.00016806  0.17282054  -0.00013807  1
  Te  Te163  1  0.00312182  0.17163331  0.33453446  1
  Te  Te164  1  0.00067983  0.16661589  0.66636540  1
  Te  Te165  1  0.00219266  0.50303858  -0.00106853  1
  Te  Te166  1  0.00382044  0.49655170  0.33344158  1
  Te  Te167  1  -0.00248832  0.49855546  0.66771219  1
  Te  Te168  1  -0.00194668  0.83187173  -0.00188794  1
  Te  Te169  1  -0.00438214  0.83368181  0.33184812  1
  Te  Te170  1  0.00139036  0.83298043  0.66805397  1
  Te  Te171  1  0.33696857  0.16791923  -0.00222148  1
  Te  Te172  1  0.33269636  0.16738390  0.33540289  1
  Te  Te173  1  0.32854920  0.16747994  0.66512059  1
  Te  Te174  1  0.33004544  0.50403862  -0.00334979  1
  Te  Te175  1  0.33189396  0.50161265  0.33349564  1
  Te  Te176  1  0.33299704  0.50292634  0.67234946  1
  Te  Te177  1  0.33185165  0.82650810  0.00094449  1
  Te  Te178  1  0.33964159  0.82657742  0.33322942  1
  Te  Te179  1  0.32866598  0.82640152  0.66586054  1
  Te  Te180  1  0.66121671  0.16793589  -0.00082945  1
  Te  Te181  1  0.66384370  0.16794073  0.34068969  1
  Te  Te182  1  0.66779837  0.16279914  0.66293728  1
  Te  Te183  1  0.66653374  0.50110050  0.00209014  1
  Te  Te184  1  0.66359319  0.49918447  0.33451030  1
  Te  Te185  1  0.67368065  0.49916225  0.66334980  1
  Te  Te186  1  0.66902265  0.83104041  -0.00021144  1
  Te  Te187  1  0.66814470  0.83331513  0.32953003  1
  Te  Te188  1  0.66817067  0.83729323  0.66874505  1
  Te  Te189  1  -0.00420242  -0.00512129  0.16701300  1
  Te  Te190  1  0.00358105  -0.00450017  0.50491875  1
  Te  Te191  1  0.00563616  -0.00294227  0.82835311  1
  Te  Te192  1  -0.00489919  0.33272313  0.16374496  1
  Te  Te193  1  -0.00096178  0.34000942  0.50126411  1
  Te  Te194  1  -0.00465640  0.33440850  0.83361886  1
  Te  Te195  1  -0.00042374  0.66970685  0.16484877  1
  Te  Te196  1  -0.00121245  0.66700275  0.49817819  1
  Te  Te197  1  0.00366248  0.66645964  0.83704532  1
  Te  Te198  1  0.33625029  0.00565874  0.16635501  1
  Te  Te199  1  0.33403051  0.00323270  0.50037780  1
  Te  Te200  1  0.32746596  0.00659039  0.83273864  1
  Te  Te201  1  0.33230079  0.32594943  0.16566679  1
  Te  Te202  1  0.33369742  0.32482660  0.50159834  1
  Te  Te203  1  0.33592195  0.33311087  0.83334808  1
  Te  Te204  1  0.32993375  0.66473535  0.16518016  1
  Te  Te205  1  0.33679097  0.66570119  0.49757070  1
  Te  Te206  1  0.33083163  0.66664611  0.83467109  1
  Te  Te207  1  0.66714708  -0.00415897  0.16626901  1
  Te  Te208  1  0.66508496  0.00014339  0.50400305  1
  Te  Te209  1  0.66562994  -0.00611604  0.82722508  1
  Te  Te210  1  0.67270858  0.33345871  0.16189428  1
  Te  Te211  1  0.66806936  0.33726437  0.50082508  1
  Te  Te212  1  0.67246524  0.33378297  0.83951374  1
  Te  Te213  1  0.66687131  0.66796299  0.16421228  1
  Te  Te214  1  0.66343105  0.66297522  0.50130893  1
  Te  Te215  1  0.66633333  0.67082342  0.83669695  1
