# generated using pymatgen
data_AgSbTe2
_symmetry_space_group_name_H-M   'P 1'
_cell_length_a   18.30872808
_cell_length_b   18.31217183
_cell_length_c   18.31210446
_cell_angle_alpha   89.99882391
_cell_angle_beta   90.00364336
_cell_angle_gamma   90.00135465
_symmetry_Int_Tables_number   1
_chemical_formula_structural   AgSbTe2
_chemical_formula_sum   'Ag54 Sb54 Te108'
_cell_volume   6139.54639394
_cell_formula_units_Z   54
loop_
 _symmetry_equiv_pos_site_id
 _symmetry_equiv_pos_as_xyz
  1  'x, y, z'
loop_
 _atom_site_type_symbol
 _atom_site_label
 _atom_site_symmetry_multiplicity
 _atom_site_fract_x
 _atom_site_fract_y
 _atom_site_fract_z
 _atom_site_occupancy
  Ag  Ag0  1  0.83543552  0.83498225  0.00341301  1
  Ag  Ag1  1  -0.00545641  0.66853759  0.66786607  1
  Ag  Ag2  1  0.50814342  0.00045880  0.50426158  1
  Ag  Ag3  1  -0.00636838  0.32931224  0.66185423  1
  Ag  Ag4  1  0.66408738  0.66190701  0.33814215  1
  Ag  Ag5  1  0.50808260  0.67145509  0.50344285  1
  Ag  Ag6  1  0.66850528  0.00207572  0.66930771  1
  Ag  Ag7  1  0.16743573  0.16538677  -0.00154696  1
  Ag  Ag8  1  0.66751038  0.50390218  0.17361369  1
  Ag  Ag9  1  0.50778968  0.51014798  0.66400946  1
  Ag  Ag10  1  0.16850974  0.49649694  0.33212285  1
  Ag  Ag11  1  0.16441960  0.33019524  0.83119650  1
  Ag  Ag12  1  0.34138163  0.66390425  0.33533748  1
  Ag  Ag13  1  0.82931591  0.16582896  0.33327453  1
  Ag  Ag14  1  -0.00294892  0.16573572  0.16710657  1
  Ag  Ag15  1  0.16378234  0.33157543  0.49955860  1
  Ag  Ag16  1  0.33917391  0.00743576  0.33305942  1
  Ag  Ag17  1  0.50157029  0.67463284  0.82125118  1
  Ag  Ag18  1  -0.00000587  0.33002302  0.33685792  1
  Ag  Ag19  1  0.66714193  0.82990642  0.49859218  1
  Ag  Ag20  1  0.33338248  0.33326224  0.33124158  1
  Ag  Ag21  1  -0.00424924  0.83764803  0.83811837  1
  Ag  Ag22  1  0.66356600  0.32466710  -0.00007793  1
  Ag  Ag23  1  0.50192241  0.16416299  0.33618191  1
  Ag  Ag24  1  -0.00563600  0.16132562  0.83041566  1
  Ag  Ag25  1  0.82482309  0.67271757  0.49958027  1
  Ag  Ag26  1  0.66942794  0.32934039  0.66374438  1
  Ag  Ag27  1  0.33736607  0.16691646  0.49652600  1
  Ag  Ag28  1  0.82797972  0.50677910  0.66320246  1
  Ag  Ag29  1  -0.01208367  0.00156419  0.66880824  1
  Ag  Ag30  1  -0.00529653  0.50116044  0.16905071  1
  Ag  Ag31  1  -0.00251095  0.67484799  -0.00151529  1
  Ag  Ag32  1  0.33696561  0.50318609  0.17210313  1
  Ag  Ag33  1  0.66683006  0.50553059  0.49854026  1
  Ag  Ag34  1  0.50221889  0.16393190  -0.00085929  1
  Ag  Ag35  1  0.66647391  0.00350216  -0.00677519  1
  Ag  Ag36  1  0.82836494  -0.00723344  0.16629820  1
  Ag  Ag37  1  0.66623027  0.33522774  0.33557769  1
  Ag  Ag38  1  0.50953321  0.00107634  0.82573356  1
  Ag  Ag39  1  0.50744317  -0.00040424  0.16862247  1
  Ag  Ag40  1  0.66770203  0.16143064  0.83222659  1
  Ag  Ag41  1  0.00026504  0.16894371  0.50317245  1
  Ag  Ag42  1  0.33710077  0.83177832  0.16701774  1
  Ag  Ag43  1  0.82767256  -0.00154489  0.82574617  1
  Ag  Ag44  1  -0.01209702  0.83344278  0.16037895  1
  Ag  Ag45  1  0.34708200  0.66725769  0.65964673  1
  Ag  Ag46  1  0.50937718  0.83233140  0.66573829  1
  Ag  Ag47  1  0.50481850  0.16099773  0.66535173  1
  Ag  Ag48  1  0.33550002  0.33037152  0.00670560  1
  Ag  Ag49  1  0.82484256  -0.00409284  0.50692720  1
  Ag  Ag50  1  0.15463812  0.83901352  0.00170746  1
  Ag  Ag51  1  0.83250301  0.67346851  0.17164229  1
  Ag  Ag52  1  0.67081858  0.83543100  0.17039664  1
  Ag  Ag53  1  0.82882378  0.83658432  0.66747350  1
  Sb  Sb54  1  0.33649898  0.16640169  0.83146524  1
  Sb  Sb55  1  0.16712783  0.17225981  0.33129570  1
  Sb  Sb56  1  -0.00024918  0.00634773  0.33546734  1
  Sb  Sb57  1  0.16575769  0.49808717  0.66163050  1
  Sb  Sb58  1  0.50474165  0.67212494  0.17076887  1
  Sb  Sb59  1  0.16926760  0.82886919  0.32863134  1
  Sb  Sb60  1  0.49962805  0.32793711  0.83195054  1
  Sb  Sb61  1  0.83157725  0.15963334  0.00348527  1
  Sb  Sb62  1  0.33574292  0.33512194  0.66399379  1
  Sb  Sb63  1  0.16237537  0.00315500  0.83513120  1
  Sb  Sb64  1  0.16641145  0.33324612  0.16921214  1
  Sb  Sb65  1  0.34127809  0.00380782  0.00568516  1
  Sb  Sb66  1  0.16363485  -0.00038698  0.16569597  1
  Sb  Sb67  1  0.34274727  -0.00304405  0.66161225  1
  Sb  Sb68  1  0.50486004  0.83899793  -0.00284441  1
  Sb  Sb69  1  0.16654008  0.66223422  0.49868308  1
  Sb  Sb70  1  0.83198652  0.50539172  -0.00073857  1
  Sb  Sb71  1  0.82971206  0.67485707  0.83005070  1
  Sb  Sb72  1  0.83143586  0.83771699  0.33210555  1
  Sb  Sb73  1  0.16576974  0.49726552  0.00536565  1
  Sb  Sb74  1  0.66603094  0.16495833  0.50261461  1
  Sb  Sb75  1  0.50121862  0.32851348  0.16737571  1
  Sb  Sb76  1  0.33911055  0.49778740  0.49525868  1
  Sb  Sb77  1  -0.00876463  0.83756962  0.50227284  1
  Sb  Sb78  1  0.33212574  0.83338960  0.83652078  1
  Sb  Sb79  1  0.66394539  0.00201310  0.33483494  1
  Sb  Sb80  1  0.50220845  0.49620897  -0.00220470  1
  Sb  Sb81  1  0.33226378  0.16590358  0.17038619  1
  Sb  Sb82  1  0.67061546  0.83969861  0.83054155  1
  Sb  Sb83  1  0.66980116  0.16365038  0.16504148  1
  Sb  Sb84  1  0.50002155  0.32950597  0.49991088  1
  Sb  Sb85  1  -0.00461048  0.66314409  0.33295561  1
  Sb  Sb86  1  -0.00079256  0.33192944  0.00059980  1
  Sb  Sb87  1  0.33554926  0.49921318  0.83515533  1
  Sb  Sb88  1  0.83503142  0.32508446  0.83022609  1
  Sb  Sb89  1  0.50044287  0.49693405  0.33674417  1
  Sb  Sb90  1  0.16686305  0.66473825  0.83338733  1
  Sb  Sb91  1  0.66713265  0.66958585  0.66040261  1
  Sb  Sb92  1  0.66989115  0.67075876  0.00574727  1
  Sb  Sb93  1  0.83202565  0.33329734  0.16741325  1
  Sb  Sb94  1  0.16630255  0.00468537  0.50056341  1
  Sb  Sb95  1  -0.00872606  -0.00402295  -0.00286243  1
  Sb  Sb96  1  0.83223630  0.49717488  0.33654591  1
  Sb  Sb97  1  0.66651987  0.49587941  0.82771569  1
  Sb  Sb98  1  0.33164446  0.66477413  0.00407318  1
  Sb  Sb99  1  0.16484017  0.16819666  0.66942962  1
  Sb  Sb100  1  0.16029141  0.66729104  0.16688747  1
  Sb  Sb101  1  -0.00153698  0.49940391  0.83413059  1
  Sb  Sb102  1  0.50221424  0.83869102  0.33710339  1
  Sb  Sb103  1  0.83443689  0.32975328  0.50055704  1
  Sb  Sb104  1  0.83168784  0.16050803  0.66218145  1
  Sb  Sb105  1  -0.00596488  0.49614829  0.49771978  1
  Sb  Sb106  1  0.34096260  0.83569519  0.49575773  1
  Sb  Sb107  1  0.16276025  0.83345319  0.67038195  1
  Te  Te108  1  0.15944668  0.16611789  0.15988520  1
  Te  Te109  1  0.16401131  0.17091854  0.50089436  1
  Te  Te110  1  0.16451180  0.16987978  0.83732017  1
  Te  Te111  1  0.16745270  0.50042378  0.17151707  1
  Te  Te112  1  0.16639478  0.49369907  0.49369685  1
  Te  Te113  1  0.16708680  0.49187170  0.83437740  1
  Te  Te114  1  0.16993786  0.83310848  0.16080507  1
  Te  Te115  1  0.16596636  0.83325343  0.49930033  1
  Te  Te116  1  0.15986366  0.83288784  0.84018800  1
  Te  Te117  1  0.49970233  0.16079898  0.16578395  1
  Te  Te118  1  0.49963093  0.16373705  0.49911627  1
  Te  Te119  1  0.50344287  0.16250096  0.83354502  1
  Te  Te120  1  0.50240797  0.50217834  0.16675155  1
  Te  Te121  1  0.50566639  0.50291136  0.50416692  1
  Te  Te122  1  0.50023510  0.50333674  0.82609863  1
  Te  Te123  1  0.50186257  0.83862424  0.16580291  1
  Te  Te124  1  0.50436353  0.83474802  0.50416848  1
  Te  Te125  1  0.49964685  0.83607242  0.82867277  1
  Te  Te126  1  0.83778596  0.16380504  0.17076486  1
  Te  Te127  1  0.83718743  0.16132592  0.49498720  1
  Te  Te128  1  0.83323306  0.15829682  0.83452808  1
  Te  Te129  1  0.83212659  0.50441268  0.16721706  1
  Te  Te130  1  0.82766284  0.50493350  0.50361387  1
  Te  Te131  1  0.83313197  0.50119293  0.82504306  1
  Te  Te132  1  0.83140527  0.83284473  0.16815120  1
  Te  Te133  1  0.82831670  0.83502680  0.50130505  1
  Te  Te134  1  0.83678075  0.83843009  0.83113472  1
  Te  Te135  1  0.17073788  0.00183479  -0.00058939  1
  Te  Te136  1  0.17637725  -0.00109682  0.33370921  1
  Te  Te137  1  0.15988810  -0.00032701  0.66755910  1
  Te  Te138  1  0.16815646  0.32995290  -0.00220592  1
  Te  Te139  1  0.16672247  0.33601231  0.33571394  1
  Te  Te140  1  0.16449852  0.33461455  0.66458606  1
  Te  Te141  1  0.16132903  0.67046507  -0.00107829  1
  Te  Te142  1  0.17328853  0.65928836  0.33382508  1
  Te  Te143  1  0.16019315  0.66544016  0.66729969  1
  Te  Te144  1  0.50602807  0.00425660  0.00132728  1
  Te  Te145  1  0.49811831  0.00409806  0.33457970  1
  Te  Te146  1  0.50273944  0.00024856  0.66464733  1
  Te  Te147  1  0.50147474  0.32825466  -0.00077060  1
  Te  Te148  1  0.50054057  0.32679533  0.33357642  1
  Te  Te149  1  0.50369366  0.32853411  0.66679642  1
  Te  Te150  1  0.49934784  0.66637541  -0.00487913  1
  Te  Te151  1  0.50149778  0.66683141  0.33797358  1
  Te  Te152  1  0.50344342  0.66946478  0.66402589  1
  Te  Te153  1  0.82657293  -0.00501354  0.00470755  1
  Te  Te154  1  0.83358481  0.00567617  0.33212697  1
  Te  Te155  1  0.83094812  -0.00148926  0.66535966  1
  Te  Te156  1  0.82554459  0.33570522  -0.00152328  1
  Te  Te157  1  0.83336474  0.32760027  0.33429000  1
  Te  Te158  1  0.83236966  0.33652182  0.66625580  1
  Te  Te159  1  0.83738969  0.67262376  0.00124300  1
  Te  Te160  1  0.82885474  0.66587029  0.33546311  1
  Te  Te161  1  0.83420900  0.67031662  0.66396530  1
  Te  Te162  1  0.00101472  0.16578115  -0.00065304  1
  Te  Te163  1  0.00086190  0.17019867  0.33272290  1
  Te  Te164  1  -0.00078894  0.16877954  0.66764618  1
  Te  Te165  1  -0.00046206  0.50428709  0.00709131  1
  Te  Te166  1  0.00124792  0.49490299  0.32961892  1
  Te  Te167  1  -0.00298843  0.49952135  0.66636661  1
  Te  Te168  1  -0.00227367  0.83396510  0.00065448  1
  Te  Te169  1  0.00212096  0.83354097  0.32586928  1
  Te  Te170  1  -0.00321765  0.83315577  0.66751478  1
  Te  Te171  1  0.33488177  0.17096348  -0.00013954  1
  Te  Te172  1  0.33385724  0.17052541  0.33562979  1
  Te  Te173  1  0.33827307  0.16626791  0.66020996  1
  Te  Te174  1  0.33387071  0.49375737  0.00726065  1
  Te  Te175  1  0.33440705  0.49711135  0.33039449  1
  Te  Te176  1  0.33672128  0.50564673  0.66599552  1
  Te  Te177  1  0.33278239  0.83347636  0.00608596  1
  Te  Te178  1  0.33410232  0.82705528  0.32808570  1
  Te  Te179  1  0.33319188  0.82778669  0.66688797  1
  Te  Te180  1  0.66497590  0.16559931  -0.00119848  1
  Te  Te181  1  0.66564212  0.17209748  0.33314664  1
  Te  Te182  1  0.66574258  0.16709648  0.66846835  1
  Te  Te183  1  0.66695165  0.49571305  0.00430944  1
  Te  Te184  1  0.66643429  0.49726255  0.33377157  1
  Te  Te185  1  0.66696063  0.49540541  0.66473146  1
  Te  Te186  1  0.67175467  0.83821001  0.00436345  1
  Te  Te187  1  0.66669983  0.82758167  0.33306433  1
  Te  Te188  1  0.66777229  0.83756851  0.66502430  1
  Te  Te189  1  -0.00470263  -0.00060039  0.16676834  1
  Te  Te190  1  -0.00191356  0.00527965  0.50389223  1
  Te  Te191  1  -0.00252666  0.00057270  0.83010457  1
  Te  Te192  1  -0.00085213  0.33320057  0.16961603  1
  Te  Te193  1  0.00033827  0.33036415  0.49994526  1
  Te  Te194  1  0.00249146  0.33069999  0.83146164  1
  Te  Te195  1  -0.00575615  0.66751255  0.16773596  1
  Te  Te196  1  -0.00319144  0.66758517  0.50342419  1
  Te  Te197  1  -0.00085967  0.66885994  0.83226879  1
  Te  Te198  1  0.33628254  -0.00260811  0.17247633  1
  Te  Te199  1  0.33646125  0.00368716  0.49441943  1
  Te  Te200  1  0.34020178  -0.00051922  0.83209374  1
  Te  Te201  1  0.33411365  0.33599581  0.16831272  1
  Te  Te202  1  0.32970206  0.32980983  0.49657128  1
  Te  Te203  1  0.32757631  0.33300785  0.83618344  1
  Te  Te204  1  0.33499697  0.66652008  0.16985404  1
  Te  Te205  1  0.33485096  0.66703539  0.49893976  1
  Te  Te206  1  0.33775992  0.66688052  0.83056190  1
  Te  Te207  1  0.66699634  -0.00260525  0.17025136  1
  Te  Te208  1  0.66673154  -0.00146937  0.50041555  1
  Te  Te209  1  0.66688689  0.00077500  0.83151940  1
  Te  Te210  1  0.66676169  0.33720776  0.16978699  1
  Te  Te211  1  0.66747466  0.33622422  0.50026737  1
  Te  Te212  1  0.66717881  0.32695028  0.83211791  1
  Te  Te213  1  0.67078302  0.66676147  0.17076255  1
  Te  Te214  1  0.66687497  0.66745816  0.49834276  1
  Te  Te215  1  0.66070120  0.66590158  0.83677686  1
