# generated using pymatgen
data_AgSbTe2
_symmetry_space_group_name_H-M   'P 1'
_cell_length_a   18.34998592
_cell_length_b   18.33741761
_cell_length_c   18.34875370
_cell_angle_alpha   90.00501572
_cell_angle_beta   90.00104342
_cell_angle_gamma   89.99857361
_symmetry_Int_Tables_number   1
_chemical_formula_structural   AgSbTe2
_chemical_formula_sum   'Ag54 Sb54 Te108'
_cell_volume   6174.19696668
_cell_formula_units_Z   54
loop_
 _symmetry_equiv_pos_site_id
 _symmetry_equiv_pos_as_xyz
  1  'x, y, z'
loop_
 _atom_site_type_symbol
 _atom_site_label
 _atom_site_symmetry_multiplicity
 _atom_site_fract_x
 _atom_site_fract_y
 _atom_site_fract_z
 _atom_site_occupancy
  Ag  Ag0  1  0.66287221  0.49935276  0.16965516  1
  Ag  Ag1  1  0.01127745  0.16791161  0.15653816  1
  Ag  Ag2  1  0.50121092  -0.00072799  0.16693325  1
  Ag  Ag3  1  0.83017372  0.16734037  -0.00041619  1
  Ag  Ag4  1  0.33603334  0.00917023  0.00272035  1
  Ag  Ag5  1  0.81760490  0.67125520  0.16647299  1
  Ag  Ag6  1  0.66618952  0.33165950  0.32807086  1
  Ag  Ag7  1  0.82797122  0.66946655  0.83952711  1
  Ag  Ag8  1  0.66350640  0.16745853  0.83055440  1
  Ag  Ag9  1  0.16613691  0.17303597  0.32201301  1
  Ag  Ag10  1  0.34573162  0.66755494  0.33076540  1
  Ag  Ag11  1  0.17060687  0.00941919  0.17006380  1
  Ag  Ag12  1  0.49905331  -0.00492084  0.49561295  1
  Ag  Ag13  1  0.66045240  0.83309448  0.17226444  1
  Ag  Ag14  1  0.51138736  0.16479073  0.67674780  1
  Ag  Ag15  1  0.18097216  0.16873309  0.01130278  1
  Ag  Ag16  1  0.33346271  0.16186354  0.84377371  1
  Ag  Ag17  1  0.00310376  0.83316126  0.49787207  1
  Ag  Ag18  1  0.66137632  0.16331771  0.51501750  1
  Ag  Ag19  1  0.50129547  0.67405691  0.17007083  1
  Ag  Ag20  1  0.17901046  0.66762435  0.83416894  1
  Ag  Ag21  1  0.33960332  0.83184660  0.50187085  1
  Ag  Ag22  1  0.16375165  0.16703719  0.66711614  1
  Ag  Ag23  1  0.49760649  0.82769927  0.00930572  1
  Ag  Ag24  1  0.50086367  0.82536366  0.32960880  1
  Ag  Ag25  1  0.34012976  0.66780526  -0.00037620  1
  Ag  Ag26  1  0.49442385  0.16615553  0.00089408  1
  Ag  Ag27  1  0.81963381  0.00668809  0.16365502  1
  Ag  Ag28  1  0.66648920  0.01158384  0.66134786  1
  Ag  Ag29  1  0.00280318  0.16810374  0.83810431  1
  Ag  Ag30  1  0.16321166  0.32205116  0.17155441  1
  Ag  Ag31  1  0.49767561  0.67652611  0.48469513  1
  Ag  Ag32  1  0.01072862  0.33347693  0.33516853  1
  Ag  Ag33  1  0.16764356  0.49518209  0.33347404  1
  Ag  Ag34  1  0.65951092  0.32623450  0.00800448  1
  Ag  Ag35  1  0.16443446  0.32210770  0.49015500  1
  Ag  Ag36  1  0.00335265  0.32561844  0.00849894  1
  Ag  Ag37  1  0.17035522  0.00467074  0.49756296  1
  Ag  Ag38  1  0.00013509  0.32608646  0.66374160  1
  Ag  Ag39  1  0.66497641  0.16687499  0.16220868  1
  Ag  Ag40  1  0.66870276  0.32412850  0.66389671  1
  Ag  Ag41  1  0.00108349  0.66028605  0.33335358  1
  Ag  Ag42  1  0.49976792  0.51149578  0.32758738  1
  Ag  Ag43  1  0.65687326  0.66443981  0.32790905  1
  Ag  Ag44  1  0.49999757  0.50729364  0.00906949  1
  Ag  Ag45  1  0.82567725  0.16608830  0.67429116  1
  Ag  Ag46  1  0.33699901  0.32087708  0.00196310  1
  Ag  Ag47  1  0.33654603  0.66901701  0.67594392  1
  Ag  Ag48  1  0.49664186  0.66912130  0.84068677  1
  Ag  Ag49  1  -0.00073945  0.01117479  0.66403575  1
  Ag  Ag50  1  0.33611477  0.83014471  0.83410690  1
  Ag  Ag51  1  0.65587828  0.83951536  0.49336714  1
  Ag  Ag52  1  0.32398239  0.16500176  0.15622745  1
  Ag  Ag53  1  0.00384106  0.49756827  0.49459031  1
  Sb  Sb54  1  0.33135215  0.50543437  0.49595433  1
  Sb  Sb55  1  0.83215121  0.00221899  0.83757339  1
  Sb  Sb56  1  0.82394750  0.83686617  0.00273247  1
  Sb  Sb57  1  0.65940598  0.66299249  0.00821264  1
  Sb  Sb58  1  0.83279424  0.33158375  0.83454504  1
  Sb  Sb59  1  0.17601392  0.83916261  0.00072357  1
  Sb  Sb60  1  0.66470693  0.00196024  0.33367822  1
  Sb  Sb61  1  0.00507282  0.83657867  0.83089614  1
  Sb  Sb62  1  0.66037596  0.66650769  0.66251777  1
  Sb  Sb63  1  0.34001981  0.49577795  0.16656838  1
  Sb  Sb64  1  0.33486634  -0.00063355  0.66887134  1
  Sb  Sb65  1  0.16657836  0.49568274  0.66118658  1
  Sb  Sb66  1  0.83241784  0.00261448  0.49811587  1
  Sb  Sb67  1  0.83355968  0.32827137  0.16581673  1
  Sb  Sb68  1  0.50040851  0.33198408  0.83689863  1
  Sb  Sb69  1  0.66794663  0.49728986  0.49277560  1
  Sb  Sb70  1  0.83535581  0.16738960  0.33089461  1
  Sb  Sb71  1  0.83761739  0.32980340  0.50034282  1
  Sb  Sb72  1  0.49965117  0.83884589  0.66238674  1
  Sb  Sb73  1  0.50080465  0.49741076  0.66591814  1
  Sb  Sb74  1  0.33488000  -0.00349272  0.32963603  1
  Sb  Sb75  1  0.00566418  0.00814009  -0.00082392  1
  Sb  Sb76  1  0.16605676  0.33140303  0.83644365  1
  Sb  Sb77  1  0.66458138  0.49607141  0.83947192  1
  Sb  Sb78  1  0.83244737  0.50034798  0.33107907  1
  Sb  Sb79  1  0.82966608  0.66838672  0.49681010  1
  Sb  Sb80  1  0.16842047  0.00344929  0.83268396  1
  Sb  Sb81  1  0.33210867  0.33564405  0.32801171  1
  Sb  Sb82  1  0.49725718  0.33151484  0.49798363  1
  Sb  Sb83  1  0.33370601  0.50219360  0.83607950  1
  Sb  Sb84  1  0.00079848  0.49521541  0.83028219  1
  Sb  Sb85  1  0.50037249  0.33045812  0.16489869  1
  Sb  Sb86  1  0.82606535  0.83190202  0.33356699  1
  Sb  Sb87  1  0.33387591  0.16105505  0.49924396  1
  Sb  Sb88  1  0.16852140  0.83790273  0.66480587  1
  Sb  Sb89  1  0.17154677  0.83248303  0.33365825  1
  Sb  Sb90  1  0.00313638  0.66000067  0.00381521  1
  Sb  Sb91  1  0.33979673  0.83756195  0.16535689  1
  Sb  Sb92  1  0.65843269  0.00833477  0.00159150  1
  Sb  Sb93  1  0.00163985  0.16720691  0.50328255  1
  Sb  Sb94  1  0.82766466  0.49576482  0.00337262  1
  Sb  Sb95  1  0.83230572  0.49496983  0.66740568  1
  Sb  Sb96  1  0.17331188  0.66741286  0.16657290  1
  Sb  Sb97  1  -0.00510483  0.83964484  0.17112642  1
  Sb  Sb98  1  -0.00320451  0.49391041  0.17150069  1
  Sb  Sb99  1  0.65911116  0.83620169  0.83378593  1
  Sb  Sb100  1  0.17289948  0.49309755  0.00638083  1
  Sb  Sb101  1  0.00273308  0.66544303  0.66285522  1
  Sb  Sb102  1  0.49820496  0.16653879  0.32814179  1
  Sb  Sb103  1  0.33248570  0.33027490  0.67131720  1
  Sb  Sb104  1  0.83197277  0.83908976  0.66737295  1
  Sb  Sb105  1  0.00349781  0.00380998  0.33601986  1
  Sb  Sb106  1  0.17227308  0.66918606  0.50055495  1
  Sb  Sb107  1  0.49932645  0.00024935  0.83576173  1
  Te  Te108  1  0.16649799  0.16601529  0.16634328  1
  Te  Te109  1  0.16811878  0.16443934  0.50361848  1
  Te  Te110  1  0.16501373  0.16704585  0.82969345  1
  Te  Te111  1  0.16580172  0.49874368  0.17288049  1
  Te  Te112  1  0.16341148  0.50000696  0.49432292  1
  Te  Te113  1  0.16556707  0.50665110  0.83439318  1
  Te  Te114  1  0.16602246  0.84165513  0.16659348  1
  Te  Te115  1  0.16494700  0.83912849  0.49913652  1
  Te  Te116  1  0.17250803  0.82877561  0.83328060  1
  Te  Te117  1  0.50347641  0.16374318  0.16461512  1
  Te  Te118  1  0.50215416  0.16301459  0.49711850  1
  Te  Te119  1  0.49960686  0.16606431  0.83481602  1
  Te  Te120  1  0.50317464  0.49861827  0.16728006  1
  Te  Te121  1  0.49979479  0.50332140  0.49705543  1
  Te  Te122  1  0.50039953  0.50663417  0.83576291  1
  Te  Te123  1  0.50006863  0.83565435  0.16844453  1
  Te  Te124  1  0.49986383  0.83458921  0.50135004  1
  Te  Te125  1  0.49624480  0.83132460  0.83540599  1
  Te  Te126  1  0.82595896  0.16469049  0.16480553  1
  Te  Te127  1  0.82162044  0.16557084  0.50231627  1
  Te  Te128  1  0.83430192  0.16611746  0.83447077  1
  Te  Te129  1  0.82660140  0.51026388  0.16562268  1
  Te  Te130  1  0.84213865  0.50071338  0.50083797  1
  Te  Te131  1  0.83315263  0.50994400  0.83507768  1
  Te  Te132  1  0.82671840  0.83231897  0.16650502  1
  Te  Te133  1  0.83769852  0.83431713  0.50100882  1
  Te  Te134  1  0.83341830  0.82884466  0.83513933  1
  Te  Te135  1  0.17274096  0.00634857  0.00234473  1
  Te  Te136  1  0.16857101  0.00422193  0.33552827  1
  Te  Te137  1  0.16438254  0.00413389  0.66329141  1
  Te  Te138  1  0.16511074  0.32953417  0.00288297  1
  Te  Te139  1  0.16979096  0.33366639  0.33209975  1
  Te  Te140  1  0.16434087  0.33080533  0.66544874  1
  Te  Te141  1  0.17091078  0.66578955  -0.00275021  1
  Te  Te142  1  0.16059770  0.66379411  0.33343849  1
  Te  Te143  1  0.17168665  0.66493776  0.67038313  1
  Te  Te144  1  0.49624349  0.00361130  0.00182244  1
  Te  Te145  1  0.49964312  -0.00247629  0.33388811  1
  Te  Te146  1  0.50240509  0.00587972  0.66276914  1
  Te  Te147  1  0.49974404  0.32791934  -0.00008202  1
  Te  Te148  1  0.50307501  0.33850912  0.33339110  1
  Te  Te149  1  0.50245695  0.32710832  0.66652131  1
  Te  Te150  1  0.50043722  0.66673441  0.00284276  1
  Te  Te151  1  0.50169886  0.66801024  0.32983128  1
  Te  Te152  1  0.49674852  0.66534187  0.67269778  1
  Te  Te153  1  0.83520005  0.00386047  0.00527287  1
  Te  Te154  1  0.83566775  -0.00065145  0.32226049  1
  Te  Te155  1  0.83398980  0.00556066  0.66717355  1
  Te  Te156  1  0.83563657  0.32877566  -0.00011956  1
  Te  Te157  1  0.82680059  0.33387103  0.33319357  1
  Te  Te158  1  0.83403460  0.32755727  0.66738173  1
  Te  Te159  1  0.83432648  0.66702690  0.00332347  1
  Te  Te160  1  0.84051173  0.66678837  0.32879956  1
  Te  Te161  1  0.83247367  0.66572559  0.67006397  1
  Te  Te162  1  -0.00564776  0.16816051  -0.00161966  1
  Te  Te163  1  0.00306078  0.17150913  0.33323836  1
  Te  Te164  1  0.00312493  0.16824645  0.66232499  1
  Te  Te165  1  0.00068050  0.48944378  -0.00019121  1
  Te  Te166  1  0.00075722  0.49554972  0.33481204  1
  Te  Te167  1  -0.00036313  0.49306763  0.66049122  1
  Te  Te168  1  0.00029226  0.83282033  -0.00069086  1
  Te  Te169  1  0.00070985  0.83141947  0.33692878  1
  Te  Te170  1  -0.00010116  0.83500935  0.66188074  1
  Te  Te171  1  0.33468738  0.16543555  -0.00056816  1
  Te  Te172  1  0.32804742  0.16735852  0.33067684  1
  Te  Te173  1  0.32807324  0.16658946  0.66932859  1
  Te  Te174  1  0.33985525  0.50602895  0.00090835  1
  Te  Te175  1  0.33432426  0.50562366  0.33190543  1
  Te  Te176  1  0.33426124  0.50589151  0.66642328  1
  Te  Te177  1  0.33833759  0.82738574  -0.00206124  1
  Te  Te178  1  0.33755245  0.82858470  0.33685641  1
  Te  Te179  1  0.33375883  0.82988276  0.66754729  1
  Te  Te180  1  0.66956688  0.16683972  -0.00000757  1
  Te  Te181  1  0.66704342  0.17007100  0.32375584  1
  Te  Te182  1  0.66693110  0.16799295  0.67067393  1
  Te  Te183  1  0.66076146  0.49097290  0.00546894  1
  Te  Te184  1  0.66476979  0.50061745  0.33024474  1
  Te  Te185  1  0.66687347  0.49084123  0.66587645  1
  Te  Te186  1  0.65777674  0.83552134  0.00248063  1
  Te  Te187  1  0.66205819  0.83248934  0.33406824  1
  Te  Te188  1  0.66752008  0.83576478  0.66134066  1
  Te  Te189  1  0.00755043  0.00617987  0.16700272  1
  Te  Te190  1  0.00023186  -0.00275378  0.50277406  1
  Te  Te191  1  -0.00006348  0.00448101  0.82557085  1
  Te  Te192  1  0.00010552  0.32897980  0.16882702  1
  Te  Te193  1  0.00349792  0.33302536  0.49626373  1
  Te  Te194  1  -0.00066846  0.32813511  0.82763129  1
  Te  Te195  1  0.00415628  0.66761733  0.17109781  1
  Te  Te196  1  0.00023545  0.66817557  0.49796620  1
  Te  Te197  1  -0.00142462  0.66663031  0.83316967  1
  Te  Te198  1  0.33563992  0.00322625  0.16415585  1
  Te  Te199  1  0.33433328  -0.00569093  0.50053476  1
  Te  Te200  1  0.33329319  -0.00072986  0.83740180  1
  Te  Te201  1  0.32797147  0.32910880  0.16150177  1
  Te  Te202  1  0.32595324  0.33352577  0.50149994  1
  Te  Te203  1  0.33302820  0.32744840  0.84006464  1
  Te  Te204  1  0.33804142  0.66696192  0.16777536  1
  Te  Te205  1  0.33652284  0.67180177  0.49450272  1
  Te  Te206  1  0.33701987  0.66593123  0.83469891  1
  Te  Te207  1  0.66252811  -0.00256597  0.16644201  1
  Te  Te208  1  0.66587430  -0.00007381  0.49992721  1
  Te  Te209  1  0.66666308  0.00418005  0.82398665  1
  Te  Te210  1  0.66796740  0.33391036  0.16629494  1
  Te  Te211  1  0.66621838  0.33002528  0.49892985  1
  Te  Te212  1  0.66717000  0.32861029  0.83269199  1
  Te  Te213  1  0.66157349  0.66880849  0.16845045  1
  Te  Te214  1  0.66254684  0.66752087  0.49461692  1
  Te  Te215  1  0.66619218  0.66682489  0.83253008  1
