# generated using pymatgen
data_AgSbTe2
_symmetry_space_group_name_H-M   'P 1'
_cell_length_a   18.33653753
_cell_length_b   18.34607255
_cell_length_c   18.34078706
_cell_angle_alpha   90.00281565
_cell_angle_beta   89.99867499
_cell_angle_gamma   89.99988202
_symmetry_Int_Tables_number   1
_chemical_formula_structural   AgSbTe2
_chemical_formula_sum   'Ag54 Sb54 Te108'
_cell_volume   6169.90399565
_cell_formula_units_Z   54
loop_
 _symmetry_equiv_pos_site_id
 _symmetry_equiv_pos_as_xyz
  1  'x, y, z'
loop_
 _atom_site_type_symbol
 _atom_site_label
 _atom_site_symmetry_multiplicity
 _atom_site_fract_x
 _atom_site_fract_y
 _atom_site_fract_z
 _atom_site_occupancy
  Ag  Ag0  1  0.34048717  0.15555537  0.83546060  1
  Ag  Ag1  1  0.00479437  0.83339374  0.16551694  1
  Ag  Ag2  1  0.16607324  0.15775130  -0.00597991  1
  Ag  Ag3  1  0.83259096  0.67736545  0.49600484  1
  Ag  Ag4  1  0.32897392  0.83323360  0.83094001  1
  Ag  Ag5  1  -0.00074837  -0.00240064  -0.00315604  1
  Ag  Ag6  1  0.83707232  0.66828617  0.16485351  1
  Ag  Ag7  1  0.00025807  0.15911923  0.83462819  1
  Ag  Ag8  1  0.83172066  0.83213647  0.33596857  1
  Ag  Ag9  1  0.32681024  0.67550345  0.67890192  1
  Ag  Ag10  1  0.32639490  0.51261322  0.15795972  1
  Ag  Ag11  1  -0.00424602  -0.00134320  0.33269238  1
  Ag  Ag12  1  0.49488165  0.83801471  0.66776203  1
  Ag  Ag13  1  0.33507901  -0.00712291  0.67095275  1
  Ag  Ag14  1  0.83208291  0.51195412  0.33369310  1
  Ag  Ag15  1  0.16902932  0.51215010  0.67756102  1
  Ag  Ag16  1  0.82700573  0.33011816  0.83372404  1
  Ag  Ag17  1  0.16908244  0.51229237  -0.00551488  1
  Ag  Ag18  1  0.50692373  -0.00063067  0.50810622  1
  Ag  Ag19  1  0.33098894  0.67107471  0.32820009  1
  Ag  Ag20  1  0.83546371  0.67128392  0.83421379  1
  Ag  Ag21  1  0.66557647  0.33349053  0.67355161  1
  Ag  Ag22  1  0.32998451  0.51291418  0.83600670  1
  Ag  Ag23  1  0.66283899  0.84102233  0.83099404  1
  Ag  Ag24  1  0.33352669  0.34007277  0.33088127  1
  Ag  Ag25  1  0.50196420  -0.00005888  0.82762118  1
  Ag  Ag26  1  0.16967167  0.67352208  0.83146804  1
  Ag  Ag27  1  0.66913993  0.67099855  -0.00572390  1
  Ag  Ag28  1  0.66680073  0.15815083  0.50976932  1
  Ag  Ag29  1  0.66675342  0.32786229  -0.00795455  1
  Ag  Ag30  1  0.17310286  0.83227781  0.67620359  1
  Ag  Ag31  1  0.00530697  0.66864874  0.68007721  1
  Ag  Ag32  1  0.32517074  0.66817086  -0.00291305  1
  Ag  Ag33  1  0.49979827  0.83713352  0.33838554  1
  Ag  Ag34  1  0.00049089  0.15426810  0.15908415  1
  Ag  Ag35  1  0.82731661  -0.00333439  0.50373679  1
  Ag  Ag36  1  0.00362195  0.51111853  0.16455948  1
  Ag  Ag37  1  0.66495746  0.49839206  0.83347539  1
  Ag  Ag38  1  0.32605856  0.83064236  0.16181599  1
  Ag  Ag39  1  0.50046594  0.15743241  0.67241349  1
  Ag  Ag40  1  0.49834677  0.16154776  -0.01005350  1
  Ag  Ag41  1  -0.00739149  0.15937289  0.50586132  1
  Ag  Ag42  1  0.17001632  -0.00816551  0.83132147  1
  Ag  Ag43  1  0.00468988  0.67447305  -0.00309423  1
  Ag  Ag44  1  0.16799003  0.83265739  -0.00606450  1
  Ag  Ag45  1  0.66699508  0.83866487  0.50617327  1
  Ag  Ag46  1  0.66979149  0.50523695  0.50847675  1
  Ag  Ag47  1  0.17013267  0.83525680  0.33281748  1
  Ag  Ag48  1  0.66809302  -0.00365638  0.34595282  1
  Ag  Ag49  1  0.67039562  -0.00255143  -0.01381963  1
  Ag  Ag50  1  0.49947771  0.15576092  0.33609212  1
  Ag  Ag51  1  0.66507035  0.16015281  0.83231758  1
  Ag  Ag52  1  0.16367868  -0.00360428  0.50738496  1
  Ag  Ag53  1  0.82578296  -0.00332706  0.82881551  1
  Sb  Sb54  1  0.83575977  0.50525236  0.00101127  1
  Sb  Sb55  1  0.49809720  0.66876560  0.16631185  1
  Sb  Sb56  1  0.66726426  0.83431353  0.16419776  1
  Sb  Sb57  1  0.83145374  0.16080503  0.33534830  1
  Sb  Sb58  1  0.16698976  0.33346864  0.16646323  1
  Sb  Sb59  1  0.16479074  -0.00464819  0.16035052  1
  Sb  Sb60  1  0.49815590  0.50422156  0.66972362  1
  Sb  Sb61  1  0.33524826  0.33640628  -0.00012645  1
  Sb  Sb62  1  0.49696390  0.83696251  -0.00264966  1
  Sb  Sb63  1  0.65951111  0.00158957  0.66643919  1
  Sb  Sb64  1  0.83735311  0.83140767  0.00081720  1
  Sb  Sb65  1  0.33553282  -0.00536723  0.33823898  1
  Sb  Sb66  1  0.16766382  0.15901523  0.33075120  1
  Sb  Sb67  1  0.83617531  -0.00501621  0.16698600  1
  Sb  Sb68  1  0.83316208  0.83404633  0.66544967  1
  Sb  Sb69  1  0.83404344  0.16401758  -0.00381565  1
  Sb  Sb70  1  0.16519513  0.50923452  0.33065961  1
  Sb  Sb71  1  0.00030855  0.67478903  0.32919561  1
  Sb  Sb72  1  0.33553317  0.50357009  0.50282338  1
  Sb  Sb73  1  0.82900284  0.16494499  0.67039430  1
  Sb  Sb74  1  0.66818326  0.66678362  0.67060441  1
  Sb  Sb75  1  0.00020811  0.50278121  0.83634939  1
  Sb  Sb76  1  0.83082715  0.33056755  0.50299256  1
  Sb  Sb77  1  0.33608793  0.83338999  0.50445914  1
  Sb  Sb78  1  0.50216044  0.50281206  0.33506358  1
  Sb  Sb79  1  -0.00297862  0.50056378  0.49756504  1
  Sb  Sb80  1  0.50128705  0.32492398  0.50095195  1
  Sb  Sb81  1  0.00666322  -0.00447851  0.66976939  1
  Sb  Sb82  1  0.83489786  0.50326044  0.66585465  1
  Sb  Sb83  1  0.16298958  0.67385135  0.50836831  1
  Sb  Sb84  1  0.50657288  0.32386070  0.83331801  1
  Sb  Sb85  1  0.49860226  0.67439436  0.83259390  1
  Sb  Sb86  1  0.00254751  0.32756867  0.33240467  1
  Sb  Sb87  1  0.66618352  0.50332530  0.16212228  1
  Sb  Sb88  1  0.16786992  0.32713552  0.50024315  1
  Sb  Sb89  1  -0.00354003  0.83845317  0.49673348  1
  Sb  Sb90  1  0.49869028  0.33314060  0.16583035  1
  Sb  Sb91  1  0.33050619  -0.00537570  -0.00750498  1
  Sb  Sb92  1  0.33590576  0.16232957  0.50373124  1
  Sb  Sb93  1  0.83462349  0.33790728  0.16250251  1
  Sb  Sb94  1  0.17092522  0.16167229  0.67266865  1
  Sb  Sb95  1  0.49826965  0.49993587  -0.00344982  1
  Sb  Sb96  1  0.66901565  0.16434943  0.16266551  1
  Sb  Sb97  1  0.00237617  0.83519361  0.83630706  1
  Sb  Sb98  1  0.66823538  0.67218208  0.33178442  1
  Sb  Sb99  1  0.16412014  0.67035288  0.15515849  1
  Sb  Sb100  1  0.33703497  0.33325877  0.66754726  1
  Sb  Sb101  1  0.16512341  0.33322279  0.83482092  1
  Sb  Sb102  1  0.33095035  0.16309486  0.16093940  1
  Sb  Sb103  1  0.50036612  -0.00107019  0.16561412  1
  Sb  Sb104  1  0.66412187  0.32857131  0.33371267  1
  Sb  Sb105  1  -0.00216956  0.33128618  -0.00183866  1
  Sb  Sb106  1  0.50469368  0.67412964  0.50061254  1
  Sb  Sb107  1  -0.00276756  0.33468142  0.66962844  1
  Te  Te108  1  0.16252420  0.16645312  0.16069989  1
  Te  Te109  1  0.16633746  0.15868438  0.50116517  1
  Te  Te110  1  0.16581000  0.16821730  0.83578269  1
  Te  Te111  1  0.16721623  0.50091848  0.16517290  1
  Te  Te112  1  0.16574128  0.49800409  0.50058664  1
  Te  Te113  1  0.16673084  0.49891515  0.83531450  1
  Te  Te114  1  0.16664837  0.83275273  0.16987937  1
  Te  Te115  1  0.16494456  0.83854865  0.49616014  1
  Te  Te116  1  0.16578979  0.83285891  0.83509578  1
  Te  Te117  1  0.49994992  0.16719823  0.17216837  1
  Te  Te118  1  0.50268089  0.15937567  0.49730984  1
  Te  Te119  1  0.50098670  0.16185857  0.83296707  1
  Te  Te120  1  0.49099305  0.50047115  0.16633892  1
  Te  Te121  1  0.50849307  0.50047175  0.50114842  1
  Te  Te122  1  0.50123464  0.50005539  0.83293297  1
  Te  Te123  1  0.49566528  0.83254042  0.17324959  1
  Te  Te124  1  0.50567162  0.83775664  0.50049496  1
  Te  Te125  1  0.50232499  0.83990669  0.83218161  1
  Te  Te126  1  0.84157753  0.16879769  0.16804312  1
  Te  Te127  1  0.83035788  0.16199048  0.50035986  1
  Te  Te128  1  0.82839103  0.15927787  0.83299476  1
  Te  Te129  1  0.83598252  0.50574503  0.17058181  1
  Te  Te130  1  0.83056939  0.49840636  0.49646287  1
  Te  Te131  1  0.83139919  0.50737444  0.83321517  1
  Te  Te132  1  0.83607525  0.82804015  0.17111726  1
  Te  Te133  1  0.82910307  0.83509693  0.49992364  1
  Te  Te134  1  0.82759159  0.83392468  0.83279652  1
  Te  Te135  1  0.16226495  -0.00182401  -0.00456747  1
  Te  Te136  1  0.16393170  -0.00440968  0.33518467  1
  Te  Te137  1  0.17254535  -0.00315261  0.66955859  1
  Te  Te138  1  0.16724813  0.33089561  0.00045498  1
  Te  Te139  1  0.17276192  0.33260610  0.33463688  1
  Te  Te140  1  0.16648200  0.33969151  0.66520682  1
  Te  Te141  1  0.16550314  0.66884253  -0.00539202  1
  Te  Te142  1  0.16956808  0.67321967  0.34012667  1
  Te  Te143  1  0.16578361  0.66928013  0.66978788  1
  Te  Te144  1  0.50385876  0.00416895  -0.00112826  1
  Te  Te145  1  0.50237727  -0.00253402  0.33190251  1
  Te  Te146  1  0.49692841  -0.00097041  0.66690833  1
  Te  Te147  1  0.50529204  0.32564833  0.00067359  1
  Te  Te148  1  0.49555592  0.33347161  0.33356433  1
  Te  Te149  1  0.50544028  0.33071897  0.66568407  1
  Te  Te150  1  0.50538449  0.66769945  0.00097063  1
  Te  Te151  1  0.49778018  0.67241027  0.33336431  1
  Te  Te152  1  0.48949464  0.67281331  0.66478103  1
  Te  Te153  1  0.83452427  -0.00166640  -0.00277123  1
  Te  Te154  1  0.83282198  -0.00406738  0.33428671  1
  Te  Te155  1  0.83920957  -0.00113533  0.66708090  1
  Te  Te156  1  0.82715554  0.33608334  -0.00560535  1
  Te  Te157  1  0.83319851  0.33682161  0.33277176  1
  Te  Te158  1  0.82751500  0.33524460  0.67216152  1
  Te  Te159  1  0.83391302  0.66704997  -0.00326797  1
  Te  Te160  1  0.83365434  0.66970897  0.33507643  1
  Te  Te161  1  0.83795023  0.66715767  0.67200740  1
  Te  Te162  1  0.00205073  0.16446847  -0.00251664  1
  Te  Te163  1  0.00143578  0.15916769  0.33268175  1
  Te  Te164  1  0.00206607  0.16764920  0.66929778  1
  Te  Te165  1  0.00547445  0.49966586  0.00428733  1
  Te  Te166  1  -0.00309046  0.49725888  0.32836349  1
  Te  Te167  1  0.00647579  0.50440113  0.66510684  1
  Te  Te168  1  0.00320171  0.83476030  0.00276605  1
  Te  Te169  1  -0.00187702  0.83914454  0.33057339  1
  Te  Te170  1  0.00603627  0.82687007  0.66536148  1
  Te  Te171  1  0.33284059  0.16739592  -0.00372112  1
  Te  Te172  1  0.33727153  0.16490486  0.33001378  1
  Te  Te173  1  0.33844955  0.16785578  0.67294798  1
  Te  Te174  1  0.33153185  0.50298474  -0.00178181  1
  Te  Te175  1  0.33419237  0.50404131  0.33244570  1
  Te  Te176  1  0.32937946  0.50106634  0.67095015  1
  Te  Te177  1  0.33156625  0.82869572  -0.00100917  1
  Te  Te178  1  0.33372011  0.83070653  0.33614222  1
  Te  Te179  1  0.33313715  0.83272829  0.66830562  1
  Te  Te180  1  0.66651788  0.16035081  -0.00342940  1
  Te  Te181  1  0.66333166  0.16186788  0.33169427  1
  Te  Te182  1  0.66446704  0.16921590  0.66777224  1
  Te  Te183  1  0.66625897  0.50590304  -0.00507797  1
  Te  Te184  1  0.67136967  0.49921432  0.33171863  1
  Te  Te185  1  0.66626062  0.49775000  0.66918367  1
  Te  Te186  1  0.66507364  0.83629282  -0.00484319  1
  Te  Te187  1  0.66731495  0.83701434  0.33126954  1
  Te  Te188  1  0.66329522  0.82931153  0.66761435  1
  Te  Te189  1  0.00009979  -0.00351542  0.16366567  1
  Te  Te190  1  -0.00003605  0.00307517  0.50182493  1
  Te  Te191  1  0.00270123  0.00116879  0.83561951  1
  Te  Te192  1  -0.00043767  0.33531524  0.16681591  1
  Te  Te193  1  0.00009494  0.32182976  0.50048550  1
  Te  Te194  1  -0.00887163  0.32590540  0.83253206  1
  Te  Te195  1  -0.00220021  0.67001312  0.16443808  1
  Te  Te196  1  -0.00873386  0.66498953  0.49850643  1
  Te  Te197  1  -0.00094519  0.66705573  0.83667959  1
  Te  Te198  1  0.33241128  -0.00794057  0.16582804  1
  Te  Te199  1  0.32888460  0.00013311  0.50664097  1
  Te  Te200  1  0.33072156  -0.00223754  0.83374435  1
  Te  Te201  1  0.33322306  0.33473670  0.17165745  1
  Te  Te202  1  0.33369941  0.33367765  0.49243823  1
  Te  Te203  1  0.33346536  0.33464579  0.83390010  1
  Te  Te204  1  0.33278316  0.66957608  0.16461603  1
  Te  Te205  1  0.33381933  0.66526481  0.49537219  1
  Te  Te206  1  0.33347753  0.66936309  0.83585423  1
  Te  Te207  1  0.66861691  0.00030257  0.16722302  1
  Te  Te208  1  0.66783971  -0.00103166  0.50128175  1
  Te  Te209  1  0.66677444  -0.00119095  0.83004052  1
  Te  Te210  1  0.66733227  0.33412828  0.15963719  1
  Te  Te211  1  0.66698125  0.33372314  0.50111820  1
  Te  Te212  1  0.66808128  0.33552946  0.83439077  1
  Te  Te213  1  0.67257837  0.66665003  0.16040205  1
  Te  Te214  1  0.67337634  0.66474872  0.50051597  1
  Te  Te215  1  0.66445430  0.66525705  0.83423614  1
