# generated using pymatgen
data_AgSbTe2
_symmetry_space_group_name_H-M   'P 1'
_cell_length_a   18.35181622
_cell_length_b   18.34052215
_cell_length_c   18.35188282
_cell_angle_alpha   89.99664416
_cell_angle_beta   90.00087415
_cell_angle_gamma   89.99720666
_symmetry_Int_Tables_number   1
_chemical_formula_structural   AgSbTe2
_chemical_formula_sum   'Ag54 Sb54 Te108'
_cell_volume   6176.91141757
_cell_formula_units_Z   54
loop_
 _symmetry_equiv_pos_site_id
 _symmetry_equiv_pos_as_xyz
  1  'x, y, z'
loop_
 _atom_site_type_symbol
 _atom_site_label
 _atom_site_symmetry_multiplicity
 _atom_site_fract_x
 _atom_site_fract_y
 _atom_site_fract_z
 _atom_site_occupancy
  Ag  Ag0  1  0.32968265  0.67412460  0.66770636  1
  Ag  Ag1  1  0.50360776  0.83453199  0.67424708  1
  Ag  Ag2  1  0.32838788  0.16702497  0.16468996  1
  Ag  Ag3  1  0.50296534  0.83170407  -0.00678677  1
  Ag  Ag4  1  0.82514071  0.83569748  0.66362252  1
  Ag  Ag5  1  0.67191188  0.33062028  0.33025332  1
  Ag  Ag6  1  0.17622083  0.83157934  0.67303761  1
  Ag  Ag7  1  0.34383239  0.83110725  0.83415248  1
  Ag  Ag8  1  0.50417723  0.66829958  0.83385545  1
  Ag  Ag9  1  0.17202966  0.83299997  -0.00854735  1
  Ag  Ag10  1  0.83147539  0.33271412  0.83827411  1
  Ag  Ag11  1  0.67058524  0.33267835  -0.00045733  1
  Ag  Ag12  1  0.49976344  0.50378533  -0.00582861  1
  Ag  Ag13  1  0.16434420  -0.00600029  0.83377567  1
  Ag  Ag14  1  0.83408108  0.17098295  0.00042201  1
  Ag  Ag15  1  0.17006847  0.50925224  0.67721470  1
  Ag  Ag16  1  -0.00138056  0.49864130  0.83697722  1
  Ag  Ag17  1  0.33933908  -0.00828795  0.67622396  1
  Ag  Ag18  1  0.50953927  -0.00574349  0.50227987  1
  Ag  Ag19  1  0.33864182  -0.01146062  -0.00374689  1
  Ag  Ag20  1  0.66597114  -0.00692368  0.66814963  1
  Ag  Ag21  1  0.82199125  0.84030358  0.34833270  1
  Ag  Ag22  1  0.33663187  0.33398474  0.32375393  1
  Ag  Ag23  1  -0.01182022  0.33060291  0.32466699  1
  Ag  Ag24  1  -0.00153222  0.16979591  0.16218470  1
  Ag  Ag25  1  0.34282598  0.83490707  0.15256791  1
  Ag  Ag26  1  0.66868472  0.33097403  0.68155658  1
  Ag  Ag27  1  0.50651165  0.83375782  0.33446702  1
  Ag  Ag28  1  0.83102285  0.33205900  0.49264754  1
  Ag  Ag29  1  0.83508427  0.17053059  0.32746872  1
  Ag  Ag30  1  0.33403373  0.67275747  0.33925730  1
  Ag  Ag31  1  0.66577152  0.83259631  0.15975883  1
  Ag  Ag32  1  0.17090351  0.50332958  -0.00394110  1
  Ag  Ag33  1  0.66833877  0.83332098  0.83424228  1
  Ag  Ag34  1  -0.01063618  0.33429684  -0.00098029  1
  Ag  Ag35  1  0.51469075  0.34391852  0.83776906  1
  Ag  Ag36  1  0.83632341  0.67901987  0.50766821  1
  Ag  Ag37  1  -0.00110518  0.66223258  -0.00245259  1
  Ag  Ag38  1  -0.01355247  0.83092009  0.50039990  1
  Ag  Ag39  1  0.66897645  -0.00758292  0.34063713  1
  Ag  Ag40  1  0.66467908  0.49481312  0.83426779  1
  Ag  Ag41  1  0.15616388  0.16714403  0.33207486  1
  Ag  Ag42  1  0.16217805  0.66942273  0.50281650  1
  Ag  Ag43  1  0.82270032  0.83817410  -0.00598524  1
  Ag  Ag44  1  0.33435594  0.50844799  0.83560117  1
  Ag  Ag45  1  0.66903694  0.83511923  0.50414976  1
  Ag  Ag46  1  0.33568320  0.33178573  0.00044411  1
  Ag  Ag47  1  0.83182183  -0.00742940  0.83367058  1
  Ag  Ag48  1  0.83063035  0.33045742  0.16140955  1
  Ag  Ag49  1  0.82942759  -0.00616466  0.50577471  1
  Ag  Ag50  1  0.66770160  0.49547168  0.15255848  1
  Ag  Ag51  1  -0.00396146  0.17364584  0.84109503  1
  Ag  Ag52  1  0.66759018  -0.01104790  -0.00383152  1
  Ag  Ag53  1  0.82883990  0.67504806  0.83292867  1
  Sb  Sb54  1  -0.00677367  0.33506010  0.67035027  1
  Sb  Sb55  1  0.00208216  0.66984785  0.67324071  1
  Sb  Sb56  1  0.83369552  0.50418929  0.67193485  1
  Sb  Sb57  1  -0.00588031  0.49437105  0.15999060  1
  Sb  Sb58  1  -0.00087305  0.50329266  0.50452599  1
  Sb  Sb59  1  0.16925062  0.66872462  0.16629009  1
  Sb  Sb60  1  0.16876080  0.83582757  0.33386826  1
  Sb  Sb61  1  0.50185484  0.16005328  0.66966202  1
  Sb  Sb62  1  0.50099722  -0.00338852  0.16736727  1
  Sb  Sb63  1  0.33661674  0.50208576  0.15934140  1
  Sb  Sb64  1  0.67057411  0.15789438  0.49788947  1
  Sb  Sb65  1  0.00040528  0.66430828  0.33127751  1
  Sb  Sb66  1  0.50449975  0.33416869  0.16122372  1
  Sb  Sb67  1  0.33793175  -0.00259479  0.33119397  1
  Sb  Sb68  1  -0.00396212  0.16477569  0.50002905  1
  Sb  Sb69  1  0.67070733  0.16491135  0.83563963  1
  Sb  Sb70  1  0.16281603  0.33554573  0.83523960  1
  Sb  Sb71  1  0.16994806  0.00090335  0.16105031  1
  Sb  Sb72  1  0.16949212  0.49713658  0.33111038  1
  Sb  Sb73  1  0.67048318  0.66638040  -0.00419775  1
  Sb  Sb74  1  -0.00725027  0.00358998  0.33434527  1
  Sb  Sb75  1  0.16332344  0.16583254  0.00139140  1
  Sb  Sb76  1  0.66805831  0.16529402  0.16557741  1
  Sb  Sb77  1  0.16691398  0.16323215  0.66656627  1
  Sb  Sb78  1  0.33152455  0.66936592  -0.00417591  1
  Sb  Sb79  1  -0.00488908  0.83064288  0.83335501  1
  Sb  Sb80  1  0.16715849  0.66883430  0.83111236  1
  Sb  Sb81  1  0.83169786  0.49853997  -0.00433853  1
  Sb  Sb82  1  0.50346696  -0.00557412  0.83144723  1
  Sb  Sb83  1  0.50133075  0.50363299  0.32609468  1
  Sb  Sb84  1  0.83202768  0.49802856  0.33373630  1
  Sb  Sb85  1  0.33920900  0.33357290  0.67332596  1
  Sb  Sb86  1  0.50218347  0.67320504  0.50453181  1
  Sb  Sb87  1  0.66769071  0.50292070  0.50458224  1
  Sb  Sb88  1  0.66548674  0.67290837  0.67059402  1
  Sb  Sb89  1  0.33665507  0.83373064  0.50662275  1
  Sb  Sb90  1  0.50650168  0.32899780  0.50276708  1
  Sb  Sb91  1  -0.00365305  0.00229170  -0.00272784  1
  Sb  Sb92  1  0.16394573  0.33189820  0.16515198  1
  Sb  Sb93  1  0.50049156  0.67143376  0.16073125  1
  Sb  Sb94  1  0.49835925  0.50678296  0.67558664  1
  Sb  Sb95  1  0.83146620  0.66603585  0.16344188  1
  Sb  Sb96  1  0.50319964  0.16467616  -0.00144567  1
  Sb  Sb97  1  -0.00378757  0.83695126  0.16510255  1
  Sb  Sb98  1  0.32891765  0.16290989  0.83944769  1
  Sb  Sb99  1  0.33196775  0.16616553  0.49415409  1
  Sb  Sb100  1  0.16301395  -0.00610690  0.50458863  1
  Sb  Sb101  1  0.16306301  0.33665888  0.49723685  1
  Sb  Sb102  1  0.83157745  0.00252466  0.16407149  1
  Sb  Sb103  1  -0.00378637  -0.00437259  0.66879499  1
  Sb  Sb104  1  0.83254919  0.16330006  0.67083858  1
  Sb  Sb105  1  0.66477721  0.67192225  0.33456061  1
  Sb  Sb106  1  0.33238171  0.50163761  0.50558131  1
  Sb  Sb107  1  0.50394032  0.16399351  0.33238270  1
  Te  Te108  1  0.16627470  0.16590774  0.17181960  1
  Te  Te109  1  0.16419836  0.16702180  0.49327787  1
  Te  Te110  1  0.16043378  0.15982416  0.83263330  1
  Te  Te111  1  0.16668613  0.50102738  0.15750096  1
  Te  Te112  1  0.16588203  0.50745274  0.50207820  1
  Te  Te113  1  0.16864611  0.50057547  0.83549354  1
  Te  Te114  1  0.16814141  0.83422404  0.16384099  1
  Te  Te115  1  0.16839111  0.82952180  0.50228135  1
  Te  Te116  1  0.16107705  0.83414466  0.83262275  1
  Te  Te117  1  0.48885504  0.16662788  0.16685457  1
  Te  Te118  1  0.49928726  0.15682195  0.50067420  1
  Te  Te119  1  0.49620302  0.18171853  0.83353206  1
  Te  Te120  1  0.50754318  0.50165784  0.15838999  1
  Te  Te121  1  0.49972916  0.49886028  0.49993521  1
  Te  Te122  1  0.50188231  0.50256663  0.83524307  1
  Te  Te123  1  0.50165381  0.83250677  0.16650506  1
  Te  Te124  1  0.50426135  0.83546843  0.49762496  1
  Te  Te125  1  0.50170437  0.83440159  0.83388114  1
  Te  Te126  1  0.83343334  0.16949362  0.16605046  1
  Te  Te127  1  0.83484678  0.17100904  0.49562240  1
  Te  Te128  1  0.83666423  0.16987025  0.83501953  1
  Te  Te129  1  0.82589424  0.49615489  0.16661642  1
  Te  Te130  1  0.83420928  0.49483844  0.50251334  1
  Te  Te131  1  0.82975605  0.49718477  0.83202549  1
  Te  Te132  1  0.82912571  0.83317425  0.15689787  1
  Te  Te133  1  0.82971248  0.83528698  0.50232683  1
  Te  Te134  1  0.83401119  0.83352804  0.83470763  1
  Te  Te135  1  0.17044711  -0.00230362  -0.00589673  1
  Te  Te136  1  0.16663327  0.00686097  0.33492608  1
  Te  Te137  1  0.16961308  -0.00460431  0.67167742  1
  Te  Te138  1  0.17279706  0.33459445  -0.00021352  1
  Te  Te139  1  0.17549411  0.32946792  0.33470283  1
  Te  Te140  1  0.16841727  0.33412670  0.66408711  1
  Te  Te141  1  0.16141255  0.66796874  0.00069434  1
  Te  Te142  1  0.16969609  0.66568936  0.33888579  1
  Te  Te143  1  0.16770739  0.66794495  0.66557945  1
  Te  Te144  1  0.50181625  -0.00360219  0.00008119  1
  Te  Te145  1  0.50644697  -0.00416671  0.33732412  1
  Te  Te146  1  0.50253151  -0.00483565  0.66483458  1
  Te  Te147  1  0.49987783  0.33134935  -0.00309342  1
  Te  Te148  1  0.49752984  0.33409265  0.33441369  1
  Te  Te149  1  0.50685034  0.33412014  0.67009182  1
  Te  Te150  1  0.49816613  0.66827268  -0.00705466  1
  Te  Te151  1  0.49465661  0.67096966  0.33519689  1
  Te  Te152  1  0.49375092  0.67320100  0.67135396  1
  Te  Te153  1  0.83043178  -0.00080037  -0.00253930  1
  Te  Te154  1  0.82824583  -0.00193475  0.33082638  1
  Te  Te155  1  0.82945222  -0.00231746  0.66816493  1
  Te  Te156  1  0.83188328  0.33471823  0.00049669  1
  Te  Te157  1  0.83211901  0.33499024  0.33136892  1
  Te  Te158  1  0.82768176  0.33268771  0.67032923  1
  Te  Te159  1  0.83947476  0.67046023  -0.00258604  1
  Te  Te160  1  0.83432850  0.67011625  0.33358529  1
  Te  Te161  1  0.83501499  0.67212504  0.66793563  1
  Te  Te162  1  -0.00335363  0.16854195  0.00093935  1
  Te  Te163  1  -0.00293249  0.17106200  0.33444116  1
  Te  Te164  1  0.00109491  0.16694448  0.67269667  1
  Te  Te165  1  -0.00025572  0.49631891  -0.00349747  1
  Te  Te166  1  0.00334726  0.49156658  0.33280959  1
  Te  Te167  1  0.00707667  0.50107490  0.67274783  1
  Te  Te168  1  0.00671386  0.83351269  0.00260969  1
  Te  Te169  1  -0.00265975  0.83129178  0.33667545  1
  Te  Te170  1  -0.00002818  0.83264620  0.66097524  1
  Te  Te171  1  0.33187094  0.16997422  0.00473671  1
  Te  Te172  1  0.33650002  0.16835108  0.32695747  1
  Te  Te173  1  0.33309640  0.16185574  0.66600042  1
  Te  Te174  1  0.33497090  0.50143097  -0.00385729  1
  Te  Te175  1  0.33473695  0.49695569  0.33192779  1
  Te  Te176  1  0.32953405  0.50031975  0.67411497  1
  Te  Te177  1  0.33286467  0.83069861  -0.00356612  1
  Te  Te178  1  0.33480287  0.83104262  0.33366913  1
  Te  Te179  1  0.33325041  0.83435034  0.66844295  1
  Te  Te180  1  0.67195524  0.16873173  0.00166411  1
  Te  Te181  1  0.67180877  0.16733965  0.33154127  1
  Te  Te182  1  0.66645931  0.16969545  0.66531876  1
  Te  Te183  1  0.66315311  0.49961387  -0.00411506  1
  Te  Te184  1  0.66451492  0.49652342  0.33590417  1
  Te  Te185  1  0.66598228  0.49427005  0.67209462  1
  Te  Te186  1  0.66403017  0.83078354  -0.00313319  1
  Te  Te187  1  0.66691370  0.83268219  0.33096796  1
  Te  Te188  1  0.66548350  0.83286208  0.67262285  1
  Te  Te189  1  0.00288830  0.00902157  0.16738616  1
  Te  Te190  1  -0.00673116  -0.00620353  0.50134137  1
  Te  Te191  1  -0.00552981  0.00315592  0.83327907  1
  Te  Te192  1  -0.00229678  0.32953282  0.16487549  1
  Te  Te193  1  -0.00592729  0.33447671  0.50009150  1
  Te  Te194  1  -0.00315760  0.33520941  0.83651151  1
  Te  Te195  1  0.00029096  0.66549632  0.15934238  1
  Te  Te196  1  -0.00274001  0.66961740  0.49737100  1
  Te  Te197  1  -0.00585454  0.66145302  0.83824291  1
  Te  Te198  1  0.33444718  -0.00502715  0.16131638  1
  Te  Te199  1  0.33220003  0.00224837  0.50307188  1
  Te  Te200  1  0.33646798  -0.00277906  0.83525580  1
  Te  Te201  1  0.33373272  0.33472116  0.16408984  1
  Te  Te202  1  0.33482310  0.33297108  0.49984106  1
  Te  Te203  1  0.32995289  0.33271177  0.83866873  1
  Te  Te204  1  0.33464861  0.67176825  0.17559888  1
  Te  Te205  1  0.33291930  0.66514426  0.50123898  1
  Te  Te206  1  0.33306262  0.66944784  0.83036408  1
  Te  Te207  1  0.66624542  -0.00455207  0.16023090  1
  Te  Te208  1  0.66989845  -0.00457849  0.50169290  1
  Te  Te209  1  0.66949863  -0.00139750  0.83318982  1
  Te  Te210  1  0.66909453  0.33214188  0.16495896  1
  Te  Te211  1  0.66924074  0.33514651  0.49075737  1
  Te  Te212  1  0.66951821  0.32895342  0.83793045  1
  Te  Te213  1  0.66616827  0.66861157  0.16787145  1
  Te  Te214  1  0.67466942  0.67095696  0.50198317  1
  Te  Te215  1  0.66804261  0.66835840  0.83211278  1
