# generated using pymatgen
data_AgSbTe2
_symmetry_space_group_name_H-M   'P 1'
_cell_length_a   18.32493047
_cell_length_b   18.32298789
_cell_length_c   18.31685223
_cell_angle_alpha   89.99796693
_cell_angle_beta   89.99981399
_cell_angle_gamma   89.99770120
_symmetry_Int_Tables_number   1
_chemical_formula_structural   AgSbTe2
_chemical_formula_sum   'Ag54 Sb54 Te108'
_cell_volume   6150.20329051
_cell_formula_units_Z   54
loop_
 _symmetry_equiv_pos_site_id
 _symmetry_equiv_pos_as_xyz
  1  'x, y, z'
loop_
 _atom_site_type_symbol
 _atom_site_label
 _atom_site_symmetry_multiplicity
 _atom_site_fract_x
 _atom_site_fract_y
 _atom_site_fract_z
 _atom_site_occupancy
  Ag  Ag0  1  0.49530003  0.66518910  0.50416208  1
  Ag  Ag1  1  -0.00175264  -0.00782149  0.66409296  1
  Ag  Ag2  1  0.50072741  -0.00329190  0.83099786  1
  Ag  Ag3  1  0.83097660  0.83483932  0.32953504  1
  Ag  Ag4  1  0.17047687  0.50825779  0.33091558  1
  Ag  Ag5  1  0.50307081  0.32964124  0.15739392  1
  Ag  Ag6  1  0.34105930  0.16204148  0.16446942  1
  Ag  Ag7  1  0.50325961  0.33226572  0.50986149  1
  Ag  Ag8  1  0.33617583  0.83979229  0.17028923  1
  Ag  Ag9  1  -0.00184701  0.17016052  0.16806701  1
  Ag  Ag10  1  0.00054735  0.49291446  0.16389257  1
  Ag  Ag11  1  -0.00055928  0.83690927  0.50730720  1
  Ag  Ag12  1  0.82501348  0.83372117  0.00216293  1
  Ag  Ag13  1  0.49916986  0.83026551  0.66366352  1
  Ag  Ag14  1  0.17608117  0.83152769  0.33834788  1
  Ag  Ag15  1  0.83280886  0.00370892  0.50016137  1
  Ag  Ag16  1  0.66580011  0.67041831  -0.00398772  1
  Ag  Ag17  1  0.33908420  -0.00838280  0.32809171  1
  Ag  Ag18  1  0.83199294  0.66897138  0.16162995  1
  Ag  Ag19  1  0.66725815  0.83191848  0.83262579  1
  Ag  Ag20  1  0.34370195  0.33226340  -0.00020421  1
  Ag  Ag21  1  0.34157276  0.33968363  0.66857373  1
  Ag  Ag22  1  0.66273154  -0.00029046  0.66241050  1
  Ag  Ag23  1  0.65872032  0.32723664  0.66626086  1
  Ag  Ag24  1  0.33346822  0.67308527  0.33909012  1
  Ag  Ag25  1  -0.00744120  0.33201254  0.00437430  1
  Ag  Ag26  1  0.33804514  0.00374417  0.00882932  1
  Ag  Ag27  1  0.17202087  0.00033539  0.16807873  1
  Ag  Ag28  1  0.50352187  0.83525015  -0.00036123  1
  Ag  Ag29  1  0.50273704  0.17315031  0.00909960  1
  Ag  Ag30  1  0.17751663  0.66808100  0.50102688  1
  Ag  Ag31  1  0.65863839  0.16754290  0.16620594  1
  Ag  Ag32  1  0.17501184  0.49906087  0.00489216  1
  Ag  Ag33  1  0.66020832  0.67494886  0.66896102  1
  Ag  Ag34  1  0.50096536  0.16158913  0.32707127  1
  Ag  Ag35  1  0.00479391  0.67572199  0.66527176  1
  Ag  Ag36  1  0.17363437  0.15948884  0.66241229  1
  Ag  Ag37  1  0.82899991  0.32980601  0.16501769  1
  Ag  Ag38  1  0.82528531  0.32546897  0.49638322  1
  Ag  Ag39  1  0.16662106  0.83305735  0.66019760  1
  Ag  Ag40  1  0.49554562  0.48857129  -0.00408155  1
  Ag  Ag41  1  0.49649769  0.49657719  0.66865281  1
  Ag  Ag42  1  0.83107766  0.67145731  0.83663261  1
  Ag  Ag43  1  0.50047845  0.17368585  0.66411850  1
  Ag  Ag44  1  -0.00751580  0.16192491  0.49917421  1
  Ag  Ag45  1  -0.00642321  0.83260214  0.82432158  1
  Ag  Ag46  1  0.34182684  0.66446298  0.65989595  1
  Ag  Ag47  1  0.33557273  0.50409441  0.50495668  1
  Ag  Ag48  1  0.33635153  0.50062264  0.82771700  1
  Ag  Ag49  1  0.82185367  0.16777629  0.00681811  1
  Ag  Ag50  1  0.66600713  0.16614596  0.49963058  1
  Ag  Ag51  1  0.49459393  0.84021902  0.33394371  1
  Ag  Ag52  1  0.65924161  0.00098557  0.33741136  1
  Ag  Ag53  1  0.66272147  0.33055900  0.00006094  1
  Sb  Sb54  1  0.66948623  0.83895847  0.50472084  1
  Sb  Sb55  1  0.50035266  0.33014046  0.83275987  1
  Sb  Sb56  1  -0.00071455  0.33165640  0.66770232  1
  Sb  Sb57  1  0.00490956  0.49998173  0.49782190  1
  Sb  Sb58  1  -0.00144929  0.16174578  0.83201133  1
  Sb  Sb59  1  0.66371131  0.32650850  0.33294375  1
  Sb  Sb60  1  0.83089891  0.66979615  0.49996398  1
  Sb  Sb61  1  0.83601596  0.00205190  0.16958426  1
  Sb  Sb62  1  0.66174697  0.67571360  0.33541887  1
  Sb  Sb63  1  0.83059964  0.33640607  0.83699607  1
  Sb  Sb64  1  0.65959981  0.49389447  0.50215745  1
  Sb  Sb65  1  0.33636263  0.33296402  0.33179155  1
  Sb  Sb66  1  0.82967664  0.49985920  0.00132487  1
  Sb  Sb67  1  0.00219061  0.00249807  -0.00328956  1
  Sb  Sb68  1  0.17194996  -0.00191973  0.83473723  1
  Sb  Sb69  1  0.66872036  0.49406427  0.16380604  1
  Sb  Sb70  1  0.82873935  0.16553735  0.66582037  1
  Sb  Sb71  1  -0.00541636  0.66405055  -0.00242605  1
  Sb  Sb72  1  0.00116658  0.83501159  0.16761280  1
  Sb  Sb73  1  0.82689611  0.16204831  0.33120696  1
  Sb  Sb74  1  -0.00127614  0.33201763  0.32875829  1
  Sb  Sb75  1  0.82609307  0.50132843  0.66573586  1
  Sb  Sb76  1  0.66035975  0.00112617  0.00042694  1
  Sb  Sb77  1  0.83721799  0.50486412  0.33153410  1
  Sb  Sb78  1  0.82854383  -0.00561934  0.83041911  1
  Sb  Sb79  1  0.50321495  0.66398956  0.16844404  1
  Sb  Sb80  1  0.00487073  0.50480095  0.83750560  1
  Sb  Sb81  1  0.33679451  0.16908124  0.83629455  1
  Sb  Sb82  1  0.16875847  0.33387561  0.83406441  1
  Sb  Sb83  1  0.00455798  0.66964157  0.33812534  1
  Sb  Sb84  1  0.17538186  0.50429451  0.66562807  1
  Sb  Sb85  1  0.17108835  0.16987740  0.00003979  1
  Sb  Sb86  1  0.50416625  0.00117007  0.50062519  1
  Sb  Sb87  1  0.33267601  0.82903464  0.49587245  1
  Sb  Sb88  1  0.16473029  0.66894501  0.17122265  1
  Sb  Sb89  1  0.49484603  0.49961531  0.33514320  1
  Sb  Sb90  1  0.49412085  0.00611888  0.16502328  1
  Sb  Sb91  1  0.83284907  0.83283934  0.66778456  1
  Sb  Sb92  1  0.66161576  0.83923268  0.16414882  1
  Sb  Sb93  1  0.34171175  0.66480182  -0.00033653  1
  Sb  Sb94  1  0.17019707  0.33585831  0.50112565  1
  Sb  Sb95  1  0.16301514  -0.00651140  0.49800275  1
  Sb  Sb96  1  0.33771341  0.83003042  0.83439487  1
  Sb  Sb97  1  0.33787409  -0.00140017  0.66427973  1
  Sb  Sb98  1  0.33058411  0.49805854  0.16655263  1
  Sb  Sb99  1  0.50435711  0.67150154  0.82595957  1
  Sb  Sb100  1  0.00035301  -0.00100220  0.33780196  1
  Sb  Sb101  1  0.66009459  0.50614235  0.83369313  1
  Sb  Sb102  1  0.66412897  0.16139375  0.83298322  1
  Sb  Sb103  1  0.16730495  0.32984008  0.16505904  1
  Sb  Sb104  1  0.33935080  0.17067991  0.49816346  1
  Sb  Sb105  1  0.17205130  0.16281711  0.33546281  1
  Sb  Sb106  1  0.16414114  0.66845190  0.82717514  1
  Sb  Sb107  1  0.16922609  0.82936911  0.00063747  1
  Te  Te108  1  0.16413909  0.16215035  0.16765024  1
  Te  Te109  1  0.16420271  0.16721040  0.50355876  1
  Te  Te110  1  0.16618413  0.16566063  0.82162589  1
  Te  Te111  1  0.16297440  0.50064933  0.16718348  1
  Te  Te112  1  0.17136016  0.50460899  0.49657120  1
  Te  Te113  1  0.17322287  0.50093812  0.83925620  1
  Te  Te114  1  0.17025910  0.83640093  0.16964775  1
  Te  Te115  1  0.16207815  0.82952569  0.50030071  1
  Te  Te116  1  0.16122905  0.83380869  0.82872580  1
  Te  Te117  1  0.49980984  0.17016960  0.16655281  1
  Te  Te118  1  0.50361530  0.16915686  0.50395892  1
  Te  Te119  1  0.49999340  0.15771377  0.82817366  1
  Te  Te120  1  0.49974436  0.49250686  0.16336714  1
  Te  Te121  1  0.49516084  0.49805231  0.50248593  1
  Te  Te122  1  0.49529649  0.50249245  0.83428947  1
  Te  Te123  1  0.49651614  0.83011229  0.16793745  1
  Te  Te124  1  0.50259289  0.83093523  0.50124560  1
  Te  Te125  1  0.50230839  0.83620629  0.83383560  1
  Te  Te126  1  0.83723871  0.16882392  0.16570347  1
  Te  Te127  1  0.83173434  0.16641288  0.49858537  1
  Te  Te128  1  0.83287155  0.16693042  0.84538721  1
  Te  Te129  1  0.83925942  0.49558448  0.16726845  1
  Te  Te130  1  0.83422086  0.49208481  0.49776647  1
  Te  Te131  1  0.83498577  0.50930009  0.83347793  1
  Te  Te132  1  0.83258513  0.83285163  0.16480950  1
  Te  Te133  1  0.83672146  0.83604636  0.49486336  1
  Te  Te134  1  0.83154181  0.83132218  0.83855028  1
  Te  Te135  1  0.17330574  -0.00017106  0.00341624  1
  Te  Te136  1  0.17108106  -0.00447455  0.33029769  1
  Te  Te137  1  0.16636049  -0.00284564  0.66646086  1
  Te  Te138  1  0.16955469  0.33788578  0.00019772  1
  Te  Te139  1  0.16758136  0.33886895  0.33396971  1
  Te  Te140  1  0.16959406  0.33008958  0.66634254  1
  Te  Te141  1  0.16735803  0.66028371  0.00064647  1
  Te  Te142  1  0.17059230  0.67041076  0.33726620  1
  Te  Te143  1  0.16570156  0.67047252  0.66187184  1
  Te  Te144  1  0.49753083  -0.00402302  -0.00077588  1
  Te  Te145  1  0.49956162  0.00060321  0.33487356  1
  Te  Te146  1  0.50129049  -0.00517460  0.66663729  1
  Te  Te147  1  0.50129056  0.33077168  -0.00279599  1
  Te  Te148  1  0.49970008  0.32946302  0.33459110  1
  Te  Te149  1  0.49932594  0.33391650  0.66868938  1
  Te  Te150  1  0.50680974  0.67353469  0.00142079  1
  Te  Te151  1  0.49531240  0.66876839  0.33758569  1
  Te  Te152  1  0.50063827  0.66952440  0.66508065  1
  Te  Te153  1  0.83318989  -0.00052103  -0.00025751  1
  Te  Te154  1  0.83187207  -0.00510519  0.33757495  1
  Te  Te155  1  0.83172359  0.00052086  0.66281873  1
  Te  Te156  1  0.82997513  0.33211892  0.00285157  1
  Te  Te157  1  0.83138899  0.33398896  0.33204857  1
  Te  Te158  1  0.82890544  0.33388509  0.66375047  1
  Te  Te159  1  0.82828141  0.66776982  0.00152357  1
  Te  Te160  1  0.83216111  0.67302837  0.32976023  1
  Te  Te161  1  0.82689269  0.66521895  0.66799529  1
  Te  Te162  1  0.00325521  0.17049246  0.00110651  1
  Te  Te163  1  0.00196472  0.16585641  0.33443530  1
  Te  Te164  1  -0.00131256  0.16532809  0.66355726  1
  Te  Te165  1  0.00163139  0.49624295  0.00323915  1
  Te  Te166  1  0.00717900  0.50111467  0.32793551  1
  Te  Te167  1  0.00115041  0.50320901  0.66791692  1
  Te  Te168  1  -0.00185415  0.83345910  -0.00225743  1
  Te  Te169  1  -0.00093166  0.83423634  0.33646545  1
  Te  Te170  1  -0.00330767  0.83315242  0.66470994  1
  Te  Te171  1  0.33596085  0.16818182  0.00266058  1
  Te  Te172  1  0.33852867  0.16488496  0.32883978  1
  Te  Te173  1  0.33598161  0.16730492  0.66665040  1
  Te  Te174  1  0.33634837  0.49796008  0.00073628  1
  Te  Te175  1  0.32931314  0.50320493  0.33489027  1
  Te  Te176  1  0.33589008  0.50029763  0.66591911  1
  Te  Te177  1  0.33621316  0.83382695  0.00285397  1
  Te  Te178  1  0.33513953  0.83290064  0.33239770  1
  Te  Te179  1  0.33489197  0.83032032  0.66778417  1
  Te  Te180  1  0.66327291  0.16751649  0.00021271  1
  Te  Te181  1  0.66197967  0.16130522  0.33467581  1
  Te  Te182  1  0.66331393  0.16634213  0.66632747  1
  Te  Te183  1  0.65944130  0.49764457  -0.00033192  1
  Te  Te184  1  0.66699176  0.50432844  0.33294761  1
  Te  Te185  1  0.65815209  0.49737368  0.66782649  1
  Te  Te186  1  0.66594164  0.83424384  -0.00156517  1
  Te  Te187  1  0.66361686  0.84053461  0.33393662  1
  Te  Te188  1  0.66548211  0.83424731  0.66930276  1
  Te  Te189  1  0.00627454  0.00450265  0.16560346  1
  Te  Te190  1  -0.00321043  0.00083023  0.50392087  1
  Te  Te191  1  0.00040332  -0.00622728  0.82701556  1
  Te  Te192  1  -0.00083837  0.33119344  0.16332081  1
  Te  Te193  1  -0.00344244  0.32974354  0.50057099  1
  Te  Te194  1  -0.00091128  0.33397724  0.84194295  1
  Te  Te195  1  -0.00630762  0.66572538  0.16660609  1
  Te  Te196  1  -0.00192583  0.66813672  0.50586736  1
  Te  Te197  1  -0.00494299  0.67170955  0.82843510  1
  Te  Te198  1  0.33325718  0.00085299  0.16738025  1
  Te  Te199  1  0.33191315  0.00202151  0.49277249  1
  Te  Te200  1  0.33942588  -0.00098638  0.83774773  1
  Te  Te201  1  0.33671646  0.32944745  0.16291909  1
  Te  Te202  1  0.33801976  0.33843649  0.50304546  1
  Te  Te203  1  0.33411814  0.33804292  0.83371163  1
  Te  Te204  1  0.33388436  0.67068903  0.16986517  1
  Te  Te205  1  0.33515010  0.66673916  0.50033599  1
  Te  Te206  1  0.33229949  0.66197984  0.82870876  1
  Te  Te207  1  0.66898391  0.00744459  0.17175651  1
  Te  Te208  1  0.67043782  0.00448001  0.50179002  1
  Te  Te209  1  0.66232803  -0.00614065  0.82797924  1
  Te  Te210  1  0.66693471  0.32818806  0.16492557  1
  Te  Te211  1  0.66479517  0.32852255  0.50121942  1
  Te  Te212  1  0.66803428  0.33487515  0.83271366  1
  Te  Te213  1  0.67177952  0.66635953  0.16460252  1
  Te  Te214  1  0.66241914  0.66508863  0.50503145  1
  Te  Te215  1  0.66996092  0.67119302  0.83347843  1
