# generated using pymatgen
data_AgSbTe2
_symmetry_space_group_name_H-M   'P 1'
_cell_length_a   18.31734923
_cell_length_b   18.32137438
_cell_length_c   18.32264257
_cell_angle_alpha   90.00042710
_cell_angle_beta   89.99875809
_cell_angle_gamma   90.00148415
_symmetry_Int_Tables_number   1
_chemical_formula_structural   AgSbTe2
_chemical_formula_sum   'Ag54 Sb54 Te108'
_cell_volume   6149.06075674
_cell_formula_units_Z   54
loop_
 _symmetry_equiv_pos_site_id
 _symmetry_equiv_pos_as_xyz
  1  'x, y, z'
loop_
 _atom_site_type_symbol
 _atom_site_label
 _atom_site_symmetry_multiplicity
 _atom_site_fract_x
 _atom_site_fract_y
 _atom_site_fract_z
 _atom_site_occupancy
  Ag  Ag0  1  0.16341848  0.16575453  0.66689476  1
  Ag  Ag1  1  0.83952179  0.50084120  0.33492164  1
  Ag  Ag2  1  0.15729691  0.49356313  0.33230404  1
  Ag  Ag3  1  0.16302540  0.17047861  0.33914256  1
  Ag  Ag4  1  0.83821945  0.33097086  0.84094971  1
  Ag  Ag5  1  0.00142585  0.83452235  0.84045556  1
  Ag  Ag6  1  0.66649849  0.16538875  0.83999421  1
  Ag  Ag7  1  0.66687382  -0.00600321  0.66042323  1
  Ag  Ag8  1  0.50987578  0.67847066  0.49844696  1
  Ag  Ag9  1  0.32157473  0.49700562  0.83489884  1
  Ag  Ag10  1  0.15504756  0.32570254  0.49459228  1
  Ag  Ag11  1  0.16203416  0.49995691  -0.00199298  1
  Ag  Ag12  1  0.67626408  0.33108645  0.00222493  1
  Ag  Ag13  1  0.00018496  0.49074469  0.49207990  1
  Ag  Ag14  1  -0.00292883  0.33205227  0.00181055  1
  Ag  Ag15  1  0.50058005  -0.00903319  0.49913234  1
  Ag  Ag16  1  -0.00207684  0.83104810  0.16251620  1
  Ag  Ag17  1  0.66720212  0.16914886  0.16110914  1
  Ag  Ag18  1  0.16233749  0.66690080  0.83633299  1
  Ag  Ag19  1  0.33044400  0.66653468  -0.00208848  1
  Ag  Ag20  1  0.84031380  0.00151651  0.83975489  1
  Ag  Ag21  1  0.51045487  0.83168740  0.34162074  1
  Ag  Ag22  1  0.67587794  -0.00638893  0.33810109  1
  Ag  Ag23  1  0.16021396  0.83465034  0.33449093  1
  Ag  Ag24  1  0.32661541  0.17079229  0.83622853  1
  Ag  Ag25  1  0.83580387  0.00012206  0.16594504  1
  Ag  Ag26  1  0.83383656  0.83205853  0.33086106  1
  Ag  Ag27  1  0.50455777  0.82813106  0.65447341  1
  Ag  Ag28  1  0.50821252  0.33764430  0.16628269  1
  Ag  Ag29  1  0.83477587  0.33048741  0.16528379  1
  Ag  Ag30  1  0.66118816  0.83126812  0.49622361  1
  Ag  Ag31  1  -0.00191202  -0.00147481  0.33070426  1
  Ag  Ag32  1  0.84267548  0.33932912  0.49240889  1
  Ag  Ag33  1  -0.00065590  0.49861821  0.17383092  1
  Ag  Ag34  1  0.66783364  0.67371080  0.34029545  1
  Ag  Ag35  1  0.34735025  0.83288017  0.49701552  1
  Ag  Ag36  1  0.16501871  0.16741333  -0.00234798  1
  Ag  Ag37  1  0.15895636  0.00108118  0.83330319  1
  Ag  Ag38  1  0.16382121  0.00253750  0.49847370  1
  Ag  Ag39  1  0.66528016  0.66599794  0.00119480  1
  Ag  Ag40  1  0.50442515  0.66500011  0.17025345  1
  Ag  Ag41  1  -0.00067111  0.33859210  0.65318826  1
  Ag  Ag42  1  -0.00063915  -0.00301310  0.00174679  1
  Ag  Ag43  1  0.66643052  0.67278024  0.65980411  1
  Ag  Ag44  1  0.00409517  0.17722725  0.49673594  1
  Ag  Ag45  1  0.50410385  0.16746195  0.00053310  1
  Ag  Ag46  1  0.00003525  0.33737900  0.34099928  1
  Ag  Ag47  1  0.15757846  0.83343679  -0.00071532  1
  Ag  Ag48  1  0.31660022  0.33415103  0.33330820  1
  Ag  Ag49  1  0.00283276  0.49933333  0.83439723  1
  Ag  Ag50  1  0.84158940  0.83478445  0.00560581  1
  Ag  Ag51  1  0.50118803  0.50672716  0.66553460  1
  Ag  Ag52  1  0.82997332  0.66575333  0.49643958  1
  Ag  Ag53  1  -0.00304148  0.66158106  0.66739295  1
  Sb  Sb54  1  0.33607050  0.66522735  0.33074477  1
  Sb  Sb55  1  0.15901234  0.33283150  0.17171392  1
  Sb  Sb56  1  0.16704540  0.66645695  0.16266291  1
  Sb  Sb57  1  0.15711748  -0.00020358  0.16791314  1
  Sb  Sb58  1  0.33624773  0.16949384  0.16283179  1
  Sb  Sb59  1  0.32702709  0.00138004  0.33506579  1
  Sb  Sb60  1  0.32318464  -0.00238224  -0.00208174  1
  Sb  Sb61  1  0.83087278  0.83279644  0.66392035  1
  Sb  Sb62  1  -0.00422052  0.66533756  0.33798566  1
  Sb  Sb63  1  0.32616564  0.83253115  0.83070720  1
  Sb  Sb64  1  0.84052995  0.50130759  0.00436017  1
  Sb  Sb65  1  0.50078869  0.50444473  0.33588398  1
  Sb  Sb66  1  0.67296751  0.33354080  0.67046155  1
  Sb  Sb67  1  0.50205418  0.33335616  0.49516187  1
  Sb  Sb68  1  0.33409736  0.66648586  0.66967383  1
  Sb  Sb69  1  0.15921253  0.33180529  0.83205601  1
  Sb  Sb70  1  0.33495586  -0.00044321  0.66613389  1
  Sb  Sb71  1  0.67246213  0.83458252  0.17291178  1
  Sb  Sb72  1  0.67299048  0.83628688  0.83065128  1
  Sb  Sb73  1  0.83527445  0.50094671  0.66187111  1
  Sb  Sb74  1  0.49794020  0.66630683  0.83150852  1
  Sb  Sb75  1  -0.00239933  0.00035162  0.66638994  1
  Sb  Sb76  1  0.49738020  0.16615638  0.67027629  1
  Sb  Sb77  1  0.32807075  0.50319622  0.50205791  1
  Sb  Sb78  1  0.83586810  0.16573900  0.00015433  1
  Sb  Sb79  1  0.49618768  0.49793871  -0.00204498  1
  Sb  Sb80  1  0.16352276  0.49715446  0.66761742  1
  Sb  Sb81  1  0.83899701  0.16529655  0.33224774  1
  Sb  Sb82  1  0.00066842  0.66882485  -0.00403494  1
  Sb  Sb83  1  0.67288234  0.50684105  0.49981118  1
  Sb  Sb84  1  0.50187350  0.00045262  0.83077386  1
  Sb  Sb85  1  0.00101090  0.16709166  0.83246526  1
  Sb  Sb86  1  0.67142670  0.16198976  0.49950193  1
  Sb  Sb87  1  0.83857349  0.16703077  0.66784526  1
  Sb  Sb88  1  0.50366449  0.33324311  0.83805573  1
  Sb  Sb89  1  0.67244137  0.49778929  0.16676224  1
  Sb  Sb90  1  0.32794718  0.49921046  0.16398740  1
  Sb  Sb91  1  0.83873334  0.66747888  0.83136737  1
  Sb  Sb92  1  0.49639128  0.16306125  0.33002017  1
  Sb  Sb93  1  0.67491475  0.33139691  0.32871669  1
  Sb  Sb94  1  0.83579329  -0.00177060  0.49742219  1
  Sb  Sb95  1  0.32975377  0.33515655  0.00312749  1
  Sb  Sb96  1  0.51071987  -0.00158244  0.17166997  1
  Sb  Sb97  1  -0.00336802  0.16816924  0.16963404  1
  Sb  Sb98  1  0.32531845  0.16341926  0.50210647  1
  Sb  Sb99  1  0.50047090  0.83536214  0.00226933  1
  Sb  Sb100  1  0.32677185  0.33347547  0.66358116  1
  Sb  Sb101  1  0.16346002  0.66863485  0.50235030  1
  Sb  Sb102  1  0.83093139  0.66807817  0.17072983  1
  Sb  Sb103  1  0.67199752  0.49788736  0.83386267  1
  Sb  Sb104  1  -0.00232900  0.83270239  0.49740548  1
  Sb  Sb105  1  0.16723664  0.83678063  0.66554997  1
  Sb  Sb106  1  0.32869017  0.83190137  0.17026820  1
  Sb  Sb107  1  0.67445538  0.00117332  0.00056691  1
  Te  Te108  1  0.16815629  0.16586819  0.16077199  1
  Te  Te109  1  0.16530888  0.16513547  0.49832310  1
  Te  Te110  1  0.16602071  0.16558542  0.83558442  1
  Te  Te111  1  0.16006760  0.49985438  0.16699790  1
  Te  Te112  1  0.16262042  0.49978778  0.49702830  1
  Te  Te113  1  0.16445784  0.49866605  0.83426120  1
  Te  Te114  1  0.16072232  0.83323730  0.16634398  1
  Te  Te115  1  0.16530619  0.83713009  0.49766387  1
  Te  Te116  1  0.16297797  0.83632070  0.83388276  1
  Te  Te117  1  0.50489764  0.16795601  0.16218403  1
  Te  Te118  1  0.49898306  0.16267330  0.50061811  1
  Te  Te119  1  0.50212308  0.16650054  0.83871618  1
  Te  Te120  1  0.49979772  0.50137724  0.16687152  1
  Te  Te121  1  0.49783056  0.50144626  0.50439333  1
  Te  Te122  1  0.49864361  0.49960393  0.82890735  1
  Te  Te123  1  0.49878573  0.82835888  0.17104235  1
  Te  Te124  1  0.50318150  0.83426734  0.49814545  1
  Te  Te125  1  0.49818925  0.83445822  0.83049906  1
  Te  Te126  1  0.82786349  0.16672264  0.16673218  1
  Te  Te127  1  0.83994100  0.17157136  0.50002228  1
  Te  Te128  1  0.82938842  0.16625630  0.83346244  1
  Te  Te129  1  0.83953634  0.49681623  0.17200612  1
  Te  Te130  1  0.83847511  0.50072510  0.49625832  1
  Te  Te131  1  0.83987542  0.49479026  0.83364355  1
  Te  Te132  1  0.83728811  0.83476509  0.16800452  1
  Te  Te133  1  0.82897279  0.83052263  0.49462060  1
  Te  Te134  1  0.83940998  0.83603794  0.83639647  1
  Te  Te135  1  0.15975939  -0.00272206  -0.00102013  1
  Te  Te136  1  0.16168841  -0.00221078  0.33422117  1
  Te  Te137  1  0.16590261  0.00431083  0.66621415  1
  Te  Te138  1  0.16326381  0.33425393  0.00134278  1
  Te  Te139  1  0.16079354  0.33372209  0.33399268  1
  Te  Te140  1  0.16087158  0.32925956  0.66013388  1
  Te  Te141  1  0.16725996  0.66743943  -0.00272645  1
  Te  Te142  1  0.16828385  0.67083026  0.33269593  1
  Te  Te143  1  0.16252498  0.66733808  0.67229534  1
  Te  Te144  1  0.49870534  0.00531895  0.00086262  1
  Te  Te145  1  0.49983083  -0.00495697  0.33816235  1
  Te  Te146  1  0.50519423  -0.00170185  0.66295431  1
  Te  Te147  1  0.50058199  0.32983743  0.00532084  1
  Te  Te148  1  0.50464553  0.33383532  0.32740723  1
  Te  Te149  1  0.50136010  0.33605297  0.66554408  1
  Te  Te150  1  0.50347443  0.66683103  0.00137277  1
  Te  Te151  1  0.50296293  0.66921184  0.33562771  1
  Te  Te152  1  0.50161516  0.66766267  0.66474930  1
  Te  Te153  1  0.83868474  -0.00378745  -0.00027432  1
  Te  Te154  1  0.83663175  -0.00167483  0.33256415  1
  Te  Te155  1  0.82774781  0.00003798  0.67129648  1
  Te  Te156  1  0.83426032  0.33494808  0.00189979  1
  Te  Te157  1  0.83892852  0.33385460  0.33180825  1
  Te  Te158  1  0.83965907  0.33371211  0.66809641  1
  Te  Te159  1  0.82702748  0.67154361  -0.00017002  1
  Te  Te160  1  0.82912878  0.66831108  0.33587688  1
  Te  Te161  1  0.83099971  0.66661969  0.66226021  1
  Te  Te162  1  0.00421066  0.16550317  0.00096667  1
  Te  Te163  1  0.00439290  0.16477638  0.33482879  1
  Te  Te164  1  0.00497595  0.16908935  0.66190969  1
  Te  Te165  1  0.00345064  0.50089511  -0.00231508  1
  Te  Te166  1  -0.00000574  0.50144446  0.33343285  1
  Te  Te167  1  -0.00060686  0.49905269  0.67082306  1
  Te  Te168  1  -0.00001313  0.83272861  0.00002409  1
  Te  Te169  1  -0.00133663  0.83272850  0.33170474  1
  Te  Te170  1  -0.00062463  0.82935529  0.67239324  1
  Te  Te171  1  0.32918636  0.16694427  -0.00407780  1
  Te  Te172  1  0.32670305  0.17199562  0.33256994  1
  Te  Te173  1  0.32719615  0.16742635  0.67427750  1
  Te  Te174  1  0.32765371  0.50310754  -0.00426249  1
  Te  Te175  1  0.32915494  0.49612394  0.33298503  1
  Te  Te176  1  0.33736472  0.49906860  0.67267598  1
  Te  Te177  1  0.32957297  0.82767418  -0.00001028  1
  Te  Te178  1  0.32666264  0.83333046  0.33711438  1
  Te  Te179  1  0.33964586  0.83333579  0.66068820  1
  Te  Te180  1  0.66724920  0.16756574  -0.00021647  1
  Te  Te181  1  0.66527232  0.16170168  0.33106402  1
  Te  Te182  1  0.66554117  0.16392019  0.66904410  1
  Te  Te183  1  0.66566351  0.49952362  -0.00100500  1
  Te  Te184  1  0.67119563  0.50493920  0.33313172  1
  Te  Te185  1  0.66229317  0.50350807  0.66749879  1
  Te  Te186  1  0.66902576  0.83102020  -0.00021670  1
  Te  Te187  1  0.66936346  0.83375475  0.33368074  1
  Te  Te188  1  0.66444130  0.83304612  0.66448590  1
  Te  Te189  1  -0.00590258  -0.00045176  0.16832630  1
  Te  Te190  1  0.00325784  0.00050611  0.49779284  1
  Te  Te191  1  -0.00016187  0.00055394  0.83298759  1
  Te  Te192  1  -0.00467354  0.33446443  0.16157845  1
  Te  Te193  1  -0.00085726  0.33351221  0.49808492  1
  Te  Te194  1  -0.00313294  0.33346775  0.84259437  1
  Te  Te195  1  -0.00099281  0.66667307  0.16687028  1
  Te  Te196  1  -0.00351329  0.66441519  0.50694108  1
  Te  Te197  1  0.00279673  0.66478772  0.82959369  1
  Te  Te198  1  0.33691798  0.00018447  0.16624866  1
  Te  Te199  1  0.33081477  -0.00435507  0.49957903  1
  Te  Te200  1  0.32646655  0.00439269  0.83303825  1
  Te  Te201  1  0.34146922  0.33426456  0.17181112  1
  Te  Te202  1  0.33227898  0.33370977  0.49451768  1
  Te  Te203  1  0.33397777  0.33407681  0.83350487  1
  Te  Te204  1  0.34111455  0.66568532  0.16022504  1
  Te  Te205  1  0.33513824  0.67109017  0.50028828  1
  Te  Te206  1  0.32744226  0.66408884  0.83713978  1
  Te  Te207  1  0.67513615  0.00429260  0.17095464  1
  Te  Te208  1  0.66803618  -0.00250102  0.49873965  1
  Te  Te209  1  0.66989243  0.00407129  0.83216441  1
  Te  Te210  1  0.67029355  0.33180693  0.16294624  1
  Te  Te211  1  0.67287700  0.33254767  0.50032479  1
  Te  Te212  1  0.67252865  0.32939510  0.83867164  1
  Te  Te213  1  0.66361817  0.66593295  0.16415214  1
  Te  Te214  1  0.66771405  0.66839992  0.50034787  1
  Te  Te215  1  0.66783421  0.66700391  0.83332156  1
