# generated using pymatgen
data_AgSbTe2
_symmetry_space_group_name_H-M   'P 1'
_cell_length_a   18.31519895
_cell_length_b   18.32431655
_cell_length_c   18.32312130
_cell_angle_alpha   89.99932214
_cell_angle_beta   89.99966773
_cell_angle_gamma   90.00170783
_symmetry_Int_Tables_number   1
_chemical_formula_structural   AgSbTe2
_chemical_formula_sum   'Ag54 Sb54 Te108'
_cell_volume   6149.48692639
_cell_formula_units_Z   54
loop_
 _symmetry_equiv_pos_site_id
 _symmetry_equiv_pos_as_xyz
  1  'x, y, z'
loop_
 _atom_site_type_symbol
 _atom_site_label
 _atom_site_symmetry_multiplicity
 _atom_site_fract_x
 _atom_site_fract_y
 _atom_site_fract_z
 _atom_site_occupancy
  Ag  Ag0  1  0.66466927  0.66588235  0.66908737  1
  Ag  Ag1  1  0.50086305  0.48997324  0.00091271  1
  Ag  Ag2  1  0.16371644  0.83027372  0.65801920  1
  Ag  Ag3  1  0.16245177  0.50193962  0.65341531  1
  Ag  Ag4  1  0.00333742  0.50000194  0.16690677  1
  Ag  Ag5  1  0.83595312  0.33173081  0.16747682  1
  Ag  Ag6  1  0.82971851  0.17059522  0.33290058  1
  Ag  Ag7  1  0.34080373  0.32758686  0.33132757  1
  Ag  Ag8  1  0.84027500  0.66503864  0.49893630  1
  Ag  Ag9  1  0.83972297  0.33098531  0.49655904  1
  Ag  Ag10  1  0.66538786  0.66281685  0.33351830  1
  Ag  Ag11  1  0.00184083  0.83337625  0.16576772  1
  Ag  Ag12  1  0.83257723  0.16876997  -0.00098615  1
  Ag  Ag13  1  0.83742218  0.48919628  0.00240381  1
  Ag  Ag14  1  -0.00313015  0.17083882  0.50589206  1
  Ag  Ag15  1  0.16326021  0.66886864  0.17589612  1
  Ag  Ag16  1  0.16617812  0.82719076  0.33915575  1
  Ag  Ag17  1  -0.00149159  0.32901527  -0.00416085  1
  Ag  Ag18  1  0.49744216  0.49039280  0.33144556  1
  Ag  Ag19  1  0.15725030  0.34059768  0.49937172  1
  Ag  Ag20  1  0.66798368  0.00113583  -0.00496664  1
  Ag  Ag21  1  0.67065938  0.83192702  0.15912034  1
  Ag  Ag22  1  0.16562553  -0.00452135  0.16609504  1
  Ag  Ag23  1  -0.00277985  0.32698736  0.66196626  1
  Ag  Ag24  1  0.83295223  0.00357577  0.83449290  1
  Ag  Ag25  1  0.33415901  0.16626287  0.15987410  1
  Ag  Ag26  1  0.65879398  0.16112205  0.83617166  1
  Ag  Ag27  1  0.33621000  0.32659039  0.00432204  1
  Ag  Ag28  1  0.66586311  0.84160283  0.83604141  1
  Ag  Ag29  1  -0.00033133  0.00345632  0.67230002  1
  Ag  Ag30  1  0.50768248  0.00938801  0.83476998  1
  Ag  Ag31  1  -0.00242533  0.16184637  0.83255887  1
  Ag  Ag32  1  0.50109243  0.17362714  0.33380748  1
  Ag  Ag33  1  0.16015209  0.66476347  0.49642951  1
  Ag  Ag34  1  0.16809124  0.50291123  0.33521890  1
  Ag  Ag35  1  0.50542544  0.66834922  0.83318839  1
  Ag  Ag36  1  0.00343848  0.83462762  0.50401280  1
  Ag  Ag37  1  0.50130157  0.33181822  0.49581357  1
  Ag  Ag38  1  0.33300587  0.00821550  0.00233246  1
  Ag  Ag39  1  0.50183000  0.32249613  0.83208984  1
  Ag  Ag40  1  -0.00361710  0.84245588  0.83075418  1
  Ag  Ag41  1  0.16061358  0.49878405  0.00595550  1
  Ag  Ag42  1  0.33305004  0.00853217  0.32885784  1
  Ag  Ag43  1  0.83849911  0.00736172  0.50361885  1
  Ag  Ag44  1  0.32111544  0.83519691  0.49967725  1
  Ag  Ag45  1  0.34704049  0.16601594  0.84352738  1
  Ag  Ag46  1  0.66594663  0.33350486  0.66207487  1
  Ag  Ag47  1  0.00321624  0.49304227  0.49793615  1
  Ag  Ag48  1  0.66577164  0.67152967  -0.00169304  1
  Ag  Ag49  1  0.66002507  0.33338092  0.33873107  1
  Ag  Ag50  1  0.49714608  0.17058679  -0.00906279  1
  Ag  Ag51  1  0.50071146  0.16697040  0.67941228  1
  Ag  Ag52  1  -0.00168885  0.00744657  -0.00665999  1
  Ag  Ag53  1  0.49983782  0.83972713  0.66898610  1
  Sb  Sb54  1  0.49651299  0.83385219  0.33878136  1
  Sb  Sb55  1  0.50300725  0.33256782  0.16706628  1
  Sb  Sb56  1  0.83479296  0.49457512  0.33153064  1
  Sb  Sb57  1  -0.00267172  0.66853749  0.66404321  1
  Sb  Sb58  1  0.83170375  0.16685004  0.66891500  1
  Sb  Sb59  1  0.50369906  0.00481064  0.50454788  1
  Sb  Sb60  1  0.83270405  0.83796100  -0.00030820  1
  Sb  Sb61  1  0.82814473  0.67210339  0.83178625  1
  Sb  Sb62  1  0.83753100  0.49806210  0.66847250  1
  Sb  Sb63  1  0.16300717  -0.00057052  0.83758098  1
  Sb  Sb64  1  0.16870449  0.17014720  0.00018784  1
  Sb  Sb65  1  0.50013528  0.66238415  0.50255584  1
  Sb  Sb66  1  0.00411401  -0.00014533  0.33340741  1
  Sb  Sb67  1  0.66658740  0.33084493  -0.00085280  1
  Sb  Sb68  1  0.67055878  0.00167159  0.67351118  1
  Sb  Sb69  1  0.16889169  0.33304519  0.83120908  1
  Sb  Sb70  1  0.66405389  0.16481952  0.16159746  1
  Sb  Sb71  1  0.67113705  0.50111570  0.16624813  1
  Sb  Sb72  1  0.33612687  0.66775869  0.66597529  1
  Sb  Sb73  1  0.66623764  0.49833413  0.83479740  1
  Sb  Sb74  1  0.83003139  0.32578316  0.83325098  1
  Sb  Sb75  1  0.16448353  0.83113570  0.00174288  1
  Sb  Sb76  1  0.66330814  0.00239674  0.32847230  1
  Sb  Sb77  1  -0.00140320  0.66618639  0.33536319  1
  Sb  Sb78  1  0.16193473  -0.00313139  0.49647193  1
  Sb  Sb79  1  0.16754167  0.16840742  0.33384493  1
  Sb  Sb80  1  0.33585086  0.84025417  0.83022539  1
  Sb  Sb81  1  0.33305595  0.66482270  0.33369085  1
  Sb  Sb82  1  0.16821592  0.66747591  0.83098913  1
  Sb  Sb83  1  0.00186056  0.16751950  0.16472706  1
  Sb  Sb84  1  0.32922600  0.00049346  0.66809511  1
  Sb  Sb85  1  0.67135969  0.16949624  0.50449710  1
  Sb  Sb86  1  0.33413195  0.33123695  0.66570171  1
  Sb  Sb87  1  0.83686674  0.83693638  0.33498259  1
  Sb  Sb88  1  0.83599164  0.66297747  0.16986690  1
  Sb  Sb89  1  0.83749351  0.00438215  0.16413321  1
  Sb  Sb90  1  0.32724614  0.49406828  0.16682942  1
  Sb  Sb91  1  0.32935571  0.84004345  0.17060822  1
  Sb  Sb92  1  0.49681869  0.00176825  0.15919981  1
  Sb  Sb93  1  0.33125785  0.16507384  0.49935179  1
  Sb  Sb94  1  0.16251890  0.33482871  0.16926606  1
  Sb  Sb95  1  0.33711575  0.66488724  0.00014106  1
  Sb  Sb96  1  0.32638125  0.49947209  0.49811579  1
  Sb  Sb97  1  0.16531794  0.16661715  0.66494087  1
  Sb  Sb98  1  0.50260379  0.83761302  -0.00699854  1
  Sb  Sb99  1  -0.00017828  0.33354757  0.33698672  1
  Sb  Sb100  1  0.66965993  0.83204689  0.50335723  1
  Sb  Sb101  1  0.00053022  0.49706531  0.83381355  1
  Sb  Sb102  1  0.49896995  0.66640425  0.16381060  1
  Sb  Sb103  1  0.83463923  0.83458283  0.66650502  1
  Sb  Sb104  1  -0.00491884  0.66485179  0.00059221  1
  Sb  Sb105  1  0.67246850  0.49774659  0.49862950  1
  Sb  Sb106  1  0.49715207  0.49549857  0.66646178  1
  Sb  Sb107  1  0.33573517  0.49304120  0.83580952  1
  Te  Te108  1  0.17201773  0.16104394  0.16812015  1
  Te  Te109  1  0.16030947  0.17380178  0.50006965  1
  Te  Te110  1  0.15697495  0.16674632  0.83152422  1
  Te  Te111  1  0.16242865  0.50185923  0.16814815  1
  Te  Te112  1  0.16449194  0.50132464  0.49635775  1
  Te  Te113  1  0.16745455  0.50168772  0.84000748  1
  Te  Te114  1  0.16390804  0.83204523  0.16860310  1
  Te  Te115  1  0.16368875  0.83431419  0.49865185  1
  Te  Te116  1  0.16384122  0.83187868  0.82805671  1
  Te  Te117  1  0.49573808  0.16618264  0.17272596  1
  Te  Te118  1  0.49993553  0.17123684  0.49364297  1
  Te  Te119  1  0.50255527  0.16584320  0.83532449  1
  Te  Te120  1  0.49904398  0.50082984  0.16630119  1
  Te  Te121  1  0.49818865  0.49403038  0.49681056  1
  Te  Te122  1  0.49985142  0.50261436  0.83604792  1
  Te  Te123  1  0.50535363  0.83339486  0.16860180  1
  Te  Te124  1  0.50090573  0.83265235  0.50816743  1
  Te  Te125  1  0.50208000  0.83125420  0.82821761  1
  Te  Te126  1  0.83318446  0.17105023  0.16559455  1
  Te  Te127  1  0.83587199  0.16898881  0.50076954  1
  Te  Te128  1  0.83808987  0.16244612  0.83741067  1
  Te  Te129  1  0.84048268  0.49553110  0.16279996  1
  Te  Te130  1  0.84146515  0.49848319  0.49995899  1
  Te  Te131  1  0.83443171  0.50029915  0.84225683  1
  Te  Te132  1  0.83668706  0.83297638  0.16790817  1
  Te  Te133  1  0.83936774  0.83019931  0.49949334  1
  Te  Te134  1  0.83247725  0.84005655  0.83310097  1
  Te  Te135  1  0.16563419  -0.00160287  0.00469428  1
  Te  Te136  1  0.17180493  -0.00166083  0.32917646  1
  Te  Te137  1  0.16039175  -0.00490809  0.66574214  1
  Te  Te138  1  0.16503250  0.33911493  0.00008820  1
  Te  Te139  1  0.16934770  0.33661873  0.33703204  1
  Te  Te140  1  0.16392845  0.33538018  0.66260524  1
  Te  Te141  1  0.16772481  0.65958460  -0.00001100  1
  Te  Te142  1  0.16716676  0.66559011  0.33518298  1
  Te  Te143  1  0.16680419  0.66684381  0.66288080  1
  Te  Te144  1  0.50096245  0.00440112  -0.00467731  1
  Te  Te145  1  0.49432065  0.00300627  0.33528152  1
  Te  Te146  1  0.49978218  0.00146766  0.67104965  1
  Te  Te147  1  0.49957529  0.33078151  0.00031989  1
  Te  Te148  1  0.50097601  0.33379721  0.33099365  1
  Te  Te149  1  0.50150327  0.33099185  0.66781977  1
  Te  Te150  1  0.50453627  0.66585965  -0.00307438  1
  Te  Te151  1  0.50465021  0.66479243  0.33307338  1
  Te  Te152  1  0.50477292  0.66397283  0.66945030  1
  Te  Te153  1  0.83505454  0.00467438  -0.00190317  1
  Te  Te154  1  0.83238006  0.00755639  0.33602695  1
  Te  Te155  1  0.83960150  0.00033320  0.66579296  1
  Te  Te156  1  0.83406389  0.32990424  -0.00043279  1
  Te  Te157  1  0.83229410  0.33073186  0.33637134  1
  Te  Te158  1  0.83268674  0.33419151  0.66237691  1
  Te  Te159  1  0.82637021  0.66262397  0.00050004  1
  Te  Te160  1  0.82594992  0.66563848  0.33809805  1
  Te  Te161  1  0.82546777  0.66539110  0.66116607  1
  Te  Te162  1  0.00047782  0.16808272  -0.00024688  1
  Te  Te163  1  -0.00602159  0.16674725  0.33630409  1
  Te  Te164  1  -0.00027561  0.16709461  0.66603732  1
  Te  Te165  1  -0.00063095  0.49794965  -0.00003439  1
  Te  Te166  1  0.00407896  0.49998083  0.33200717  1
  Te  Te167  1  0.00402816  0.49609371  0.66539961  1
  Te  Te168  1  -0.00062237  0.83542277  0.00004167  1
  Te  Te169  1  0.00517098  0.83273100  0.33130819  1
  Te  Te170  1  0.00106577  0.83404594  0.66559558  1
  Te  Te171  1  0.33275197  0.16709286  -0.00005095  1
  Te  Te172  1  0.33454091  0.16765423  0.33441460  1
  Te  Te173  1  0.33883729  0.16623072  0.67053022  1
  Te  Te174  1  0.33868182  0.49553593  0.00117973  1
  Te  Te175  1  0.33469184  0.49507075  0.33260046  1
  Te  Te176  1  0.32186141  0.49982953  0.66792805  1
  Te  Te177  1  0.33371722  0.84145147  0.00041199  1
  Te  Te178  1  0.32929135  0.83498169  0.33786394  1
  Te  Te179  1  0.33254554  0.83415856  0.66223425  1
  Te  Te180  1  0.66642417  0.16400979  -0.00237793  1
  Te  Te181  1  0.66630556  0.16902565  0.33178431  1
  Te  Te182  1  0.66190868  0.17019878  0.67167410  1
  Te  Te183  1  0.66220745  0.50125362  0.00153305  1
  Te  Te184  1  0.66302531  0.49879780  0.33233723  1
  Te  Te185  1  0.66669659  0.49729027  0.66653004  1
  Te  Te186  1  0.66716816  0.83391257  -0.00226843  1
  Te  Te187  1  0.66622217  0.83234921  0.33162875  1
  Te  Te188  1  0.66344585  0.83163289  0.67087906  1
  Te  Te189  1  0.00373829  -0.00272502  0.16319877  1
  Te  Te190  1  -0.00272367  -0.00102736  0.50005824  1
  Te  Te191  1  0.00034406  -0.00040355  0.83413161  1
  Te  Te192  1  -0.00302291  0.33510454  0.16102054  1
  Te  Te193  1  -0.00043977  0.33351633  0.50048089  1
  Te  Te194  1  -0.00053626  0.32975967  0.83425444  1
  Te  Te195  1  0.00377828  0.66785409  0.16660357  1
  Te  Te196  1  -0.00001848  0.66866777  0.50066848  1
  Te  Te197  1  -0.00188866  0.67621123  0.83279580  1
  Te  Te198  1  0.33051683  0.00372466  0.16592169  1
  Te  Te199  1  0.33417827  -0.00325965  0.49713031  1
  Te  Te200  1  0.33434983  0.00589755  0.83679821  1
  Te  Te201  1  0.33164337  0.32789319  0.16604597  1
  Te  Te202  1  0.33778899  0.33252289  0.49634308  1
  Te  Te203  1  0.33800508  0.32609746  0.83683918  1
  Te  Te204  1  0.32448316  0.66838299  0.16635297  1
  Te  Te205  1  0.32856693  0.67322578  0.49892060  1
  Te  Te206  1  0.34234194  0.66856330  0.83442070  1
  Te  Te207  1  0.66790017  -0.00702425  0.15979753  1
  Te  Te208  1  0.67593093  -0.00003797  0.49957605  1
  Te  Te209  1  0.66821774  0.00049053  0.83467719  1
  Te  Te210  1  0.67515183  0.33308730  0.17299300  1
  Te  Te211  1  0.66442130  0.33340535  0.49997061  1
  Te  Te212  1  0.66253052  0.32986088  0.82988691  1
  Te  Te213  1  0.66750020  0.67097851  0.16636861  1
  Te  Te214  1  0.66845256  0.66511160  0.49997006  1
  Te  Te215  1  0.66533874  0.66760654  0.83310521  1
