# generated using pymatgen
data_AgSbTe2
_symmetry_space_group_name_H-M   'P 1'
_cell_length_a   18.31217343
_cell_length_b   18.31463936
_cell_length_c   18.30652674
_cell_angle_alpha   89.99879169
_cell_angle_beta   90.00163324
_cell_angle_gamma   90.00079309
_symmetry_Int_Tables_number   1
_chemical_formula_structural   AgSbTe2
_chemical_formula_sum   'Ag54 Sb54 Te108'
_cell_volume   6139.65853618
_cell_formula_units_Z   54
loop_
 _symmetry_equiv_pos_site_id
 _symmetry_equiv_pos_as_xyz
  1  'x, y, z'
loop_
 _atom_site_type_symbol
 _atom_site_label
 _atom_site_symmetry_multiplicity
 _atom_site_fract_x
 _atom_site_fract_y
 _atom_site_fract_z
 _atom_site_occupancy
  Ag  Ag0  1  0.50055765  0.17702443  -0.00793827  1
  Ag  Ag1  1  -0.00678818  0.83206491  0.50337127  1
  Ag  Ag2  1  0.17677654  0.33167403  0.83582423  1
  Ag  Ag3  1  0.33909965  0.00753561  0.33328915  1
  Ag  Ag4  1  0.66023807  0.50023056  0.83287234  1
  Ag  Ag5  1  0.33262186  0.66399726  0.33438354  1
  Ag  Ag6  1  0.83148419  0.34137026  0.17004423  1
  Ag  Ag7  1  0.00082971  -0.00553231  -0.00694628  1
  Ag  Ag8  1  0.49675810  0.16394552  0.33578014  1
  Ag  Ag9  1  0.16671924  0.65884152  0.17174449  1
  Ag  Ag10  1  0.67058345  0.00374591  0.66338015  1
  Ag  Ag11  1  -0.00024979  0.17321191  0.16811412  1
  Ag  Ag12  1  0.66818093  0.49713660  0.16857924  1
  Ag  Ag13  1  0.50414467  0.16552629  0.66768443  1
  Ag  Ag14  1  0.50273070  0.65990784  0.82827259  1
  Ag  Ag15  1  0.66024350  0.33501784  -0.00202249  1
  Ag  Ag16  1  0.66996040  0.83376631  0.50025094  1
  Ag  Ag17  1  0.82345270  0.15783239  0.66409867  1
  Ag  Ag18  1  0.33887270  0.17251116  0.82812698  1
  Ag  Ag19  1  0.16434650  0.00274953  0.83422162  1
  Ag  Ag20  1  0.83254562  0.50036317  0.32669826  1
  Ag  Ag21  1  0.66311511  0.66594694  0.66494701  1
  Ag  Ag22  1  0.83814577  0.65916353  0.16799203  1
  Ag  Ag23  1  0.82806273  0.16569211  0.33476087  1
  Ag  Ag24  1  0.33103789  0.33252651  0.33209618  1
  Ag  Ag25  1  0.17022269  0.33567024  0.48765933  1
  Ag  Ag26  1  0.33228623  0.82407262  0.17216738  1
  Ag  Ag27  1  -0.01178152  -0.00178886  0.67435910  1
  Ag  Ag28  1  0.49828417  0.66545728  0.50443777  1
  Ag  Ag29  1  0.17437104  0.66375036  0.49238356  1
  Ag  Ag30  1  0.50066770  0.00900303  0.83277957  1
  Ag  Ag31  1  0.34190354  0.49566908  0.83787317  1
  Ag  Ag32  1  -0.00217970  0.83723550  0.83210096  1
  Ag  Ag33  1  0.00104790  0.67103973  0.00259176  1
  Ag  Ag34  1  0.82783560  0.83376220  0.33748653  1
  Ag  Ag35  1  0.16358392  0.83263948  0.00087575  1
  Ag  Ag36  1  0.34093961  0.16937951  0.49638841  1
  Ag  Ag37  1  0.34296872  0.66647170  0.66213386  1
  Ag  Ag38  1  0.82823595  0.66986986  0.83319744  1
  Ag  Ag39  1  -0.00049238  0.49844049  0.16720918  1
  Ag  Ag40  1  0.83402616  -0.00362796  0.82724545  1
  Ag  Ag41  1  0.66337788  0.00245094  0.34003591  1
  Ag  Ag42  1  0.66522944  0.32900208  0.66803123  1
  Ag  Ag43  1  0.50159702  0.49429767  -0.00249496  1
  Ag  Ag44  1  0.50043545  0.33518269  0.16103805  1
  Ag  Ag45  1  0.66558754  0.50042342  0.50015660  1
  Ag  Ag46  1  0.50102987  0.83806850  0.33418966  1
  Ag  Ag47  1  0.17039449  0.49443552  0.32889856  1
  Ag  Ag48  1  0.16994576  0.33986406  0.17076254  1
  Ag  Ag49  1  0.17812962  0.17374986  0.33381080  1
  Ag  Ag50  1  0.83190536  0.83887801  0.66393305  1
  Ag  Ag51  1  0.66106811  0.16690629  0.50122460  1
  Ag  Ag52  1  0.33094757  0.50044466  0.16937467  1
  Ag  Ag53  1  0.49662053  0.33362773  0.83934211  1
  Sb  Sb54  1  0.00234509  0.83036467  0.16568941  1
  Sb  Sb55  1  -0.00091240  0.16247841  0.49634216  1
  Sb  Sb56  1  0.33110299  0.66541324  0.00274932  1
  Sb  Sb57  1  0.49853494  0.49787431  0.32880227  1
  Sb  Sb58  1  0.82781129  0.33420802  0.83552167  1
  Sb  Sb59  1  0.50303948  0.00070085  0.50016820  1
  Sb  Sb60  1  0.66241210  0.33074720  0.33423516  1
  Sb  Sb61  1  0.83056909  0.66909000  0.49874620  1
  Sb  Sb62  1  0.66815408  0.17361636  0.17339167  1
  Sb  Sb63  1  0.33155383  0.83211565  0.83529467  1
  Sb  Sb64  1  0.82834855  0.50170352  0.66381398  1
  Sb  Sb65  1  0.82695670  0.50020666  0.00757295  1
  Sb  Sb66  1  0.83312647  -0.00081262  0.16568001  1
  Sb  Sb67  1  0.16885121  0.16764897  0.66384492  1
  Sb  Sb68  1  0.17159710  0.50170691  0.00745095  1
  Sb  Sb69  1  0.83783160  0.83198253  -0.00162221  1
  Sb  Sb70  1  0.16760060  -0.00057932  0.50228175  1
  Sb  Sb71  1  0.33650246  0.83221674  0.49453612  1
  Sb  Sb72  1  0.00302937  0.66685652  0.32891775  1
  Sb  Sb73  1  0.49869758  0.65931786  0.16709875  1
  Sb  Sb74  1  0.66925451  0.00621479  -0.00502165  1
  Sb  Sb75  1  -0.00265345  0.33384888  0.00379126  1
  Sb  Sb76  1  0.66261532  0.66761885  0.33921938  1
  Sb  Sb77  1  0.33995860  0.33348357  0.00435886  1
  Sb  Sb78  1  -0.00181317  0.00014271  0.33313965  1
  Sb  Sb79  1  0.16098645  0.83276793  0.66948156  1
  Sb  Sb80  1  -0.00184741  0.50460470  0.49329092  1
  Sb  Sb81  1  0.16815269  0.49982556  0.66221766  1
  Sb  Sb82  1  0.16859328  0.83247087  0.33060795  1
  Sb  Sb83  1  0.82943501  0.16714988  0.00044168  1
  Sb  Sb84  1  0.66889739  0.66137844  -0.00430310  1
  Sb  Sb85  1  0.16705474  0.00109251  0.16430672  1
  Sb  Sb86  1  0.00584624  0.33188604  0.33122119  1
  Sb  Sb87  1  -0.00365379  0.67190721  0.67015483  1
  Sb  Sb88  1  0.17070613  0.16598641  0.00311236  1
  Sb  Sb89  1  0.83454155  0.33246316  0.49417007  1
  Sb  Sb90  1  0.67093354  0.82964043  0.82690953  1
  Sb  Sb91  1  0.49875716  0.33422450  0.50053514  1
  Sb  Sb92  1  0.33174291  0.17186777  0.17240866  1
  Sb  Sb93  1  0.49581307  0.83250692  0.00314497  1
  Sb  Sb94  1  0.49963183  0.00619258  0.16676685  1
  Sb  Sb95  1  0.50240468  0.49806734  0.67305784  1
  Sb  Sb96  1  0.65931387  0.17128988  0.82365049  1
  Sb  Sb97  1  0.33096314  0.00156802  0.00196671  1
  Sb  Sb98  1  0.50709783  0.83403840  0.66192719  1
  Sb  Sb99  1  0.00329735  0.15954265  0.83732186  1
  Sb  Sb100  1  0.33703440  -0.00182219  0.66509958  1
  Sb  Sb101  1  -0.00036892  0.50471059  0.84054556  1
  Sb  Sb102  1  0.16865133  0.66563178  0.83461366  1
  Sb  Sb103  1  0.83075913  -0.00109358  0.50583969  1
  Sb  Sb104  1  0.33755977  0.49901252  0.49760409  1
  Sb  Sb105  1  -0.00531150  0.32608717  0.66861223  1
  Sb  Sb106  1  0.33864904  0.33500666  0.66658692  1
  Sb  Sb107  1  0.66358783  0.82652610  0.17489736  1
  Te  Te108  1  0.16402305  0.17064190  0.17120618  1
  Te  Te109  1  0.16700910  0.16916395  0.49521372  1
  Te  Te110  1  0.17192969  0.16786461  0.83295190  1
  Te  Te111  1  0.16929545  0.49991455  0.16856370  1
  Te  Te112  1  0.16650555  0.50059641  0.49353362  1
  Te  Te113  1  0.16869111  0.49530372  0.83390032  1
  Te  Te114  1  0.16964185  0.83059161  0.16332978  1
  Te  Te115  1  0.16484798  0.82879751  0.49992446  1
  Te  Te116  1  0.16344667  0.83549478  0.83733549  1
  Te  Te117  1  0.49987490  0.17337816  0.17101712  1
  Te  Te118  1  0.50042309  0.16757692  0.49765607  1
  Te  Te119  1  0.49906143  0.16809347  0.83180468  1
  Te  Te120  1  0.49939088  0.49536421  0.16211931  1
  Te  Te121  1  0.50554617  0.50462071  0.49991979  1
  Te  Te122  1  0.50050021  0.49927868  0.83410424  1
  Te  Te123  1  0.49505996  0.83308088  0.17154470  1
  Te  Te124  1  0.50411601  0.82815965  0.49483603  1
  Te  Te125  1  0.50035105  0.83136066  0.83459474  1
  Te  Te126  1  0.83606886  0.16706280  0.16889063  1
  Te  Te127  1  0.83108890  0.16804420  0.49734838  1
  Te  Te128  1  0.83416476  0.16560797  0.82975848  1
  Te  Te129  1  0.83268256  0.50049905  0.16918076  1
  Te  Te130  1  0.82934819  0.50038814  0.49150972  1
  Te  Te131  1  0.83042312  0.50384213  0.83317957  1
  Te  Te132  1  0.83301912  0.82901652  0.17167899  1
  Te  Te133  1  0.83197211  0.83276349  0.49839050  1
  Te  Te134  1  0.83639436  0.83140794  0.83227070  1
  Te  Te135  1  0.16289325  -0.00194824  -0.00412243  1
  Te  Te136  1  0.16938830  0.00470322  0.33348063  1
  Te  Te137  1  0.16759227  0.00048903  0.67357750  1
  Te  Te138  1  0.16563896  0.33315019  -0.00133958  1
  Te  Te139  1  0.16936370  0.33353202  0.33129680  1
  Te  Te140  1  0.16533961  0.33294448  0.67343706  1
  Te  Te141  1  0.16283760  0.66948960  0.00351478  1
  Te  Te142  1  0.16984054  0.66673568  0.33191988  1
  Te  Te143  1  0.16824921  0.66628589  0.66249142  1
  Te  Te144  1  0.50039230  0.00131859  -0.00598078  1
  Te  Te145  1  0.50096987  0.00106771  0.33255850  1
  Te  Te146  1  0.50373891  0.00294534  0.67157485  1
  Te  Te147  1  0.50237274  0.33342426  -0.00051537  1
  Te  Te148  1  0.49392157  0.32935843  0.33202310  1
  Te  Te149  1  0.50523364  0.32755352  0.66941420  1
  Te  Te150  1  0.50010493  0.66435809  -0.00633675  1
  Te  Te151  1  0.49472188  0.66877431  0.33424449  1
  Te  Te152  1  0.50184988  0.66820441  0.66683222  1
  Te  Te153  1  0.83792935  -0.00036496  -0.00728967  1
  Te  Te154  1  0.82991877  0.00006688  0.33213235  1
  Te  Te155  1  0.83101623  -0.00024580  0.66954309  1
  Te  Te156  1  0.82561232  0.33250899  0.00651290  1
  Te  Te157  1  0.83316086  0.33257961  0.32834991  1
  Te  Te158  1  0.82660090  0.32920292  0.66598265  1
  Te  Te159  1  0.83718326  0.66650972  -0.00065571  1
  Te  Te160  1  0.83293819  0.66693641  0.33029679  1
  Te  Te161  1  0.82881118  0.66933015  0.67000796  1
  Te  Te162  1  -0.00004476  0.16415548  0.00649384  1
  Te  Te163  1  -0.00719797  0.16477513  0.32917496  1
  Te  Te164  1  -0.00459425  0.15896620  0.66571717  1
  Te  Te165  1  0.00019538  0.50418276  0.00739561  1
  Te  Te166  1  -0.00143712  0.49997292  0.32715321  1
  Te  Te167  1  -0.00221259  0.49900822  0.66698473  1
  Te  Te168  1  0.00292923  0.83355163  -0.00163626  1
  Te  Te169  1  -0.00536107  0.83462006  0.33789621  1
  Te  Te170  1  -0.00582364  0.83693541  0.66745259  1
  Te  Te171  1  0.34019689  0.16614974  -0.00640111  1
  Te  Te172  1  0.33475663  0.16753825  0.33371448  1
  Te  Te173  1  0.33780405  0.16608337  0.66452279  1
  Te  Te174  1  0.33935397  0.50005339  -0.00085095  1
  Te  Te175  1  0.33140847  0.50021599  0.33193147  1
  Te  Te176  1  0.33339338  0.50637765  0.67051105  1
  Te  Te177  1  0.32720747  0.83346541  0.00741725  1
  Te  Te178  1  0.33564683  0.83055574  0.33100063  1
  Te  Te179  1  0.33405460  0.82685498  0.66550746  1
  Te  Te180  1  0.66053029  0.17220858  0.00218393  1
  Te  Te181  1  0.66665665  0.16420625  0.33843580  1
  Te  Te182  1  0.66522778  0.16520185  0.66314662  1
  Te  Te183  1  0.66163075  0.49613385  -0.00058913  1
  Te  Te184  1  0.66800227  0.49938702  0.33362251  1
  Te  Te185  1  0.66765512  0.50226350  0.66485803  1
  Te  Te186  1  0.66574999  0.83592048  0.00316883  1
  Te  Te187  1  0.66575087  0.83542396  0.33840263  1
  Te  Te188  1  0.67223140  0.83424667  0.66097729  1
  Te  Te189  1  0.00011989  0.00277818  0.16169786  1
  Te  Te190  1  0.00204604  -0.00630346  0.50532484  1
  Te  Te191  1  0.00109319  -0.00171414  0.83346134  1
  Te  Te192  1  -0.00009504  0.33518873  0.16553987  1
  Te  Te193  1  0.00949390  0.33465158  0.50290642  1
  Te  Te194  1  0.00264471  0.33417204  0.83545337  1
  Te  Te195  1  0.00016650  0.66494627  0.16339107  1
  Te  Te196  1  0.00502376  0.67164673  0.50097629  1
  Te  Te197  1  -0.00236126  0.67148626  0.83814761  1
  Te  Te198  1  0.33342474  -0.00275040  0.17334972  1
  Te  Te199  1  0.33384935  0.00610189  0.49485641  1
  Te  Te200  1  0.33492844  0.00139553  0.83346258  1
  Te  Te201  1  0.33231984  0.33656113  0.16995370  1
  Te  Te202  1  0.32952920  0.33111196  0.49879717  1
  Te  Te203  1  0.33580459  0.33399826  0.83175304  1
  Te  Te204  1  0.33238989  0.66291263  0.16967367  1
  Te  Te205  1  0.33470019  0.66576047  0.49876167  1
  Te  Te206  1  0.33665636  0.66392103  0.83097280  1
  Te  Te207  1  0.66628516  -0.00157353  0.17103784  1
  Te  Te208  1  0.66573313  0.00068679  0.49955984  1
  Te  Te209  1  0.66690226  -0.00124318  0.83005811  1
  Te  Te210  1  0.66528440  0.33767127  0.16773924  1
  Te  Te211  1  0.66703635  0.33380021  0.50398755  1
  Te  Te212  1  0.66449263  0.33825732  0.83181185  1
  Te  Te213  1  0.67007176  0.65864354  0.16537114  1
  Te  Te214  1  0.66436535  0.66591200  0.50409112  1
  Te  Te215  1  0.66648707  0.66338031  0.82994709  1
