# generated using pymatgen
data_AgSbTe2
_symmetry_space_group_name_H-M   'P 1'
_cell_length_a   18.31299365
_cell_length_b   18.31382103
_cell_length_c   18.31139391
_cell_angle_alpha   90.00047890
_cell_angle_beta   89.99846987
_cell_angle_gamma   90.00014617
_symmetry_Int_Tables_number   1
_chemical_formula_structural   AgSbTe2
_chemical_formula_sum   'Ag54 Sb54 Te108'
_cell_volume   6141.29155031
_cell_formula_units_Z   54
loop_
 _symmetry_equiv_pos_site_id
 _symmetry_equiv_pos_as_xyz
  1  'x, y, z'
loop_
 _atom_site_type_symbol
 _atom_site_label
 _atom_site_symmetry_multiplicity
 _atom_site_fract_x
 _atom_site_fract_y
 _atom_site_fract_z
 _atom_site_occupancy
  Ag  Ag0  1  0.66340456  0.32935172  0.00245921  1
  Ag  Ag1  1  0.33414497  0.65725155  0.00157255  1
  Ag  Ag2  1  0.00739573  0.49922440  0.17334054  1
  Ag  Ag3  1  0.49105825  0.16842916  0.67116735  1
  Ag  Ag4  1  -0.00341960  0.83490944  0.83284693  1
  Ag  Ag5  1  0.67477559  0.50192266  0.49278567  1
  Ag  Ag6  1  0.83371022  0.67400354  0.83250025  1
  Ag  Ag7  1  0.49415549  0.50120350  0.66410913  1
  Ag  Ag8  1  0.32773922  0.33327677  0.32152047  1
  Ag  Ag9  1  0.50041953  0.00041123  0.16484502  1
  Ag  Ag10  1  0.16115654  0.67161455  0.49878803  1
  Ag  Ag11  1  -0.00399938  0.00419194  0.00405492  1
  Ag  Ag12  1  0.00616705  0.66605115  0.66166606  1
  Ag  Ag13  1  0.00250710  0.32976573  0.00778394  1
  Ag  Ag14  1  0.49847296  0.83326270  0.33179766  1
  Ag  Ag15  1  0.50529873  0.16867007  0.00210936  1
  Ag  Ag16  1  -0.00108399  0.50719267  0.49175838  1
  Ag  Ag17  1  0.32958996  0.17526271  0.16682186  1
  Ag  Ag18  1  0.00269086  0.16417417  0.16507951  1
  Ag  Ag19  1  0.15686701  -0.00434761  0.16674339  1
  Ag  Ag20  1  0.82966722  0.16200018  0.00387755  1
  Ag  Ag21  1  0.49242039  0.66463338  0.16451508  1
  Ag  Ag22  1  0.32900218  0.66054550  0.66910919  1
  Ag  Ag23  1  0.33149219  0.50050329  0.84180510  1
  Ag  Ag24  1  0.15905412  0.82907797  0.33625769  1
  Ag  Ag25  1  0.17036571  0.16212322  0.66395797  1
  Ag  Ag26  1  0.66848308  0.15985729  0.83939133  1
  Ag  Ag27  1  0.66527626  0.66477494  0.00147266  1
  Ag  Ag28  1  0.66580762  0.50135686  0.16636974  1
  Ag  Ag29  1  0.00169428  0.82809371  0.49697715  1
  Ag  Ag30  1  0.32738051  0.49568671  0.16305959  1
  Ag  Ag31  1  0.00264240  0.83629258  0.17116534  1
  Ag  Ag32  1  0.49342936  0.33414532  0.16432698  1
  Ag  Ag33  1  0.15912457  -0.00765293  0.49913617  1
  Ag  Ag34  1  0.33092412  0.33609819  0.66767191  1
  Ag  Ag35  1  0.84401966  0.66941773  0.49998056  1
  Ag  Ag36  1  0.16949511  0.50100970  0.00860836  1
  Ag  Ag37  1  0.83728203  -0.00497777  0.84310514  1
  Ag  Ag38  1  0.49278326  0.83078745  0.66394926  1
  Ag  Ag39  1  0.16734744  0.66224832  0.16975148  1
  Ag  Ag40  1  0.15945712  -0.00214922  0.83581283  1
  Ag  Ag41  1  0.83970397  0.00167649  0.16187226  1
  Ag  Ag42  1  0.33037218  0.16829262  0.49851865  1
  Ag  Ag43  1  0.16118364  0.50397831  0.32770892  1
  Ag  Ag44  1  0.00393443  0.34011804  0.32623091  1
  Ag  Ag45  1  0.84391870  0.50148764  0.33242046  1
  Ag  Ag46  1  0.67612735  0.83719530  0.83448460  1
  Ag  Ag47  1  0.84299110  0.83384491  0.33573681  1
  Ag  Ag48  1  0.83739615  0.16178314  0.32504736  1
  Ag  Ag49  1  0.33223149  0.33808116  0.00711923  1
  Ag  Ag50  1  0.16578145  0.83361060  0.66050052  1
  Ag  Ag51  1  0.00721806  0.33729733  0.66325698  1
  Ag  Ag52  1  0.84093082  -0.00575720  0.49312506  1
  Ag  Ag53  1  0.67675679  0.00834840  -0.00085012  1
  Sb  Sb54  1  0.83427662  0.83911757  0.00224470  1
  Sb  Sb55  1  0.00332480  0.50376991  0.83475259  1
  Sb  Sb56  1  0.00343040  -0.00257246  0.67003858  1
  Sb  Sb57  1  0.67029597  0.83077618  0.16288609  1
  Sb  Sb58  1  0.00027241  0.66659457  -0.00166634  1
  Sb  Sb59  1  0.83649002  0.49695715  0.00609989  1
  Sb  Sb60  1  0.16619137  0.16891836  0.00118902  1
  Sb  Sb61  1  0.66551840  0.66679460  0.67041804  1
  Sb  Sb62  1  0.32868568  0.49701521  0.49761041  1
  Sb  Sb63  1  0.83650322  0.33546073  0.49699958  1
  Sb  Sb64  1  0.50083429  0.00030399  0.83753768  1
  Sb  Sb65  1  0.83294469  0.50212700  0.66109687  1
  Sb  Sb66  1  0.66749246  0.16893925  0.15938472  1
  Sb  Sb67  1  0.49836416  0.66747742  0.49832238  1
  Sb  Sb68  1  0.49819356  0.33344028  0.83855749  1
  Sb  Sb69  1  0.50160383  0.66720126  0.83769110  1
  Sb  Sb70  1  0.50000867  -0.00133491  0.49645735  1
  Sb  Sb71  1  0.16270522  0.16642103  0.33310437  1
  Sb  Sb72  1  0.49741011  0.50217713  0.33098483  1
  Sb  Sb73  1  0.16623517  0.33498048  0.49952464  1
  Sb  Sb74  1  0.83837021  0.66972915  0.16785143  1
  Sb  Sb75  1  0.49795184  0.33381926  0.49730548  1
  Sb  Sb76  1  0.16653735  0.33068459  0.83303085  1
  Sb  Sb77  1  0.33037348  0.00289824  0.66692837  1
  Sb  Sb78  1  0.67379592  0.82946815  0.50382450  1
  Sb  Sb79  1  0.00151606  0.66262497  0.33905608  1
  Sb  Sb80  1  0.16330821  0.67093234  0.83271311  1
  Sb  Sb81  1  0.66678843  -0.00064039  0.67324104  1
  Sb  Sb82  1  0.33136775  0.00340850  0.00359939  1
  Sb  Sb83  1  0.32347496  0.83565170  0.49952399  1
  Sb  Sb84  1  0.49410434  0.49592304  0.00230978  1
  Sb  Sb85  1  0.33031023  0.00482424  0.33120122  1
  Sb  Sb86  1  0.66334739  0.33387640  0.67228766  1
  Sb  Sb87  1  0.33017101  0.82898771  0.83159778  1
  Sb  Sb88  1  0.83727690  0.16526199  0.66817361  1
  Sb  Sb89  1  0.32899799  0.66176488  0.33143329  1
  Sb  Sb90  1  0.00321596  0.16430918  0.49583717  1
  Sb  Sb91  1  0.16849082  0.33735536  0.16684334  1
  Sb  Sb92  1  0.66310651  0.50150553  0.83866628  1
  Sb  Sb93  1  0.83986917  0.83253719  0.66593185  1
  Sb  Sb94  1  -0.00082213  -0.00051788  0.32611706  1
  Sb  Sb95  1  0.66732216  0.66616766  0.32861009  1
  Sb  Sb96  1  0.16488109  0.83132558  0.00272429  1
  Sb  Sb97  1  0.83461034  0.33242545  0.83626379  1
  Sb  Sb98  1  0.33452363  0.17148229  0.83561336  1
  Sb  Sb99  1  0.50163435  0.83578328  0.00216509  1
  Sb  Sb100  1  0.66755516  0.33533805  0.32576445  1
  Sb  Sb101  1  0.32858268  0.83104669  0.16788617  1
  Sb  Sb102  1  0.66562188  0.16879923  0.50417240  1
  Sb  Sb103  1  0.83580405  0.32883700  0.16634959  1
  Sb  Sb104  1  0.67135542  -0.00046300  0.32558595  1
  Sb  Sb105  1  0.50160551  0.16402646  0.32809118  1
  Sb  Sb106  1  0.16938978  0.50266118  0.66483357  1
  Sb  Sb107  1  -0.00242696  0.16148902  0.83848037  1
  Te  Te108  1  0.16542680  0.15889857  0.16764230  1
  Te  Te109  1  0.16979551  0.16230406  0.50156156  1
  Te  Te110  1  0.16642402  0.15898204  0.82793651  1
  Te  Te111  1  0.16670252  0.50124994  0.16734784  1
  Te  Te112  1  0.16102618  0.50530793  0.49601981  1
  Te  Te113  1  0.17171667  0.50119148  0.83710853  1
  Te  Te114  1  0.16308568  0.83569815  0.16948803  1
  Te  Te115  1  0.16282617  0.83252891  0.49877890  1
  Te  Te116  1  0.16239147  0.83825118  0.82993698  1
  Te  Te117  1  0.49974635  0.16652822  0.16495049  1
  Te  Te118  1  0.49639385  0.16519831  0.50164486  1
  Te  Te119  1  0.50306847  0.16622841  0.83419997  1
  Te  Te120  1  0.50002813  0.50236478  0.16754185  1
  Te  Te121  1  0.50337192  0.50126491  0.50267193  1
  Te  Te122  1  0.49487995  0.50026246  0.82587666  1
  Te  Te123  1  0.50011522  0.83283261  0.16936085  1
  Te  Te124  1  0.50214527  0.83421042  0.50047090  1
  Te  Te125  1  0.50164768  0.83420362  0.82797780  1
  Te  Te126  1  0.83492373  0.16311827  0.16566872  1
  Te  Te127  1  0.83270350  0.16074155  0.49808407  1
  Te  Te128  1  0.82955653  0.16188754  0.83626515  1
  Te  Te129  1  0.83363781  0.50123033  0.17179132  1
  Te  Te130  1  0.83614451  0.50260528  0.49542601  1
  Te  Te131  1  0.83263256  0.50648433  0.83379010  1
  Te  Te132  1  0.83808848  0.83777496  0.17277164  1
  Te  Te133  1  0.83806872  0.83234733  0.49803929  1
  Te  Te134  1  0.83494750  0.83465143  0.83168674  1
  Te  Te135  1  0.16336078  0.00002534  0.00213766  1
  Te  Te136  1  0.16629020  -0.00450479  0.33287958  1
  Te  Te137  1  0.16675081  -0.00139425  0.66370764  1
  Te  Te138  1  0.16713384  0.33688923  -0.00144779  1
  Te  Te139  1  0.16662697  0.33610426  0.33473263  1
  Te  Te140  1  0.16724540  0.33055501  0.66636917  1
  Te  Te141  1  0.16892044  0.66274710  0.00261634  1
  Te  Te142  1  0.16738556  0.66856905  0.33221097  1
  Te  Te143  1  0.16760877  0.66929753  0.66578232  1
  Te  Te144  1  0.49921123  0.00464257  0.00481739  1
  Te  Te145  1  0.50121199  -0.00481817  0.32754337  1
  Te  Te146  1  0.49863593  0.00101798  0.66621434  1
  Te  Te147  1  0.49770362  0.33036575  0.00395928  1
  Te  Te148  1  0.49465811  0.33292579  0.32676122  1
  Te  Te149  1  0.49615112  0.33078777  0.66555329  1
  Te  Te150  1  0.49988682  0.66685745  0.00481060  1
  Te  Te151  1  0.49874303  0.67193564  0.32791524  1
  Te  Te152  1  0.49630690  0.66724004  0.66671894  1
  Te  Te153  1  0.83468875  0.00151250  0.00124481  1
  Te  Te154  1  0.83374155  -0.00112668  0.33300042  1
  Te  Te155  1  0.83395834  0.00044202  0.66562582  1
  Te  Te156  1  0.83619948  0.32708435  -0.00001234  1
  Te  Te157  1  0.83662469  0.33613745  0.33244483  1
  Te  Te158  1  0.83934801  0.33345229  0.66744526  1
  Te  Te159  1  0.82985138  0.66554058  -0.00229480  1
  Te  Te160  1  0.83223295  0.66809708  0.33662061  1
  Te  Te161  1  0.83608725  0.66655294  0.66533552  1
  Te  Te162  1  -0.00070164  0.16825980  0.00405860  1
  Te  Te163  1  -0.00418865  0.17462019  0.32907163  1
  Te  Te164  1  0.00610591  0.17240014  0.66589563  1
  Te  Te165  1  0.00420797  0.49565540  0.00243076  1
  Te  Te166  1  0.00080192  0.49881500  0.33221772  1
  Te  Te167  1  0.00131148  0.49940333  0.66659155  1
  Te  Te168  1  -0.00004478  0.83740089  0.00015529  1
  Te  Te169  1  0.00056762  0.83333895  0.33204483  1
  Te  Te170  1  0.00476523  0.83113843  0.66617405  1
  Te  Te171  1  0.33612334  0.17173471  0.00416834  1
  Te  Te172  1  0.33371508  0.17273413  0.33075848  1
  Te  Te173  1  0.33187841  0.16984051  0.66842450  1
  Te  Te174  1  0.33303484  0.49911231  0.00214300  1
  Te  Te175  1  0.32952854  0.49414365  0.32885610  1
  Te  Te176  1  0.33451913  0.49912078  0.66318523  1
  Te  Te177  1  0.33382866  0.82381453  -0.00088011  1
  Te  Te178  1  0.33544442  0.83383770  0.33407832  1
  Te  Te179  1  0.33171575  0.82887120  0.66589073  1
  Te  Te180  1  0.66723828  0.16741954  -0.00083967  1
  Te  Te181  1  0.67536596  0.16786350  0.33562799  1
  Te  Te182  1  0.66248041  0.16805424  0.67337971  1
  Te  Te183  1  0.66711011  0.49894885  0.00421191  1
  Te  Te184  1  0.66845952  0.49957546  0.33188612  1
  Te  Te185  1  0.66047569  0.49853464  0.66667126  1
  Te  Te186  1  0.66714464  0.82942271  -0.00527458  1
  Te  Te187  1  0.66547368  0.83345947  0.33476991  1
  Te  Te188  1  0.66011729  0.83254801  0.67215539  1
  Te  Te189  1  -0.00039286  0.00061269  0.16450789  1
  Te  Te190  1  -0.00014669  -0.00305696  0.50130523  1
  Te  Te191  1  -0.00152038  -0.00373265  0.83669257  1
  Te  Te192  1  0.00129024  0.33470331  0.16622526  1
  Te  Te193  1  0.00041841  0.33651027  0.50153940  1
  Te  Te194  1  0.00002125  0.33399242  0.83432151  1
  Te  Te195  1  0.00521064  0.66610541  0.16352453  1
  Te  Te196  1  0.00058282  0.66672036  0.50281068  1
  Te  Te197  1  -0.00470550  0.67146328  0.82919101  1
  Te  Te198  1  0.33671290  0.00403337  0.16607675  1
  Te  Te199  1  0.32980230  0.00731199  0.49893886  1
  Te  Te200  1  0.32649215  -0.00092473  0.83573628  1
  Te  Te201  1  0.33304634  0.33315439  0.16463931  1
  Te  Te202  1  0.33217742  0.32844216  0.50655108  1
  Te  Te203  1  0.33266805  0.33960172  0.83034688  1
  Te  Te204  1  0.33099699  0.66418660  0.16538391  1
  Te  Te205  1  0.32917908  0.66611029  0.50524715  1
  Te  Te206  1  0.33350545  0.66139896  0.83357089  1
  Te  Te207  1  0.66563327  -0.00090598  0.15868317  1
  Te  Te208  1  0.67307650  -0.00017128  0.49978555  1
  Te  Te209  1  0.66819578  -0.00135121  0.83946943  1
  Te  Te210  1  0.66251826  0.33901042  0.16164055  1
  Te  Te211  1  0.66702844  0.34011936  0.49997683  1
  Te  Te212  1  0.66709366  0.33005977  0.84164828  1
  Te  Te213  1  0.66645858  0.66324517  0.16174026  1
  Te  Te214  1  0.66929880  0.66097054  0.50110595  1
  Te  Te215  1  0.67128212  0.66950047  0.83828646  1
