# generated using pymatgen
data_AgSbTe2
_symmetry_space_group_name_H-M   'P 1'
_cell_length_a   18.34233163
_cell_length_b   18.34031109
_cell_length_c   18.33334356
_cell_angle_alpha   90.00035991
_cell_angle_beta   89.99626899
_cell_angle_gamma   90.00015210
_symmetry_Int_Tables_number   1
_chemical_formula_structural   AgSbTe2
_chemical_formula_sum   'Ag54 Sb54 Te108'
_cell_volume   6167.41134345
_cell_formula_units_Z   54
loop_
 _symmetry_equiv_pos_site_id
 _symmetry_equiv_pos_as_xyz
  1  'x, y, z'
loop_
 _atom_site_type_symbol
 _atom_site_label
 _atom_site_symmetry_multiplicity
 _atom_site_fract_x
 _atom_site_fract_y
 _atom_site_fract_z
 _atom_site_occupancy
  Ag  Ag0  1  0.17029659  0.67037762  0.17833371  1
  Ag  Ag1  1  0.49658455  0.33312829  0.49720989  1
  Ag  Ag2  1  0.01012334  0.66628454  0.65573216  1
  Ag  Ag3  1  0.83721802  0.66667818  0.50322214  1
  Ag  Ag4  1  0.66266098  0.50145773  0.50526118  1
  Ag  Ag5  1  0.83676720  0.00042192  0.49926064  1
  Ag  Ag6  1  0.49123175  0.83650990  0.33731744  1
  Ag  Ag7  1  0.66501940  0.00270675  0.00352677  1
  Ag  Ag8  1  0.84367714  0.32651660  0.16671903  1
  Ag  Ag9  1  0.16483464  0.15711015  0.33692365  1
  Ag  Ag10  1  0.49889561  0.32571430  0.17474270  1
  Ag  Ag11  1  0.00308229  0.49133588  0.16962355  1
  Ag  Ag12  1  0.32773406  -0.00140306  0.01415357  1
  Ag  Ag13  1  0.49981335  0.15773580  0.66109528  1
  Ag  Ag14  1  0.16442911  0.50114803  0.33498992  1
  Ag  Ag15  1  0.48733703  0.00054802  0.17483590  1
  Ag  Ag16  1  0.00886961  0.66836628  0.33763727  1
  Ag  Ag17  1  0.66094691  0.16480480  0.16533763  1
  Ag  Ag18  1  0.49699167  0.83745036  0.65887525  1
  Ag  Ag19  1  0.83579287  0.00559634  0.17120017  1
  Ag  Ag20  1  0.49088415  0.67362969  0.17520177  1
  Ag  Ag21  1  0.00796921  0.33301310  0.32963161  1
  Ag  Ag22  1  0.16042095  0.32936301  0.17692334  1
  Ag  Ag23  1  0.00677547  0.16275099  0.49943922  1
  Ag  Ag24  1  0.33326185  0.50863240  0.82514104  1
  Ag  Ag25  1  0.17104993  0.84247371  0.33204068  1
  Ag  Ag26  1  0.33262882  0.84104637  0.16710793  1
  Ag  Ag27  1  0.16803590  0.32551888  0.49411738  1
  Ag  Ag28  1  0.65698863  0.00326481  0.66511185  1
  Ag  Ag29  1  0.01206041  0.83369027  0.83180904  1
  Ag  Ag30  1  0.33029921  0.83442007  0.83184587  1
  Ag  Ag31  1  0.16649903  0.66586175  0.49631862  1
  Ag  Ag32  1  0.00877025  0.00430058  0.01021718  1
  Ag  Ag33  1  0.66795680  0.33290826  0.00350600  1
  Ag  Ag34  1  0.01134359  -0.00049619  0.33058283  1
  Ag  Ag35  1  0.33646811  -0.00303781  0.66455901  1
  Ag  Ag36  1  0.33341495  0.50443897  0.50265291  1
  Ag  Ag37  1  0.16888396  0.67380171  0.82230859  1
  Ag  Ag38  1  0.66308103  0.50145457  0.82291313  1
  Ag  Ag39  1  0.16933999  -0.00760050  0.83139121  1
  Ag  Ag40  1  0.66615475  0.33847948  0.66643370  1
  Ag  Ag41  1  0.33471120  0.15351523  0.16769654  1
  Ag  Ag42  1  0.16779534  0.16140943  0.65759014  1
  Ag  Ag43  1  0.32411001  -0.00271033  0.32801734  1
  Ag  Ag44  1  0.17011505  0.00539764  0.49371630  1
  Ag  Ag45  1  0.33227560  0.67081225  0.66408662  1
  Ag  Ag46  1  -0.00154616  0.32830279  0.01049933  1
  Ag  Ag47  1  0.66406528  0.66183255  -0.00323297  1
  Ag  Ag48  1  0.82717282  0.49973082  0.66367585  1
  Ag  Ag49  1  0.49616561  0.66870320  0.50048291  1
  Ag  Ag50  1  0.82844360  0.16604406  0.66108860  1
  Ag  Ag51  1  0.17507107  0.00232750  0.18044559  1
  Ag  Ag52  1  0.49441607  -0.00151463  0.50098561  1
  Ag  Ag53  1  0.66397941  0.65673800  0.66390991  1
  Sb  Sb54  1  0.16586247  0.16314881  0.00575961  1
  Sb  Sb55  1  0.33118620  0.16143997  0.83449244  1
  Sb  Sb56  1  0.00210681  0.50512495  0.83519446  1
  Sb  Sb57  1  0.83751983  0.83512770  0.33425024  1
  Sb  Sb58  1  0.49483998  -0.00191998  0.82980774  1
  Sb  Sb59  1  0.66831755  0.33308780  0.33259694  1
  Sb  Sb60  1  0.50158256  0.33487288  0.83040936  1
  Sb  Sb61  1  0.49576323  0.66736216  0.82673995  1
  Sb  Sb62  1  0.16563877  0.50108887  0.66056643  1
  Sb  Sb63  1  0.33635570  0.67135180  -0.00263258  1
  Sb  Sb64  1  0.32550799  0.32747748  0.33339767  1
  Sb  Sb65  1  0.00370525  -0.00411748  0.66252181  1
  Sb  Sb66  1  0.49355272  0.16158415  0.33519310  1
  Sb  Sb67  1  0.49227706  0.50401649  0.33636878  1
  Sb  Sb68  1  0.00252700  0.49976699  0.49561075  1
  Sb  Sb69  1  0.50395414  0.50175581  0.66250941  1
  Sb  Sb70  1  0.83956037  0.16561396  0.33539187  1
  Sb  Sb71  1  0.32764467  0.50236455  0.17115208  1
  Sb  Sb72  1  0.16694164  0.33409501  0.83096287  1
  Sb  Sb73  1  -0.00284787  0.33661030  0.66413229  1
  Sb  Sb74  1  0.66690847  0.66570259  0.33740855  1
  Sb  Sb75  1  0.65839997  0.83973639  0.16521376  1
  Sb  Sb76  1  0.00374177  0.83497984  0.50245410  1
  Sb  Sb77  1  0.00349467  0.16769648  0.17396042  1
  Sb  Sb78  1  0.00809957  0.83666679  0.16542800  1
  Sb  Sb79  1  0.33336321  0.83356026  0.50031267  1
  Sb  Sb80  1  0.17302950  0.83535525  0.66359248  1
  Sb  Sb81  1  0.50092300  0.16434051  0.00151957  1
  Sb  Sb82  1  0.33373316  0.32962786  0.00404918  1
  Sb  Sb83  1  0.33820629  0.33295669  0.66285848  1
  Sb  Sb84  1  0.83565923  0.66722342  0.17211085  1
  Sb  Sb85  1  0.66731441  0.16845938  0.49991755  1
  Sb  Sb86  1  0.83461037  0.33353776  0.49722991  1
  Sb  Sb87  1  0.16799403  0.83615053  0.00239244  1
  Sb  Sb88  1  0.83688922  -0.00066260  0.83128952  1
  Sb  Sb89  1  0.83354918  0.83537486  0.00156448  1
  Sb  Sb90  1  0.66249900  0.82985350  0.50223479  1
  Sb  Sb91  1  0.66630939  0.16831745  0.83241231  1
  Sb  Sb92  1  0.32816646  0.16449120  0.49665359  1
  Sb  Sb93  1  0.66314739  0.83009900  0.83071763  1
  Sb  Sb94  1  0.50043873  0.50037709  0.00259484  1
  Sb  Sb95  1  0.16649895  0.49956100  0.00538738  1
  Sb  Sb96  1  0.83382193  0.16574001  0.00042924  1
  Sb  Sb97  1  0.83254658  0.49913265  -0.00265952  1
  Sb  Sb98  1  0.49832590  0.83532075  0.00222756  1
  Sb  Sb99  1  -0.00034306  0.66899887  0.00323341  1
  Sb  Sb100  1  0.83267892  0.33401155  0.83537023  1
  Sb  Sb101  1  0.66973886  0.49595310  0.16756855  1
  Sb  Sb102  1  0.32582517  0.67499853  0.34029157  1
  Sb  Sb103  1  0.83972395  0.49976621  0.33758560  1
  Sb  Sb104  1  0.00255816  0.16147742  0.82764640  1
  Sb  Sb105  1  0.83550536  0.66557533  0.82489164  1
  Sb  Sb106  1  0.66459379  0.00056763  0.33430861  1
  Sb  Sb107  1  0.83051402  0.83363520  0.66469618  1
  Te  Te108  1  0.16945269  0.16562808  0.17061045  1
  Te  Te109  1  0.16758885  0.16582335  0.49800689  1
  Te  Te110  1  0.16727783  0.16436645  0.82502503  1
  Te  Te111  1  0.16383160  0.49908992  0.17105901  1
  Te  Te112  1  0.16836177  0.50435873  0.49765957  1
  Te  Te113  1  0.17067159  0.50350546  0.83227091  1
  Te  Te114  1  0.17097302  0.83384760  0.16937787  1
  Te  Te115  1  0.16722069  0.83014774  0.49413824  1
  Te  Te116  1  0.17033886  0.83241340  0.83139958  1
  Te  Te117  1  0.49843205  0.16412290  0.16809840  1
  Te  Te118  1  0.49958386  0.16690394  0.50128786  1
  Te  Te119  1  0.49905062  0.16692597  0.82288462  1
  Te  Te120  1  0.49935913  0.50248147  0.16989516  1
  Te  Te121  1  0.49862931  0.49971820  0.49892085  1
  Te  Te122  1  0.49980163  0.50053683  0.83424148  1
  Te  Te123  1  0.49435001  0.83441614  0.16854770  1
  Te  Te124  1  0.49901841  0.83510987  0.49863772  1
  Te  Te125  1  0.49361259  0.83243922  0.82791975  1
  Te  Te126  1  0.82960456  0.16649195  0.16728205  1
  Te  Te127  1  0.83541119  0.16405781  0.50216038  1
  Te  Te128  1  0.83424914  0.16659937  0.82052533  1
  Te  Te129  1  0.83909006  0.49736894  0.16727867  1
  Te  Te130  1  0.83085276  0.50226598  0.50332898  1
  Te  Te131  1  0.82823666  0.50035368  0.82629113  1
  Te  Te132  1  0.83278285  0.84076995  0.16856811  1
  Te  Te133  1  0.83285386  0.83525717  0.49944903  1
  Te  Te134  1  0.83830485  0.83262020  0.83347185  1
  Te  Te135  1  0.16718010  0.00067808  -0.00503581  1
  Te  Te136  1  0.16648556  -0.00073327  0.33604260  1
  Te  Te137  1  0.16704639  0.00072522  0.66523371  1
  Te  Te138  1  0.16377418  0.33103283  0.00419433  1
  Te  Te139  1  0.16509075  0.33627060  0.33493811  1
  Te  Te140  1  0.16614597  0.32912361  0.66116496  1
  Te  Te141  1  0.16618682  0.66648475  0.00378152  1
  Te  Te142  1  0.16581036  0.66447599  0.33500837  1
  Te  Te143  1  0.16846660  0.66691464  0.66407738  1
  Te  Te144  1  0.50358869  0.00033243  0.00460024  1
  Te  Te145  1  0.49850442  -0.00253583  0.33511996  1
  Te  Te146  1  0.49898291  -0.00132268  0.66662373  1
  Te  Te147  1  0.50530253  0.33220849  0.00330582  1
  Te  Te148  1  0.49942359  0.33265099  0.33561231  1
  Te  Te149  1  0.50519832  0.32965982  0.66265267  1
  Te  Te150  1  0.50513974  0.66788011  0.00595907  1
  Te  Te151  1  0.49919052  0.67077502  0.33498949  1
  Te  Te152  1  0.50029836  0.66860794  0.66226818  1
  Te  Te153  1  0.82920093  0.00155438  0.00242982  1
  Te  Te154  1  0.83520575  -0.00057198  0.33712207  1
  Te  Te155  1  0.83405384  0.00220914  0.66287225  1
  Te  Te156  1  0.83149123  0.33238696  0.00567569  1
  Te  Te157  1  0.84064305  0.33334821  0.32734049  1
  Te  Te158  1  0.82893432  0.33286918  0.66602653  1
  Te  Te159  1  0.82602435  0.66744160  0.00157570  1
  Te  Te160  1  0.83999343  0.66760069  0.34110392  1
  Te  Te161  1  0.82552586  0.66585346  0.66158605  1
  Te  Te162  1  -0.00086181  0.16472063  -0.00370515  1
  Te  Te163  1  0.00488395  0.16423228  0.33901272  1
  Te  Te164  1  0.00230615  0.16825752  0.66040746  1
  Te  Te165  1  -0.00151136  0.49572068  0.00551588  1
  Te  Te166  1  0.00416889  0.50055895  0.32994656  1
  Te  Te167  1  -0.00673137  0.50586501  0.66829696  1
  Te  Te168  1  -0.00029066  0.83979402  -0.00619565  1
  Te  Te169  1  0.00503651  0.83438966  0.33317658  1
  Te  Te170  1  -0.00193804  0.82440845  0.67150403  1
  Te  Te171  1  0.33379756  0.15924999  0.00452612  1
  Te  Te172  1  0.32722398  0.15942530  0.32812242  1
  Te  Te173  1  0.33355143  0.16479273  0.66683648  1
  Te  Te174  1  0.33347369  0.49967501  -0.00807836  1
  Te  Te175  1  0.32590531  0.49983703  0.33947841  1
  Te  Te176  1  0.33263639  0.50279804  0.66502804  1
  Te  Te177  1  0.33384028  0.83996255  -0.00268821  1
  Te  Te178  1  0.33267540  0.83748622  0.32882396  1
  Te  Te179  1  0.33642913  0.83151333  0.66914758  1
  Te  Te180  1  0.66718379  0.16764600  0.00174130  1
  Te  Te181  1  0.66719014  0.16776423  0.32535623  1
  Te  Te182  1  0.66602028  0.16386883  0.66607920  1
  Te  Te183  1  0.66725077  0.49892398  -0.00120430  1
  Te  Te184  1  0.66712709  0.49943957  0.34118981  1
  Te  Te185  1  0.66695277  0.49867332  0.66578803  1
  Te  Te186  1  0.66618639  0.83563025  -0.00302574  1
  Te  Te187  1  0.65851315  0.83220318  0.33246074  1
  Te  Te188  1  0.66002167  0.84021995  0.66860050  1
  Te  Te189  1  -0.00133520  0.00137422  0.16815705  1
  Te  Te190  1  0.00171214  0.00081252  0.49807767  1
  Te  Te191  1  0.00496502  -0.00443534  0.83368666  1
  Te  Te192  1  0.00263607  0.33002879  0.16808308  1
  Te  Te193  1  0.00355383  0.33113863  0.49677654  1
  Te  Te194  1  0.00070860  0.33463521  0.84097422  1
  Te  Te195  1  0.00281186  0.66683877  0.17013396  1
  Te  Te196  1  0.00165918  0.66654766  0.49898201  1
  Te  Te197  1  0.00557267  0.67007790  0.83562394  1
  Te  Te198  1  0.33167439  -0.00245696  0.16886856  1
  Te  Te199  1  0.33367444  0.00064591  0.50488906  1
  Te  Te200  1  0.32893533  -0.00180646  0.82340510  1
  Te  Te201  1  0.33851081  0.33433372  0.16616114  1
  Te  Te202  1  0.33462768  0.33852199  0.49955520  1
  Te  Te203  1  0.33354304  0.33918781  0.83449137  1
  Te  Te204  1  0.33224501  0.66743713  0.16509161  1
  Te  Te205  1  0.33560811  0.66610578  0.50368809  1
  Te  Te206  1  0.32980915  0.66831977  0.83098730  1
  Te  Te207  1  0.67306759  0.00333005  0.16644459  1
  Te  Te208  1  0.66513576  0.00089173  0.50352866  1
  Te  Te209  1  0.66776399  -0.00066500  0.83466212  1
  Te  Te210  1  0.66010243  0.33198128  0.16563269  1
  Te  Te211  1  0.66532355  0.33621800  0.50233753  1
  Te  Te212  1  0.66672430  0.33839989  0.83371500  1
  Te  Te213  1  0.66711017  0.66593529  0.16494952  1
  Te  Te214  1  0.66283777  0.66384506  0.50317536  1
  Te  Te215  1  0.66632212  0.66273343  0.83164487  1
