# generated using pymatgen
data_AgSbTe2
_symmetry_space_group_name_H-M   'P 1'
_cell_length_a   18.34341653
_cell_length_b   18.34945015
_cell_length_c   18.33433477
_cell_angle_alpha   90.00700428
_cell_angle_beta   90.00366583
_cell_angle_gamma   90.00099909
_symmetry_Int_Tables_number   1
_chemical_formula_structural   AgSbTe2
_chemical_formula_sum   'Ag54 Sb54 Te108'
_cell_volume   6171.18314675
_cell_formula_units_Z   54
loop_
 _symmetry_equiv_pos_site_id
 _symmetry_equiv_pos_as_xyz
  1  'x, y, z'
loop_
 _atom_site_type_symbol
 _atom_site_label
 _atom_site_symmetry_multiplicity
 _atom_site_fract_x
 _atom_site_fract_y
 _atom_site_fract_z
 _atom_site_occupancy
  Ag  Ag0  1  0.83351609  0.83456661  0.32447597  1
  Ag  Ag1  1  0.51246937  0.49235324  0.33409601  1
  Ag  Ag2  1  0.83458515  0.48785827  0.00525015  1
  Ag  Ag3  1  0.82712571  0.83670629  0.00124876  1
  Ag  Ag4  1  -0.00699512  0.00624359  0.00016273  1
  Ag  Ag5  1  0.83354254  0.65543497  0.16432397  1
  Ag  Ag6  1  0.33073700  0.33490402  -0.00119870  1
  Ag  Ag7  1  0.16059203  0.49124936  -0.00416355  1
  Ag  Ag8  1  0.66502773  0.16927836  0.16319537  1
  Ag  Ag9  1  -0.00315472  0.83277316  0.49627247  1
  Ag  Ag10  1  0.83327222  0.00143453  0.84275703  1
  Ag  Ag11  1  0.67693579  0.33161878  0.00331746  1
  Ag  Ag12  1  0.50861289  0.66347194  0.83848351  1
  Ag  Ag13  1  0.17054181  0.00033559  0.16042022  1
  Ag  Ag14  1  0.49849529  0.49408803  0.66349505  1
  Ag  Ag15  1  0.33647394  0.66382503  0.00008012  1
  Ag  Ag16  1  0.34166791  0.00352148  0.32857139  1
  Ag  Ag17  1  0.50666666  0.16768507  0.00571012  1
  Ag  Ag18  1  0.67331358  0.33080880  0.32176925  1
  Ag  Ag19  1  0.82930811  0.33610571  0.16050733  1
  Ag  Ag20  1  0.82585296  0.17489430  0.32276233  1
  Ag  Ag21  1  -0.00883274  0.33623839  0.32386300  1
  Ag  Ag22  1  0.50961813  0.32846188  0.16345833  1
  Ag  Ag23  1  0.66631236  0.01415182  0.32216647  1
  Ag  Ag24  1  0.16387354  0.33403436  0.83781678  1
  Ag  Ag25  1  0.50022398  0.01009109  0.16430557  1
  Ag  Ag26  1  0.17250630  0.17356522  0.67705636  1
  Ag  Ag27  1  0.66666754  0.66132105  0.68009880  1
  Ag  Ag28  1  0.82911264  0.17506086  0.00429632  1
  Ag  Ag29  1  0.67483018  0.00379694  0.00242963  1
  Ag  Ag30  1  0.00258722  0.17215578  0.49621220  1
  Ag  Ag31  1  0.50776481  0.83852142  0.00133500  1
  Ag  Ag32  1  -0.00987289  0.33038099  0.00394549  1
  Ag  Ag33  1  0.16523720  0.84266105  -0.00071271  1
  Ag  Ag34  1  0.66726240  0.50028506  0.49910301  1
  Ag  Ag35  1  0.33275139  0.33436791  0.67278152  1
  Ag  Ag36  1  0.17036851  0.65561965  0.83932497  1
  Ag  Ag37  1  0.66945047  0.82596409  0.83919279  1
  Ag  Ag38  1  -0.00173760  0.49660855  0.49232119  1
  Ag  Ag39  1  0.49638729  0.17410013  0.66757869  1
  Ag  Ag40  1  -0.00438513  0.65328331  0.33275002  1
  Ag  Ag41  1  -0.00488111  0.49709552  0.16834045  1
  Ag  Ag42  1  0.33419187  0.49506124  0.50115763  1
  Ag  Ag43  1  0.33353097  0.83695039  0.16173244  1
  Ag  Ag44  1  0.83433808  0.33133675  0.84510386  1
  Ag  Ag45  1  0.50877557  0.17348435  0.32239006  1
  Ag  Ag46  1  0.33207001  0.17526540  0.50047470  1
  Ag  Ag47  1  0.16347368  0.00375742  0.84282540  1
  Ag  Ag48  1  0.17119593  0.49262282  0.67570156  1
  Ag  Ag49  1  0.66749770  0.66672546  -0.00185497  1
  Ag  Ag50  1  0.83173684  0.83180071  0.67863785  1
  Ag  Ag51  1  0.83246973  0.49293907  0.32350728  1
  Ag  Ag52  1  0.66752703  0.50381854  0.83668878  1
  Ag  Ag53  1  0.16461324  0.16623343  -0.00368586  1
  Sb  Sb54  1  -0.00455265  0.66462494  0.66340692  1
  Sb  Sb55  1  0.16438044  0.32900697  0.15736873  1
  Sb  Sb56  1  0.33041031  0.66758754  0.32684593  1
  Sb  Sb57  1  0.00130073  0.16784811  0.83511145  1
  Sb  Sb58  1  0.83297794  -0.00038918  0.49971204  1
  Sb  Sb59  1  -0.00145629  0.49920909  0.83715702  1
  Sb  Sb60  1  0.16516378  0.66316707  0.50724360  1
  Sb  Sb61  1  0.67139942  0.82798994  0.50266483  1
  Sb  Sb62  1  0.50020846  0.33415606  0.49533930  1
  Sb  Sb63  1  0.66575670  0.17254506  0.49355018  1
  Sb  Sb64  1  0.00307112  0.33432431  0.66850677  1
  Sb  Sb65  1  0.50062581  0.00415328  0.49195763  1
  Sb  Sb66  1  0.16696965  0.33322608  0.50442495  1
  Sb  Sb67  1  0.83374695  0.66556760  0.49344124  1
  Sb  Sb68  1  -0.00106273  0.83163856  0.16657241  1
  Sb  Sb69  1  0.33134057  0.00135675  0.00433480  1
  Sb  Sb70  1  0.83301795  0.16542187  0.66961758  1
  Sb  Sb71  1  0.50116745  0.33602961  0.83957994  1
  Sb  Sb72  1  0.33733537  0.65925715  0.67381025  1
  Sb  Sb73  1  0.66223227  0.33738965  0.67063520  1
  Sb  Sb74  1  0.16133181  0.49900458  0.33192927  1
  Sb  Sb75  1  0.66575503  0.83973344  0.15877343  1
  Sb  Sb76  1  0.66620914  -0.00230378  0.67201384  1
  Sb  Sb77  1  0.33539743  0.33076182  0.33078989  1
  Sb  Sb78  1  -0.00499277  0.17053091  0.16604616  1
  Sb  Sb79  1  0.33859029  0.16376134  0.16794637  1
  Sb  Sb80  1  0.67228866  0.49238741  0.16392820  1
  Sb  Sb81  1  0.83148929  0.00328636  0.16114624  1
  Sb  Sb82  1  0.83480160  0.33444733  0.49527056  1
  Sb  Sb83  1  0.32947850  0.50159164  0.16652355  1
  Sb  Sb84  1  0.33186844  0.16711920  0.83446483  1
  Sb  Sb85  1  0.66688815  0.16862676  0.84170554  1
  Sb  Sb86  1  0.50598253  0.66316065  0.16092197  1
  Sb  Sb87  1  0.33327207  0.00925800  0.66117546  1
  Sb  Sb88  1  -0.00266716  0.66457432  0.00349549  1
  Sb  Sb89  1  0.50145001  -0.00163360  0.84258879  1
  Sb  Sb90  1  0.33549214  0.83198507  0.84184071  1
  Sb  Sb91  1  0.16455752  0.00221379  0.49901512  1
  Sb  Sb92  1  0.16190879  0.66892044  0.15863518  1
  Sb  Sb93  1  0.67247137  0.66149440  0.32663095  1
  Sb  Sb94  1  0.50381089  0.83075544  0.67504479  1
  Sb  Sb95  1  0.50754921  0.83494201  0.32468010  1
  Sb  Sb96  1  0.32863932  0.83256801  0.49375923  1
  Sb  Sb97  1  0.83070671  0.66580486  0.84119227  1
  Sb  Sb98  1  0.83160756  0.50229978  0.66836198  1
  Sb  Sb99  1  0.50172892  0.66267084  0.50475170  1
  Sb  Sb100  1  -0.00049455  0.00145731  0.67151999  1
  Sb  Sb101  1  0.16627580  0.16704963  0.32940689  1
  Sb  Sb102  1  -0.00510402  0.00447388  0.32707713  1
  Sb  Sb103  1  -0.00592427  0.83317991  0.83534524  1
  Sb  Sb104  1  0.16083078  0.83491828  0.32666623  1
  Sb  Sb105  1  0.50435499  0.49675450  0.00149194  1
  Sb  Sb106  1  0.16183866  0.83318560  0.67614253  1
  Sb  Sb107  1  0.33535857  0.49855798  0.83328012  1
  Te  Te108  1  0.16755090  0.16148099  0.16070739  1
  Te  Te109  1  0.16750355  0.16612286  0.49982911  1
  Te  Te110  1  0.16630981  0.16766987  0.83491389  1
  Te  Te111  1  0.16112120  0.50033003  0.16014285  1
  Te  Te112  1  0.16737992  0.50010629  0.50292633  1
  Te  Te113  1  0.16580949  0.49587141  0.83501093  1
  Te  Te114  1  0.16954240  0.83675342  0.16007557  1
  Te  Te115  1  0.15982544  0.83284543  0.50186629  1
  Te  Te116  1  0.16554885  0.84024862  0.83858585  1
  Te  Te117  1  0.50144126  0.16772056  0.16636779  1
  Te  Te118  1  0.49638449  0.16749944  0.50521818  1
  Te  Te119  1  0.49956219  0.16657462  0.83057374  1
  Te  Te120  1  0.49728857  0.49616469  0.17323446  1
  Te  Te121  1  0.49937421  0.49974009  0.50094267  1
  Te  Te122  1  0.50450801  0.50307258  0.83149958  1
  Te  Te123  1  0.49596350  0.83215137  0.16029286  1
  Te  Te124  1  0.49886791  0.83374911  0.50035666  1
  Te  Te125  1  0.50507274  0.82891744  0.84049192  1
  Te  Te126  1  0.82954786  0.16940893  0.16553301  1
  Te  Te127  1  0.83678293  0.16623093  0.49998236  1
  Te  Te128  1  0.83382995  0.16537856  0.83770193  1
  Te  Te129  1  0.83458279  0.49717120  0.16560034  1
  Te  Te130  1  0.83466301  0.50025183  0.50036333  1
  Te  Te131  1  0.83083406  0.49736505  0.83609630  1
  Te  Te132  1  0.83308210  0.83420525  0.16471706  1
  Te  Te133  1  0.83727654  0.83294715  0.49698243  1
  Te  Te134  1  0.83012111  0.83322568  0.83742945  1
  Te  Te135  1  0.17076904  0.00317512  0.00000878  1
  Te  Te136  1  0.16785715  -0.00031816  0.32814603  1
  Te  Te137  1  0.16684285  0.00477321  0.67133918  1
  Te  Te138  1  0.17097298  0.33203806  -0.00254578  1
  Te  Te139  1  0.16206910  0.33314288  0.33139167  1
  Te  Te140  1  0.16904491  0.33287572  0.67082244  1
  Te  Te141  1  0.16454823  0.66453181  -0.00300834  1
  Te  Te142  1  0.16000890  0.66812374  0.33339153  1
  Te  Te143  1  0.16798897  0.66405247  0.67553503  1
  Te  Te144  1  0.49991297  0.00252936  0.00291006  1
  Te  Te145  1  0.50471371  0.00113563  0.32664750  1
  Te  Te146  1  0.49967733  0.00334577  0.66797119  1
  Te  Te147  1  0.49526826  0.33001035  0.00283292  1
  Te  Te148  1  0.49982370  0.33265064  0.32860384  1
  Te  Te149  1  0.49556493  0.33488542  0.66939563  1
  Te  Te150  1  0.50118552  0.66398092  -0.00212395  1
  Te  Te151  1  0.49977359  0.66170939  0.33243302  1
  Te  Te152  1  0.50508013  0.66306898  0.67409956  1
  Te  Te153  1  0.83380119  -0.00328797  -0.00023909  1
  Te  Te154  1  0.82855418  0.00087195  0.33238596  1
  Te  Te155  1  0.83183262  -0.00538346  0.67492104  1
  Te  Te156  1  0.83359689  0.33199217  0.00129331  1
  Te  Te157  1  0.83295971  0.33333565  0.33279524  1
  Te  Te158  1  0.83273446  0.33244283  0.67605119  1
  Te  Te159  1  0.83150941  0.67380194  0.00333148  1
  Te  Te160  1  0.83645170  0.66532802  0.32764038  1
  Te  Te161  1  0.82819810  0.67093230  0.66806395  1
  Te  Te162  1  -0.00009110  0.16737741  0.00080233  1
  Te  Te163  1  -0.00189967  0.17068117  0.33547891  1
  Te  Te164  1  0.00301990  0.16725592  0.65730851  1
  Te  Te165  1  -0.00268171  0.49740259  0.00149812  1
  Te  Te166  1  -0.00166707  0.49644917  0.33253674  1
  Te  Te167  1  0.00397950  0.50046657  0.65876773  1
  Te  Te168  1  0.00225686  0.83620849  0.00014517  1
  Te  Te169  1  -0.00586002  0.83692976  0.33522559  1
  Te  Te170  1  -0.00653023  0.83322758  0.66023944  1
  Te  Te171  1  0.33378618  0.17039393  0.00052327  1
  Te  Te172  1  0.33441225  0.16428460  0.33851532  1
  Te  Te173  1  0.33228544  0.17204431  0.66229763  1
  Te  Te174  1  0.33129708  0.50079716  0.00114138  1
  Te  Te175  1  0.33200798  0.50008438  0.33843461  1
  Te  Te176  1  0.33335340  0.49625784  0.66411000  1
  Te  Te177  1  0.33025091  0.83168405  0.00231291  1
  Te  Te178  1  0.33417190  0.83712277  0.32748622  1
  Te  Te179  1  0.33331031  0.83202441  0.66302209  1
  Te  Te180  1  0.66681494  0.16801777  0.00164529  1
  Te  Te181  1  0.66602424  0.17020398  0.33246389  1
  Te  Te182  1  0.66208432  0.16732192  0.66323895  1
  Te  Te183  1  0.66851801  0.49776363  -0.00192199  1
  Te  Te184  1  0.67017045  0.49804075  0.33423707  1
  Te  Te185  1  0.66444588  0.50128114  0.66762440  1
  Te  Te186  1  0.66591067  0.83514093  -0.00117203  1
  Te  Te187  1  0.67310851  0.83027664  0.33454374  1
  Te  Te188  1  0.67067728  0.82966925  0.67094356  1
  Te  Te189  1  0.00650775  0.00020252  0.16042570  1
  Te  Te190  1  -0.00046908  0.00057895  0.49909154  1
  Te  Te191  1  -0.00063502  -0.00007281  0.83931078  1
  Te  Te192  1  -0.00146050  0.33569693  0.16457502  1
  Te  Te193  1  0.00057512  0.33420781  0.49870600  1
  Te  Te194  1  -0.00009656  0.33402991  0.83877260  1
  Te  Te195  1  -0.00513260  0.66312522  0.17120980  1
  Te  Te196  1  0.00010496  0.66489173  0.49514885  1
  Te  Te197  1  0.00977075  0.66680552  0.83160528  1
  Te  Te198  1  0.33591705  -0.00175288  0.17014604  1
  Te  Te199  1  0.33267901  0.00110849  0.49098913  1
  Te  Te200  1  0.32807864  -0.00140858  0.82914767  1
  Te  Te201  1  0.33517012  0.33425138  0.16260874  1
  Te  Te202  1  0.33327622  0.33462103  0.50140810  1
  Te  Te203  1  0.32890431  0.33276645  0.83383778  1
  Te  Te204  1  0.33333765  0.67131385  0.16039954  1
  Te  Te205  1  0.33318257  0.66291954  0.49978659  1
  Te  Te206  1  0.33182536  0.66631012  0.84070157  1
  Te  Te207  1  0.66408531  0.00498588  0.16400914  1
  Te  Te208  1  0.66671614  -0.00116895  0.49611906  1
  Te  Te209  1  0.66915529  -0.00229511  0.83955029  1
  Te  Te210  1  0.66767502  0.33102371  0.16498893  1
  Te  Te211  1  0.66753105  0.34099307  0.49878231  1
  Te  Te212  1  0.66918391  0.33683301  0.83860157  1
  Te  Te213  1  0.67294773  0.66902990  0.15900544  1
  Te  Te214  1  0.66647956  0.65964973  0.50323545  1
  Te  Te215  1  0.66898200  0.66543091  0.83813011  1
