# generated using pymatgen
data_AgSbTe2
_symmetry_space_group_name_H-M   'P 1'
_cell_length_a   18.32268831
_cell_length_b   18.31824123
_cell_length_c   18.31520547
_cell_angle_alpha   90.00113120
_cell_angle_beta   90.00358509
_cell_angle_gamma   89.99908339
_symmetry_Int_Tables_number   1
_chemical_formula_structural   AgSbTe2
_chemical_formula_sum   'Ag54 Sb54 Te108'
_cell_volume   6147.30500941
_cell_formula_units_Z   54
loop_
 _symmetry_equiv_pos_site_id
 _symmetry_equiv_pos_as_xyz
  1  'x, y, z'
loop_
 _atom_site_type_symbol
 _atom_site_label
 _atom_site_symmetry_multiplicity
 _atom_site_fract_x
 _atom_site_fract_y
 _atom_site_fract_z
 _atom_site_occupancy
  Ag  Ag0  1  0.83168446  0.66004952  0.49584988  1
  Ag  Ag1  1  0.50476647  0.33316147  0.16462377  1
  Ag  Ag2  1  0.16181593  0.66129799  0.16726660  1
  Ag  Ag3  1  0.66870986  0.67512877  0.00130109  1
  Ag  Ag4  1  0.66595637  0.66309321  0.32988186  1
  Ag  Ag5  1  0.82731150  0.33159004  0.83545418  1
  Ag  Ag6  1  0.50254079  -0.00169526  0.50231589  1
  Ag  Ag7  1  0.82581325  0.83307154  0.00345663  1
  Ag  Ag8  1  -0.00412856  0.16881713  0.16639964  1
  Ag  Ag9  1  0.34213499  0.66333918  0.33215879  1
  Ag  Ag10  1  0.82582759  0.49532852  0.33524884  1
  Ag  Ag11  1  0.83430671  0.50307016  0.66668027  1
  Ag  Ag12  1  0.83467963  0.17403781  0.33336713  1
  Ag  Ag13  1  -0.01321284  0.83336144  0.16545197  1
  Ag  Ag14  1  -0.00683466  0.16753538  0.83390298  1
  Ag  Ag15  1  0.66613385  0.16280699  0.50271419  1
  Ag  Ag16  1  0.66536459  0.00066894  0.67320172  1
  Ag  Ag17  1  0.82727569  0.66298474  0.83402629  1
  Ag  Ag18  1  -0.00478979  0.16761059  0.49628663  1
  Ag  Ag19  1  0.16884093  0.49605266  0.33234498  1
  Ag  Ag20  1  0.50119328  0.16228334  -0.00982379  1
  Ag  Ag21  1  0.50762359  0.66300581  0.83473296  1
  Ag  Ag22  1  0.66994027  0.33770923  0.33198389  1
  Ag  Ag23  1  -0.00416335  0.32863443  0.00098113  1
  Ag  Ag24  1  0.34533120  0.00018751  -0.00244671  1
  Ag  Ag25  1  0.50336785  0.16153830  0.67251936  1
  Ag  Ag26  1  0.50416406  0.50432376  0.33230377  1
  Ag  Ag27  1  0.33839257  0.16371660  0.50176170  1
  Ag  Ag28  1  0.66623614  0.49811091  0.83224891  1
  Ag  Ag29  1  0.50410281  0.82634291  0.33596974  1
  Ag  Ag30  1  0.33857208  0.49911150  0.83570127  1
  Ag  Ag31  1  0.16711780  0.66562617  0.83179933  1
  Ag  Ag32  1  0.83381958  0.33368525  0.17277092  1
  Ag  Ag33  1  0.50786775  0.83788875  -0.00070629  1
  Ag  Ag34  1  0.16066866  0.33020817  0.49075389  1
  Ag  Ag35  1  0.16268956  0.33812241  0.17313372  1
  Ag  Ag36  1  0.66273291  0.83725378  0.49621533  1
  Ag  Ag37  1  0.83411007  0.33319332  0.49034017  1
  Ag  Ag38  1  0.34354897  0.16836967  0.83114000  1
  Ag  Ag39  1  0.34608078  0.83654095  0.49988567  1
  Ag  Ag40  1  0.66370022  0.16860393  0.83022795  1
  Ag  Ag41  1  -0.00173371  0.66790755  0.66912868  1
  Ag  Ag42  1  0.66525089  -0.00574534  -0.00486870  1
  Ag  Ag43  1  0.82915752  0.00711121  0.83875147  1
  Ag  Ag44  1  0.83165999  -0.00774342  0.16145907  1
  Ag  Ag45  1  0.17033962  0.82732851  0.66682287  1
  Ag  Ag46  1  0.16051735  0.17727338  0.33616962  1
  Ag  Ag47  1  0.50835381  0.32879777  0.83769894  1
  Ag  Ag48  1  0.50127677  0.83840395  0.66516137  1
  Ag  Ag49  1  0.16558975  0.00238718  0.83264107  1
  Ag  Ag50  1  0.66885418  0.83049853  0.16183580  1
  Ag  Ag51  1  0.16277601  0.50483275  0.66647065  1
  Ag  Ag52  1  0.33160065  0.50026718  0.16995650  1
  Ag  Ag53  1  0.83251848  0.66788102  0.16791906  1
  Sb  Sb54  1  0.33730178  0.82810348  0.16961192  1
  Sb  Sb55  1  0.33858058  0.67039800  0.00161595  1
  Sb  Sb56  1  0.83016599  0.50257458  0.00025863  1
  Sb  Sb57  1  0.33551012  0.83449383  0.83002008  1
  Sb  Sb58  1  -0.00590603  0.33206393  0.32850397  1
  Sb  Sb59  1  -0.00510605  0.66566792  0.33423829  1
  Sb  Sb60  1  0.66706131  -0.00111728  0.33264349  1
  Sb  Sb61  1  -0.00211775  0.49284943  0.50083558  1
  Sb  Sb62  1  0.33313793  0.32998178  -0.00023922  1
  Sb  Sb63  1  0.33483336  0.33806521  0.33231977  1
  Sb  Sb64  1  0.50317798  0.32815835  0.49919428  1
  Sb  Sb65  1  0.82549231  0.82961042  0.32771571  1
  Sb  Sb66  1  -0.00267587  0.00337240  0.33239041  1
  Sb  Sb67  1  0.33167693  0.49950307  0.49903016  1
  Sb  Sb68  1  0.50530040  0.00266981  0.16586135  1
  Sb  Sb69  1  0.66532990  0.50228942  0.16681047  1
  Sb  Sb70  1  0.66858196  0.33120974  0.00069344  1
  Sb  Sb71  1  -0.00554323  0.66505809  -0.00186060  1
  Sb  Sb72  1  0.50360024  0.66411523  0.16610985  1
  Sb  Sb73  1  0.66954977  0.67149770  0.66778291  1
  Sb  Sb74  1  0.66836195  0.32934738  0.66615023  1
  Sb  Sb75  1  0.66613768  0.83440936  0.83610854  1
  Sb  Sb76  1  0.82995096  0.82917624  0.67025934  1
  Sb  Sb77  1  0.16847325  0.16683149  0.00137837  1
  Sb  Sb78  1  0.33086167  0.66845591  0.66462077  1
  Sb  Sb79  1  0.66894049  0.49945192  0.50085082  1
  Sb  Sb80  1  0.16965101  0.16789894  0.66440070  1
  Sb  Sb81  1  0.50179035  0.50020216  0.66732462  1
  Sb  Sb82  1  0.17171919  0.82945204  0.33682596  1
  Sb  Sb83  1  0.50479690  0.67264722  0.50050912  1
  Sb  Sb84  1  0.33036664  0.17064194  0.16714726  1
  Sb  Sb85  1  -0.00563221  0.00297727  -0.00097400  1
  Sb  Sb86  1  0.50338624  0.00223728  0.83212508  1
  Sb  Sb87  1  0.00124690  0.49730549  0.16759797  1
  Sb  Sb88  1  0.50194909  0.49968483  0.00115120  1
  Sb  Sb89  1  -0.00297947  0.49754841  0.83100759  1
  Sb  Sb90  1  -0.00331245  0.83646676  0.49651385  1
  Sb  Sb91  1  -0.00222560  0.33426052  0.66953837  1
  Sb  Sb92  1  0.16773169  0.83323319  -0.00274585  1
  Sb  Sb93  1  0.17229071  0.00495422  0.50486820  1
  Sb  Sb94  1  0.16583676  0.33455576  0.83394560  1
  Sb  Sb95  1  0.33480735  -0.00243065  0.33146684  1
  Sb  Sb96  1  0.82872031  0.16344740  0.00074661  1
  Sb  Sb97  1  0.16195166  0.66191978  0.49969602  1
  Sb  Sb98  1  0.33297628  0.33315059  0.66684188  1
  Sb  Sb99  1  0.82927555  0.17043676  0.66665675  1
  Sb  Sb100  1  0.16807586  0.50027095  0.00088066  1
  Sb  Sb101  1  -0.00114792  0.83519105  0.83755769  1
  Sb  Sb102  1  0.82615572  0.00323744  0.50006645  1
  Sb  Sb103  1  0.33848562  0.00044100  0.67089795  1
  Sb  Sb104  1  0.16158099  0.00072000  0.16251738  1
  Sb  Sb105  1  -0.00485182  -0.00309218  0.66887288  1
  Sb  Sb106  1  0.50216537  0.16892298  0.33485544  1
  Sb  Sb107  1  0.67213724  0.16468702  0.16703886  1
  Te  Te108  1  0.16179100  0.16873380  0.17155127  1
  Te  Te109  1  0.16864713  0.16964120  0.49791037  1
  Te  Te110  1  0.16800335  0.16592826  0.83226501  1
  Te  Te111  1  0.16859020  0.50078808  0.16790006  1
  Te  Te112  1  0.16606501  0.49321585  0.49955809  1
  Te  Te113  1  0.16864074  0.50228715  0.83082764  1
  Te  Te114  1  0.16774230  0.83018809  0.16706639  1
  Te  Te115  1  0.16516176  0.83477446  0.50596527  1
  Te  Te116  1  0.16685430  0.82969104  0.82909213  1
  Te  Te117  1  0.50004288  0.17182032  0.16541088  1
  Te  Te118  1  0.50163956  0.16360584  0.50117573  1
  Te  Te119  1  0.50152699  0.16671971  0.83216403  1
  Te  Te120  1  0.49724704  0.49576855  0.16999474  1
  Te  Te121  1  0.49973595  0.49874746  0.49499551  1
  Te  Te122  1  0.49997828  0.50057929  0.83259418  1
  Te  Te123  1  0.50496711  0.83353668  0.16618759  1
  Te  Te124  1  0.50209241  0.83341427  0.50165064  1
  Te  Te125  1  0.49874163  0.82846884  0.83184889  1
  Te  Te126  1  0.83599755  0.17428516  0.16691605  1
  Te  Te127  1  0.83017050  0.16835790  0.49959860  1
  Te  Te128  1  0.83092530  0.16812503  0.83317080  1
  Te  Te129  1  0.83321588  0.49939952  0.17076630  1
  Te  Te130  1  0.83329532  0.49857051  0.49812291  1
  Te  Te131  1  0.83112898  0.50048118  0.83323323  1
  Te  Te132  1  0.83011750  0.83113360  0.16658734  1
  Te  Te133  1  0.82927957  0.83326541  0.49895727  1
  Te  Te134  1  0.83452311  0.82954995  0.83834038  1
  Te  Te135  1  0.16836624  -0.00089408  -0.00706701  1
  Te  Te136  1  0.16758258  0.00360360  0.33318471  1
  Te  Te137  1  0.16601258  -0.00337901  0.67272430  1
  Te  Te138  1  0.16249002  0.33271015  0.00715227  1
  Te  Te139  1  0.16923641  0.33412685  0.33197595  1
  Te  Te140  1  0.16507233  0.33971347  0.66330077  1
  Te  Te141  1  0.16624471  0.66798665  0.00014496  1
  Te  Te142  1  0.16570562  0.66329813  0.33079826  1
  Te  Te143  1  0.16451907  0.66569687  0.66662983  1
  Te  Te144  1  0.50399467  0.00001234  0.00058776  1
  Te  Te145  1  0.49976207  -0.00531310  0.33644647  1
  Te  Te146  1  0.50387068  -0.00020277  0.66552611  1
  Te  Te147  1  0.50099388  0.32944421  -0.00003671  1
  Te  Te148  1  0.50511518  0.33721826  0.33073086  1
  Te  Te149  1  0.50060961  0.33056075  0.67258428  1
  Te  Te150  1  0.50488045  0.67038806  -0.00318349  1
  Te  Te151  1  0.50314625  0.66567418  0.33309429  1
  Te  Te152  1  0.49978543  0.66929826  0.67225974  1
  Te  Te153  1  0.82912685  -0.00333699  -0.00042784  1
  Te  Te154  1  0.83234259  0.00922613  0.32782400  1
  Te  Te155  1  0.82729039  -0.00115895  0.67232762  1
  Te  Te156  1  0.83431493  0.33322615  -0.00252555  1
  Te  Te157  1  0.83127370  0.33432914  0.33353962  1
  Te  Te158  1  0.83389351  0.34089471  0.67221287  1
  Te  Te159  1  0.83084949  0.66976931  0.00054307  1
  Te  Te160  1  0.82947076  0.66336438  0.33176567  1
  Te  Te161  1  0.83536880  0.66384962  0.67110928  1
  Te  Te162  1  0.00070758  0.16903254  -0.00017721  1
  Te  Te163  1  -0.00043786  0.16831782  0.33417271  1
  Te  Te164  1  0.00038945  0.16537796  0.66984371  1
  Te  Te165  1  -0.00057998  0.49178844  -0.00082472  1
  Te  Te166  1  0.00582436  0.50019414  0.33483978  1
  Te  Te167  1  -0.00019956  0.50580525  0.66627912  1
  Te  Te168  1  -0.00300143  0.83329310  0.00687284  1
  Te  Te169  1  0.00176257  0.83470760  0.32593236  1
  Te  Te170  1  0.00299783  0.82926925  0.66605340  1
  Te  Te171  1  0.33813013  0.16264263  -0.00163662  1
  Te  Te172  1  0.33203881  0.16589400  0.33676972  1
  Te  Te173  1  0.33822505  0.16643582  0.66685860  1
  Te  Te174  1  0.33494034  0.50127588  -0.00355932  1
  Te  Te175  1  0.33213720  0.50404403  0.33241477  1
  Te  Te176  1  0.33059786  0.50057985  0.67121078  1
  Te  Te177  1  0.33914022  0.83886812  0.00050501  1
  Te  Te178  1  0.33950521  0.82804986  0.33786549  1
  Te  Te179  1  0.33501994  0.83466520  0.66049419  1
  Te  Te180  1  0.66135236  0.16354707  -0.00274105  1
  Te  Te181  1  0.66955800  0.16988999  0.33567833  1
  Te  Te182  1  0.66424349  0.16312896  0.66694915  1
  Te  Te183  1  0.66557425  0.50804403  -0.00797077  1
  Te  Te184  1  0.66696254  0.50077942  0.33381811  1
  Te  Te185  1  0.67048498  0.50062175  0.67214815  1
  Te  Te186  1  0.66564542  0.83323290  0.00027541  1
  Te  Te187  1  0.66291076  0.83158353  0.33513324  1
  Te  Te188  1  0.66344048  0.83844770  0.66081940  1
  Te  Te189  1  -0.00659970  0.00314135  0.16545519  1
  Te  Te190  1  -0.00054519  0.00843124  0.50125904  1
  Te  Te191  1  -0.00135243  0.00558611  0.83350121  1
  Te  Te192  1  -0.00193860  0.33122290  0.16320334  1
  Te  Te193  1  -0.00349378  0.32591126  0.50272462  1
  Te  Te194  1  -0.00274248  0.32820793  0.83715957  1
  Te  Te195  1  -0.00081069  0.66846255  0.16602787  1
  Te  Te196  1  -0.00788990  0.66960214  0.50464259  1
  Te  Te197  1  0.00180063  0.66678273  0.83130472  1
  Te  Te198  1  0.33221880  0.00038197  0.15951209  1
  Te  Te199  1  0.33984491  0.00104582  0.49909075  1
  Te  Te200  1  0.33090450  0.00387379  0.83701795  1
  Te  Te201  1  0.33257523  0.33914217  0.16584290  1
  Te  Te202  1  0.33130314  0.32720996  0.49969366  1
  Te  Te203  1  0.33526150  0.33150596  0.83414942  1
  Te  Te204  1  0.33032224  0.66167505  0.16911841  1
  Te  Te205  1  0.33164584  0.66942531  0.49382458  1
  Te  Te206  1  0.32975882  0.66398966  0.83384772  1
  Te  Te207  1  0.67196179  -0.00402279  0.16247310  1
  Te  Te208  1  0.66293702  0.00186229  0.49977532  1
  Te  Te209  1  0.66917474  0.00225977  0.83382445  1
  Te  Te210  1  0.66846481  0.33457356  0.16871151  1
  Te  Te211  1  0.67124345  0.32979801  0.49693065  1
  Te  Te212  1  0.66698302  0.33095410  0.83400137  1
  Te  Te213  1  0.66983962  0.66822611  0.16768679  1
  Te  Te214  1  0.67195594  0.66877651  0.49767766  1
  Te  Te215  1  0.66728615  0.66710081  0.83363728  1
