# generated using pymatgen
data_AgSbTe2
_symmetry_space_group_name_H-M   'P 1'
_cell_length_a   18.36377025
_cell_length_b   18.35564432
_cell_length_c   18.36170509
_cell_angle_alpha   90.00038434
_cell_angle_beta   89.99987972
_cell_angle_gamma   89.99916222
_symmetry_Int_Tables_number   1
_chemical_formula_structural   AgSbTe2
_chemical_formula_sum   'Ag54 Sb54 Te108'
_cell_volume   6189.34215939
_cell_formula_units_Z   54
loop_
 _symmetry_equiv_pos_site_id
 _symmetry_equiv_pos_as_xyz
  1  'x, y, z'
loop_
 _atom_site_type_symbol
 _atom_site_label
 _atom_site_symmetry_multiplicity
 _atom_site_fract_x
 _atom_site_fract_y
 _atom_site_fract_z
 _atom_site_occupancy
  Ag  Ag0  1  0.83742410  0.15925615  0.33067022  1
  Ag  Ag1  1  0.16182048  -0.01088260  0.49447026  1
  Ag  Ag2  1  0.48993466  0.83174270  0.33298359  1
  Ag  Ag3  1  0.00432133  0.83355146  0.16995895  1
  Ag  Ag4  1  0.01198206  0.67797414  0.32051024  1
  Ag  Ag5  1  0.16528104  0.82913696  0.65213293  1
  Ag  Ag6  1  0.66876129  0.83213214  0.49902923  1
  Ag  Ag7  1  0.00446768  0.33124658  -0.00036912  1
  Ag  Ag8  1  0.16422081  -0.01851705  0.16067050  1
  Ag  Ag9  1  0.00810736  0.83555880  0.48635073  1
  Ag  Ag10  1  0.32646867  0.67003563  0.33104966  1
  Ag  Ag11  1  0.66587474  0.49892796  0.16420182  1
  Ag  Ag12  1  0.67825995  0.82922504  0.83255755  1
  Ag  Ag13  1  0.32823737  0.33801571  0.32307094  1
  Ag  Ag14  1  0.16896001  0.67695178  0.48082027  1
  Ag  Ag15  1  0.00437043  -0.00618693  0.00436887  1
  Ag  Ag16  1  0.16354663  -0.01019807  0.84238715  1
  Ag  Ag17  1  0.67049179  0.33174507  0.66830819  1
  Ag  Ag18  1  0.84746761  0.83608073  0.33683462  1
  Ag  Ag19  1  0.16443047  0.16590162  0.00027514  1
  Ag  Ag20  1  0.00103419  -0.00847401  0.32384032  1
  Ag  Ag21  1  0.16407001  0.16310064  0.67359241  1
  Ag  Ag22  1  0.66852640  0.66481437  -0.00151090  1
  Ag  Ag23  1  0.16680424  0.66502049  0.16547332  1
  Ag  Ag24  1  0.31968053  0.82594710  0.17093684  1
  Ag  Ag25  1  0.00386174  0.83144765  0.83719621  1
  Ag  Ag26  1  0.32663840  0.66475150  0.66736627  1
  Ag  Ag27  1  0.01068333  0.50577466  0.16310420  1
  Ag  Ag28  1  0.84547633  0.16626850  0.67442173  1
  Ag  Ag29  1  0.00318045  0.51038654  0.84529587  1
  Ag  Ag30  1  0.32341769  0.50784039  0.16793722  1
  Ag  Ag31  1  0.48445957  0.67203415  0.50020171  1
  Ag  Ag32  1  0.00506576  0.67108274  0.00039530  1
  Ag  Ag33  1  0.16619499  0.51292663  0.32205112  1
  Ag  Ag34  1  0.66576332  0.33444958  0.32534055  1
  Ag  Ag35  1  0.32541393  0.33562940  0.66881132  1
  Ag  Ag36  1  0.00268323  0.15908867  0.16189983  1
  Ag  Ag37  1  0.84699307  0.67535236  0.83535904  1
  Ag  Ag38  1  0.84590984  -0.00285963  0.83122333  1
  Ag  Ag39  1  0.16478472  0.82881063  0.33431642  1
  Ag  Ag40  1  0.16285392  0.82583906  0.01558278  1
  Ag  Ag41  1  0.84401928  -0.00228067  0.50065179  1
  Ag  Ag42  1  0.84641020  0.16672038  -0.00073741  1
  Ag  Ag43  1  0.67016515  0.33895798  0.00330480  1
  Ag  Ag44  1  0.48691965  0.66903974  0.83403016  1
  Ag  Ag45  1  0.48559197  -0.00411053  0.16649494  1
  Ag  Ag46  1  0.16408977  0.50999066  0.00656171  1
  Ag  Ag47  1  0.00789590  0.33077901  0.67714490  1
  Ag  Ag48  1  0.31978995  0.66307270  0.00263617  1
  Ag  Ag49  1  0.32022606  0.33789005  0.00459538  1
  Ag  Ag50  1  0.16628406  0.34910351  0.16120494  1
  Ag  Ag51  1  0.16527540  0.67412295  0.85064558  1
  Ag  Ag52  1  0.32661488  0.16833881  0.83414023  1
  Ag  Ag53  1  0.32111576  0.82797928  0.49035664  1
  Sb  Sb54  1  0.00382813  0.50808379  0.49689265  1
  Sb  Sb55  1  0.00336957  0.33370155  0.32883100  1
  Sb  Sb56  1  0.83520194  0.49669772  0.66934531  1
  Sb  Sb57  1  0.32961899  0.50828470  0.49493479  1
  Sb  Sb58  1  0.67330257  0.50515430  0.83954796  1
  Sb  Sb59  1  0.67363733  0.16977783  0.16557462  1
  Sb  Sb60  1  0.84346557  0.49921543  0.00046539  1
  Sb  Sb61  1  0.84234708  0.66729407  0.16178399  1
  Sb  Sb62  1  0.83858335  0.50329228  0.33032209  1
  Sb  Sb63  1  0.83603029  0.33047208  0.83467829  1
  Sb  Sb64  1  0.32188888  -0.00348290  0.00138805  1
  Sb  Sb65  1  0.66680902  0.50292651  0.49658363  1
  Sb  Sb66  1  0.66621033  0.66641206  0.32876465  1
  Sb  Sb67  1  0.49315623  0.83097467  0.00226158  1
  Sb  Sb68  1  0.49585641  -0.00676856  0.83903162  1
  Sb  Sb69  1  0.49771546  0.33919356  0.49885661  1
  Sb  Sb70  1  0.32686578  -0.00333858  0.66672654  1
  Sb  Sb71  1  0.16238518  0.16240003  0.32861483  1
  Sb  Sb72  1  0.67042882  0.00008739  0.66667350  1
  Sb  Sb73  1  0.32916646  0.16267940  0.50233765  1
  Sb  Sb74  1  0.49699964  -0.01008400  0.49254590  1
  Sb  Sb75  1  0.84344615  0.83379405  0.00058177  1
  Sb  Sb76  1  0.00566621  0.16292061  0.84065369  1
  Sb  Sb77  1  0.49869377  0.50203304  0.66767039  1
  Sb  Sb78  1  0.49477482  0.33060331  0.16653514  1
  Sb  Sb79  1  0.50282418  0.16211257  0.33113218  1
  Sb  Sb80  1  0.16631173  0.50196494  0.67035278  1
  Sb  Sb81  1  0.49271956  0.67026668  0.16556812  1
  Sb  Sb82  1  0.32294684  0.83168737  0.83451956  1
  Sb  Sb83  1  0.49444334  0.50232926  0.00165949  1
  Sb  Sb84  1  0.16656881  0.33295458  0.49785485  1
  Sb  Sb85  1  0.66967931  0.16383023  0.50036987  1
  Sb  Sb86  1  0.84024056  0.83796239  0.66638392  1
  Sb  Sb87  1  0.67482825  -0.00086278  0.33216045  1
  Sb  Sb88  1  0.00084530  0.16079874  0.49873902  1
  Sb  Sb89  1  0.49543914  0.16821155  0.66861776  1
  Sb  Sb90  1  0.84228493  0.33344215  0.16516304  1
  Sb  Sb91  1  0.49834061  0.33838964  0.83467684  1
  Sb  Sb92  1  0.49319004  0.50423924  0.33041808  1
  Sb  Sb93  1  0.66707783  0.16489892  0.83412597  1
  Sb  Sb94  1  0.83423013  0.32566825  0.50014753  1
  Sb  Sb95  1  0.49379010  0.83093377  0.66418102  1
  Sb  Sb96  1  0.67542243  -0.00197484  0.00009475  1
  Sb  Sb97  1  0.32556718  0.50115419  0.83935134  1
  Sb  Sb98  1  0.83989177  0.67642384  0.50215208  1
  Sb  Sb99  1  0.66856710  0.82926931  0.16496123  1
  Sb  Sb100  1  0.84316113  -0.00002416  0.16610269  1
  Sb  Sb101  1  0.32489386  -0.00515670  0.33152000  1
  Sb  Sb102  1  0.00422681  0.00155960  0.66831296  1
  Sb  Sb103  1  0.16524671  0.33360094  0.84207132  1
  Sb  Sb104  1  0.49409692  0.16726109  0.00099053  1
  Sb  Sb105  1  0.00703442  0.66643204  0.67273857  1
  Sb  Sb106  1  0.66354423  0.66646775  0.67120409  1
  Sb  Sb107  1  0.32222921  0.16676357  0.16215587  1
  Te  Te108  1  0.16026845  0.16390352  0.16403781  1
  Te  Te109  1  0.16702055  0.16423011  0.50733431  1
  Te  Te110  1  0.16804931  0.16915560  0.83255737  1
  Te  Te111  1  0.16770722  0.50274801  0.16405823  1
  Te  Te112  1  0.16598163  0.50233092  0.49394057  1
  Te  Te113  1  0.16106801  0.50550756  0.83780671  1
  Te  Te114  1  0.16334845  0.82721563  0.17172177  1
  Te  Te115  1  0.16460944  0.83281187  0.49710309  1
  Te  Te116  1  0.16581015  0.83355079  0.83720527  1
  Te  Te117  1  0.50020300  0.15839247  0.16697980  1
  Te  Te118  1  0.49971827  0.16594315  0.49974516  1
  Te  Te119  1  0.49294190  0.16555835  0.83345053  1
  Te  Te120  1  0.50554620  0.49762655  0.16710719  1
  Te  Te121  1  0.50149269  0.51209413  0.49871445  1
  Te  Te122  1  0.50176111  0.51057856  0.83388749  1
  Te  Te123  1  0.50142946  0.83681208  0.16976458  1
  Te  Te124  1  0.50573403  0.82907177  0.49741715  1
  Te  Te125  1  0.50097281  0.82864000  0.83374189  1
  Te  Te126  1  0.84045150  0.16704562  0.16467583  1
  Te  Te127  1  0.83332154  0.15846172  0.49759325  1
  Te  Te128  1  0.83160045  0.16090824  0.83376417  1
  Te  Te129  1  0.82538038  0.49997877  0.16721276  1
  Te  Te130  1  0.83423802  0.49902728  0.50020537  1
  Te  Te131  1  0.84144589  0.50617246  0.83258634  1
  Te  Te132  1  0.83655864  0.83301711  0.17347459  1
  Te  Te133  1  0.83070738  0.83884383  0.50016337  1
  Te  Te134  1  0.83616837  0.83634497  0.83372238  1
  Te  Te135  1  0.16328117  0.00500804  0.00122412  1
  Te  Te136  1  0.16018884  -0.00051785  0.33391611  1
  Te  Te137  1  0.16800950  0.00054431  0.66898826  1
  Te  Te138  1  0.16508590  0.32644744  0.00072152  1
  Te  Te139  1  0.17052614  0.33038695  0.33038551  1
  Te  Te140  1  0.16659229  0.33313757  0.66563471  1
  Te  Te141  1  0.16456999  0.66831398  0.00490217  1
  Te  Te142  1  0.16831039  0.66883381  0.32616596  1
  Te  Te143  1  0.16938841  0.66698036  0.66683367  1
  Te  Te144  1  0.50091037  -0.00060754  0.00618609  1
  Te  Te145  1  0.50055791  -0.00540473  0.32729940  1
  Te  Te146  1  0.50037244  0.00029117  0.66697279  1
  Te  Te147  1  0.50784992  0.33414084  -0.00084316  1
  Te  Te148  1  0.50176228  0.33325907  0.33462720  1
  Te  Te149  1  0.50072425  0.33414685  0.66646699  1
  Te  Te150  1  0.50676771  0.66650557  -0.00414468  1
  Te  Te151  1  0.49848487  0.67189920  0.33593536  1
  Te  Te152  1  0.49278580  0.66692115  0.66743065  1
  Te  Te153  1  0.84034834  0.00460738  -0.00454323  1
  Te  Te154  1  0.83861040  -0.00068142  0.33438924  1
  Te  Te155  1  0.83258926  0.00630476  0.66852130  1
  Te  Te156  1  0.83073803  0.32815117  -0.00017821  1
  Te  Te157  1  0.82916046  0.33243379  0.33368266  1
  Te  Te158  1  0.83091967  0.32696800  0.66693824  1
  Te  Te159  1  0.83067406  0.66651667  -0.00548471  1
  Te  Te160  1  0.83675043  0.67282077  0.33498472  1
  Te  Te161  1  0.83308821  0.66583605  0.67408302  1
  Te  Te162  1  0.00225058  0.17032965  -0.00021181  1
  Te  Te163  1  -0.00492374  0.16677999  0.32922872  1
  Te  Te164  1  0.00152615  0.17106241  0.66519001  1
  Te  Te165  1  0.00252752  0.50011146  0.00306190  1
  Te  Te166  1  0.00496489  0.50332066  0.32785663  1
  Te  Te167  1  -0.00075602  0.49171036  0.66469002  1
  Te  Te168  1  0.00215887  0.83245479  -0.00103241  1
  Te  Te169  1  0.00236153  0.83408004  0.33242224  1
  Te  Te170  1  0.00688188  0.83253436  0.67558808  1
  Te  Te171  1  0.32944805  0.17169895  -0.00419094  1
  Te  Te172  1  0.33589783  0.17330121  0.33317272  1
  Te  Te173  1  0.32874990  0.17002667  0.66971733  1
  Te  Te174  1  0.32829022  0.49937571  0.00438070  1
  Te  Te175  1  0.32975600  0.49885389  0.32909027  1
  Te  Te176  1  0.33332527  0.49872870  0.66769944  1
  Te  Te177  1  0.32650670  0.82872695  0.00545009  1
  Te  Te178  1  0.33071545  0.83337815  0.33153635  1
  Te  Te179  1  0.32665529  0.82737153  0.66709341  1
  Te  Te180  1  0.66512161  0.16808668  -0.00023082  1
  Te  Te181  1  0.67188031  0.17142163  0.33342479  1
  Te  Te182  1  0.66552162  0.17141582  0.66700753  1
  Te  Te183  1  0.66713369  0.49986850  0.00184798  1
  Te  Te184  1  0.66788693  0.49579465  0.33046934  1
  Te  Te185  1  0.66665849  0.49329751  0.66675785  1
  Te  Te186  1  0.66732447  0.83005065  -0.00414794  1
  Te  Te187  1  0.66329823  0.83279069  0.33566075  1
  Te  Te188  1  0.66691884  0.83208392  0.66909404  1
  Te  Te189  1  0.00357388  -0.00231092  0.16473213  1
  Te  Te190  1  0.00176395  -0.00426717  0.50232655  1
  Te  Te191  1  0.00323595  -0.00178881  0.83539962  1
  Te  Te192  1  0.00637861  0.33916098  0.16365969  1
  Te  Te193  1  -0.00066677  0.33482209  0.50269450  1
  Te  Te194  1  -0.00178383  0.33575412  0.83512738  1
  Te  Te195  1  0.00079557  0.66754629  0.16311988  1
  Te  Te196  1  0.00539850  0.67439096  0.50044696  1
  Te  Te197  1  0.00433270  0.66759589  0.83451107  1
  Te  Te198  1  0.32709500  -0.00240037  0.16686173  1
  Te  Te199  1  0.32793484  -0.00854692  0.49949868  1
  Te  Te200  1  0.32893045  0.00582918  0.83411920  1
  Te  Te201  1  0.32979803  0.33298179  0.16446349  1
  Te  Te202  1  0.33477631  0.33255982  0.50548505  1
  Te  Te203  1  0.33537003  0.33274313  0.83247906  1
  Te  Te204  1  0.33475445  0.66676428  0.16591824  1
  Te  Te205  1  0.32882913  0.66907286  0.49756287  1
  Te  Te206  1  0.32854189  0.66617113  0.83786045  1
  Te  Te207  1  0.66739177  0.00092457  0.16592253  1
  Te  Te208  1  0.66596771  -0.00585962  0.49964345  1
  Te  Te209  1  0.66398631  -0.00728945  0.83380879  1
  Te  Te210  1  0.66428841  0.33448616  0.16636902  1
  Te  Te211  1  0.66568279  0.33387383  0.50202645  1
  Te  Te212  1  0.66641892  0.33349090  0.83345964  1
  Te  Te213  1  0.66578687  0.66277927  0.16137665  1
  Te  Te214  1  0.67128897  0.67067438  0.50095000  1
  Te  Te215  1  0.66805455  0.66951013  0.83500954  1
