# generated using pymatgen
data_AgSbTe2
_symmetry_space_group_name_H-M   'P 1'
_cell_length_a   18.34635234
_cell_length_b   18.35103381
_cell_length_c   18.34952300
_cell_angle_alpha   89.99971686
_cell_angle_beta   90.00117945
_cell_angle_gamma   90.00451623
_symmetry_Int_Tables_number   1
_chemical_formula_structural   AgSbTe2
_chemical_formula_sum   'Ag54 Sb54 Te108'
_cell_volume   6177.81705014
_cell_formula_units_Z   54
loop_
 _symmetry_equiv_pos_site_id
 _symmetry_equiv_pos_as_xyz
  1  'x, y, z'
loop_
 _atom_site_type_symbol
 _atom_site_label
 _atom_site_symmetry_multiplicity
 _atom_site_fract_x
 _atom_site_fract_y
 _atom_site_fract_z
 _atom_site_occupancy
  Ag  Ag0  1  0.50153488  0.84304836  0.66512424  1
  Ag  Ag1  1  0.50731524  -0.00555888  0.82634586  1
  Ag  Ag2  1  0.49700792  0.49951616  0.66461599  1
  Ag  Ag3  1  -0.00412698  0.00002124  -0.00014716  1
  Ag  Ag4  1  0.50657082  0.84623969  0.33758883  1
  Ag  Ag5  1  0.34567656  0.00023406  0.65917851  1
  Ag  Ag6  1  0.50283358  0.15957168  0.33994002  1
  Ag  Ag7  1  0.82345771  0.67048442  0.83156092  1
  Ag  Ag8  1  0.15467554  0.00550626  0.49751423  1
  Ag  Ag9  1  0.34046676  0.66525630  0.66903120  1
  Ag  Ag10  1  -0.00015691  0.83945509  0.18113229  1
  Ag  Ag11  1  0.50103110  0.83730056  -0.00921752  1
  Ag  Ag12  1  0.16846679  0.33498362  0.17797427  1
  Ag  Ag13  1  0.66562524  -0.00131133  0.00217450  1
  Ag  Ag14  1  0.33631166  0.49144515  0.49563766  1
  Ag  Ag15  1  0.66717606  0.68158759  0.33415915  1
  Ag  Ag16  1  0.33960009  0.50064409  0.83205084  1
  Ag  Ag17  1  -0.00491000  0.32107712  0.65541248  1
  Ag  Ag18  1  0.66881605  0.33198567  0.65655838  1
  Ag  Ag19  1  0.32848121  0.16337926  0.49619762  1
  Ag  Ag20  1  0.50134697  -0.00037826  0.18336994  1
  Ag  Ag21  1  -0.00260721  0.16458024  0.81707041  1
  Ag  Ag22  1  0.82927670  0.84256889  0.33690480  1
  Ag  Ag23  1  0.00588578  0.32759152  0.33846586  1
  Ag  Ag24  1  0.50439254  0.15828045  0.65812413  1
  Ag  Ag25  1  0.50336530  0.67142534  0.82969080  1
  Ag  Ag26  1  0.34861484  0.01112361  0.34341396  1
  Ag  Ag27  1  0.33162533  0.49638393  0.16626705  1
  Ag  Ag28  1  0.33172548  0.33916501  0.00985225  1
  Ag  Ag29  1  0.66441499  0.32253713  0.33986571  1
  Ag  Ag30  1  0.84167548  0.00535568  0.49881952  1
  Ag  Ag31  1  -0.00137622  0.16442217  0.49920836  1
  Ag  Ag32  1  0.00695906  0.49858151  0.17023099  1
  Ag  Ag33  1  -0.00075603  0.00533852  0.65603522  1
  Ag  Ag34  1  0.33222548  0.32694079  0.33605788  1
  Ag  Ag35  1  0.33578587  0.65706364  -0.00794479  1
  Ag  Ag36  1  0.16376769  0.16929611  0.33911030  1
  Ag  Ag37  1  0.83433873  0.16071243  0.34187266  1
  Ag  Ag38  1  0.65861405  0.50443583  0.83188174  1
  Ag  Ag39  1  0.50029049  0.00029267  0.49846381  1
  Ag  Ag40  1  0.17151087  0.49768123  0.00169818  1
  Ag  Ag41  1  0.66290112  0.00283798  0.33498333  1
  Ag  Ag42  1  0.16193357  0.32318131  0.49588876  1
  Ag  Ag43  1  -0.00729138  0.85119312  0.49642189  1
  Ag  Ag44  1  -0.00425340  0.00263973  0.34256404  1
  Ag  Ag45  1  0.66518347  0.16325741  0.17758537  1
  Ag  Ag46  1  0.66712139  0.83735820  0.49493522  1
  Ag  Ag47  1  0.83918262  0.32194107  0.49893684  1
  Ag  Ag48  1  -0.00523165  0.67759863  0.33401693  1
  Ag  Ag49  1  0.82835158  -0.00098573  0.82555321  1
  Ag  Ag50  1  0.49860272  0.49847773  0.33952722  1
  Ag  Ag51  1  -0.00095307  0.49653845  0.83325586  1
  Ag  Ag52  1  0.66208385  0.83602623  0.82682110  1
  Ag  Ag53  1  0.83427334  0.16478769  0.65881961  1
  Sb  Sb54  1  0.49990189  0.33424021  0.83000948  1
  Sb  Sb55  1  0.83253391  0.67003839  0.50211910  1
  Sb  Sb56  1  0.16858022  0.00588848  0.17521269  1
  Sb  Sb57  1  0.66585829  0.00492187  0.66189403  1
  Sb  Sb58  1  0.83005509  0.49443012  0.66690206  1
  Sb  Sb59  1  -0.00955156  0.83728167  0.82920651  1
  Sb  Sb60  1  0.83802759  0.50019325  -0.00349994  1
  Sb  Sb61  1  0.83398086  0.66840362  0.16576607  1
  Sb  Sb62  1  0.33670562  0.00085497  -0.00161509  1
  Sb  Sb63  1  0.00231528  0.66753231  0.66381415  1
  Sb  Sb64  1  0.67046253  0.15950033  0.49540061  1
  Sb  Sb65  1  0.83405703  0.32932455  0.82665139  1
  Sb  Sb66  1  0.49513419  0.32899202  0.17299027  1
  Sb  Sb67  1  0.33745861  0.17057846  0.17716609  1
  Sb  Sb68  1  0.16794557  0.66688296  0.49760940  1
  Sb  Sb69  1  0.65980911  0.50080060  0.50094975  1
  Sb  Sb70  1  0.17026370  0.49080297  0.33010422  1
  Sb  Sb71  1  0.50113398  0.32443743  0.49818353  1
  Sb  Sb72  1  0.66731157  0.83968188  0.17181425  1
  Sb  Sb73  1  0.33635839  0.66346596  0.33615801  1
  Sb  Sb74  1  0.49339780  0.50500359  -0.00220341  1
  Sb  Sb75  1  0.16695188  0.65962945  0.16840191  1
  Sb  Sb76  1  0.16540012  0.33363568  0.82977802  1
  Sb  Sb77  1  0.83037816  0.00035675  0.17563268  1
  Sb  Sb78  1  0.82864962  0.83735240  0.00291939  1
  Sb  Sb79  1  0.49903798  0.15969601  0.00124188  1
  Sb  Sb80  1  0.83157397  0.49905659  0.33517861  1
  Sb  Sb81  1  0.17011850  0.83143781  0.00190991  1
  Sb  Sb82  1  0.66048489  0.32914647  0.00053256  1
  Sb  Sb83  1  0.00430871  0.33061747  0.00244564  1
  Sb  Sb84  1  0.16284868  0.84142372  0.33563005  1
  Sb  Sb85  1  0.82678816  0.84089659  0.66173193  1
  Sb  Sb86  1  0.33503371  0.33134912  0.66008061  1
  Sb  Sb87  1  0.16306581  0.16704007  0.65703989  1
  Sb  Sb88  1  0.17176728  0.49807842  0.66861728  1
  Sb  Sb89  1  -0.00388878  0.16501758  0.17639139  1
  Sb  Sb90  1  0.34319001  0.82773439  0.83180661  1
  Sb  Sb91  1  0.33206428  0.83080114  0.16968762  1
  Sb  Sb92  1  0.49922017  0.67177780  0.50376212  1
  Sb  Sb93  1  0.33583144  0.84159758  0.49911177  1
  Sb  Sb94  1  0.17190476  0.83718926  0.66469904  1
  Sb  Sb95  1  0.16624722  0.17042296  0.00717924  1
  Sb  Sb96  1  0.33140373  0.16898624  0.82494263  1
  Sb  Sb97  1  0.00605725  0.49242144  0.49833126  1
  Sb  Sb98  1  0.66113936  0.67237877  0.00041419  1
  Sb  Sb99  1  0.83883757  0.33198456  0.17835197  1
  Sb  Sb100  1  0.17096505  0.66377237  0.83356218  1
  Sb  Sb101  1  0.66189716  0.66458755  0.66643582  1
  Sb  Sb102  1  0.16321643  0.00212256  0.82693183  1
  Sb  Sb103  1  0.66903090  0.16259936  0.83209913  1
  Sb  Sb104  1  0.49935069  0.67104766  0.16589092  1
  Sb  Sb105  1  0.00307246  0.66874376  0.00246898  1
  Sb  Sb106  1  0.66381561  0.49431469  0.16736059  1
  Sb  Sb107  1  0.83453068  0.16252761  -0.00051190  1
  Te  Te108  1  0.16676087  0.17367588  0.17481841  1
  Te  Te109  1  0.16772203  0.16560715  0.49649127  1
  Te  Te110  1  0.15775142  0.16725074  0.83542693  1
  Te  Te111  1  0.16866826  0.49456612  0.16439367  1
  Te  Te112  1  0.17450356  0.49791080  0.50047725  1
  Te  Te113  1  0.16433881  0.49979640  0.83830153  1
  Te  Te114  1  0.15914346  0.83401628  0.16673492  1
  Te  Te115  1  0.15981063  0.83824495  0.50037110  1
  Te  Te116  1  0.16532080  0.83295524  0.83426308  1
  Te  Te117  1  0.50379312  0.16001724  0.16854366  1
  Te  Te118  1  0.49790431  0.16339163  0.49977581  1
  Te  Te119  1  0.49974099  0.16333659  0.82968030  1
  Te  Te120  1  0.49591949  0.50081375  0.16798457  1
  Te  Te121  1  0.49563248  0.50197783  0.50117772  1
  Te  Te122  1  0.49922306  0.50104274  0.83260971  1
  Te  Te123  1  0.49971946  0.83848152  0.17356463  1
  Te  Te124  1  0.50147887  0.83653604  0.49984307  1
  Te  Te125  1  0.50311009  0.83255416  0.82955734  1
  Te  Te126  1  0.82726210  0.16662995  0.17153927  1
  Te  Te127  1  0.83319196  0.16485714  0.49969332  1
  Te  Te128  1  0.83782785  0.16171011  0.83052153  1
  Te  Te129  1  0.84007747  0.50035538  0.16502727  1
  Te  Te130  1  0.83301346  0.49775300  0.50126355  1
  Te  Te131  1  0.83664208  0.50240619  0.83278080  1
  Te  Te132  1  0.84148154  0.83321037  0.17314071  1
  Te  Te133  1  0.83168162  0.83527591  0.49659336  1
  Te  Te134  1  0.82477726  0.83576606  0.83282096  1
  Te  Te135  1  0.16478911  0.00070060  0.00156978  1
  Te  Te136  1  0.16030272  0.00687010  0.33766269  1
  Te  Te137  1  0.16434470  0.00061052  0.65971197  1
  Te  Te138  1  0.17150740  0.33706483  0.00032025  1
  Te  Te139  1  0.16794085  0.33014495  0.33721676  1
  Te  Te140  1  0.15845232  0.33342992  0.65991764  1
  Te  Te141  1  0.17371660  0.66149259  0.00070622  1
  Te  Te142  1  0.15929860  0.66846194  0.33350173  1
  Te  Te143  1  0.17627375  0.66839677  0.66581024  1
  Te  Te144  1  0.50144743  -0.00425056  -0.01275042  1
  Te  Te145  1  0.50301497  0.00098480  0.33844075  1
  Te  Te146  1  0.50281527  0.00136469  0.66785801  1
  Te  Te147  1  0.49283395  0.33159861  0.00120907  1
  Te  Te148  1  0.50071662  0.33757673  0.33325557  1
  Te  Te149  1  0.50335984  0.33816908  0.66530457  1
  Te  Te150  1  0.49632078  0.67369961  -0.00390272  1
  Te  Te151  1  0.50274092  0.66043506  0.33336485  1
  Te  Te152  1  0.49800274  0.65982865  0.66968850  1
  Te  Te153  1  0.83205033  -0.00073256  -0.00599140  1
  Te  Te154  1  0.83508566  0.00109495  0.33616493  1
  Te  Te155  1  0.83433370  0.00355165  0.66388376  1
  Te  Te156  1  0.83167490  0.33145441  0.00186526  1
  Te  Te157  1  0.82983564  0.33142160  0.33946186  1
  Te  Te158  1  0.83420920  0.32833670  0.66195841  1
  Te  Te159  1  0.83257018  0.66897356  -0.00881554  1
  Te  Te160  1  0.83286655  0.66907223  0.33404888  1
  Te  Te161  1  0.83383398  0.66760814  0.67239496  1
  Te  Te162  1  0.00045450  0.16132874  0.00113064  1
  Te  Te163  1  -0.00368983  0.16729607  0.33602041  1
  Te  Te164  1  -0.00015923  0.16555262  0.66120549  1
  Te  Te165  1  0.00515706  0.49987019  -0.00031797  1
  Te  Te166  1  -0.00014966  0.49284563  0.33093463  1
  Te  Te167  1  0.00040602  0.50149389  0.67179620  1
  Te  Te168  1  0.00085948  0.83715488  -0.00112752  1
  Te  Te169  1  0.00109308  0.83590692  0.33726661  1
  Te  Te170  1  -0.00062374  0.83651446  0.66033293  1
  Te  Te171  1  0.33207804  0.17286459  -0.00242595  1
  Te  Te172  1  0.33800189  0.16744138  0.33617639  1
  Te  Te173  1  0.33869907  0.16351826  0.66140596  1
  Te  Te174  1  0.33247095  0.49880954  -0.00048072  1
  Te  Te175  1  0.33640484  0.50034192  0.33396842  1
  Te  Te176  1  0.33584340  0.49823539  0.67035807  1
  Te  Te177  1  0.33857948  0.83087352  0.00129548  1
  Te  Te178  1  0.33884691  0.83238473  0.33256736  1
  Te  Te179  1  0.34033270  0.83527761  0.66565696  1
  Te  Te180  1  0.66681649  0.16029440  0.00363040  1
  Te  Te181  1  0.66387692  0.16461612  0.33487713  1
  Te  Te182  1  0.66558948  0.17321931  0.66873596  1
  Te  Te183  1  0.66706622  0.49959078  -0.00395152  1
  Te  Te184  1  0.66253331  0.49312163  0.33239557  1
  Te  Te185  1  0.66241649  0.49646079  0.67043126  1
  Te  Te186  1  0.66117038  0.83865873  0.00033553  1
  Te  Te187  1  0.66696690  0.83810370  0.33275707  1
  Te  Te188  1  0.66100054  0.83115044  0.66678974  1
  Te  Te189  1  0.00028655  -0.00080102  0.16279739  1
  Te  Te190  1  -0.00276215  0.00599631  0.49994914  1
  Te  Te191  1  -0.00223173  0.00205071  0.83331653  1
  Te  Te192  1  0.00537914  0.33590021  0.17008916  1
  Te  Te193  1  0.00033169  0.33184963  0.49814700  1
  Te  Te194  1  -0.00120184  0.33425807  0.83397084  1
  Te  Te195  1  -0.00033310  0.66276729  0.17109687  1
  Te  Te196  1  0.00025986  0.66316159  0.49462986  1
  Te  Te197  1  -0.00084168  0.66464357  0.83270145  1
  Te  Te198  1  0.33771861  -0.00001986  0.16829535  1
  Te  Te199  1  0.33935972  0.00053156  0.49929199  1
  Te  Te200  1  0.33238464  0.00055176  0.82847807  1
  Te  Te201  1  0.32985848  0.33604197  0.17095778  1
  Te  Te202  1  0.33330961  0.33141913  0.49676875  1
  Te  Te203  1  0.33195521  0.33843367  0.83208445  1
  Te  Te204  1  0.33309564  0.66036697  0.16369914  1
  Te  Te205  1  0.33230452  0.66166890  0.50490582  1
  Te  Te206  1  0.33717871  0.66206908  0.83199626  1
  Te  Te207  1  0.66375264  0.00217509  0.16690232  1
  Te  Te208  1  0.66161645  -0.00500597  0.49665480  1
  Te  Te209  1  0.66774416  -0.00100760  0.83150509  1
  Te  Te210  1  0.66709860  0.32770654  0.16963984  1
  Te  Te211  1  0.67006367  0.33633669  0.49890861  1
  Te  Te212  1  0.66746840  0.33909465  0.83370918  1
  Te  Te213  1  0.66745543  0.66439065  0.17320599  1
  Te  Te214  1  0.66668883  0.67236335  0.49388376  1
  Te  Te215  1  0.66431568  0.66651622  0.83410830  1
