# generated using pymatgen
data_AgSbTe2
_symmetry_space_group_name_H-M   'P 1'
_cell_length_a   18.34162518
_cell_length_b   18.32639658
_cell_length_c   18.33298456
_cell_angle_alpha   89.99736903
_cell_angle_beta   89.99759327
_cell_angle_gamma   90.00219422
_symmetry_Int_Tables_number   1
_chemical_formula_structural   AgSbTe2
_chemical_formula_sum   'Ag54 Sb54 Te108'
_cell_volume   6162.37418979
_cell_formula_units_Z   54
loop_
 _symmetry_equiv_pos_site_id
 _symmetry_equiv_pos_as_xyz
  1  'x, y, z'
loop_
 _atom_site_type_symbol
 _atom_site_label
 _atom_site_symmetry_multiplicity
 _atom_site_fract_x
 _atom_site_fract_y
 _atom_site_fract_z
 _atom_site_occupancy
  Ag  Ag0  1  0.83262069  0.67754767  0.50628316  1
  Ag  Ag1  1  -0.00569680  0.50138441  0.83816065  1
  Ag  Ag2  1  0.17198222  0.66408900  0.50483442  1
  Ag  Ag3  1  -0.01155300  0.83778730  0.50181623  1
  Ag  Ag4  1  0.00493950  0.33326533  0.33920116  1
  Ag  Ag5  1  -0.00917923  0.83888444  0.16658552  1
  Ag  Ag6  1  0.32770522  0.33512551  0.33563812  1
  Ag  Ag7  1  0.67202452  0.50171155  0.16084984  1
  Ag  Ag8  1  0.83069124  0.50536629  0.32815659  1
  Ag  Ag9  1  -0.00468343  0.50236209  0.15968975  1
  Ag  Ag10  1  0.66936346  -0.00156820  0.32330964  1
  Ag  Ag11  1  0.33506411  0.82502255  0.50011226  1
  Ag  Ag12  1  0.51161395  0.66797393  0.82771382  1
  Ag  Ag13  1  0.83266705  -0.01028776  0.49972382  1
  Ag  Ag14  1  -0.00879146  0.83994198  0.82964822  1
  Ag  Ag15  1  0.00256975  0.32553872  0.66534372  1
  Ag  Ag16  1  0.15538820  0.00088600  0.16455631  1
  Ag  Ag17  1  0.15824109  0.49975736  -0.00144160  1
  Ag  Ag18  1  0.33501076  0.49682113  0.16972712  1
  Ag  Ag19  1  -0.00407757  0.16058825  0.82959806  1
  Ag  Ag20  1  0.83193513  0.83347159  0.34401194  1
  Ag  Ag21  1  0.49722084  0.66935419  0.50680884  1
  Ag  Ag22  1  0.51166002  0.16166916  -0.00123504  1
  Ag  Ag23  1  0.83179904  0.49692681  0.00128061  1
  Ag  Ag24  1  0.33525667  0.50496726  0.49462032  1
  Ag  Ag25  1  0.83107125  -0.00653551  0.83966050  1
  Ag  Ag26  1  0.16393081  0.16826615  0.33674714  1
  Ag  Ag27  1  0.67028857  0.00333581  -0.00049499  1
  Ag  Ag28  1  0.83024228  0.67740551  0.82939642  1
  Ag  Ag29  1  0.51328727  -0.00342777  0.83589265  1
  Ag  Ag30  1  0.00119084  0.16094941  0.50925904  1
  Ag  Ag31  1  0.50745815  -0.00556043  0.50352697  1
  Ag  Ag32  1  0.50291140  0.49857228  0.33113467  1
  Ag  Ag33  1  -0.01146843  0.00111838  -0.00606990  1
  Ag  Ag34  1  -0.00178242  0.00315489  0.67308615  1
  Ag  Ag35  1  0.83409415  0.83398443  0.65802868  1
  Ag  Ag36  1  0.66540043  0.66931939  0.66930196  1
  Ag  Ag37  1  0.15822500  0.66268924  0.82686880  1
  Ag  Ag38  1  0.67576577  0.83384549  0.50173812  1
  Ag  Ag39  1  0.67358147  0.84168719  0.16717079  1
  Ag  Ag40  1  0.16033851  0.16903917  0.66395682  1
  Ag  Ag41  1  0.82949387  0.15728368  -0.00194362  1
  Ag  Ag42  1  0.33599013  0.00260874  0.00086170  1
  Ag  Ag43  1  0.33504509  0.16669144  0.16600973  1
  Ag  Ag44  1  0.67590236  0.15261509  0.83929592  1
  Ag  Ag45  1  0.16193354  0.33611942  0.82686496  1
  Ag  Ag46  1  0.83271556  -0.00428217  0.15865762  1
  Ag  Ag47  1  0.66711777  0.15682531  0.15782882  1
  Ag  Ag48  1  0.49306402  0.34165220  0.49789939  1
  Ag  Ag49  1  0.33609346  0.66763975  0.66341290  1
  Ag  Ag50  1  0.50447858  0.49792625  0.00308305  1
  Ag  Ag51  1  0.67454255  0.83487138  0.83282079  1
  Ag  Ag52  1  0.16584937  0.33513876  0.50060941  1
  Ag  Ag53  1  0.67538122  0.50786097  0.84070642  1
  Sb  Sb54  1  0.50194033  0.66292194  0.16639906  1
  Sb  Sb55  1  0.32850625  0.16719086  0.49595617  1
  Sb  Sb56  1  -0.00221133  0.16414779  0.16454599  1
  Sb  Sb57  1  0.33823740  0.00353245  0.33128619  1
  Sb  Sb58  1  0.16586328  0.33018732  0.16939536  1
  Sb  Sb59  1  -0.00671526  0.00287366  0.33306703  1
  Sb  Sb60  1  0.15909859  0.83498550  0.66489487  1
  Sb  Sb61  1  0.83887372  0.15803962  0.67231664  1
  Sb  Sb62  1  -0.00159317  0.66354163  0.33577725  1
  Sb  Sb63  1  0.83787696  0.33302231  0.49800274  1
  Sb  Sb64  1  0.66852427  0.67119701  0.33837017  1
  Sb  Sb65  1  0.67135359  0.15849704  0.50125447  1
  Sb  Sb66  1  0.49833607  0.16957502  0.33037257  1
  Sb  Sb67  1  0.83956545  0.33203217  0.83303321  1
  Sb  Sb68  1  0.66736019  0.33145090  0.33450342  1
  Sb  Sb69  1  0.16411012  0.83184739  -0.00146952  1
  Sb  Sb70  1  0.16468559  0.49813125  0.67013900  1
  Sb  Sb71  1  0.33053085  0.16408511  0.83882921  1
  Sb  Sb72  1  0.66759635  0.66783721  -0.00701279  1
  Sb  Sb73  1  0.50674935  0.00124595  0.16342084  1
  Sb  Sb74  1  0.00241286  0.50101818  0.50103052  1
  Sb  Sb75  1  0.83260918  0.83581761  -0.00205655  1
  Sb  Sb76  1  0.15922955  0.83827367  0.33593038  1
  Sb  Sb77  1  0.32697253  0.33817360  0.66005210  1
  Sb  Sb78  1  0.83206381  0.66965215  0.16331274  1
  Sb  Sb79  1  0.67429458  -0.00534246  0.67143778  1
  Sb  Sb80  1  0.50802216  0.83249295  0.66503355  1
  Sb  Sb81  1  0.50702851  0.83022616  0.33766706  1
  Sb  Sb82  1  0.16240877  0.00079579  0.49617662  1
  Sb  Sb83  1  0.00114076  0.33224209  -0.00164266  1
  Sb  Sb84  1  0.16642757  0.49550852  0.33098922  1
  Sb  Sb85  1  -0.00230020  0.66856814  -0.00486925  1
  Sb  Sb86  1  0.49914626  0.33475830  0.17078451  1
  Sb  Sb87  1  0.66602477  0.33010478  -0.00107875  1
  Sb  Sb88  1  0.83444952  0.33290259  0.16702014  1
  Sb  Sb89  1  0.50256140  0.83547212  -0.00169355  1
  Sb  Sb90  1  0.33225496  0.50179505  0.83579344  1
  Sb  Sb91  1  0.83629239  0.16304720  0.32968610  1
  Sb  Sb92  1  0.32811661  -0.00370558  0.66940988  1
  Sb  Sb93  1  0.16536721  0.66691252  0.16728437  1
  Sb  Sb94  1  0.33462893  0.66713000  -0.00528322  1
  Sb  Sb95  1  0.33376069  0.83512858  0.17161032  1
  Sb  Sb96  1  0.15904364  -0.00027234  0.83786658  1
  Sb  Sb97  1  0.49923403  0.50274581  0.66564165  1
  Sb  Sb98  1  0.66313116  0.50792877  0.49835847  1
  Sb  Sb99  1  0.16378930  0.16771783  -0.00045040  1
  Sb  Sb100  1  0.33235608  0.33175132  0.00448974  1
  Sb  Sb101  1  0.33395586  0.83217456  0.82780546  1
  Sb  Sb102  1  0.49687094  0.16407253  0.66994494  1
  Sb  Sb103  1  0.49672723  0.33447661  0.82947184  1
  Sb  Sb104  1  0.33494533  0.66021973  0.34124426  1
  Sb  Sb105  1  0.83501420  0.50711141  0.66874640  1
  Sb  Sb106  1  0.67224424  0.33844943  0.66679244  1
  Sb  Sb107  1  -0.00150603  0.66973853  0.66808436  1
  Te  Te108  1  0.16786037  0.16326522  0.16781424  1
  Te  Te109  1  0.16234316  0.16818260  0.49874164  1
  Te  Te110  1  0.16214106  0.16772212  0.83135250  1
  Te  Te111  1  0.16511611  0.50101135  0.16277058  1
  Te  Te112  1  0.16941075  0.50063408  0.49936210  1
  Te  Te113  1  0.16667892  0.50185450  0.83626740  1
  Te  Te114  1  0.16412086  0.83803526  0.16755825  1
  Te  Te115  1  0.16957165  0.83014132  0.49940321  1
  Te  Te116  1  0.16246526  0.82710946  0.83220998  1
  Te  Te117  1  0.50161037  0.16818268  0.16174920  1
  Te  Te118  1  0.50107007  0.15967612  0.50048276  1
  Te  Te119  1  0.50099389  0.16492076  0.83823097  1
  Te  Te120  1  0.49887431  0.49977720  0.16740541  1
  Te  Te121  1  0.49839372  0.50268349  0.49831807  1
  Te  Te122  1  0.50038915  0.50200578  0.83610919  1
  Te  Te123  1  0.50700406  0.83108948  0.16861295  1
  Te  Te124  1  0.49869791  0.83260425  0.49990143  1
  Te  Te125  1  0.50218257  0.83264231  0.83219357  1
  Te  Te126  1  0.82881332  0.16362170  0.16193565  1
  Te  Te127  1  0.83995359  0.16386144  0.49907986  1
  Te  Te128  1  0.83435558  0.16603625  0.83741235  1
  Te  Te129  1  0.83451713  0.50237745  0.16672691  1
  Te  Te130  1  0.83257529  0.50186918  0.49624701  1
  Te  Te131  1  0.83401980  0.49805519  0.83373369  1
  Te  Te132  1  0.83253195  0.83440393  0.16442173  1
  Te  Te133  1  0.83267456  0.83344916  0.50040696  1
  Te  Te134  1  0.83475734  0.83370758  0.83735662  1
  Te  Te135  1  0.16985510  0.00076961  0.00481382  1
  Te  Te136  1  0.16881915  0.00600619  0.32718879  1
  Te  Te137  1  0.16046620  0.00611368  0.66725699  1
  Te  Te138  1  0.16745024  0.33873134  -0.00488609  1
  Te  Te139  1  0.16654319  0.33043819  0.33613816  1
  Te  Te140  1  0.16272070  0.33079960  0.66376593  1
  Te  Te141  1  0.16821687  0.66009539  -0.00421095  1
  Te  Te142  1  0.16668415  0.66846686  0.34112325  1
  Te  Te143  1  0.16804106  0.66746950  0.66582330  1
  Te  Te144  1  0.50332867  0.00201733  -0.00261949  1
  Te  Te145  1  0.50656930  0.00008580  0.33910916  1
  Te  Te146  1  0.49644575  -0.00000806  0.66794469  1
  Te  Te147  1  0.49776318  0.33511552  -0.00169515  1
  Te  Te148  1  0.49822438  0.33725136  0.33987215  1
  Te  Te149  1  0.49897450  0.33262273  0.65774602  1
  Te  Te150  1  0.49924824  0.66163216  -0.00626018  1
  Te  Te151  1  0.50142007  0.65897299  0.33908204  1
  Te  Te152  1  0.50088377  0.66714837  0.66724938  1
  Te  Te153  1  0.83192029  0.00016449  -0.00065178  1
  Te  Te154  1  0.82917000  -0.00187055  0.33563759  1
  Te  Te155  1  0.83942528  -0.00504103  0.66536343  1
  Te  Te156  1  0.83376041  0.33798389  0.00034609  1
  Te  Te157  1  0.83773465  0.33919802  0.33366679  1
  Te  Te158  1  0.84091502  0.33244545  0.66442616  1
  Te  Te159  1  0.83346011  0.65433068  -0.00791969  1
  Te  Te160  1  0.83332615  0.66646652  0.33711092  1
  Te  Te161  1  0.83226173  0.67189595  0.66774112  1
  Te  Te162  1  -0.00402123  0.16337410  -0.00303984  1
  Te  Te163  1  0.00295578  0.17147525  0.33239847  1
  Te  Te164  1  0.00053819  0.16467643  0.66813134  1
  Te  Te165  1  -0.00055511  0.49975461  -0.00072895  1
  Te  Te166  1  -0.00222736  0.49634674  0.33227193  1
  Te  Te167  1  -0.00053778  0.49382040  0.67378488  1
  Te  Te168  1  0.00135567  0.83875533  0.00298188  1
  Te  Te169  1  -0.00738286  0.83364314  0.33307251  1
  Te  Te170  1  -0.00497632  0.83619559  0.66740182  1
  Te  Te171  1  0.33269671  0.16438473  0.00632590  1
  Te  Te172  1  0.33019897  0.17127633  0.32767123  1
  Te  Te173  1  0.32568683  0.16599454  0.66713375  1
  Te  Te174  1  0.33963117  0.49956711  0.00536443  1
  Te  Te175  1  0.33373695  0.49598863  0.33282958  1
  Te  Te176  1  0.33226050  0.50586531  0.65926608  1
  Te  Te177  1  0.33363802  0.84018215  0.00236053  1
  Te  Te178  1  0.33345573  0.83380371  0.33855970  1
  Te  Te179  1  0.33010806  0.82880321  0.66017329  1
  Te  Te180  1  0.66826860  0.16581387  -0.00143020  1
  Te  Te181  1  0.66728499  0.16218111  0.33028865  1
  Te  Te182  1  0.66686079  0.16923518  0.67453048  1
  Te  Te183  1  0.66587508  0.49962412  -0.00011273  1
  Te  Te184  1  0.66707086  0.49947552  0.33089167  1
  Te  Te185  1  0.66702977  0.50665180  0.67322500  1
  Te  Te186  1  0.66542399  0.83811173  0.00097100  1
  Te  Te187  1  0.67212351  0.83730847  0.33218410  1
  Te  Te188  1  0.67297255  0.82898927  0.66874630  1
  Te  Te189  1  -0.00396700  -0.00065554  0.16644722  1
  Te  Te190  1  -0.00165495  -0.00093762  0.49881592  1
  Te  Te191  1  -0.00185863  -0.00056375  0.83499327  1
  Te  Te192  1  0.00121432  0.33950365  0.17093604  1
  Te  Te193  1  0.00362388  0.33312089  0.50040194  1
  Te  Te194  1  0.00438387  0.33414240  0.83250611  1
  Te  Te195  1  0.00054026  0.66693908  0.16578616  1
  Te  Te196  1  -0.00277513  0.67068417  0.50214778  1
  Te  Te197  1  -0.00077430  0.66482569  0.83239155  1
  Te  Te198  1  0.33660506  0.00088051  0.16342388  1
  Te  Te199  1  0.33569401  -0.00171641  0.50028366  1
  Te  Te200  1  0.33724019  -0.00189657  0.83844636  1
  Te  Te201  1  0.33249048  0.33425822  0.17268840  1
  Te  Te202  1  0.33109181  0.33385226  0.49598140  1
  Te  Te203  1  0.32507349  0.33294248  0.83048551  1
  Te  Te204  1  0.33297947  0.66277946  0.16649332  1
  Te  Te205  1  0.33428203  0.66476411  0.50234985  1
  Te  Te206  1  0.33312595  0.66785052  0.82692820  1
  Te  Te207  1  0.66881891  0.00009381  0.16433811  1
  Te  Te208  1  0.66865652  -0.00443347  0.50545213  1
  Te  Te209  1  0.66986635  -0.00333090  0.83351734  1
  Te  Te210  1  0.66673843  0.34126134  0.16865060  1
  Te  Te211  1  0.66158445  0.33128289  0.50089730  1
  Te  Te212  1  0.66354842  0.33960261  0.83030425  1
  Te  Te213  1  0.66660513  0.66191485  0.16667741  1
  Te  Te214  1  0.66830875  0.67169874  0.50455354  1
  Te  Te215  1  0.66901336  0.66880713  0.83190650  1
