# generated using pymatgen
data_AgSbTe2
_symmetry_space_group_name_H-M   'P 1'
_cell_length_a   18.31911266
_cell_length_b   18.32298944
_cell_length_c   18.32484306
_cell_angle_alpha   90.00013945
_cell_angle_beta   90.00131625
_cell_angle_gamma   90.00090436
_symmetry_Int_Tables_number   1
_chemical_formula_structural   AgSbTe2
_chemical_formula_sum   'Ag54 Sb54 Te108'
_cell_volume   6150.93345335
_cell_formula_units_Z   54
loop_
 _symmetry_equiv_pos_site_id
 _symmetry_equiv_pos_as_xyz
  1  'x, y, z'
loop_
 _atom_site_type_symbol
 _atom_site_label
 _atom_site_symmetry_multiplicity
 _atom_site_fract_x
 _atom_site_fract_y
 _atom_site_fract_z
 _atom_site_occupancy
  Ag  Ag0  1  0.00167573  0.15764544  0.83469585  1
  Ag  Ag1  1  0.49164081  0.32303199  0.49796699  1
  Ag  Ag2  1  0.50481938  0.00152826  0.17491693  1
  Ag  Ag3  1  0.32863329  0.17007809  0.16529414  1
  Ag  Ag4  1  0.66505795  0.84308210  0.16834385  1
  Ag  Ag5  1  0.00052130  0.16387346  0.16951992  1
  Ag  Ag6  1  0.00187566  0.32431486  0.33958245  1
  Ag  Ag7  1  0.67213003  0.00105576  -0.00129528  1
  Ag  Ag8  1  0.16455215  0.16837896  -0.00058959  1
  Ag  Ag9  1  0.83131338  0.84265989  -0.00454427  1
  Ag  Ag10  1  0.00681619  0.84011727  0.82664756  1
  Ag  Ag11  1  0.16326694  0.83314255  0.66933368  1
  Ag  Ag12  1  0.49770568  0.16519020  0.66377194  1
  Ag  Ag13  1  -0.00521989  0.00338041  -0.00775972  1
  Ag  Ag14  1  0.32949969  0.49683677  0.16749434  1
  Ag  Ag15  1  0.65955671  0.67171096  0.33909546  1
  Ag  Ag16  1  0.84142166  0.16004571  0.00215493  1
  Ag  Ag17  1  0.50260546  0.67273766  0.49550262  1
  Ag  Ag18  1  0.67158420  0.15831022  0.83703213  1
  Ag  Ag19  1  0.16920796  0.66139897  0.16209076  1
  Ag  Ag20  1  0.32487001  0.83685282  0.82889047  1
  Ag  Ag21  1  -0.00528053  0.00600602  0.34203940  1
  Ag  Ag22  1  -0.00332177  0.67993648  0.66728883  1
  Ag  Ag23  1  0.83610084  0.16339901  0.33075148  1
  Ag  Ag24  1  0.15996252  -0.00413994  0.83306371  1
  Ag  Ag25  1  0.82908442  0.67671156  0.50477256  1
  Ag  Ag26  1  0.17282417  0.49888147  0.32528816  1
  Ag  Ag27  1  0.32689538  0.32723761  0.66495892  1
  Ag  Ag28  1  0.16903773  0.49577550  0.00498881  1
  Ag  Ag29  1  0.17001520  0.33011775  0.49629276  1
  Ag  Ag30  1  0.00309138  0.84297948  0.50901443  1
  Ag  Ag31  1  0.33230047  0.83761041  0.50378928  1
  Ag  Ag32  1  0.67209878  0.83823457  0.83424139  1
  Ag  Ag33  1  0.32935019  0.32980651  0.00054727  1
  Ag  Ag34  1  0.33175316  0.16701182  0.50036015  1
  Ag  Ag35  1  0.66671334  0.32348869  0.33361267  1
  Ag  Ag36  1  0.66571276  0.50879942  0.83420285  1
  Ag  Ag37  1  0.49643644  0.50625154  0.33473273  1
  Ag  Ag38  1  -0.00304756  -0.00127895  0.66717380  1
  Ag  Ag39  1  0.16445883  0.67439473  0.83571128  1
  Ag  Ag40  1  0.67171758  0.67772200  0.66429846  1
  Ag  Ag41  1  0.32815557  0.16291287  0.83471404  1
  Ag  Ag42  1  0.83539034  -0.00321488  0.49700727  1
  Ag  Ag43  1  0.66645959  0.15930076  0.16790515  1
  Ag  Ag44  1  0.16991269  0.33484163  0.16993785  1
  Ag  Ag45  1  0.00729071  0.31909604  0.66031334  1
  Ag  Ag46  1  0.83546807  0.67250875  0.82769556  1
  Ag  Ag47  1  0.32849715  0.66510960  0.00586323  1
  Ag  Ag48  1  0.50480647  -0.00001942  0.49676749  1
  Ag  Ag49  1  0.67025855  -0.00325478  0.66870243  1
  Ag  Ag50  1  0.00299135  0.16083431  0.49799508  1
  Ag  Ag51  1  0.50298983  0.83147332  0.33713050  1
  Ag  Ag52  1  0.33868763  0.66539438  0.33175949  1
  Ag  Ag53  1  0.66684449  0.00070895  0.33113181  1
  Sb  Sb54  1  0.49553046  0.67168297  0.17439070  1
  Sb  Sb55  1  0.33522840  0.50037858  0.83906509  1
  Sb  Sb56  1  0.00035441  0.66871227  0.33849053  1
  Sb  Sb57  1  0.16716706  0.16245705  0.67113505  1
  Sb  Sb58  1  0.83889383  0.83413528  0.67150845  1
  Sb  Sb59  1  0.16714544  0.50185424  0.66822029  1
  Sb  Sb60  1  0.16048443  0.17092265  0.32945868  1
  Sb  Sb61  1  0.50299581  0.83494793  0.00273102  1
  Sb  Sb62  1  0.49426802  0.32682588  0.17414338  1
  Sb  Sb63  1  0.16752670  0.66511858  0.50090748  1
  Sb  Sb64  1  0.16904913  0.82957834  0.33752020  1
  Sb  Sb65  1  0.33273996  0.00441863  0.66596684  1
  Sb  Sb66  1  0.16713164  0.33061346  0.83382325  1
  Sb  Sb67  1  0.50185574  0.00062044  0.83059633  1
  Sb  Sb68  1  0.66113237  0.32489171  0.00416821  1
  Sb  Sb69  1  0.83463429  0.16227347  0.66718996  1
  Sb  Sb70  1  0.65894336  0.49885541  0.16677633  1
  Sb  Sb71  1  -0.00345949  0.84157813  0.16535976  1
  Sb  Sb72  1  0.49735479  0.83852053  0.66044625  1
  Sb  Sb73  1  0.00664384  0.32290336  0.00077813  1
  Sb  Sb74  1  0.82822913  0.83894548  0.33215524  1
  Sb  Sb75  1  0.66664495  0.32898379  0.66311790  1
  Sb  Sb76  1  0.66766168  0.83492148  0.50122446  1
  Sb  Sb77  1  0.00459534  0.67445936  -0.00542335  1
  Sb  Sb78  1  0.83767647  -0.00486545  0.83327999  1
  Sb  Sb79  1  0.01007272  0.49225993  0.16749151  1
  Sb  Sb80  1  0.82652250  0.00260630  0.16908991  1
  Sb  Sb81  1  0.33095109  0.33516984  0.33412958  1
  Sb  Sb82  1  0.49776378  0.16485473  -0.00236728  1
  Sb  Sb83  1  0.16365012  0.83585782  -0.00583868  1
  Sb  Sb84  1  0.33330417  0.49787584  0.49454550  1
  Sb  Sb85  1  0.84028173  0.32808367  0.16779919  1
  Sb  Sb86  1  0.49490564  0.50104397  0.00606234  1
  Sb  Sb87  1  0.66689009  0.16224350  0.49856602  1
  Sb  Sb88  1  0.83466394  0.33208723  0.83252889  1
  Sb  Sb89  1  0.50046209  0.49679452  0.66040428  1
  Sb  Sb90  1  0.33344428  0.00124283  -0.00200972  1
  Sb  Sb91  1  0.83761588  0.50019057  -0.00177938  1
  Sb  Sb92  1  0.83696214  0.66975461  0.16727785  1
  Sb  Sb93  1  0.33368782  0.66607912  0.66465490  1
  Sb  Sb94  1  0.50040488  0.66912787  0.82703056  1
  Sb  Sb95  1  0.00147096  0.49742446  0.49990540  1
  Sb  Sb96  1  0.16906754  0.00297620  0.16245474  1
  Sb  Sb97  1  0.83176741  0.49717798  0.33402128  1
  Sb  Sb98  1  0.66429052  0.67333205  -0.00147491  1
  Sb  Sb99  1  0.33673577  0.83418426  0.16734830  1
  Sb  Sb100  1  0.49886860  0.33055394  0.82683668  1
  Sb  Sb101  1  -0.00058830  0.50199047  0.83287696  1
  Sb  Sb102  1  0.66532991  0.50334797  0.50082775  1
  Sb  Sb103  1  0.83283286  0.50392854  0.66701744  1
  Sb  Sb104  1  0.50329777  0.16440305  0.33789420  1
  Sb  Sb105  1  0.33479769  -0.00247522  0.33455694  1
  Sb  Sb106  1  0.83547417  0.32781286  0.49867271  1
  Sb  Sb107  1  0.16377081  0.00449555  0.50334310  1
  Te  Te108  1  0.16826462  0.16746682  0.16223818  1
  Te  Te109  1  0.16819052  0.17055685  0.49984335  1
  Te  Te110  1  0.16682349  0.16572202  0.83699641  1
  Te  Te111  1  0.17077365  0.49945812  0.16553715  1
  Te  Te112  1  0.16734815  0.49273333  0.49693929  1
  Te  Te113  1  0.16811872  0.50652094  0.83846564  1
  Te  Te114  1  0.16692734  0.82898294  0.16736714  1
  Te  Te115  1  0.16850595  0.83324042  0.50474740  1
  Te  Te116  1  0.16548641  0.83469043  0.83252456  1
  Te  Te117  1  0.50166440  0.16204615  0.16704806  1
  Te  Te118  1  0.49882558  0.16478007  0.50256574  1
  Te  Te119  1  0.49603010  0.16623809  0.82693297  1
  Te  Te120  1  0.49120907  0.49846330  0.17365531  1
  Te  Te121  1  0.49966458  0.50335528  0.49324776  1
  Te  Te122  1  0.50644921  0.49973125  0.83412218  1
  Te  Te123  1  0.50474959  0.83873379  0.17248528  1
  Te  Te124  1  0.49647181  0.83530545  0.49730621  1
  Te  Te125  1  0.49707404  0.83422365  0.83238689  1
  Te  Te126  1  0.83395272  0.16762585  0.16602179  1
  Te  Te127  1  0.83835906  0.16158790  0.49653131  1
  Te  Te128  1  0.83375826  0.16639997  0.83686148  1
  Te  Te129  1  0.83366232  0.49936650  0.16505443  1
  Te  Te130  1  0.83334165  0.51124996  0.49928340  1
  Te  Te131  1  0.82718059  0.50694048  0.83455426  1
  Te  Te132  1  0.82687227  0.83250415  0.15847151  1
  Te  Te133  1  0.83973913  0.83528680  0.49810724  1
  Te  Te134  1  0.83099686  0.83002926  0.83681511  1
  Te  Te135  1  0.16371228  0.00536624  -0.00483469  1
  Te  Te136  1  0.16089311  -0.00142785  0.33195373  1
  Te  Te137  1  0.16254425  -0.00504412  0.67164548  1
  Te  Te138  1  0.17071604  0.33155406  0.00072276  1
  Te  Te139  1  0.16460061  0.33663607  0.33286218  1
  Te  Te140  1  0.16576494  0.33448334  0.66369482  1
  Te  Te141  1  0.16830271  0.66834607  -0.00105935  1
  Te  Te142  1  0.16840765  0.66131831  0.33179850  1
  Te  Te143  1  0.16475106  0.66950036  0.67010181  1
  Te  Te144  1  0.50872629  -0.00012134  0.00383152  1
  Te  Te145  1  0.50156029  -0.00210386  0.33605072  1
  Te  Te146  1  0.50382294  0.00495489  0.66177676  1
  Te  Te147  1  0.49074815  0.33431525  0.00087353  1
  Te  Te148  1  0.50333708  0.33404522  0.33934418  1
  Te  Te149  1  0.49811686  0.32923065  0.65791725  1
  Te  Te150  1  0.49156199  0.66630934  0.00090901  1
  Te  Te151  1  0.50009186  0.66805570  0.33518568  1
  Te  Te152  1  0.50413634  0.66536686  0.65846364  1
  Te  Te153  1  0.83219515  0.00269193  -0.00000099  1
  Te  Te154  1  0.83296472  0.00313777  0.33646710  1
  Te  Te155  1  0.83081227  -0.00033752  0.65750280  1
  Te  Te156  1  0.83205562  0.32741574  -0.00001156  1
  Te  Te157  1  0.83293200  0.32911090  0.33391812  1
  Te  Te158  1  0.84116722  0.33432125  0.66506483  1
  Te  Te159  1  0.83412234  0.66875442  -0.00286303  1
  Te  Te160  1  0.82993381  0.66660999  0.33612913  1
  Te  Te161  1  0.83149520  0.66843056  0.66658186  1
  Te  Te162  1  0.00015511  0.16391990  -0.00308093  1
  Te  Te163  1  -0.00085942  0.16509728  0.33479661  1
  Te  Te164  1  0.00030214  0.16198998  0.66778538  1
  Te  Te165  1  0.00693235  0.49769284  0.00006575  1
  Te  Te166  1  0.00182088  0.49573407  0.33245308  1
  Te  Te167  1  0.00093801  0.50042917  0.66764265  1
  Te  Te168  1  -0.00538273  0.84148846  -0.00273366  1
  Te  Te169  1  -0.00042906  0.83868440  0.33505125  1
  Te  Te170  1  0.00200415  0.83603258  0.66698112  1
  Te  Te171  1  0.33129191  0.16660820  -0.00123480  1
  Te  Te172  1  0.33248233  0.16656795  0.33488784  1
  Te  Te173  1  0.33329267  0.16858167  0.66454347  1
  Te  Te174  1  0.32896871  0.50083586  0.00468295  1
  Te  Te175  1  0.33266088  0.50249318  0.32968950  1
  Te  Te176  1  0.33409933  0.49072263  0.66909413  1
  Te  Te177  1  0.33394675  0.83110146  -0.00446341  1
  Te  Te178  1  0.33694193  0.82887968  0.33656502  1
  Te  Te179  1  0.32923625  0.83351258  0.66704705  1
  Te  Te180  1  0.66577509  0.16257137  0.00023441  1
  Te  Te181  1  0.66939041  0.16320064  0.33186170  1
  Te  Te182  1  0.66541808  0.16428243  0.67013473  1
  Te  Te183  1  0.66709419  0.49812015  -0.00413395  1
  Te  Te184  1  0.66347055  0.50448968  0.33205525  1
  Te  Te185  1  0.66544451  0.49967684  0.67439741  1
  Te  Te186  1  0.66891081  0.83772509  -0.00145394  1
  Te  Te187  1  0.66447148  0.83509673  0.33322557  1
  Te  Te188  1  0.66352697  0.83479924  0.67026963  1
  Te  Te189  1  0.00147405  0.00542715  0.16631730  1
  Te  Te190  1  0.00246848  0.00084535  0.50157967  1
  Te  Te191  1  -0.00079990  -0.00023665  0.83109106  1
  Te  Te192  1  0.00727271  0.32497623  0.17092949  1
  Te  Te193  1  0.00048713  0.32995929  0.50022819  1
  Te  Te194  1  -0.00038612  0.33062607  0.82775898  1
  Te  Te195  1  0.00613983  0.66741172  0.16735347  1
  Te  Te196  1  -0.00153783  0.66905690  0.50515771  1
  Te  Te197  1  -0.00001309  0.66831975  0.82940984  1
  Te  Te198  1  0.33926226  0.00514344  0.16620248  1
  Te  Te199  1  0.33543457  0.00014556  0.50055261  1
  Te  Te200  1  0.33133471  0.00088180  0.83279861  1
  Te  Te201  1  0.32961609  0.32976446  0.16607008  1
  Te  Te202  1  0.33262916  0.33110613  0.50046568  1
  Te  Te203  1  0.33347832  0.32873193  0.83250508  1
  Te  Te204  1  0.33000881  0.66902638  0.16778416  1
  Te  Te205  1  0.33602961  0.66936340  0.49687614  1
  Te  Te206  1  0.33134827  0.66902165  0.83318345  1
  Te  Te207  1  0.66496525  0.00181215  0.17017050  1
  Te  Te208  1  0.66597216  -0.00087349  0.50039899  1
  Te  Te209  1  0.66737019  -0.00048013  0.83119135  1
  Te  Te210  1  0.66574455  0.32972549  0.17296672  1
  Te  Te211  1  0.66644154  0.33398365  0.49446346  1
  Te  Te212  1  0.66681116  0.32440314  0.83391097  1
  Te  Te213  1  0.66696849  0.66795277  0.16922952  1
  Te  Te214  1  0.66651378  0.66856668  0.50091325  1
  Te  Te215  1  0.66683228  0.67267744  0.83289802  1
