# generated using pymatgen
data_AgSbTe2
_symmetry_space_group_name_H-M   'P 1'
_cell_length_a   18.33610878
_cell_length_b   18.33701031
_cell_length_c   18.33663903
_cell_angle_alpha   89.99847705
_cell_angle_beta   90.00349973
_cell_angle_gamma   89.99905355
_symmetry_Int_Tables_number   1
_chemical_formula_structural   AgSbTe2
_chemical_formula_sum   'Ag54 Sb54 Te108'
_cell_volume   6165.31740947
_cell_formula_units_Z   54
loop_
 _symmetry_equiv_pos_site_id
 _symmetry_equiv_pos_as_xyz
  1  'x, y, z'
loop_
 _atom_site_type_symbol
 _atom_site_label
 _atom_site_symmetry_multiplicity
 _atom_site_fract_x
 _atom_site_fract_y
 _atom_site_fract_z
 _atom_site_occupancy
  Ag  Ag0  1  0.83275464  0.49741443  0.32103259  1
  Ag  Ag1  1  -0.00493329  0.82210688  0.83559878  1
  Ag  Ag2  1  0.49878403  0.16830780  0.32913857  1
  Ag  Ag3  1  0.67680194  0.50123539  0.83960091  1
  Ag  Ag4  1  0.33470884  0.82503026  0.50020505  1
  Ag  Ag5  1  -0.00217964  0.00861972  0.33252987  1
  Ag  Ag6  1  0.33885994  0.50479749  0.16045928  1
  Ag  Ag7  1  0.33260323  0.66281730  0.33384505  1
  Ag  Ag8  1  0.66539294  0.17800032  0.84124853  1
  Ag  Ag9  1  0.66122223  0.17040037  0.15845710  1
  Ag  Ag10  1  0.17640510  0.66661720  0.50980720  1
  Ag  Ag11  1  0.33576973  0.66697662  0.66498849  1
  Ag  Ag12  1  0.34312696  0.16829989  0.16908150  1
  Ag  Ag13  1  0.66969141  0.81762376  0.84139772  1
  Ag  Ag14  1  0.50232363  0.49898750  0.67004519  1
  Ag  Ag15  1  0.83051243  0.65485909  0.83850030  1
  Ag  Ag16  1  0.33653762  0.33464736  0.33055911  1
  Ag  Ag17  1  0.83034111  0.33917036  0.15934254  1
  Ag  Ag18  1  0.82687782  0.50071544  -0.00049655  1
  Ag  Ag19  1  0.00127516  0.66607643  0.33259664  1
  Ag  Ag20  1  0.17198567  0.82772449  0.66991622  1
  Ag  Ag21  1  -0.00894969  0.33462384  -0.00352669  1
  Ag  Ag22  1  0.82530606  0.50137675  0.68512718  1
  Ag  Ag23  1  0.16385049  0.34034626  0.83716105  1
  Ag  Ag24  1  0.50550867  0.83112176  0.00158156  1
  Ag  Ag25  1  0.49332714  0.66587485  0.50357628  1
  Ag  Ag26  1  0.33711035  0.16445903  0.50022575  1
  Ag  Ag27  1  0.66697580  0.66180316  -0.00257362  1
  Ag  Ag28  1  0.50065868  0.16665328  0.00287270  1
  Ag  Ag29  1  0.17128379  0.17590793  -0.00538209  1
  Ag  Ag30  1  0.33356765  0.50182407  0.83864541  1
  Ag  Ag31  1  0.82860867  0.65807876  0.15588896  1
  Ag  Ag32  1  0.33437014  0.00169642  0.66334253  1
  Ag  Ag33  1  0.49942655  0.00691393  0.16873581  1
  Ag  Ag34  1  0.00755105  0.16648321  0.49692994  1
  Ag  Ag35  1  0.49550765  0.17115925  0.66505712  1
  Ag  Ag36  1  0.33844836  0.66320646  -0.00099742  1
  Ag  Ag37  1  0.33918631  0.82552117  0.16663145  1
  Ag  Ag38  1  -0.00298271  0.16813914  0.16596106  1
  Ag  Ag39  1  0.16399708  0.65844256  0.83228474  1
  Ag  Ag40  1  0.50354086  0.33320865  0.83249433  1
  Ag  Ag41  1  0.16313050  0.49606806  -0.00500555  1
  Ag  Ag42  1  0.66972131  0.50012363  0.15775197  1
  Ag  Ag43  1  -0.00881579  0.49802298  0.83656475  1
  Ag  Ag44  1  0.17625208  0.16530243  0.67266536  1
  Ag  Ag45  1  0.67050413  0.34228803  -0.00181663  1
  Ag  Ag46  1  0.83147479  0.17336990  0.32764288  1
  Ag  Ag47  1  0.66033698  0.66448276  0.68042196  1
  Ag  Ag48  1  0.49482082  0.00952580  0.49785103  1
  Ag  Ag49  1  0.83134271  0.34184480  0.84243074  1
  Ag  Ag50  1  0.81959904  0.81915460  -0.00107166  1
  Ag  Ag51  1  -0.00023681  0.17651541  0.83765585  1
  Ag  Ag52  1  0.66132010  0.82406965  0.15720543  1
  Ag  Ag53  1  0.49695748  0.32769140  0.50561569  1
  Sb  Sb54  1  0.16869165  0.16833070  0.33293964  1
  Sb  Sb55  1  -0.00424157  0.66160453  -0.00033097  1
  Sb  Sb56  1  0.50300436  0.65905846  0.83075293  1
  Sb  Sb57  1  0.00045717  0.33328599  0.67673851  1
  Sb  Sb58  1  0.83085099  0.17262418  0.66799897  1
  Sb  Sb59  1  0.17154464  0.33451193  0.50649266  1
  Sb  Sb60  1  0.00007046  0.49650038  0.50430350  1
  Sb  Sb61  1  0.49503861  0.83126767  0.67190362  1
  Sb  Sb62  1  0.83331965  0.00166708  0.83476272  1
  Sb  Sb63  1  0.16720726  0.00198757  0.83246643  1
  Sb  Sb64  1  0.16858564  0.83098304  0.33673691  1
  Sb  Sb65  1  0.65813491  0.83031764  0.50156390  1
  Sb  Sb66  1  0.49944101  0.00590850  0.83420995  1
  Sb  Sb67  1  0.00353672  0.66569447  0.66916627  1
  Sb  Sb68  1  0.16669768  0.66541773  0.16156795  1
  Sb  Sb69  1  0.33537636  -0.00180963  -0.00187976  1
  Sb  Sb70  1  -0.00486583  0.49712062  0.15965478  1
  Sb  Sb71  1  0.16495874  0.33248655  0.15926786  1
  Sb  Sb72  1  0.66530131  -0.00163155  0.00047806  1
  Sb  Sb73  1  0.82936449  0.33294245  0.49844288  1
  Sb  Sb74  1  0.65850771  -0.00354197  0.66800754  1
  Sb  Sb75  1  0.33557732  0.33713148  0.00226252  1
  Sb  Sb76  1  0.50116601  0.66751133  0.16675488  1
  Sb  Sb77  1  0.16524682  0.50177371  0.32672278  1
  Sb  Sb78  1  0.66415790  0.33957019  0.67804844  1
  Sb  Sb79  1  0.00603359  0.83527168  0.50305858  1
  Sb  Sb80  1  0.83392486  0.82986433  0.32548233  1
  Sb  Sb81  1  -0.00105420  0.83512577  0.16075276  1
  Sb  Sb82  1  0.17360550  -0.00141698  0.50135608  1
  Sb  Sb83  1  0.00547321  0.00264824  0.66422779  1
  Sb  Sb84  1  0.66503381  0.49989599  0.50430309  1
  Sb  Sb85  1  0.50352197  0.49835685  -0.00552160  1
  Sb  Sb86  1  0.83281510  0.66565160  0.50174677  1
  Sb  Sb87  1  0.17022722  0.82770540  -0.00654404  1
  Sb  Sb88  1  0.83634142  0.82510061  0.67592138  1
  Sb  Sb89  1  0.17217140  0.00271003  0.16684020  1
  Sb  Sb90  1  -0.00020034  0.00879631  0.00289190  1
  Sb  Sb91  1  0.33656674  0.82447652  0.83308021  1
  Sb  Sb92  1  0.33693932  0.33521239  0.66655733  1
  Sb  Sb93  1  0.66512875  0.66398351  0.32867159  1
  Sb  Sb94  1  0.66682333  0.00253005  0.33058016  1
  Sb  Sb95  1  0.33279153  0.00112389  0.33559708  1
  Sb  Sb96  1  0.82770330  0.00343423  0.16538532  1
  Sb  Sb97  1  0.33392099  0.50303996  0.50111930  1
  Sb  Sb98  1  0.66239972  0.33264766  0.32537509  1
  Sb  Sb99  1  0.50162443  0.49614366  0.33634851  1
  Sb  Sb100  1  0.33380471  0.17342118  0.83409944  1
  Sb  Sb101  1  0.17031873  0.50048138  0.67620815  1
  Sb  Sb102  1  0.50311198  0.32943238  0.16174097  1
  Sb  Sb103  1  0.49849264  0.83580942  0.32904820  1
  Sb  Sb104  1  0.00159684  0.33368553  0.32781975  1
  Sb  Sb105  1  0.65893638  0.16789516  0.50080740  1
  Sb  Sb106  1  0.83093603  0.00365281  0.49708442  1
  Sb  Sb107  1  0.82980849  0.17338289  0.00334967  1
  Te  Te108  1  0.16341654  0.16704267  0.16181074  1
  Te  Te109  1  0.16960012  0.16707382  0.50460822  1
  Te  Te110  1  0.16601266  0.16809497  0.83375170  1
  Te  Te111  1  0.17423109  0.49938197  0.15860508  1
  Te  Te112  1  0.16502018  0.50575980  0.50087260  1
  Te  Te113  1  0.16996895  0.50001950  0.83479198  1
  Te  Te114  1  0.17397427  0.83441898  0.16404468  1
  Te  Te115  1  0.17239936  0.82825287  0.50623404  1
  Te  Te116  1  0.16451675  0.83078025  0.82974031  1
  Te  Te117  1  0.50117376  0.16825169  0.16703400  1
  Te  Te118  1  0.49746622  0.16830888  0.50176947  1
  Te  Te119  1  0.50160673  0.17066387  0.83409555  1
  Te  Te120  1  0.49931053  0.49863135  0.16802298  1
  Te  Te121  1  0.50013536  0.50018831  0.50523316  1
  Te  Te122  1  0.49609504  0.49448882  0.82969287  1
  Te  Te123  1  0.49983131  0.83421996  0.16356276  1
  Te  Te124  1  0.49387746  0.83024440  0.49983920  1
  Te  Te125  1  0.50638756  0.83748201  0.83943232  1
  Te  Te126  1  0.83362875  0.16732810  0.16864099  1
  Te  Te127  1  0.83621945  0.16768620  0.49512374  1
  Te  Te128  1  0.83295783  0.17058935  0.83249579  1
  Te  Te129  1  0.83333855  0.49920155  0.16166418  1
  Te  Te130  1  0.83335705  0.49912874  0.49203265  1
  Te  Te131  1  0.83270378  0.49845472  0.84005370  1
  Te  Te132  1  0.83014468  0.83120393  0.16099780  1
  Te  Te133  1  0.83318417  0.83476976  0.50016906  1
  Te  Te134  1  0.83233041  0.83311867  0.83761188  1
  Te  Te135  1  0.16779317  0.01145689  0.00012151  1
  Te  Te136  1  0.15664783  -0.00046025  0.33410782  1
  Te  Te137  1  0.17286167  0.00383639  0.66588069  1
  Te  Te138  1  0.16899516  0.33413584  -0.00497271  1
  Te  Te139  1  0.17441182  0.33470309  0.33478395  1
  Te  Te140  1  0.16780617  0.32766379  0.67416644  1
  Te  Te141  1  0.16996304  0.66166378  -0.00597573  1
  Te  Te142  1  0.16888143  0.66565632  0.33439418  1
  Te  Te143  1  0.16980333  0.66608617  0.67033498  1
  Te  Te144  1  0.49809444  0.00501207  0.00543502  1
  Te  Te145  1  0.49922144  0.00583274  0.33322901  1
  Te  Te146  1  0.49457790  0.00226579  0.66265653  1
  Te  Te147  1  0.50468481  0.32788250  -0.00493650  1
  Te  Te148  1  0.49635329  0.32918530  0.33679438  1
  Te  Te149  1  0.50038003  0.33290630  0.66779849  1
  Te  Te150  1  0.50034772  0.67037924  0.00024203  1
  Te  Te151  1  0.49521741  0.66628509  0.33936530  1
  Te  Te152  1  0.49853529  0.66646604  0.66491860  1
  Te  Te153  1  0.83539480  -0.01602362  0.00040714  1
  Te  Te154  1  0.83871593  0.00508215  0.33277783  1
  Te  Te155  1  0.83214821  -0.00053461  0.66481026  1
  Te  Te156  1  0.83106332  0.33384976  -0.00011477  1
  Te  Te157  1  0.83337951  0.33341638  0.33076767  1
  Te  Te158  1  0.83198253  0.34176320  0.66704115  1
  Te  Te159  1  0.83464661  0.66281857  -0.00147934  1
  Te  Te160  1  0.83426696  0.66274165  0.33291194  1
  Te  Te161  1  0.83041024  0.66080778  0.67039958  1
  Te  Te162  1  -0.00272620  0.17246646  -0.00115980  1
  Te  Te163  1  0.00146467  0.16915441  0.33123719  1
  Te  Te164  1  0.00018214  0.16605141  0.66860526  1
  Te  Te165  1  0.00316704  0.49619130  -0.00378872  1
  Te  Te166  1  -0.00309864  0.50288964  0.33270271  1
  Te  Te167  1  -0.00520826  0.50058966  0.67238690  1
  Te  Te168  1  0.00310192  0.83575437  -0.00547653  1
  Te  Te169  1  0.00035320  0.82777018  0.33290335  1
  Te  Te170  1  0.00667128  0.83480748  0.67295742  1
  Te  Te171  1  0.33453094  0.16609311  0.00257650  1
  Te  Te172  1  0.33548564  0.16578896  0.33192331  1
  Te  Te173  1  0.33531869  0.16844717  0.66643761  1
  Te  Te174  1  0.33796235  0.50254100  0.00101637  1
  Te  Te175  1  0.33338781  0.50127440  0.32896830  1
  Te  Te176  1  0.33699802  0.50504419  0.66897456  1
  Te  Te177  1  0.33663641  0.82958693  0.00434225  1
  Te  Te178  1  0.33305939  0.82948274  0.33311979  1
  Te  Te179  1  0.33103777  0.82811737  0.66584767  1
  Te  Te180  1  0.66532523  0.16535924  -0.00027084  1
  Te  Te181  1  0.66618676  0.16716776  0.33147569  1
  Te  Te182  1  0.66193629  0.16558303  0.66960144  1
  Te  Te183  1  0.66493858  0.50180632  0.00037343  1
  Te  Te184  1  0.67181363  0.49931154  0.32642728  1
  Te  Te185  1  0.66430991  0.50469834  0.66986506  1
  Te  Te186  1  0.66347992  0.83408831  0.00042314  1
  Te  Te187  1  0.66747232  0.83354243  0.32476265  1
  Te  Te188  1  0.66729773  0.82699983  0.67115510  1
  Te  Te189  1  -0.00003048  0.00413247  0.17076132  1
  Te  Te190  1  -0.00028727  0.00515337  0.49501436  1
  Te  Te191  1  -0.00023765  0.00521991  0.83315262  1
  Te  Te192  1  -0.00440770  0.32909155  0.16170387  1
  Te  Te193  1  0.00114843  0.32701077  0.49869013  1
  Te  Te194  1  -0.00077617  0.33551304  0.83698319  1
  Te  Te195  1  -0.00373917  0.66811825  0.17093241  1
  Te  Te196  1  0.00247075  0.66683259  0.49564977  1
  Te  Te197  1  -0.00136395  0.66456599  0.83393602  1
  Te  Te198  1  0.33855548  0.00399680  0.16721270  1
  Te  Te199  1  0.33693296  0.00344798  0.50189969  1
  Te  Te200  1  0.33423811  -0.00318675  0.82433368  1
  Te  Te201  1  0.33320130  0.32940716  0.16949485  1
  Te  Te202  1  0.33614991  0.33052391  0.49618716  1
  Te  Te203  1  0.33410339  0.33997072  0.83420534  1
  Te  Te204  1  0.33336968  0.66598361  0.16576606  1
  Te  Te205  1  0.33302336  0.66527968  0.49963404  1
  Te  Te206  1  0.33412677  0.66294235  0.83540336  1
  Te  Te207  1  0.66020879  0.00652437  0.16747506  1
  Te  Te208  1  0.65690983  -0.00198680  0.49940257  1
  Te  Te209  1  0.66690338  0.00704613  0.83167827  1
  Te  Te210  1  0.66964731  0.33255416  0.16114870  1
  Te  Te211  1  0.65878465  0.33382212  0.49867178  1
  Te  Te212  1  0.66780669  0.33652590  0.83776117  1
  Te  Te213  1  0.66828961  0.66522046  0.16326713  1
  Te  Te214  1  0.66087474  0.66734457  0.50149774  1
  Te  Te215  1  0.66605096  0.66217110  0.83673031  1
