# generated using pymatgen
data_AgSbTe2
_symmetry_space_group_name_H-M   'P 1'
_cell_length_a   18.32330462
_cell_length_b   18.31821845
_cell_length_c   18.32337640
_cell_angle_alpha   90.00096348
_cell_angle_beta   89.99977994
_cell_angle_gamma   90.00390855
_symmetry_Int_Tables_number   1
_chemical_formula_structural   AgSbTe2
_chemical_formula_sum   'Ag54 Sb54 Te108'
_cell_volume   6150.24670977
_cell_formula_units_Z   54
loop_
 _symmetry_equiv_pos_site_id
 _symmetry_equiv_pos_as_xyz
  1  'x, y, z'
loop_
 _atom_site_type_symbol
 _atom_site_label
 _atom_site_symmetry_multiplicity
 _atom_site_fract_x
 _atom_site_fract_y
 _atom_site_fract_z
 _atom_site_occupancy
  Ag  Ag0  1  0.17457025  0.83900933  0.33482435  1
  Ag  Ag1  1  0.49819478  0.50571423  -0.00255007  1
  Ag  Ag2  1  0.66166623  0.82961124  0.82607998  1
  Ag  Ag3  1  0.66527952  0.16705372  0.16772972  1
  Ag  Ag4  1  0.16997488  0.65963425  0.16363232  1
  Ag  Ag5  1  0.49912825  0.82856945  0.00135707  1
  Ag  Ag6  1  0.65765146  0.33236962  0.33722708  1
  Ag  Ag7  1  0.66617931  0.50507914  0.83004182  1
  Ag  Ag8  1  -0.00008128  0.65908768  0.00298974  1
  Ag  Ag9  1  0.66822997  0.66565577  -0.00496642  1
  Ag  Ag10  1  0.84769307  0.50479225  -0.00072035  1
  Ag  Ag11  1  0.16645938  0.66386055  0.83911097  1
  Ag  Ag12  1  0.66572908  0.67316634  0.67390489  1
  Ag  Ag13  1  0.01192768  0.50161500  0.15399836  1
  Ag  Ag14  1  0.66800452  0.49938442  0.50824943  1
  Ag  Ag15  1  0.49395768  0.66768482  0.16400071  1
  Ag  Ag16  1  0.82284624  0.83876613  0.66429975  1
  Ag  Ag17  1  0.17182677  0.00279719  0.49866861  1
  Ag  Ag18  1  0.49410668  0.16380476  0.33388748  1
  Ag  Ag19  1  0.00880968  0.34559824  -0.00248569  1
  Ag  Ag20  1  0.16988349  0.34127995  0.17010897  1
  Ag  Ag21  1  0.00859567  0.33875425  0.66459762  1
  Ag  Ag22  1  0.32771221  0.50117981  0.16237812  1
  Ag  Ag23  1  0.49594307  0.83836555  0.33039061  1
  Ag  Ag24  1  0.32654466  0.33236422  0.66296246  1
  Ag  Ag25  1  0.82660462  -0.00232528  0.50237054  1
  Ag  Ag26  1  0.17323105  0.16395956  0.33816072  1
  Ag  Ag27  1  0.49894984  0.00099063  0.50270899  1
  Ag  Ag28  1  0.17191443  -0.00267820  0.17689730  1
  Ag  Ag29  1  0.33218596  0.32837097  0.33485323  1
  Ag  Ag30  1  0.49969198  0.49750042  0.66867588  1
  Ag  Ag31  1  0.66861604  0.83374024  0.50761375  1
  Ag  Ag32  1  0.33381540  -0.00474494  0.00374715  1
  Ag  Ag33  1  0.33279252  0.83202514  0.16404001  1
  Ag  Ag34  1  0.34128728  0.83644646  0.83837996  1
  Ag  Ag35  1  0.83305090  0.16292836  0.66395720  1
  Ag  Ag36  1  0.49973038  0.33181472  0.49768138  1
  Ag  Ag37  1  0.16844123  0.33174147  0.50207133  1
  Ag  Ag38  1  0.32896527  0.33821592  0.00419804  1
  Ag  Ag39  1  -0.00053338  0.49697125  0.50293989  1
  Ag  Ag40  1  0.33549105  -0.00005456  0.66256163  1
  Ag  Ag41  1  0.49963723  -0.00338667  0.82447453  1
  Ag  Ag42  1  0.33179592  0.00137846  0.33489654  1
  Ag  Ag43  1  0.16764700  0.49559078  0.66992062  1
  Ag  Ag44  1  0.00325969  0.66624577  0.32546395  1
  Ag  Ag45  1  0.65956618  -0.00579155  0.66516785  1
  Ag  Ag46  1  0.83040919  0.83482593  0.33855261  1
  Ag  Ag47  1  0.66496796  0.16427894  0.83154779  1
  Ag  Ag48  1  0.83306507  0.33351780  0.50103434  1
  Ag  Ag49  1  0.16079607  0.50029559  0.00162416  1
  Ag  Ag50  1  0.82585365  0.82746323  -0.00224815  1
  Ag  Ag51  1  0.00271313  0.50058078  0.84165391  1
  Ag  Ag52  1  0.16751792  0.83389783  0.66199087  1
  Ag  Ag53  1  0.16671033  0.17493670  0.66125342  1
  Sb  Sb54  1  -0.00175435  0.17340142  0.83015120  1
  Sb  Sb55  1  0.00241981  0.00254186  0.66569207  1
  Sb  Sb56  1  0.00241991  0.17229931  0.50067218  1
  Sb  Sb57  1  0.00628454  0.33901429  0.33595743  1
  Sb  Sb58  1  0.83657265  -0.00271240  0.17244376  1
  Sb  Sb59  1  0.00656478  -0.00489920  0.00112167  1
  Sb  Sb60  1  0.83584594  0.66710546  0.16373910  1
  Sb  Sb61  1  0.65865684  0.00159872  0.33974050  1
  Sb  Sb62  1  0.17189650  0.82744015  0.00082595  1
  Sb  Sb63  1  0.33757649  0.16144379  0.83174165  1
  Sb  Sb64  1  0.83247258  0.66705661  0.50102502  1
  Sb  Sb65  1  0.83280218  0.33520126  0.82782621  1
  Sb  Sb66  1  0.49897796  0.50015918  0.33448204  1
  Sb  Sb67  1  0.66866450  0.66594723  0.33205387  1
  Sb  Sb68  1  0.33570853  0.66770879  0.66855668  1
  Sb  Sb69  1  0.66566947  0.33366767  0.66102494  1
  Sb  Sb70  1  0.33348125  0.66512757  0.00162317  1
  Sb  Sb71  1  0.66032950  -0.00733890  -0.00621216  1
  Sb  Sb72  1  0.83703171  0.33481198  0.17109582  1
  Sb  Sb73  1  0.32989668  0.66977875  0.32902406  1
  Sb  Sb74  1  0.16458745  0.66533061  0.49825650  1
  Sb  Sb75  1  0.49974002  0.33230524  0.82867778  1
  Sb  Sb76  1  0.49889656  0.16758191  0.66142366  1
  Sb  Sb77  1  0.00098207  0.17340819  0.16720669  1
  Sb  Sb78  1  0.33440275  0.16644463  0.16941996  1
  Sb  Sb79  1  0.50277946  0.66805503  0.49782009  1
  Sb  Sb80  1  0.83266361  0.66631700  0.83459308  1
  Sb  Sb81  1  -0.00150728  0.66121415  0.66934622  1
  Sb  Sb82  1  0.00915333  0.82571251  0.16767253  1
  Sb  Sb83  1  0.50056225  0.83363404  0.66734089  1
  Sb  Sb84  1  0.49380168  -0.00377845  0.16945818  1
  Sb  Sb85  1  0.33635984  0.83722635  0.49886344  1
  Sb  Sb86  1  -0.00338007  0.82923721  0.50031904  1
  Sb  Sb87  1  0.83257158  0.16307340  0.33956784  1
  Sb  Sb88  1  0.66502720  0.34043363  0.00370695  1
  Sb  Sb89  1  0.83318615  0.50004347  0.66910105  1
  Sb  Sb90  1  0.00915506  -0.00584060  0.33535898  1
  Sb  Sb91  1  0.33334363  0.49485841  0.49869158  1
  Sb  Sb92  1  0.82522222  -0.00237080  0.82643928  1
  Sb  Sb93  1  0.66645136  0.16659663  0.50263178  1
  Sb  Sb94  1  0.66039519  0.83609990  0.16692051  1
  Sb  Sb95  1  0.33170202  0.16637937  0.49863945  1
  Sb  Sb96  1  0.17490391  -0.00654104  0.82772994  1
  Sb  Sb97  1  0.49924024  0.67015947  0.83785272  1
  Sb  Sb98  1  0.16703867  0.49947866  0.33132514  1
  Sb  Sb99  1  0.16820287  0.17324787  -0.00010174  1
  Sb  Sb100  1  0.16722446  0.33816486  0.82997221  1
  Sb  Sb101  1  0.83488608  0.50247672  0.33218427  1
  Sb  Sb102  1  0.49980320  0.16647526  0.00437558  1
  Sb  Sb103  1  0.33275197  0.50375866  0.83770345  1
  Sb  Sb104  1  -0.00004725  0.82623669  0.83382454  1
  Sb  Sb105  1  0.49308166  0.33770968  0.17138498  1
  Sb  Sb106  1  0.66418718  0.49859795  0.16405184  1
  Sb  Sb107  1  0.83099101  0.16717050  -0.00559195  1
  Te  Te108  1  0.16591666  0.16698733  0.16881783  1
  Te  Te109  1  0.16618966  0.16681115  0.50062618  1
  Te  Te110  1  0.16637372  0.16439160  0.82583999  1
  Te  Te111  1  0.16840784  0.49971918  0.16697338  1
  Te  Te112  1  0.16590880  0.49736510  0.50317363  1
  Te  Te113  1  0.16718020  0.50363859  0.83258134  1
  Te  Te114  1  0.17238712  0.83462625  0.16846263  1
  Te  Te115  1  0.16574726  0.83429211  0.49965553  1
  Te  Te116  1  0.16733644  0.82749203  0.83091624  1
  Te  Te117  1  0.50554724  0.16725201  0.17277906  1
  Te  Te118  1  0.50133237  0.16649875  0.49389234  1
  Te  Te119  1  0.50602842  0.16056646  0.83363550  1
  Te  Te120  1  0.49705299  0.50488821  0.16349100  1
  Te  Te121  1  0.50327028  0.49768257  0.50263960  1
  Te  Te122  1  0.50201951  0.50017325  0.83246182  1
  Te  Te123  1  0.49495310  0.83063662  0.16568955  1
  Te  Te124  1  0.50535869  0.83612380  0.49689708  1
  Te  Te125  1  0.50094472  0.83554716  0.83459060  1
  Te  Te126  1  0.82778797  0.16580517  0.16766385  1
  Te  Te127  1  0.83415735  0.16516465  0.50498069  1
  Te  Te128  1  0.82638446  0.16589524  0.82596163  1
  Te  Te129  1  0.83504784  0.49962942  0.16064631  1
  Te  Te130  1  0.82950470  0.49591746  0.50042972  1
  Te  Te131  1  0.82937078  0.49999835  0.83874137  1
  Te  Te132  1  0.83392394  0.83484399  0.16665830  1
  Te  Te133  1  0.83030039  0.83522017  0.50199670  1
  Te  Te134  1  0.82885424  0.83339309  0.83314379  1
  Te  Te135  1  0.17286689  0.00115431  -0.00016566  1
  Te  Te136  1  0.17079548  -0.00037277  0.33641695  1
  Te  Te137  1  0.16893344  -0.00413416  0.66320329  1
  Te  Te138  1  0.16806597  0.33725382  -0.00005975  1
  Te  Te139  1  0.16977634  0.33212228  0.33575722  1
  Te  Te140  1  0.16836121  0.33532560  0.66555235  1
  Te  Te141  1  0.16525276  0.66285962  0.00219437  1
  Te  Te142  1  0.16332387  0.67214473  0.32943728  1
  Te  Te143  1  0.16726864  0.66693459  0.66649193  1
  Te  Te144  1  0.49394183  -0.00216630  0.00059184  1
  Te  Te145  1  0.49405861  -0.00065505  0.33646659  1
  Te  Te146  1  0.49793912  0.00062435  0.66340178  1
  Te  Te147  1  0.49575601  0.33551735  0.00066815  1
  Te  Te148  1  0.49721464  0.33279178  0.33748613  1
  Te  Te149  1  0.49499989  0.33536028  0.66125958  1
  Te  Te150  1  0.50099040  0.66802933  0.00209532  1
  Te  Te151  1  0.49982606  0.67283322  0.32695779  1
  Te  Te152  1  0.50477386  0.65943554  0.66624051  1
  Te  Te153  1  0.83549817  -0.00400256  0.00147482  1
  Te  Te154  1  0.83421737  -0.00517628  0.34043754  1
  Te  Te155  1  0.83558589  -0.00110892  0.66191432  1
  Te  Te156  1  0.83471391  0.33654351  0.00110479  1
  Te  Te157  1  0.83357283  0.33202657  0.34026894  1
  Te  Te158  1  0.83457695  0.33103886  0.66074297  1
  Te  Te159  1  0.83163735  0.66670005  -0.00011853  1
  Te  Te160  1  0.83720347  0.67370863  0.33205872  1
  Te  Te161  1  0.82728779  0.67417790  0.66765854  1
  Te  Te162  1  -0.00150236  0.17287587  -0.00156372  1
  Te  Te163  1  0.00686685  0.16660666  0.33225033  1
  Te  Te164  1  0.00088981  0.17404735  0.66729035  1
  Te  Te165  1  0.00311738  0.50142950  -0.00181415  1
  Te  Te166  1  -0.00078465  0.50605394  0.33913555  1
  Te  Te167  1  0.00079187  0.49788639  0.66446925  1
  Te  Te168  1  -0.00689679  0.82745026  -0.00001870  1
  Te  Te169  1  -0.00090914  0.82736191  0.33334683  1
  Te  Te170  1  0.00489691  0.83100464  0.66812763  1
  Te  Te171  1  0.33379500  0.16799038  -0.00028897  1
  Te  Te172  1  0.33306650  0.16696316  0.33269751  1
  Te  Te173  1  0.32900314  0.16648737  0.66716613  1
  Te  Te174  1  0.33711355  0.49769030  0.00182800  1
  Te  Te175  1  0.33425138  0.49330148  0.32610815  1
  Te  Te176  1  0.33278503  0.49867090  0.66833070  1
  Te  Te177  1  0.33593218  0.83533449  0.00096439  1
  Te  Te178  1  0.33372160  0.83618193  0.33246226  1
  Te  Te179  1  0.33142716  0.83561987  0.66825215  1
  Te  Te180  1  0.66728117  0.16686046  -0.00426349  1
  Te  Te181  1  0.66533856  0.16954947  0.33246315  1
  Te  Te182  1  0.66731494  0.16300028  0.67044499  1
  Te  Te183  1  0.65709812  0.50428952  -0.00140502  1
  Te  Te184  1  0.66745110  0.49627858  0.33679587  1
  Te  Te185  1  0.66614004  0.49992864  0.66781829  1
  Te  Te186  1  0.66516623  0.82929199  -0.00008305  1
  Te  Te187  1  0.66539969  0.83339757  0.33499713  1
  Te  Te188  1  0.66373554  0.83396473  0.66629581  1
  Te  Te189  1  0.01001991  0.00065673  0.16651636  1
  Te  Te190  1  0.00316853  -0.00157228  0.50058950  1
  Te  Te191  1  -0.00061230  0.00159736  0.83516014  1
  Te  Te192  1  0.00469199  0.34015138  0.16473988  1
  Te  Te193  1  0.00314092  0.33785273  0.50225386  1
  Te  Te194  1  -0.00076886  0.34056675  0.83325480  1
  Te  Te195  1  0.00248763  0.66115591  0.16467221  1
  Te  Te196  1  -0.00130801  0.65818254  0.49790728  1
  Te  Te197  1  0.00570703  0.66002359  0.83706949  1
  Te  Te198  1  0.32998817  -0.00132308  0.16797239  1
  Te  Te199  1  0.33310588  -0.00010083  0.50132490  1
  Te  Te200  1  0.33905495  -0.00485136  0.83093706  1
  Te  Te201  1  0.32909379  0.33355376  0.16599685  1
  Te  Te202  1  0.33206122  0.33319627  0.50100125  1
  Te  Te203  1  0.33497441  0.33181612  0.83234099  1
  Te  Te204  1  0.33137610  0.66711849  0.16758161  1
  Te  Te205  1  0.33458331  0.66494455  0.49808766  1
  Te  Te206  1  0.32756552  0.67571449  0.83302004  1
  Te  Te207  1  0.66752620  0.00568735  0.16628368  1
  Te  Te208  1  0.66538295  -0.00174405  0.50402064  1
  Te  Te209  1  0.66044990  -0.00502705  0.82862235  1
  Te  Te210  1  0.66703587  0.32983611  0.17273155  1
  Te  Te211  1  0.66419550  0.33401015  0.49740330  1
  Te  Te212  1  0.66560343  0.33805187  0.83370799  1
  Te  Te213  1  0.66222310  0.66701174  0.16230121  1
  Te  Te214  1  0.66704401  0.66549007  0.50126090  1
  Te  Te215  1  0.66510781  0.66677273  0.83389278  1
