# generated using pymatgen
data_AgSbTe2
_symmetry_space_group_name_H-M   'P 1'
_cell_length_a   18.33921432
_cell_length_b   18.33368148
_cell_length_c   18.32874959
_cell_angle_alpha   90.00305708
_cell_angle_beta   89.99910384
_cell_angle_gamma   90.00108474
_symmetry_Int_Tables_number   1
_chemical_formula_structural   AgSbTe2
_chemical_formula_sum   'Ag54 Sb54 Te108'
_cell_volume   6162.58957373
_cell_formula_units_Z   54
loop_
 _symmetry_equiv_pos_site_id
 _symmetry_equiv_pos_as_xyz
  1  'x, y, z'
loop_
 _atom_site_type_symbol
 _atom_site_label
 _atom_site_symmetry_multiplicity
 _atom_site_fract_x
 _atom_site_fract_y
 _atom_site_fract_z
 _atom_site_occupancy
  Ag  Ag0  1  0.33001230  0.84076003  0.83420378  1
  Ag  Ag1  1  0.83278116  0.67173924  0.49131141  1
  Ag  Ag2  1  0.16414813  0.50330499  0.33814006  1
  Ag  Ag3  1  0.00113878  -0.00285157  0.67142970  1
  Ag  Ag4  1  0.49630843  0.67763845  0.49333829  1
  Ag  Ag5  1  0.65974036  0.16441778  0.84071401  1
  Ag  Ag6  1  0.49291935  0.00418291  0.83732027  1
  Ag  Ag7  1  0.50776899  0.50355683  -0.00195063  1
  Ag  Ag8  1  0.16305106  0.66915211  0.16657966  1
  Ag  Ag9  1  0.33484873  0.15416162  0.50381708  1
  Ag  Ag10  1  0.67568621  0.66496161  0.00492450  1
  Ag  Ag11  1  0.00526206  0.83312611  0.49701469  1
  Ag  Ag12  1  0.82753231  -0.00901888  0.16743944  1
  Ag  Ag13  1  0.16297428  0.83558451  -0.00275724  1
  Ag  Ag14  1  0.33425368  0.67541904  -0.00080824  1
  Ag  Ag15  1  0.16748393  0.83721138  0.66329424  1
  Ag  Ag16  1  0.83411203  0.51167273  0.32881185  1
  Ag  Ag17  1  0.33044401  -0.00469308  -0.00733379  1
  Ag  Ag18  1  -0.00355786  0.83223177  0.16240729  1
  Ag  Ag19  1  0.33473841  0.50110692  0.83500125  1
  Ag  Ag20  1  0.34048364  0.15724128  0.83244368  1
  Ag  Ag21  1  0.66646168  0.83334898  0.49812145  1
  Ag  Ag22  1  0.66092656  -0.00315862  0.33440217  1
  Ag  Ag23  1  0.17528675  -0.00276933  0.83533361  1
  Ag  Ag24  1  0.49946643  0.15839567  -0.00224060  1
  Ag  Ag25  1  0.66757126  0.34259495  -0.00344843  1
  Ag  Ag26  1  0.82489012  0.15678252  0.33200944  1
  Ag  Ag27  1  0.67037213  0.49877215  0.83999254  1
  Ag  Ag28  1  0.17046842  0.33259401  0.49945426  1
  Ag  Ag29  1  0.66545646  0.00025590  0.66315683  1
  Ag  Ag30  1  0.83971911  0.82510922  0.00662212  1
  Ag  Ag31  1  0.16989420  0.67399286  0.49396393  1
  Ag  Ag32  1  0.33208491  0.33075392  0.66600392  1
  Ag  Ag33  1  -0.01179016  0.67385690  0.00087671  1
  Ag  Ag34  1  0.66497598  0.16086219  0.16274203  1
  Ag  Ag35  1  0.00884463  -0.00927715  -0.00247764  1
  Ag  Ag36  1  0.82689848  0.51233513  -0.00172265  1
  Ag  Ag37  1  0.34187828  -0.00011513  0.34395741  1
  Ag  Ag38  1  0.83216334  0.82962655  0.32667649  1
  Ag  Ag39  1  0.83061720  0.67215222  0.16363236  1
  Ag  Ag40  1  0.32829958  0.83688340  0.50298981  1
  Ag  Ag41  1  -0.01111826  0.50175702  0.83660996  1
  Ag  Ag42  1  0.67173180  0.67320602  0.32631638  1
  Ag  Ag43  1  0.50369473  0.15958994  0.33133869  1
  Ag  Ag44  1  0.83062206  0.34382955  0.83587510  1
  Ag  Ag45  1  0.83245331  0.66400427  0.84809715  1
  Ag  Ag46  1  -0.00155407  0.33522172  0.33460565  1
  Ag  Ag47  1  0.50302517  -0.00201788  0.17068080  1
  Ag  Ag48  1  0.50730852  0.67346125  0.16530516  1
  Ag  Ag49  1  0.17648612  -0.00793899  0.50436636  1
  Ag  Ag50  1  0.49415917  -0.00290139  0.49526307  1
  Ag  Ag51  1  0.33154261  0.50541545  0.50084125  1
  Ag  Ag52  1  0.17764590  0.15353028  -0.00188341  1
  Ag  Ag53  1  0.49622444  0.16063173  0.67351048  1
  Sb  Sb54  1  0.00462317  0.32851274  0.66429266  1
  Sb  Sb55  1  0.33374676  0.50439073  0.16575196  1
  Sb  Sb56  1  0.00409314  0.83132475  0.83765014  1
  Sb  Sb57  1  -0.00019114  0.16723175  0.83545653  1
  Sb  Sb58  1  0.65834505  0.15882927  0.49825674  1
  Sb  Sb59  1  0.16621244  0.50577633  0.00129329  1
  Sb  Sb60  1  0.16895353  0.16653904  0.33068800  1
  Sb  Sb61  1  0.33027317  0.32908162  0.34101021  1
  Sb  Sb62  1  0.16790334  -0.00507836  0.16419821  1
  Sb  Sb63  1  0.83279855  -0.00307464  0.84022191  1
  Sb  Sb64  1  0.82754026  0.16452627  0.00294016  1
  Sb  Sb65  1  -0.00510641  0.15891716  0.16607054  1
  Sb  Sb66  1  -0.00124944  -0.00139818  0.33156854  1
  Sb  Sb67  1  0.66199564  0.32739427  0.67319541  1
  Sb  Sb68  1  0.32894151  0.83416103  0.16558973  1
  Sb  Sb69  1  0.66669435  0.67244023  0.66701277  1
  Sb  Sb70  1  0.16668035  0.33028952  0.82976196  1
  Sb  Sb71  1  0.50240281  0.32927321  0.16390119  1
  Sb  Sb72  1  0.00578002  0.15955669  0.49799538  1
  Sb  Sb73  1  0.00106472  0.67214463  0.66959913  1
  Sb  Sb74  1  0.17352992  0.15796008  0.66969893  1
  Sb  Sb75  1  0.66382080  -0.00375855  0.00350589  1
  Sb  Sb76  1  0.83855973  0.33889208  0.49895364  1
  Sb  Sb77  1  0.33728142  0.67192036  0.33333982  1
  Sb  Sb78  1  0.49415127  0.32938986  0.50019033  1
  Sb  Sb79  1  0.83863231  0.83474453  0.66678832  1
  Sb  Sb80  1  -0.00447077  0.33424385  0.00223531  1
  Sb  Sb81  1  0.66730805  0.50221071  0.16103187  1
  Sb  Sb82  1  0.66334057  0.50854852  0.50262419  1
  Sb  Sb83  1  0.33627796  0.00261716  0.66767418  1
  Sb  Sb84  1  0.49882255  0.83399028  0.00086452  1
  Sb  Sb85  1  0.33805458  0.33057360  -0.00666713  1
  Sb  Sb86  1  0.33889231  0.16170965  0.16363692  1
  Sb  Sb87  1  0.16848792  0.50562813  0.66359008  1
  Sb  Sb88  1  0.83176815  -0.00616417  0.49311240  1
  Sb  Sb89  1  0.83228867  0.33508164  0.16402111  1
  Sb  Sb90  1  0.67154800  0.33117635  0.32957116  1
  Sb  Sb91  1  0.67304471  0.83503901  0.17095123  1
  Sb  Sb92  1  0.83291278  0.50181096  0.67166054  1
  Sb  Sb93  1  -0.00226241  0.50762388  0.16363151  1
  Sb  Sb94  1  0.33349224  0.66630189  0.66732118  1
  Sb  Sb95  1  0.49806286  0.49714918  0.67204201  1
  Sb  Sb96  1  -0.00621817  0.66605563  0.32814337  1
  Sb  Sb97  1  0.50304770  0.32584521  0.83504924  1
  Sb  Sb98  1  0.50084807  0.49968053  0.33031114  1
  Sb  Sb99  1  0.50126256  0.66948165  0.83694514  1
  Sb  Sb100  1  0.50604150  0.83909151  0.33463886  1
  Sb  Sb101  1  0.66333557  0.83526663  0.83138265  1
  Sb  Sb102  1  0.82655810  0.16414620  0.66264019  1
  Sb  Sb103  1  0.49424466  0.84001274  0.66376278  1
  Sb  Sb104  1  0.16533728  0.33779268  0.16992541  1
  Sb  Sb105  1  0.16293324  0.82971386  0.33452970  1
  Sb  Sb106  1  0.00392512  0.50737343  0.50146794  1
  Sb  Sb107  1  0.16540055  0.67103400  0.83717364  1
  Te  Te108  1  0.16515096  0.16850087  0.15980605  1
  Te  Te109  1  0.17346328  0.16605525  0.49957615  1
  Te  Te110  1  0.16858108  0.16219123  0.83776887  1
  Te  Te111  1  0.16582437  0.50640046  0.17375098  1
  Te  Te112  1  0.16868967  0.50324059  0.49811026  1
  Te  Te113  1  0.17412020  0.49971372  0.83232176  1
  Te  Te114  1  0.16079524  0.82860082  0.16294302  1
  Te  Te115  1  0.16748587  0.83380876  0.49647542  1
  Te  Te116  1  0.17004058  0.83656876  0.83624260  1
  Te  Te117  1  0.50358767  0.16292855  0.16468113  1
  Te  Te118  1  0.49457754  0.16301352  0.49684798  1
  Te  Te119  1  0.49951631  0.16379181  0.83594702  1
  Te  Te120  1  0.50039109  0.50608344  0.16123570  1
  Te  Te121  1  0.49493090  0.50031563  0.50016840  1
  Te  Te122  1  0.49764022  0.50179338  0.83741772  1
  Te  Te123  1  0.49788275  0.83355052  0.16791607  1
  Te  Te124  1  0.49767652  0.83565116  0.49984584  1
  Te  Te125  1  0.49323003  0.83926797  0.83164140  1
  Te  Te126  1  0.82827767  0.16653852  0.17139614  1
  Te  Te127  1  0.83356472  0.16887028  0.49329411  1
  Te  Te128  1  0.82924999  0.16635453  0.83268585  1
  Te  Te129  1  0.83314095  0.50466015  0.16619183  1
  Te  Te130  1  0.83382319  0.50621634  0.49742700  1
  Te  Te131  1  0.83041101  0.50343654  0.83497360  1
  Te  Te132  1  0.83458246  0.83292714  0.16633733  1
  Te  Te133  1  0.83262632  0.83098871  0.50024909  1
  Te  Te134  1  0.83254626  0.82703350  0.83588450  1
  Te  Te135  1  0.16850524  -0.00312221  0.00198981  1
  Te  Te136  1  0.16935261  0.00075765  0.33586696  1
  Te  Te137  1  0.16316707  -0.00283616  0.66594522  1
  Te  Te138  1  0.16570341  0.33201825  0.00041858  1
  Te  Te139  1  0.16307168  0.33688084  0.33746962  1
  Te  Te140  1  0.17005830  0.33276334  0.66072929  1
  Te  Te141  1  0.17502870  0.66946975  0.00275938  1
  Te  Te142  1  0.16864996  0.66390300  0.33263257  1
  Te  Te143  1  0.16616122  0.67467782  0.65993122  1
  Te  Te144  1  0.49792301  0.00002933  -0.00028968  1
  Te  Te145  1  0.50106256  0.00110733  0.33339716  1
  Te  Te146  1  0.50415005  0.00278540  0.66524762  1
  Te  Te147  1  0.50622144  0.33904004  0.00036364  1
  Te  Te148  1  0.50180230  0.32608078  0.33214876  1
  Te  Te149  1  0.49414752  0.32502354  0.66690454  1
  Te  Te150  1  0.49451953  0.66695960  0.00134481  1
  Te  Te151  1  0.50540060  0.66421745  0.33262900  1
  Te  Te152  1  0.50130946  0.66577749  0.65644427  1
  Te  Te153  1  0.83492666  -0.00252383  0.00620335  1
  Te  Te154  1  0.83241550  -0.00082448  0.32780883  1
  Te  Te155  1  0.83281194  0.00083733  0.66742432  1
  Te  Te156  1  0.82888989  0.33384774  -0.00352719  1
  Te  Te157  1  0.83711609  0.33674439  0.33330912  1
  Te  Te158  1  0.83482389  0.33251598  0.67268671  1
  Te  Te159  1  0.83244939  0.66782658  0.00370781  1
  Te  Te160  1  0.83212293  0.66878855  0.33239787  1
  Te  Te161  1  0.83372683  0.66712457  0.65662275  1
  Te  Te162  1  0.00188361  0.16452056  0.00071875  1
  Te  Te163  1  -0.00297400  0.17025434  0.33270179  1
  Te  Te164  1  -0.00089469  0.15898260  0.66647786  1
  Te  Te165  1  -0.00252901  0.50187255  -0.00338974  1
  Te  Te166  1  -0.00129339  0.49869478  0.33396089  1
  Te  Te167  1  0.00085876  0.49846480  0.67532520  1
  Te  Te168  1  0.00077285  0.83272260  -0.00119393  1
  Te  Te169  1  -0.00663458  0.83299610  0.33519027  1
  Te  Te170  1  0.00571309  0.83881818  0.66339194  1
  Te  Te171  1  0.33668000  0.16520572  -0.00322512  1
  Te  Te172  1  0.33699786  0.16165509  0.33550425  1
  Te  Te173  1  0.33627250  0.16912198  0.66790572  1
  Te  Te174  1  0.33420983  0.49838230  -0.00213684  1
  Te  Te175  1  0.33126888  0.49896769  0.33781178  1
  Te  Te176  1  0.33399525  0.49562068  0.66614191  1
  Te  Te177  1  0.33216804  0.83511909  -0.00076913  1
  Te  Te178  1  0.33131374  0.83955454  0.33881442  1
  Te  Te179  1  0.32764790  0.83181034  0.66792573  1
  Te  Te180  1  0.66282042  0.16247605  0.00031169  1
  Te  Te181  1  0.66586395  0.16562160  0.33214005  1
  Te  Te182  1  0.65985092  0.16081777  0.66849919  1
  Te  Te183  1  0.66765870  0.50293743  -0.00118241  1
  Te  Te184  1  0.67173043  0.50127798  0.33346362  1
  Te  Te185  1  0.66519965  0.49812552  0.67633132  1
  Te  Te186  1  0.67147237  0.82628970  -0.00220396  1
  Te  Te187  1  0.67149923  0.83311240  0.33741433  1
  Te  Te188  1  0.66674571  0.84001987  0.66159544  1
  Te  Te189  1  -0.00249710  -0.00659105  0.16263112  1
  Te  Te190  1  0.00117722  -0.00520811  0.50037990  1
  Te  Te191  1  0.00125830  -0.00012476  0.83624798  1
  Te  Te192  1  -0.00012047  0.33253879  0.17320323  1
  Te  Te193  1  0.00689826  0.33348480  0.49756418  1
  Te  Te194  1  -0.00436940  0.33789690  0.83289825  1
  Te  Te195  1  -0.00057913  0.67182450  0.16161412  1
  Te  Te196  1  0.00221127  0.67174645  0.50145893  1
  Te  Te197  1  -0.00253196  0.66304533  0.83754173  1
  Te  Te198  1  0.33864470  -0.00053946  0.16524858  1
  Te  Te199  1  0.33351436  -0.00178965  0.50327034  1
  Te  Te200  1  0.33229394  0.00087231  0.83255829  1
  Te  Te201  1  0.33304790  0.33375136  0.16764125  1
  Te  Te202  1  0.32941078  0.34012382  0.50399273  1
  Te  Te203  1  0.33266529  0.33757310  0.82809335  1
  Te  Te204  1  0.33411842  0.66818363  0.16353576  1
  Te  Te205  1  0.33388236  0.66721460  0.49977266  1
  Te  Te206  1  0.33357934  0.66417826  0.83586361  1
  Te  Te207  1  0.66454295  0.00031089  0.16990806  1
  Te  Te208  1  0.66516182  -0.00417637  0.49565907  1
  Te  Te209  1  0.66494953  0.00256609  0.83189704  1
  Te  Te210  1  0.66713272  0.32425938  0.15949837  1
  Te  Te211  1  0.66802222  0.33594301  0.50219853  1
  Te  Te212  1  0.66975320  0.33223147  0.83680512  1
  Te  Te213  1  0.66662519  0.66723050  0.16642906  1
  Te  Te214  1  0.66585694  0.67158875  0.49968378  1
  Te  Te215  1  0.66913027  0.66533869  0.83466145  1
