# generated using pymatgen
data_AgSbTe2
_symmetry_space_group_name_H-M   'P 1'
_cell_length_a   18.32327672
_cell_length_b   18.32453286
_cell_length_c   18.32401878
_cell_angle_alpha   89.99800590
_cell_angle_beta   90.00205907
_cell_angle_gamma   90.00287086
_symmetry_Int_Tables_number   1
_chemical_formula_structural   AgSbTe2
_chemical_formula_sum   'Ag54 Sb54 Te108'
_cell_volume   6152.57306537
_cell_formula_units_Z   54
loop_
 _symmetry_equiv_pos_site_id
 _symmetry_equiv_pos_as_xyz
  1  'x, y, z'
loop_
 _atom_site_type_symbol
 _atom_site_label
 _atom_site_symmetry_multiplicity
 _atom_site_fract_x
 _atom_site_fract_y
 _atom_site_fract_z
 _atom_site_occupancy
  Ag  Ag0  1  0.83549876  0.83386138  0.33469457  1
  Ag  Ag1  1  0.00149578  0.15639997  0.17416864  1
  Ag  Ag2  1  0.49846066  -0.01079483  0.49918060  1
  Ag  Ag3  1  0.83482772  0.49910494  0.65435456  1
  Ag  Ag4  1  0.83403524  0.33690740  0.83466560  1
  Ag  Ag5  1  0.00308524  0.16029281  0.49286134  1
  Ag  Ag6  1  0.31993317  0.16793097  0.49939386  1
  Ag  Ag7  1  0.66976599  0.16826639  0.83839062  1
  Ag  Ag8  1  0.15767058  0.15855467  0.33562862  1
  Ag  Ag9  1  0.16847952  0.66912398  0.83925345  1
  Ag  Ag10  1  0.00313884  -0.00651894  0.65565712  1
  Ag  Ag11  1  0.50101662  0.50476012  0.66712097  1
  Ag  Ag12  1  0.49972827  0.82911936  0.00266697  1
  Ag  Ag13  1  0.33265959  0.33764038  0.67078079  1
  Ag  Ag14  1  0.83262232  0.49976370  0.34228740  1
  Ag  Ag15  1  0.32894410  0.82524905  0.83470479  1
  Ag  Ag16  1  0.66959681  0.67009310  0.33761802  1
  Ag  Ag17  1  0.67039981  0.00373014  0.00153294  1
  Ag  Ag18  1  0.32940777  0.34249135  -0.00278060  1
  Ag  Ag19  1  0.83062545  0.65722187  0.49684570  1
  Ag  Ag20  1  0.00188971  0.00311605  0.01393364  1
  Ag  Ag21  1  0.33064327  0.65519581  -0.00149278  1
  Ag  Ag22  1  0.66734509  0.82779694  0.49344562  1
  Ag  Ag23  1  0.83841898  0.34366043  0.49886387  1
  Ag  Ag24  1  -0.00867073  0.50071303  0.50420180  1
  Ag  Ag25  1  0.83982369  0.16452506  0.33345387  1
  Ag  Ag26  1  0.66959538  0.83450523  0.17680005  1
  Ag  Ag27  1  0.00198531  0.66801889  0.66284064  1
  Ag  Ag28  1  0.50750583  0.67195053  0.50026427  1
  Ag  Ag29  1  0.15952649  -0.00483435  0.16802117  1
  Ag  Ag30  1  0.15754811  0.83933354  0.33673489  1
  Ag  Ag31  1  0.50856606  0.83300699  0.34005464  1
  Ag  Ag32  1  0.49586544  0.82810502  0.65534381  1
  Ag  Ag33  1  0.00217424  0.33446960  -0.00055807  1
  Ag  Ag34  1  0.32561379  0.50274298  0.84338577  1
  Ag  Ag35  1  0.67846725  0.50778514  0.49719572  1
  Ag  Ag36  1  0.16140099  0.00296747  0.49647477  1
  Ag  Ag37  1  0.17313062  0.49656695  -0.00152972  1
  Ag  Ag38  1  0.16570737  0.67226218  0.16268306  1
  Ag  Ag39  1  0.84745280  -0.00261531  0.16861247  1
  Ag  Ag40  1  0.50063137  0.33585357  0.16349587  1
  Ag  Ag41  1  0.00046850  0.83838113  0.49338591  1
  Ag  Ag42  1  0.00041123  0.84390489  0.17504168  1
  Ag  Ag43  1  0.00249541  0.49911515  0.83381407  1
  Ag  Ag44  1  0.83587643  0.49592759  0.00000784  1
  Ag  Ag45  1  0.16401705  -0.00522661  0.83560013  1
  Ag  Ag46  1  0.33241926  0.49931326  0.15609478  1
  Ag  Ag47  1  0.16635981  0.83584997  0.66160025  1
  Ag  Ag48  1  0.16295068  0.16940239  0.00447316  1
  Ag  Ag49  1  0.15705248  0.32491861  0.49913329  1
  Ag  Ag50  1  0.48849874  0.50050118  -0.00259356  1
  Ag  Ag51  1  0.67076565  0.33755218  0.33117472  1
  Ag  Ag52  1  0.00094235  -0.00086535  0.33054460  1
  Ag  Ag53  1  0.66824427  0.33430472  0.00325966  1
  Sb  Sb54  1  0.16819181  0.83284396  0.00082520  1
  Sb  Sb55  1  0.66957040  0.66615244  0.65882742  1
  Sb  Sb56  1  0.49873448  -0.00104604  0.16998431  1
  Sb  Sb57  1  0.33563782  0.66737725  0.33061908  1
  Sb  Sb58  1  0.84035230  0.17103126  0.00484899  1
  Sb  Sb59  1  0.67122671  -0.00264954  0.66772881  1
  Sb  Sb60  1  0.66478980  0.33560643  0.66577940  1
  Sb  Sb61  1  0.32851815  0.00090260  -0.00061739  1
  Sb  Sb62  1  0.66210512  0.83681112  0.83373033  1
  Sb  Sb63  1  0.33158379  0.49614111  0.50177288  1
  Sb  Sb64  1  0.66445230  0.50176058  0.16970786  1
  Sb  Sb65  1  0.83038254  0.83143825  0.00643598  1
  Sb  Sb66  1  0.67273926  0.16295942  0.16435197  1
  Sb  Sb67  1  0.32374443  -0.00093973  0.33504942  1
  Sb  Sb68  1  0.33236331  0.83560553  0.50249283  1
  Sb  Sb69  1  0.67356418  -0.00401964  0.33046526  1
  Sb  Sb70  1  0.49680090  0.66509280  0.16904131  1
  Sb  Sb71  1  0.16494291  0.16209379  0.66258918  1
  Sb  Sb72  1  0.84020799  0.00371810  0.83939264  1
  Sb  Sb73  1  0.84110853  0.65946551  0.82774541  1
  Sb  Sb74  1  0.16723173  0.33226500  0.16681271  1
  Sb  Sb75  1  0.33610613  0.33365308  0.33202502  1
  Sb  Sb76  1  0.49739235  0.16901837  0.00164472  1
  Sb  Sb77  1  0.50584115  0.50353866  0.33460387  1
  Sb  Sb78  1  -0.00480244  0.67403349  0.33889145  1
  Sb  Sb79  1  0.16322010  0.33463801  0.83311852  1
  Sb  Sb80  1  0.50250043  0.33605841  0.49698746  1
  Sb  Sb81  1  0.49854805  0.16687062  0.66433334  1
  Sb  Sb82  1  -0.00136475  0.16940077  0.83420618  1
  Sb  Sb83  1  0.32977662  0.82895472  0.16241897  1
  Sb  Sb84  1  0.32474277  0.17077958  0.16969914  1
  Sb  Sb85  1  0.16009983  0.50117973  0.33084266  1
  Sb  Sb86  1  0.83142777  0.33137116  0.16863258  1
  Sb  Sb87  1  0.33234905  0.16937499  0.83119296  1
  Sb  Sb88  1  0.83955845  -0.00107212  0.49447854  1
  Sb  Sb89  1  0.32953603  0.66468136  0.67090951  1
  Sb  Sb90  1  0.83624453  0.17130686  0.66206700  1
  Sb  Sb91  1  0.00545788  0.66464791  -0.00260644  1
  Sb  Sb92  1  0.00547609  0.83145749  0.83180044  1
  Sb  Sb93  1  0.50268253  0.33643091  0.83827858  1
  Sb  Sb94  1  0.83846197  0.82736592  0.65639523  1
  Sb  Sb95  1  0.83808515  0.67031208  0.17257955  1
  Sb  Sb96  1  0.16430744  0.50389746  0.67137736  1
  Sb  Sb97  1  -0.00489501  0.32753584  0.33311591  1
  Sb  Sb98  1  0.49452336  0.66628054  0.83008286  1
  Sb  Sb99  1  0.32783099  0.00007317  0.66451171  1
  Sb  Sb100  1  0.66243605  0.66428210  0.00570366  1
  Sb  Sb101  1  0.16322666  0.66882026  0.49975358  1
  Sb  Sb102  1  0.00237053  0.50041774  0.16546478  1
  Sb  Sb103  1  0.49596715  -0.00311316  0.83027892  1
  Sb  Sb104  1  0.66945480  0.49700740  0.83223750  1
  Sb  Sb105  1  0.00290076  0.33625496  0.66490731  1
  Sb  Sb106  1  0.50181790  0.16193027  0.33461525  1
  Sb  Sb107  1  0.67167150  0.16604562  0.49985622  1
  Te  Te108  1  0.16184590  0.16512302  0.16761896  1
  Te  Te109  1  0.16280666  0.16571809  0.49952731  1
  Te  Te110  1  0.16739917  0.16232533  0.83881323  1
  Te  Te111  1  0.16967811  0.50237114  0.16325712  1
  Te  Te112  1  0.16235923  0.49868047  0.50030073  1
  Te  Te113  1  0.16514907  0.50058329  0.83669796  1
  Te  Te114  1  0.16485913  0.83388652  0.16840780  1
  Te  Te115  1  0.16488068  0.83469048  0.49884389  1
  Te  Te116  1  0.16882892  0.83276179  0.83315743  1
  Te  Te117  1  0.49863277  0.17157836  0.16836714  1
  Te  Te118  1  0.50057088  0.16281088  0.49954406  1
  Te  Te119  1  0.50545983  0.16521517  0.83281928  1
  Te  Te120  1  0.49703695  0.49771992  0.16383627  1
  Te  Te121  1  0.50034371  0.50294274  0.50334595  1
  Te  Te122  1  0.49913050  0.50082366  0.83328098  1
  Te  Te123  1  0.50149380  0.83323638  0.16470466  1
  Te  Te124  1  0.49579519  0.83248828  0.49947657  1
  Te  Te125  1  0.49386840  0.83343024  0.83778102  1
  Te  Te126  1  0.83941320  0.16135334  0.17209771  1
  Te  Te127  1  0.83874325  0.16881017  0.49447087  1
  Te  Te128  1  0.83041903  0.17244517  0.83267095  1
  Te  Te129  1  0.83326127  0.50160199  0.16213353  1
  Te  Te130  1  0.83412538  0.50031263  0.49878755  1
  Te  Te131  1  0.83642076  0.49643708  0.83856939  1
  Te  Te132  1  0.83412369  0.83610028  0.17138186  1
  Te  Te133  1  0.83483404  0.83231037  0.49577848  1
  Te  Te134  1  0.83245134  0.83249954  0.83106733  1
  Te  Te135  1  0.16374309  0.00076866  0.00139418  1
  Te  Te136  1  0.16278961  -0.00021504  0.33496021  1
  Te  Te137  1  0.16315633  -0.00389397  0.66411735  1
  Te  Te138  1  0.16491222  0.33543507  0.00003691  1
  Te  Te139  1  0.16719482  0.33211829  0.33888242  1
  Te  Te140  1  0.17080446  0.33337198  0.66182516  1
  Te  Te141  1  0.16977784  0.66484446  -0.00070246  1
  Te  Te142  1  0.16723757  0.67042324  0.32836945  1
  Te  Te143  1  0.16298010  0.67279459  0.66808128  1
  Te  Te144  1  0.50287900  -0.00122918  -0.00005197  1
  Te  Te145  1  0.50043535  -0.00562635  0.33824637  1
  Te  Te146  1  0.50089674  -0.00467127  0.66164921  1
  Te  Te147  1  0.50160695  0.33554865  0.00260629  1
  Te  Te148  1  0.50573600  0.33324909  0.32812372  1
  Te  Te149  1  0.49574001  0.33739458  0.66655049  1
  Te  Te150  1  0.49517110  0.66449948  0.00015955  1
  Te  Te151  1  0.50436452  0.67144156  0.33711859  1
  Te  Te152  1  0.49964450  0.66682822  0.66296524  1
  Te  Te153  1  0.83365760  0.00011742  0.00547897  1
  Te  Te154  1  0.83780832  -0.00129208  0.32887610  1
  Te  Te155  1  0.84074319  -0.00040383  0.66967348  1
  Te  Te156  1  0.83242603  0.33406971  0.00050169  1
  Te  Te157  1  0.83076782  0.33621784  0.33510325  1
  Te  Te158  1  0.83351979  0.33853843  0.66592085  1
  Te  Te159  1  0.83267687  0.66116126  -0.00127001  1
  Te  Te160  1  0.82974673  0.66727452  0.33693053  1
  Te  Te161  1  0.83937569  0.66039719  0.66091089  1
  Te  Te162  1  0.00381334  0.16591025  -0.00052229  1
  Te  Te163  1  0.00054409  0.16695843  0.33349328  1
  Te  Te164  1  -0.00045138  0.16176128  0.66122231  1
  Te  Te165  1  -0.00123498  0.49872233  -0.00160202  1
  Te  Te166  1  -0.00631725  0.49968968  0.33646917  1
  Te  Te167  1  -0.00192667  0.50080191  0.66614097  1
  Te  Te168  1  -0.00144738  0.83765837  0.00280726  1
  Te  Te169  1  -0.00077833  0.83482947  0.33362191  1
  Te  Te170  1  0.00318396  0.83251750  0.66508898  1
  Te  Te171  1  0.32686499  0.17186011  0.00019832  1
  Te  Te172  1  0.32971891  0.16720215  0.33896027  1
  Te  Te173  1  0.33377912  0.17411685  0.66257871  1
  Te  Te174  1  0.33287079  0.49858036  -0.00091490  1
  Te  Te175  1  0.33223347  0.50016708  0.32840566  1
  Te  Te176  1  0.33553387  0.49766967  0.66864559  1
  Te  Te177  1  0.33797715  0.83371649  -0.00432343  1
  Te  Te178  1  0.33444129  0.83254916  0.33195712  1
  Te  Te179  1  0.33340449  0.83272896  0.67228448  1
  Te  Te180  1  0.66642516  0.16780422  -0.00110415  1
  Te  Te181  1  0.67174112  0.17113060  0.33291228  1
  Te  Te182  1  0.66708298  0.16642899  0.67366778  1
  Te  Te183  1  0.66925740  0.49629796  0.00098224  1
  Te  Te184  1  0.67019881  0.49975210  0.33627760  1
  Te  Te185  1  0.66517111  0.50020517  0.66240976  1
  Te  Te186  1  0.66224623  0.83386703  0.00098331  1
  Te  Te187  1  0.66792261  0.83502456  0.33566500  1
  Te  Te188  1  0.66068023  0.83316312  0.66301695  1
  Te  Te189  1  0.00331932  0.00005815  0.16944075  1
  Te  Te190  1  0.00092879  -0.00161703  0.49702716  1
  Te  Te191  1  0.00523655  0.00065995  0.83219009  1
  Te  Te192  1  -0.00038189  0.33163417  0.15911524  1
  Te  Te193  1  -0.00094229  0.33551190  0.49934026  1
  Te  Te194  1  -0.00390601  0.33710932  0.83613188  1
  Te  Te195  1  0.00596720  0.66970947  0.16659669  1
  Te  Te196  1  -0.00142660  0.66635162  0.50283311  1
  Te  Te197  1  0.00726588  0.66131895  0.82881542  1
  Te  Te198  1  0.32568882  0.00144136  0.16635328  1
  Te  Te199  1  0.33125096  0.00599668  0.50119304  1
  Te  Te200  1  0.32578394  -0.00047715  0.83196348  1
  Te  Te201  1  0.33638421  0.33746816  0.16235570  1
  Te  Te202  1  0.33365597  0.32938769  0.50058423  1
  Te  Te203  1  0.33318280  0.33726009  0.83498720  1
  Te  Te204  1  0.32853886  0.66181601  0.16128931  1
  Te  Te205  1  0.33895471  0.66510191  0.49967373  1
  Te  Te206  1  0.32893561  0.66419438  0.83662320  1
  Te  Te207  1  0.66494673  -0.00435665  0.16117304  1
  Te  Te208  1  0.66441067  -0.00419570  0.50050600  1
  Te  Te209  1  0.66775049  0.00434921  0.83935932  1
  Te  Te210  1  0.66381183  0.33195991  0.16527699  1
  Te  Te211  1  0.67102272  0.33401241  0.49721595  1
  Te  Te212  1  0.67169601  0.33047264  0.83689005  1
  Te  Te213  1  0.66720607  0.67363407  0.17393932  1
  Te  Te214  1  0.66801320  0.66775136  0.49755425  1
  Te  Te215  1  0.66833181  0.66746742  0.83427764  1
