# generated using pymatgen
data_AgSbTe2
_symmetry_space_group_name_H-M   'P 1'
_cell_length_a   18.33874167
_cell_length_b   18.33862677
_cell_length_c   18.33396080
_cell_angle_alpha   89.99925333
_cell_angle_beta   90.00043680
_cell_angle_gamma   89.99960863
_symmetry_Int_Tables_number   1
_chemical_formula_structural   AgSbTe2
_chemical_formula_sum   'Ag54 Sb54 Te108'
_cell_volume   6165.84556786
_cell_formula_units_Z   54
loop_
 _symmetry_equiv_pos_site_id
 _symmetry_equiv_pos_as_xyz
  1  'x, y, z'
loop_
 _atom_site_type_symbol
 _atom_site_label
 _atom_site_symmetry_multiplicity
 _atom_site_fract_x
 _atom_site_fract_y
 _atom_site_fract_z
 _atom_site_occupancy
  Ag  Ag0  1  0.65872396  0.33251444  -0.00150171  1
  Ag  Ag1  1  0.49272593  0.67263906  0.83289906  1
  Ag  Ag2  1  0.16458212  0.18024630  0.66952362  1
  Ag  Ag3  1  0.16245987  0.50034056  0.66320565  1
  Ag  Ag4  1  0.48972632  0.50126333  0.33652933  1
  Ag  Ag5  1  0.49630008  0.33235723  0.50000619  1
  Ag  Ag6  1  0.33491842  0.32656508  -0.00017978  1
  Ag  Ag7  1  0.49550850  -0.00057663  0.50023810  1
  Ag  Ag8  1  0.17051174  0.82422103  0.34277985  1
  Ag  Ag9  1  0.32703563  0.66805719  0.33727799  1
  Ag  Ag10  1  0.16476508  0.33164324  0.16770294  1
  Ag  Ag11  1  0.66306471  0.83013973  0.82983871  1
  Ag  Ag12  1  0.84864354  0.49293075  0.66434663  1
  Ag  Ag13  1  0.32533597  0.50140741  0.49533227  1
  Ag  Ag14  1  0.00129658  0.83863758  0.16714506  1
  Ag  Ag15  1  0.84347169  0.32898938  0.17137029  1
  Ag  Ag16  1  0.00315390  0.16707580  0.83340757  1
  Ag  Ag17  1  0.66542273  0.50150777  0.83247343  1
  Ag  Ag18  1  0.84652308  0.17436461  0.66850348  1
  Ag  Ag19  1  0.16550994  0.67313093  0.82371732  1
  Ag  Ag20  1  0.83825857  0.83927648  -0.00282679  1
  Ag  Ag21  1  0.16854960  -0.00719264  0.83303246  1
  Ag  Ag22  1  0.00992742  0.83282226  0.82994721  1
  Ag  Ag23  1  0.83720805  0.33630384  0.50047569  1
  Ag  Ag24  1  0.32987195  0.82868548  0.49734732  1
  Ag  Ag25  1  0.00487539  0.34064723  0.66170045  1
  Ag  Ag26  1  0.49535133  0.16807951  -0.00354519  1
  Ag  Ag27  1  0.16429451  0.82650269  0.66598829  1
  Ag  Ag28  1  0.49345096  0.16812559  0.67140809  1
  Ag  Ag29  1  0.00834097  0.33705251  0.34168811  1
  Ag  Ag30  1  0.32646387  0.33591847  0.33900100  1
  Ag  Ag31  1  0.01030635  0.82419933  0.50123508  1
  Ag  Ag32  1  0.49212018  -0.00310962  0.83434489  1
  Ag  Ag33  1  0.33438176  0.00435142  -0.00033899  1
  Ag  Ag34  1  0.00963048  0.51275239  0.51295611  1
  Ag  Ag35  1  0.49712561  0.48968130  -0.00183433  1
  Ag  Ag36  1  0.16366464  0.66579610  0.50392365  1
  Ag  Ag37  1  0.32167694  0.33337912  0.66516883  1
  Ag  Ag38  1  0.00300053  0.16787737  0.16072455  1
  Ag  Ag39  1  0.48777954  0.83277468  0.33935891  1
  Ag  Ag40  1  0.00393587  0.00109567  -0.00334102  1
  Ag  Ag41  1  0.83909222  0.17157751  0.33074460  1
  Ag  Ag42  1  0.00327676  0.49952847  0.82380238  1
  Ag  Ag43  1  0.32830036  0.16757647  0.16492311  1
  Ag  Ag44  1  0.66575938  0.83239531  0.50443673  1
  Ag  Ag45  1  0.83895214  0.16760609  -0.00038853  1
  Ag  Ag46  1  0.49267375  0.00125408  0.16239550  1
  Ag  Ag47  1  0.84931844  0.66297970  0.50129742  1
  Ag  Ag48  1  0.32685745  0.83538170  0.82818240  1
  Ag  Ag49  1  0.16484865  0.33371164  0.82315664  1
  Ag  Ag50  1  0.00468509  0.65252674  0.65773251  1
  Ag  Ag51  1  0.33466371  -0.00457047  0.33283476  1
  Ag  Ag52  1  0.00878227  0.66142991  0.34508857  1
  Ag  Ag53  1  0.17110660  0.50428954  0.34414480  1
  Sb  Sb54  1  0.83896227  0.66326457  0.17256577  1
  Sb  Sb55  1  0.66916721  0.33411012  0.67052386  1
  Sb  Sb56  1  0.33163830  0.49216207  0.17460180  1
  Sb  Sb57  1  0.84055149  0.33294446  0.83046537  1
  Sb  Sb58  1  0.49864795  0.16614198  0.33243806  1
  Sb  Sb59  1  0.00093698  0.67259991  -0.00403224  1
  Sb  Sb60  1  0.49502254  0.66684174  0.50371749  1
  Sb  Sb61  1  0.17143889  -0.00957035  0.50440806  1
  Sb  Sb62  1  0.50227031  0.83769203  -0.00182110  1
  Sb  Sb63  1  0.65829947  -0.00084731  0.33488838  1
  Sb  Sb64  1  0.16681340  0.34102773  0.50135805  1
  Sb  Sb65  1  0.49465310  0.32855057  0.16744779  1
  Sb  Sb66  1  -0.00001541  0.17032950  0.50313615  1
  Sb  Sb67  1  0.33357578  0.66762827  0.00027132  1
  Sb  Sb68  1  0.49500144  0.49600050  0.66664437  1
  Sb  Sb69  1  0.66588075  0.66388156  -0.00539730  1
  Sb  Sb70  1  0.32765359  0.84007743  0.17040982  1
  Sb  Sb71  1  0.33185285  0.00387780  0.66817027  1
  Sb  Sb72  1  0.83134517  0.49548756  -0.00621734  1
  Sb  Sb73  1  0.66480378  0.49641098  0.16169077  1
  Sb  Sb74  1  0.49446365  0.33194279  0.83177428  1
  Sb  Sb75  1  0.66717132  0.50265675  0.50415329  1
  Sb  Sb76  1  0.32942479  0.50212424  0.82816247  1
  Sb  Sb77  1  0.67005867  0.83539410  0.16534932  1
  Sb  Sb78  1  0.83690997  -0.00099588  0.83440246  1
  Sb  Sb79  1  0.16979499  0.49590393  -0.00442089  1
  Sb  Sb80  1  0.49278392  0.83606783  0.66479615  1
  Sb  Sb81  1  0.83963921  0.66697433  0.82824764  1
  Sb  Sb82  1  0.84161600  0.83273104  0.66844752  1
  Sb  Sb83  1  0.16978799  0.00438680  0.16318070  1
  Sb  Sb84  1  0.00281785  0.32797605  -0.00175747  1
  Sb  Sb85  1  0.49757842  0.67048877  0.16541069  1
  Sb  Sb86  1  0.66457329  -0.00092889  0.66830215  1
  Sb  Sb87  1  0.66427628  0.00430566  -0.00228768  1
  Sb  Sb88  1  0.66808871  0.16837025  0.16493758  1
  Sb  Sb89  1  0.66570599  0.16477802  0.50138730  1
  Sb  Sb90  1  0.66544231  0.66704179  0.33724268  1
  Sb  Sb91  1  0.83957932  0.83531064  0.33364602  1
  Sb  Sb92  1  0.16724186  0.16744433  -0.00548171  1
  Sb  Sb93  1  0.67278366  0.66702559  0.66723951  1
  Sb  Sb94  1  0.66667941  0.33498638  0.33139545  1
  Sb  Sb95  1  0.32482811  0.66347393  0.66198448  1
  Sb  Sb96  1  0.66817233  0.16700112  0.83391663  1
  Sb  Sb97  1  0.00116154  0.49468401  0.16879614  1
  Sb  Sb98  1  0.16346719  0.83543014  -0.00340068  1
  Sb  Sb99  1  0.16591750  0.66444494  0.17276019  1
  Sb  Sb100  1  0.16525055  0.16927933  0.33769465  1
  Sb  Sb101  1  0.32781788  0.16373739  0.83616667  1
  Sb  Sb102  1  0.00687749  -0.00005492  0.32985627  1
  Sb  Sb103  1  0.83936324  0.49490634  0.34130570  1
  Sb  Sb104  1  0.83321015  0.00607626  0.16558638  1
  Sb  Sb105  1  0.00396756  0.00285872  0.67170291  1
  Sb  Sb106  1  0.83242470  0.00014074  0.50048516  1
  Sb  Sb107  1  0.33248210  0.16942838  0.49844664  1
  Te  Te108  1  0.16464709  0.17045155  0.16941615  1
  Te  Te109  1  0.16620729  0.15961983  0.50966066  1
  Te  Te110  1  0.16245404  0.17082761  0.82889136  1
  Te  Te111  1  0.16529864  0.49400797  0.16955449  1
  Te  Te112  1  0.16553175  0.50230411  0.50055625  1
  Te  Te113  1  0.16398014  0.49722725  0.83032514  1
  Te  Te114  1  0.16009268  0.83290349  0.16902784  1
  Te  Te115  1  0.16914890  0.82919764  0.50126738  1
  Te  Te116  1  0.16784240  0.83314138  0.83442381  1
  Te  Te117  1  0.49721264  0.16205479  0.16354655  1
  Te  Te118  1  0.50027210  0.16739443  0.50180672  1
  Te  Te119  1  0.50079653  0.16364205  0.83410800  1
  Te  Te120  1  0.49953412  0.50072174  0.16430891  1
  Te  Te121  1  0.49933660  0.49743601  0.49814013  1
  Te  Te122  1  0.49970850  0.50026255  0.83506105  1
  Te  Te123  1  0.50086809  0.83866968  0.17081900  1
  Te  Te124  1  0.49577483  0.83359878  0.49918229  1
  Te  Te125  1  0.49939411  0.83399639  0.83257836  1
  Te  Te126  1  0.83642142  0.16974379  0.16286030  1
  Te  Te127  1  0.83250070  0.16980840  0.50392965  1
  Te  Te128  1  0.83733145  0.16587229  0.83420663  1
  Te  Te129  1  0.83279389  0.49142394  0.16740797  1
  Te  Te130  1  0.83268894  0.49846338  0.50452931  1
  Te  Te131  1  0.83554080  0.50068627  0.82734873  1
  Te  Te132  1  0.83865123  0.83391364  0.16216178  1
  Te  Te133  1  0.82949647  0.83230687  0.50056080  1
  Te  Te134  1  0.82999853  0.83300235  0.83609924  1
  Te  Te135  1  0.16863987  0.00109604  -0.00545513  1
  Te  Te136  1  0.17486125  -0.00174156  0.33211794  1
  Te  Te137  1  0.16810046  -0.00548747  0.67413341  1
  Te  Te138  1  0.17404078  0.33335448  0.00583202  1
  Te  Te139  1  0.16687248  0.33368564  0.33357463  1
  Te  Te140  1  0.16524612  0.33689741  0.66447063  1
  Te  Te141  1  0.16848339  0.66487370  -0.00622527  1
  Te  Te142  1  0.16634737  0.66547238  0.33408951  1
  Te  Te143  1  0.16444822  0.66587393  0.66623484  1
  Te  Te144  1  0.49730756  0.00374053  -0.00286813  1
  Te  Te145  1  0.49438286  -0.00135154  0.33816457  1
  Te  Te146  1  0.49792677  0.00537274  0.66709260  1
  Te  Te147  1  0.49644294  0.33007883  0.00037235  1
  Te  Te148  1  0.49889907  0.33525819  0.33558463  1
  Te  Te149  1  0.50042789  0.32902909  0.66328917  1
  Te  Te150  1  0.49927040  0.66315829  -0.00526154  1
  Te  Te151  1  0.49609832  0.66768724  0.33372847  1
  Te  Te152  1  0.49927254  0.66597900  0.67350081  1
  Te  Te153  1  0.83602889  0.00276347  0.00076469  1
  Te  Te154  1  0.83309932  0.00760200  0.33255901  1
  Te  Te155  1  0.83288730  0.01239984  0.66652197  1
  Te  Te156  1  0.83445893  0.32976394  0.00081535  1
  Te  Te157  1  0.83271919  0.33152713  0.33479523  1
  Te  Te158  1  0.83512153  0.33276596  0.66445008  1
  Te  Te159  1  0.83293234  0.66996414  0.00219825  1
  Te  Te160  1  0.83823714  0.66568282  0.34031078  1
  Te  Te161  1  0.84125215  0.66511048  0.66101589  1
  Te  Te162  1  -0.00046188  0.16353638  -0.00071014  1
  Te  Te163  1  -0.00178711  0.16971602  0.33218740  1
  Te  Te164  1  0.00352498  0.16855716  0.66949999  1
  Te  Te165  1  -0.00064972  0.50128653  -0.00491544  1
  Te  Te166  1  0.00347154  0.49790187  0.33356798  1
  Te  Te167  1  0.00264827  0.49768621  0.66734424  1
  Te  Te168  1  -0.00200999  0.83808882  -0.00329632  1
  Te  Te169  1  0.00277328  0.83360660  0.33505334  1
  Te  Te170  1  0.00339533  0.83632292  0.66865305  1
  Te  Te171  1  0.33404405  0.16587399  0.00189822  1
  Te  Te172  1  0.33361408  0.17148437  0.32848148  1
  Te  Te173  1  0.33297538  0.17271717  0.66674679  1
  Te  Te174  1  0.33811698  0.49883888  0.00037904  1
  Te  Te175  1  0.33210341  0.49600069  0.33566771  1
  Te  Te176  1  0.32892261  0.49447623  0.66019073  1
  Te  Te177  1  0.33467773  0.83708503  -0.00145657  1
  Te  Te178  1  0.33090113  0.83501535  0.33209958  1
  Te  Te179  1  0.32707957  0.83297567  0.66610588  1
  Te  Te180  1  0.66690755  0.17174922  -0.00111199  1
  Te  Te181  1  0.67706733  0.16663133  0.33329091  1
  Te  Te182  1  0.66144481  0.16672256  0.66806052  1
  Te  Te183  1  0.66281990  0.49483196  -0.00656769  1
  Te  Te184  1  0.65707359  0.50106737  0.33340437  1
  Te  Te185  1  0.66596048  0.50107690  0.67335184  1
  Te  Te186  1  0.67246703  0.83400380  -0.00369487  1
  Te  Te187  1  0.66473532  0.83296259  0.33617897  1
  Te  Te188  1  0.66959298  0.83275086  0.66824849  1
  Te  Te189  1  0.00075895  0.00218062  0.16168298  1
  Te  Te190  1  -0.00061191  -0.00917613  0.49805086  1
  Te  Te191  1  0.00249168  -0.00080368  0.83738427  1
  Te  Te192  1  0.00209194  0.32952559  0.16536406  1
  Te  Te193  1  -0.00360721  0.33297371  0.50016057  1
  Te  Te194  1  0.00423613  0.33200342  0.83143572  1
  Te  Te195  1  0.00035459  0.67189032  0.16910301  1
  Te  Te196  1  0.00405501  0.66765743  0.49997781  1
  Te  Te197  1  0.00432318  0.66924005  0.83075998  1
  Te  Te198  1  0.33488710  0.00540424  0.16335144  1
  Te  Te199  1  0.33714593  -0.00282358  0.49779905  1
  Te  Te200  1  0.33213731  -0.00235442  0.83402279  1
  Te  Te201  1  0.33077497  0.32755699  0.16498386  1
  Te  Te202  1  0.33543199  0.33388198  0.49931541  1
  Te  Te203  1  0.32750691  0.33393558  0.83293573  1
  Te  Te204  1  0.33316513  0.66707287  0.17486923  1
  Te  Te205  1  0.33062608  0.66628690  0.49632187  1
  Te  Te206  1  0.33116336  0.67097138  0.83239043  1
  Te  Te207  1  0.65541128  0.00037068  0.16650687  1
  Te  Te208  1  0.65943196  -0.00773542  0.50067886  1
  Te  Te209  1  0.65955645  -0.00551654  0.83412115  1
  Te  Te210  1  0.67136271  0.33297431  0.15957665  1
  Te  Te211  1  0.66520058  0.33385688  0.50004046  1
  Te  Te212  1  0.66595338  0.33661136  0.83845503  1
  Te  Te213  1  0.66844975  0.66594824  0.16691076  1
  Te  Te214  1  0.66689378  0.67283992  0.50121592  1
  Te  Te215  1  0.66400247  0.66686316  0.83226331  1
