# generated using pymatgen
data_AgSbTe2
_symmetry_space_group_name_H-M   'P 1'
_cell_length_a   18.31081343
_cell_length_b   18.31253591
_cell_length_c   18.31571951
_cell_angle_alpha   90.00314014
_cell_angle_beta   90.00103849
_cell_angle_gamma   89.99819566
_symmetry_Int_Tables_number   1
_chemical_formula_structural   AgSbTe2
_chemical_formula_sum   'Ag54 Sb54 Te108'
_cell_volume   6141.57995382
_cell_formula_units_Z   54
loop_
 _symmetry_equiv_pos_site_id
 _symmetry_equiv_pos_as_xyz
  1  'x, y, z'
loop_
 _atom_site_type_symbol
 _atom_site_label
 _atom_site_symmetry_multiplicity
 _atom_site_fract_x
 _atom_site_fract_y
 _atom_site_fract_z
 _atom_site_occupancy
  Ag  Ag0  1  0.15840724  0.16829922  0.66759063  1
  Ag  Ag1  1  0.33109872  0.83135948  0.83201817  1
  Ag  Ag2  1  0.00017995  0.01120008  0.66165344  1
  Ag  Ag3  1  0.83357492  0.49282752  0.32862091  1
  Ag  Ag4  1  0.67270193  0.00403791  0.66550688  1
  Ag  Ag5  1  0.49811777  0.33549355  0.48882789  1
  Ag  Ag6  1  0.50216084  0.17634349  0.33363018  1
  Ag  Ag7  1  0.16670951  -0.00465570  0.49920897  1
  Ag  Ag8  1  0.16758150  0.17035955  -0.00330279  1
  Ag  Ag9  1  0.82996148  0.65920354  0.16907204  1
  Ag  Ag10  1  0.33403169  0.83669131  0.16911230  1
  Ag  Ag11  1  0.16728162  0.49786389  0.33840004  1
  Ag  Ag12  1  0.33458453  -0.00005494  0.00616680  1
  Ag  Ag13  1  0.83448158  0.17576550  0.33585361  1
  Ag  Ag14  1  0.66877336  0.66621452  0.00477758  1
  Ag  Ag15  1  0.84622742  0.16567556  0.66164149  1
  Ag  Ag16  1  0.32666105  0.66733975  0.66632976  1
  Ag  Ag17  1  0.16729538  0.33410952  0.17078805  1
  Ag  Ag18  1  -0.00309315  0.49513535  0.83411407  1
  Ag  Ag19  1  -0.00229675  0.33184976  0.33025792  1
  Ag  Ag20  1  0.49601030  0.49729892  0.66191607  1
  Ag  Ag21  1  0.49491739  0.33395224  0.17652472  1
  Ag  Ag22  1  0.33116832  0.17275582  0.16981904  1
  Ag  Ag23  1  0.32683108  0.82769541  0.49907990  1
  Ag  Ag24  1  0.66603974  0.00309671  0.33286221  1
  Ag  Ag25  1  0.16717651  0.66974256  0.50383822  1
  Ag  Ag26  1  0.83828372  0.66603365  0.50051889  1
  Ag  Ag27  1  0.00073162  0.17408553  0.82047043  1
  Ag  Ag28  1  0.50000775  0.49016580  0.33758123  1
  Ag  Ag29  1  0.83931595  0.83483907  0.66569695  1
  Ag  Ag30  1  0.16796804  0.50294988  0.66080518  1
  Ag  Ag31  1  0.66257959  -0.00304257  0.00067032  1
  Ag  Ag32  1  0.83549557  0.50071232  0.00786598  1
  Ag  Ag33  1  0.83872326  0.33926750  0.17364444  1
  Ag  Ag34  1  0.67257330  0.33199593  0.66048541  1
  Ag  Ag35  1  0.49945757  0.00140831  0.83183479  1
  Ag  Ag36  1  0.00613112  0.00929509  0.33896541  1
  Ag  Ag37  1  0.00480032  0.33463930  0.00758654  1
  Ag  Ag38  1  0.33271563  0.66696046  -0.00243503  1
  Ag  Ag39  1  0.33061946  0.50343171  0.49751593  1
  Ag  Ag40  1  0.65705490  0.33605214  0.33365891  1
  Ag  Ag41  1  0.32612169  0.33210911  0.01043210  1
  Ag  Ag42  1  0.16650444  0.66556213  0.82492198  1
  Ag  Ag43  1  0.34486282  0.33074254  0.32796279  1
  Ag  Ag44  1  0.66428853  0.83146511  0.16950062  1
  Ag  Ag45  1  0.16654293  0.82897553  0.65975294  1
  Ag  Ag46  1  0.00121051  0.16706001  0.50671482  1
  Ag  Ag47  1  0.67145520  0.65862088  0.32843301  1
  Ag  Ag48  1  0.33131633  0.00347194  0.32946660  1
  Ag  Ag49  1  -0.00345765  0.49514928  0.16765807  1
  Ag  Ag50  1  0.83579579  0.66207317  0.83169507  1
  Ag  Ag51  1  0.16980842  0.83093352  0.34050020  1
  Ag  Ag52  1  -0.00165540  0.32522918  0.66516510  1
  Ag  Ag53  1  0.67330779  0.50127827  0.83147539  1
  Sb  Sb54  1  0.32718631  0.16803852  0.49432406  1
  Sb  Sb55  1  0.33088462  0.50461040  0.83019834  1
  Sb  Sb56  1  -0.00113649  0.65879744  -0.00153494  1
  Sb  Sb57  1  0.16477495  0.16988253  0.33570107  1
  Sb  Sb58  1  0.00404471  0.83114123  0.82961734  1
  Sb  Sb59  1  0.83171454  0.00136593  0.16947886  1
  Sb  Sb60  1  0.66361917  0.16532259  0.17041723  1
  Sb  Sb61  1  0.66392356  0.83077653  0.83577894  1
  Sb  Sb62  1  0.83109290  -0.00380162  0.83031876  1
  Sb  Sb63  1  0.50294228  0.49867527  0.00239377  1
  Sb  Sb64  1  0.16981692  0.00491582  0.17307770  1
  Sb  Sb65  1  0.49688444  0.83096350  0.66624568  1
  Sb  Sb66  1  0.16932081  -0.00392434  0.82702305  1
  Sb  Sb67  1  0.16364424  0.49603742  0.00034677  1
  Sb  Sb68  1  0.00484192  0.49426027  0.50008336  1
  Sb  Sb69  1  0.49593045  0.83369988  0.33286800  1
  Sb  Sb70  1  0.32898788  0.49619218  0.17199161  1
  Sb  Sb71  1  0.49989592  0.33111004  0.83349746  1
  Sb  Sb72  1  0.49815771  0.66751356  0.83278985  1
  Sb  Sb73  1  0.00116686  0.82855555  0.17068178  1
  Sb  Sb74  1  0.67372922  0.50260010  0.16798991  1
  Sb  Sb75  1  0.83939864  -0.00258019  0.50069451  1
  Sb  Sb76  1  0.16820790  0.33524537  0.49459763  1
  Sb  Sb77  1  0.67163321  0.16876605  0.83113870  1
  Sb  Sb78  1  0.49800466  0.00466734  0.16648810  1
  Sb  Sb79  1  0.49382337  0.16643379  0.00564184  1
  Sb  Sb80  1  0.33376578  0.66542729  0.33316810  1
  Sb  Sb81  1  0.00576979  0.66372614  0.66618016  1
  Sb  Sb82  1  0.00742979  0.83813789  0.50097723  1
  Sb  Sb83  1  0.66312897  0.49923882  0.49965322  1
  Sb  Sb84  1  0.83663680  0.33815894  0.83395365  1
  Sb  Sb85  1  0.83195846  0.33722972  0.49429487  1
  Sb  Sb86  1  0.83599100  0.83180122  0.33725761  1
  Sb  Sb87  1  0.83774030  0.17280275  0.00141731  1
  Sb  Sb88  1  0.67342999  0.16690882  0.49724608  1
  Sb  Sb89  1  0.83663259  0.49866807  0.66451040  1
  Sb  Sb90  1  0.33024378  -0.00417719  0.66465726  1
  Sb  Sb91  1  0.16373320  0.33709178  0.83491274  1
  Sb  Sb92  1  0.17092038  0.83632241  0.00024643  1
  Sb  Sb93  1  0.32740322  0.16298274  0.83809833  1
  Sb  Sb94  1  0.33053316  0.33812245  0.66323435  1
  Sb  Sb95  1  0.00522507  0.17562938  0.17068940  1
  Sb  Sb96  1  0.49544354  0.00539338  0.50036989  1
  Sb  Sb97  1  0.49780799  0.83452280  0.00102783  1
  Sb  Sb98  1  0.49584358  0.66015454  0.49887069  1
  Sb  Sb99  1  0.50282220  0.66036830  0.16898792  1
  Sb  Sb100  1  0.16526135  0.66232533  0.16786725  1
  Sb  Sb101  1  -0.00358063  0.65996989  0.33463040  1
  Sb  Sb102  1  0.66414525  0.83324721  0.49657747  1
  Sb  Sb103  1  0.00288950  0.00988905  -0.00016742  1
  Sb  Sb104  1  0.49895291  0.17134340  0.66135925  1
  Sb  Sb105  1  0.66855129  0.33500675  0.00437009  1
  Sb  Sb106  1  0.83133506  0.82565775  -0.00277501  1
  Sb  Sb107  1  0.66687236  0.66516714  0.66654867  1
  Te  Te108  1  0.17160336  0.17123911  0.16257014  1
  Te  Te109  1  0.16258466  0.16379254  0.50552009  1
  Te  Te110  1  0.16134786  0.16609344  0.83109004  1
  Te  Te111  1  0.16002784  0.49601982  0.17092307  1
  Te  Te112  1  0.16969707  0.50240751  0.49957411  1
  Te  Te113  1  0.16348392  0.50541490  0.82994275  1
  Te  Te114  1  0.17031021  0.83159402  0.17197032  1
  Te  Te115  1  0.16918011  0.83105985  0.49984154  1
  Te  Te116  1  0.17104080  0.82742056  0.82979667  1
  Te  Te117  1  0.49411823  0.17247966  0.17280670  1
  Te  Te118  1  0.49809680  0.17346714  0.49317801  1
  Te  Te119  1  0.50083289  0.16176844  0.83235974  1
  Te  Te120  1  0.49983251  0.49300368  0.17138891  1
  Te  Te121  1  0.49660084  0.49584612  0.49979048  1
  Te  Te122  1  0.50322171  0.49925393  0.82976897  1
  Te  Te123  1  0.49874641  0.83269704  0.16793528  1
  Te  Te124  1  0.48898412  0.83355216  0.50031893  1
  Te  Te125  1  0.49364916  0.83885864  0.83223238  1
  Te  Te126  1  0.83274321  0.17039122  0.17135550  1
  Te  Te127  1  0.83974649  0.16501436  0.49952574  1
  Te  Te128  1  0.84006385  0.16670974  0.83005249  1
  Te  Te129  1  0.83486964  0.49990541  0.16801424  1
  Te  Te130  1  0.83451507  0.50673236  0.49383513  1
  Te  Te131  1  0.83490616  0.50322936  0.83127839  1
  Te  Te132  1  0.83135719  0.82829892  0.16651592  1
  Te  Te133  1  0.83188933  0.82690651  0.50557052  1
  Te  Te134  1  0.83278613  0.82508942  0.82770464  1
  Te  Te135  1  0.17170098  0.00499594  -0.00039596  1
  Te  Te136  1  0.16934508  0.00147343  0.33684722  1
  Te  Te137  1  0.16458815  -0.00128125  0.66250114  1
  Te  Te138  1  0.16649134  0.33174793  0.00199488  1
  Te  Te139  1  0.16165405  0.33633033  0.33097570  1
  Te  Te140  1  0.16390221  0.33438533  0.66583839  1
  Te  Te141  1  0.17037464  0.66714927  -0.00145214  1
  Te  Te142  1  0.16549410  0.66472144  0.33580472  1
  Te  Te143  1  0.16715433  0.66653201  0.66539607  1
  Te  Te144  1  0.50001001  0.00109272  -0.00295065  1
  Te  Te145  1  0.49948801  0.00276265  0.33404507  1
  Te  Te146  1  0.50377681  0.00157147  0.66867214  1
  Te  Te147  1  0.49618834  0.33266361  0.00412628  1
  Te  Te148  1  0.50081734  0.33308872  0.33240513  1
  Te  Te149  1  0.50139653  0.33823055  0.66632804  1
  Te  Te150  1  0.50082922  0.66565092  0.00033202  1
  Te  Te151  1  0.50985332  0.66148562  0.33429639  1
  Te  Te152  1  0.49462363  0.65935998  0.66641911  1
  Te  Te153  1  0.82920696  0.00047871  0.00022668  1
  Te  Te154  1  0.82889539  0.00196185  0.33456726  1
  Te  Te155  1  0.83231260  0.00138320  0.66607334  1
  Te  Te156  1  0.83665277  0.33887132  0.00607583  1
  Te  Te157  1  0.83666702  0.33334676  0.33422308  1
  Te  Te158  1  0.83247848  0.33011980  0.66441706  1
  Te  Te159  1  0.83176234  0.66100556  -0.00084515  1
  Te  Te160  1  0.83084558  0.66667658  0.33203224  1
  Te  Te161  1  0.83425044  0.66853981  0.66651963  1
  Te  Te162  1  0.00507766  0.17419140  -0.00123232  1
  Te  Te163  1  -0.00212763  0.16744080  0.33431673  1
  Te  Te164  1  0.00150844  0.16699603  0.66504855  1
  Te  Te165  1  -0.00299126  0.49429640  -0.00214375  1
  Te  Te166  1  -0.00004364  0.49537942  0.33318957  1
  Te  Te167  1  0.00506185  0.49461149  0.66834108  1
  Te  Te168  1  0.00074681  0.83820459  -0.00002505  1
  Te  Te169  1  0.00605046  0.84209623  0.33360085  1
  Te  Te170  1  0.00066184  0.83907759  0.66704665  1
  Te  Te171  1  0.32878532  0.16596649  0.00398545  1
  Te  Te172  1  0.33195835  0.16684750  0.33045965  1
  Te  Te173  1  0.32870595  0.16732077  0.66800102  1
  Te  Te174  1  0.33345980  0.50180926  -0.00037007  1
  Te  Te175  1  0.33119428  0.49839207  0.33609757  1
  Te  Te176  1  0.33006422  0.50269275  0.66382227  1
  Te  Te177  1  0.33257397  0.83435967  0.00179833  1
  Te  Te178  1  0.33064502  0.83293325  0.33219171  1
  Te  Te179  1  0.33047057  0.82947552  0.66585063  1
  Te  Te180  1  0.66770454  0.16026567  -0.00027578  1
  Te  Te181  1  0.66881571  0.16698534  0.33357711  1
  Te  Te182  1  0.66713000  0.16695451  0.66551963  1
  Te  Te183  1  0.67020669  0.50298194  -0.00476235  1
  Te  Te184  1  0.66884570  0.49776831  0.33386523  1
  Te  Te185  1  0.66574163  0.49716446  0.66896901  1
  Te  Te186  1  0.66629655  0.83389076  0.00407466  1
  Te  Te187  1  0.66700600  0.83737942  0.32966514  1
  Te  Te188  1  0.66817058  0.83698243  0.66620953  1
  Te  Te189  1  0.00067510  -0.00079848  0.17117763  1
  Te  Te190  1  0.00438076  0.00385081  0.49901297  1
  Te  Te191  1  -0.00000333  0.00363949  0.83051330  1
  Te  Te192  1  -0.00009257  0.33569874  0.16881641  1
  Te  Te193  1  0.00031830  0.32796491  0.50054345  1
  Te  Te194  1  -0.00016740  0.33454965  0.83038965  1
  Te  Te195  1  -0.00604371  0.65966766  0.16619624  1
  Te  Te196  1  0.00137305  0.66694326  0.49968528  1
  Te  Te197  1  0.00079902  0.66248762  0.83333638  1
  Te  Te198  1  0.33384455  -0.00279782  0.16762507  1
  Te  Te199  1  0.32843695  -0.00212718  0.49541806  1
  Te  Te200  1  0.33654964  -0.00440885  0.83597169  1
  Te  Te201  1  0.33001881  0.33462308  0.16851655  1
  Te  Te202  1  0.33637418  0.33714037  0.49522405  1
  Te  Te203  1  0.33293798  0.33251115  0.84193353  1
  Te  Te204  1  0.33393113  0.67069464  0.16143745  1
  Te  Te205  1  0.32987353  0.66497168  0.50026578  1
  Te  Te206  1  0.33144967  0.67033482  0.83471847  1
  Te  Te207  1  0.66437932  -0.00502253  0.16804073  1
  Te  Te208  1  0.66484505  -0.00053340  0.49905106  1
  Te  Te209  1  0.66360044  -0.00030529  0.83313464  1
  Te  Te210  1  0.66817392  0.33293001  0.17098876  1
  Te  Te211  1  0.66243528  0.33292956  0.49983131  1
  Te  Te212  1  0.66769215  0.33822591  0.83189712  1
  Te  Te213  1  0.66866141  0.66951585  0.16558209  1
  Te  Te214  1  0.66993211  0.66749376  0.49595188  1
  Te  Te215  1  0.66838954  0.66331916  0.83571947  1
