# generated using pymatgen
data_AgSbTe2
_symmetry_space_group_name_H-M   'P 1'
_cell_length_a   18.34551775
_cell_length_b   18.34876166
_cell_length_c   18.34844678
_cell_angle_alpha   90.00224914
_cell_angle_beta   90.00437677
_cell_angle_gamma   89.99783948
_symmetry_Int_Tables_number   1
_chemical_formula_structural   AgSbTe2
_chemical_formula_sum   'Ag54 Sb54 Te108'
_cell_volume   6176.40885578
_cell_formula_units_Z   54
loop_
 _symmetry_equiv_pos_site_id
 _symmetry_equiv_pos_as_xyz
  1  'x, y, z'
loop_
 _atom_site_type_symbol
 _atom_site_label
 _atom_site_symmetry_multiplicity
 _atom_site_fract_x
 _atom_site_fract_y
 _atom_site_fract_z
 _atom_site_occupancy
  Ag  Ag0  1  0.33509144  0.83217541  0.17973801  1
  Ag  Ag1  1  0.82829708  0.33246210  0.82580189  1
  Ag  Ag2  1  0.17437655  0.33372791  0.16592018  1
  Ag  Ag3  1  0.17853311  0.66949438  0.50797273  1
  Ag  Ag4  1  0.18114261  0.83334597  0.33290213  1
  Ag  Ag5  1  0.32880025  -0.00995361  0.00505752  1
  Ag  Ag6  1  0.84369112  -0.00322915  0.83445711  1
  Ag  Ag7  1  0.33898693  0.33587167  0.33715597  1
  Ag  Ag8  1  0.50090033  0.18368782  0.66374625  1
  Ag  Ag9  1  0.65680179  0.33761175  0.34691764  1
  Ag  Ag10  1  0.01066523  -0.00555701  -0.00675422  1
  Ag  Ag11  1  0.82162960  0.66485582  0.50457462  1
  Ag  Ag12  1  0.33103667  0.66945687  0.00580403  1
  Ag  Ag13  1  0.83518045  0.82778505  0.67014952  1
  Ag  Ag14  1  0.81912046  0.33954429  0.50587020  1
  Ag  Ag15  1  0.50173602  0.33715830  0.82091741  1
  Ag  Ag16  1  0.34336966  0.33961020  0.66087918  1
  Ag  Ag17  1  0.66439625  0.66172125  0.66229680  1
  Ag  Ag18  1  -0.00227016  0.16537105  0.50785734  1
  Ag  Ag19  1  0.16832104  0.15547395  -0.00180502  1
  Ag  Ag20  1  0.33602044  0.67402869  0.33407794  1
  Ag  Ag21  1  0.16378137  -0.01271083  0.83755570  1
  Ag  Ag22  1  0.65427518  0.34279168  0.65675785  1
  Ag  Ag23  1  0.84799231  0.83148327  -0.00908819  1
  Ag  Ag24  1  0.66211709  0.18023107  0.49892610  1
  Ag  Ag25  1  0.66259174  0.66720003  -0.00445220  1
  Ag  Ag26  1  0.33269755  -0.01394531  0.32763803  1
  Ag  Ag27  1  0.33427439  0.50941100  0.16782191  1
  Ag  Ag28  1  0.33776375  0.50498063  0.50490437  1
  Ag  Ag29  1  0.01052799  -0.00192732  0.33072247  1
  Ag  Ag30  1  0.33589983  0.15928152  0.16682443  1
  Ag  Ag31  1  0.16891396  0.82452657  0.66972695  1
  Ag  Ag32  1  0.17651794  0.50677356  0.67060694  1
  Ag  Ag33  1  0.33499501  0.82168438  0.49183620  1
  Ag  Ag34  1  0.49226716  0.82790293  0.66033548  1
  Ag  Ag35  1  0.17229523  0.51524307  -0.00912102  1
  Ag  Ag36  1  0.65600286  0.49474801  0.50484536  1
  Ag  Ag37  1  0.49811479  -0.00915516  0.49756288  1
  Ag  Ag38  1  0.00382141  0.83543220  0.83404911  1
  Ag  Ag39  1  0.01113895  0.66968383  0.66865946  1
  Ag  Ag40  1  0.16719500  0.66911874  0.82693356  1
  Ag  Ag41  1  0.49585964  0.49855880  0.66392454  1
  Ag  Ag42  1  0.00175291  0.15563261  0.83103017  1
  Ag  Ag43  1  0.01441286  0.67495192  -0.00923320  1
  Ag  Ag44  1  0.49723110  0.66457126  0.50056757  1
  Ag  Ag45  1  0.50455201  0.33811151  0.50603289  1
  Ag  Ag46  1  0.49211896  0.82999261  0.34212481  1
  Ag  Ag47  1  0.16674258  0.83160057  -0.00946665  1
  Ag  Ag48  1  0.65278249  0.66347667  0.34477833  1
  Ag  Ag49  1  0.33470081  0.50084421  0.82262165  1
  Ag  Ag50  1  0.49527962  0.67060863  0.17783493  1
  Ag  Ag51  1  0.65790206  0.49990657  0.82091262  1
  Ag  Ag52  1  0.49379192  -0.00473866  0.17388569  1
  Ag  Ag53  1  0.65572591  0.16812584  0.17139788  1
  Sb  Sb54  1  0.66464374  -0.00154582  0.66567438  1
  Sb  Sb55  1  0.82897381  -0.00264923  0.16280728  1
  Sb  Sb56  1  0.00294138  0.50383128  0.83104118  1
  Sb  Sb57  1  0.83614515  0.66776656  0.82798908  1
  Sb  Sb58  1  0.49294377  0.33417068  0.17364808  1
  Sb  Sb59  1  0.00302449  0.33202781  -0.00303088  1
  Sb  Sb60  1  0.17604999  0.66693234  0.16276438  1
  Sb  Sb61  1  0.00535252  0.83560433  0.50488324  1
  Sb  Sb62  1  0.00988778  0.83357992  0.15921649  1
  Sb  Sb63  1  0.16949581  0.16802737  0.66990915  1
  Sb  Sb64  1  0.17274660  0.33785400  0.49734496  1
  Sb  Sb65  1  0.82470089  0.66850943  0.16813971  1
  Sb  Sb66  1  0.01193140  0.50267035  0.16328914  1
  Sb  Sb67  1  0.67120657  0.82648759  0.83151415  1
  Sb  Sb68  1  0.32681569  0.82545322  0.82974962  1
  Sb  Sb69  1  0.32972451  0.17130198  0.83656190  1
  Sb  Sb70  1  0.82773472  0.50377465  0.66694341  1
  Sb  Sb71  1  0.17026737  0.16092117  0.32973502  1
  Sb  Sb72  1  0.00285917  0.50044226  0.50159363  1
  Sb  Sb73  1  0.49553394  0.66318922  0.82718070  1
  Sb  Sb74  1  0.82921168  0.50038556  0.33652683  1
  Sb  Sb75  1  0.17170301  -0.00492728  0.50288694  1
  Sb  Sb76  1  0.82975880  -0.00239419  0.50502504  1
  Sb  Sb77  1  0.17583310  -0.00020668  0.15858198  1
  Sb  Sb78  1  0.49873834  0.16250307  0.33952674  1
  Sb  Sb79  1  0.83733317  0.50790635  -0.00426739  1
  Sb  Sb80  1  0.17338887  0.50669853  0.33516120  1
  Sb  Sb81  1  0.65678703  0.82573785  0.50140872  1
  Sb  Sb82  1  0.33452484  0.00130422  0.66568143  1
  Sb  Sb83  1  0.49581832  0.00179036  0.83080030  1
  Sb  Sb84  1  0.82960083  0.16557482  0.66643279  1
  Sb  Sb85  1  0.66551934  0.33912726  -0.00289144  1
  Sb  Sb86  1  0.49583646  0.50821784  0.34423047  1
  Sb  Sb87  1  -0.00037858  0.33842833  0.66744923  1
  Sb  Sb88  1  0.83149816  0.83152785  0.33825217  1
  Sb  Sb89  1  0.83160749  0.16542041  0.33610550  1
  Sb  Sb90  1  0.49321475  0.83123228  -0.00194463  1
  Sb  Sb91  1  0.00686276  0.67372947  0.33653600  1
  Sb  Sb92  1  0.66066514  -0.00117781  0.33599106  1
  Sb  Sb93  1  0.16829060  0.33746794  0.83595266  1
  Sb  Sb94  1  0.66945388  0.17333341  0.83064319  1
  Sb  Sb95  1  0.66503217  -0.00436262  -0.00038753  1
  Sb  Sb96  1  0.65745532  0.83428804  0.16680103  1
  Sb  Sb97  1  0.49495749  0.16646640  -0.00131003  1
  Sb  Sb98  1  0.00146610  0.32710425  0.33658846  1
  Sb  Sb99  1  0.00056650  -0.00562472  0.67067974  1
  Sb  Sb100  1  0.65619848  0.49879319  0.16997675  1
  Sb  Sb101  1  0.33085191  0.33734218  0.00165300  1
  Sb  Sb102  1  0.33681667  0.16865184  0.49658038  1
  Sb  Sb103  1  0.33412308  0.66128619  0.66184708  1
  Sb  Sb104  1  0.00487384  0.16309635  0.16343872  1
  Sb  Sb105  1  0.49240493  0.50274126  -0.00687134  1
  Sb  Sb106  1  0.83237483  0.33212281  0.16823504  1
  Sb  Sb107  1  0.83744085  0.16093823  -0.00319790  1
  Te  Te108  1  0.17051762  0.17008629  0.16216718  1
  Te  Te109  1  0.16110368  0.16722428  0.50115116  1
  Te  Te110  1  0.16191508  0.16971719  0.83731892  1
  Te  Te111  1  0.17432698  0.49660120  0.16493243  1
  Te  Te112  1  0.17086801  0.50512704  0.50345842  1
  Te  Te113  1  0.16978056  0.50262714  0.83261652  1
  Te  Te114  1  0.17408229  0.83354731  0.17262715  1
  Te  Te115  1  0.17077101  0.83096287  0.50389978  1
  Te  Te116  1  0.16506966  0.82932615  0.83119833  1
  Te  Te117  1  0.49694645  0.16568171  0.16575025  1
  Te  Te118  1  0.50145994  0.17252903  0.50463730  1
  Te  Te119  1  0.50049535  0.17044119  0.82711143  1
  Te  Te120  1  0.49273376  0.50313884  0.16314276  1
  Te  Te121  1  0.49830599  0.50057163  0.50368304  1
  Te  Te122  1  0.49851070  0.49748730  0.82796127  1
  Te  Te123  1  0.49443139  0.83293875  0.16457737  1
  Te  Te124  1  0.49704617  0.83200205  0.50066535  1
  Te  Te125  1  0.50115325  0.83482547  0.82513745  1
  Te  Te126  1  0.82840444  0.16615780  0.16555492  1
  Te  Te127  1  0.83310558  0.16681999  0.50132601  1
  Te  Te128  1  0.83801366  0.16567733  0.83315764  1
  Te  Te129  1  0.83356749  0.49865698  0.16551781  1
  Te  Te130  1  0.83387776  0.50029729  0.50089220  1
  Te  Te131  1  0.83085879  0.49319326  0.83329331  1
  Te  Te132  1  0.83181920  0.83328558  0.16228712  1
  Te  Te133  1  0.83403387  0.82972101  0.50655326  1
  Te  Te134  1  0.83707879  0.83363386  0.83192699  1
  Te  Te135  1  0.16786096  -0.00330173  -0.00173654  1
  Te  Te136  1  0.17078369  -0.00489499  0.33543534  1
  Te  Te137  1  0.16740034  -0.00111558  0.67402752  1
  Te  Te138  1  0.16539936  0.33153273  0.00431692  1
  Te  Te139  1  0.16958554  0.33358461  0.32869195  1
  Te  Te140  1  0.16872402  0.33640957  0.66668264  1
  Te  Te141  1  0.16965805  0.67058273  0.00278061  1
  Te  Te142  1  0.17090573  0.67292115  0.33890794  1
  Te  Te143  1  0.17037535  0.66712417  0.66740664  1
  Te  Te144  1  0.49440115  -0.00022554  0.00142757  1
  Te  Te145  1  0.49612312  -0.00396248  0.33378476  1
  Te  Te146  1  0.49992773  -0.01144777  0.66244773  1
  Te  Te147  1  0.49996684  0.33362566  -0.00678354  1
  Te  Te148  1  0.49991391  0.33100705  0.33732512  1
  Te  Te149  1  0.49997398  0.33935174  0.66589060  1
  Te  Te150  1  0.50015148  0.66709190  -0.00203524  1
  Te  Te151  1  0.49682144  0.66872397  0.33515340  1
  Te  Te152  1  0.50223837  0.66693234  0.66405802  1
  Te  Te153  1  0.83351259  -0.00709331  -0.00479324  1
  Te  Te154  1  0.83537981  -0.00250702  0.33375956  1
  Te  Te155  1  0.83257543  -0.00665311  0.67330758  1
  Te  Te156  1  0.83456876  0.33363836  -0.00310805  1
  Te  Te157  1  0.82989580  0.33281843  0.33888806  1
  Te  Te158  1  0.83275087  0.33300675  0.66511915  1
  Te  Te159  1  0.82805998  0.67234091  0.00009999  1
  Te  Te160  1  0.83405568  0.66728503  0.34000054  1
  Te  Te161  1  0.82852158  0.66852800  0.66422107  1
  Te  Te162  1  0.00495593  0.16073771  -0.00405979  1
  Te  Te163  1  0.00105065  0.15904675  0.33425350  1
  Te  Te164  1  0.00059477  0.16783769  0.66903283  1
  Te  Te165  1  0.00823752  0.50652255  -0.00123060  1
  Te  Te166  1  0.00118396  0.50019792  0.33193953  1
  Te  Te167  1  0.00859168  0.50777128  0.66599221  1
  Te  Te168  1  0.00445735  0.83432842  -0.00225555  1
  Te  Te169  1  0.00039250  0.83865390  0.33216388  1
  Te  Te170  1  0.00287166  0.82911177  0.67014827  1
  Te  Te171  1  0.32891285  0.16628542  0.00451354  1
  Te  Te172  1  0.33286695  0.17533859  0.32831241  1
  Te  Te173  1  0.33799797  0.17275093  0.66694045  1
  Te  Te174  1  0.32911770  0.50337401  0.00472242  1
  Te  Te175  1  0.33265425  0.49471742  0.33101985  1
  Te  Te176  1  0.33456517  0.49866002  0.66486602  1
  Te  Te177  1  0.32880551  0.83136890  -0.00483961  1
  Te  Te178  1  0.33666313  0.83125586  0.33597682  1
  Te  Te179  1  0.33129339  0.83614648  0.66354658  1
  Te  Te180  1  0.66675848  0.16631709  0.00416940  1
  Te  Te181  1  0.66567465  0.16907930  0.33416781  1
  Te  Te182  1  0.66201701  0.16921101  0.66320955  1
  Te  Te183  1  0.66798703  0.50637020  0.00137066  1
  Te  Te184  1  0.66480872  0.50060870  0.33765321  1
  Te  Te185  1  0.66705557  0.50062396  0.66469822  1
  Te  Te186  1  0.66609547  0.82728330  -0.00060771  1
  Te  Te187  1  0.66274785  0.82687592  0.33260901  1
  Te  Te188  1  0.67022961  0.82871214  0.66694185  1
  Te  Te189  1  -0.00250372  -0.00015003  0.16768817  1
  Te  Te190  1  -0.00071723  0.00394327  0.49793121  1
  Te  Te191  1  0.00261946  -0.00305918  0.83380467  1
  Te  Te192  1  0.00307822  0.33272015  0.16743075  1
  Te  Te193  1  -0.00125146  0.32777289  0.49984340  1
  Te  Te194  1  -0.00559896  0.33162718  0.83278759  1
  Te  Te195  1  -0.00405048  0.66718064  0.16303347  1
  Te  Te196  1  -0.00093178  0.66716785  0.50410430  1
  Te  Te197  1  0.00244101  0.66922783  0.83233241  1
  Te  Te198  1  0.33575953  -0.00133339  0.16719327  1
  Te  Te199  1  0.33821015  0.00132880  0.49669756  1
  Te  Te200  1  0.32883713  0.00221937  0.83844457  1
  Te  Te201  1  0.33271208  0.33169604  0.16855644  1
  Te  Te202  1  0.33569710  0.33555595  0.49998783  1
  Te  Te203  1  0.33568325  0.33927746  0.83113357  1
  Te  Te204  1  0.33610750  0.66945171  0.16853636  1
  Te  Te205  1  0.33583967  0.66461329  0.49837953  1
  Te  Te206  1  0.32952876  0.66077994  0.84162349  1
  Te  Te207  1  0.65929601  0.00583124  0.16782626  1
  Te  Te208  1  0.66104729  0.00764538  0.49929804  1
  Te  Te209  1  0.66943811  0.00211790  0.83419586  1
  Te  Te210  1  0.66542314  0.33010814  0.16834899  1
  Te  Te211  1  0.66456639  0.33574516  0.50186678  1
  Te  Te212  1  0.66722110  0.33763220  0.83218294  1
  Te  Te213  1  0.65809600  0.66614630  0.16779836  1
  Te  Te214  1  0.66368946  0.66584195  0.50136922  1
  Te  Te215  1  0.66669321  0.66023143  0.83245804  1
