# generated using pymatgen
data_AgSbTe2
_symmetry_space_group_name_H-M   'P 1'
_cell_length_a   18.33648558
_cell_length_b   18.33934861
_cell_length_c   18.33824071
_cell_angle_alpha   89.99990954
_cell_angle_beta   89.99800961
_cell_angle_gamma   89.99438427
_symmetry_Int_Tables_number   1
_chemical_formula_structural   AgSbTe2
_chemical_formula_sum   'Ag54 Sb54 Te108'
_cell_volume   6166.76890711
_cell_formula_units_Z   54
loop_
 _symmetry_equiv_pos_site_id
 _symmetry_equiv_pos_as_xyz
  1  'x, y, z'
loop_
 _atom_site_type_symbol
 _atom_site_label
 _atom_site_symmetry_multiplicity
 _atom_site_fract_x
 _atom_site_fract_y
 _atom_site_fract_z
 _atom_site_occupancy
  Ag  Ag0  1  0.67076708  0.83101398  0.84475787  1
  Ag  Ag1  1  0.66976352  0.16589185  0.16514540  1
  Ag  Ag2  1  0.32243611  0.49804792  0.17561173  1
  Ag  Ag3  1  0.16922778  0.84250955  0.00784349  1
  Ag  Ag4  1  0.83645188  0.66650686  0.83171468  1
  Ag  Ag5  1  0.16556025  -0.00426491  0.84795265  1
  Ag  Ag6  1  0.16449680  0.49762242  0.32781761  1
  Ag  Ag7  1  0.33054484  0.00073778  0.66476249  1
  Ag  Ag8  1  0.00286026  0.83334753  0.83711079  1
  Ag  Ag9  1  0.16153292  0.16684187  0.65613625  1
  Ag  Ag10  1  0.00532372  0.16952215  0.17232052  1
  Ag  Ag11  1  0.49790436  0.33216352  0.49513822  1
  Ag  Ag12  1  0.66398328  0.66369947  0.33009209  1
  Ag  Ag13  1  0.66854771  0.33650638  0.32910597  1
  Ag  Ag14  1  0.49035412  0.16159154  0.00490537  1
  Ag  Ag15  1  0.16529210  0.15539661  0.00951235  1
  Ag  Ag16  1  0.00556883  0.00856937  0.32954640  1
  Ag  Ag17  1  0.32247968  0.17064892  0.49803361  1
  Ag  Ag18  1  0.49663043  0.83272084  0.32905244  1
  Ag  Ag19  1  0.16953270  0.82550262  0.32519081  1
  Ag  Ag20  1  0.83457534  0.65418296  0.49931553  1
  Ag  Ag21  1  0.83748282  0.49695633  0.65135159  1
  Ag  Ag22  1  0.32532634  0.65911292  0.33671026  1
  Ag  Ag23  1  0.32347582  0.33929879  0.33148024  1
  Ag  Ag24  1  0.48915659  0.66652871  0.49436318  1
  Ag  Ag25  1  0.17403432  0.66293162  0.48840156  1
  Ag  Ag26  1  0.32908449  0.66538113  0.65411354  1
  Ag  Ag27  1  0.84185320  0.17172960  0.66002718  1
  Ag  Ag28  1  0.16631038  0.33790031  0.16781455  1
  Ag  Ag29  1  0.84447634  0.49806897  0.33567426  1
  Ag  Ag30  1  0.00077608  0.49153725  0.49263116  1
  Ag  Ag31  1  0.16398341  0.50122551  0.01331688  1
  Ag  Ag32  1  0.84233064  0.33527082  0.49663498  1
  Ag  Ag33  1  0.01015037  0.49137261  0.17465285  1
  Ag  Ag34  1  0.49802346  0.83939936  0.00805600  1
  Ag  Ag35  1  0.49398162  0.00009511  0.16686234  1
  Ag  Ag36  1  0.32260195  0.00672041  0.00143068  1
  Ag  Ag37  1  0.66174868  0.83455660  0.16500334  1
  Ag  Ag38  1  0.16378901  0.67243417  0.83947415  1
  Ag  Ag39  1  0.66792280  0.66741035  0.00745492  1
  Ag  Ag40  1  0.16287970  0.17075279  0.32814418  1
  Ag  Ag41  1  0.16903080  0.00336840  0.16321818  1
  Ag  Ag42  1  0.00078769  0.33081177  0.65326379  1
  Ag  Ag43  1  0.00510996  0.17366738  0.49145456  1
  Ag  Ag44  1  0.01025798  0.00399891  0.00748826  1
  Ag  Ag45  1  0.83926771  0.49671062  0.00467134  1
  Ag  Ag46  1  0.49640546  0.00175867  0.49140677  1
  Ag  Ag47  1  0.83745748  0.17006901  0.00083677  1
  Ag  Ag48  1  0.83822680  0.01089807  0.49902110  1
  Ag  Ag49  1  0.32457736  0.50085276  0.49297969  1
  Ag  Ag50  1  0.33090160  0.32797920  0.00885428  1
  Ag  Ag51  1  0.66622627  0.33243769  0.00770146  1
  Ag  Ag52  1  0.00576737  0.33339966  0.33465666  1
  Ag  Ag53  1  0.16736169  0.65279322  0.17048517  1
  Sb  Sb54  1  0.50050071  0.33124689  0.83343836  1
  Sb  Sb55  1  0.67258777  0.33243482  0.66222190  1
  Sb  Sb56  1  0.49896847  0.67110089  0.83162162  1
  Sb  Sb57  1  0.66564288  0.66600246  0.66386557  1
  Sb  Sb58  1  0.83985033  -0.00362228  0.83102706  1
  Sb  Sb59  1  0.32949789  0.16554632  0.83414962  1
  Sb  Sb60  1  0.49588439  0.32750166  0.17093538  1
  Sb  Sb61  1  0.00026559  0.50309094  0.83489669  1
  Sb  Sb62  1  0.32524032  0.17061948  0.16946475  1
  Sb  Sb63  1  0.49574759  0.67224510  0.17276682  1
  Sb  Sb64  1  0.00531726  0.00716906  0.66441321  1
  Sb  Sb65  1  0.66965829  0.16871556  0.49310694  1
  Sb  Sb66  1  0.16241655  0.49672660  0.66194699  1
  Sb  Sb67  1  0.16777750  0.00115977  0.49509325  1
  Sb  Sb68  1  0.00442476  0.66150398  0.33446240  1
  Sb  Sb69  1  0.16403361  0.33599975  0.48827950  1
  Sb  Sb70  1  0.50131870  0.50025879  0.65987269  1
  Sb  Sb71  1  0.16573442  0.33232259  0.84257058  1
  Sb  Sb72  1  0.00201058  0.83403193  0.49979878  1
  Sb  Sb73  1  0.49729101  0.16582469  0.66488280  1
  Sb  Sb74  1  0.67100232  0.50512605  0.83789414  1
  Sb  Sb75  1  0.00090770  0.32954732  0.00526986  1
  Sb  Sb76  1  0.83767176  0.00276420  0.16955996  1
  Sb  Sb77  1  0.33227700  0.83158394  0.49680806  1
  Sb  Sb78  1  0.49448386  -0.00225497  0.83835366  1
  Sb  Sb79  1  0.83436274  0.83321662  0.00001201  1
  Sb  Sb80  1  0.32921356  0.83334921  0.83661307  1
  Sb  Sb81  1  0.32604127  0.33283090  0.65815453  1
  Sb  Sb82  1  0.66651122  -0.00086710  0.00339220  1
  Sb  Sb83  1  0.66463432  0.83107258  0.49509025  1
  Sb  Sb84  1  0.32850134  0.50246201  0.83351078  1
  Sb  Sb85  1  0.66503722  0.00170010  0.66535951  1
  Sb  Sb86  1  0.49840589  0.83407006  0.66437023  1
  Sb  Sb87  1  0.49738052  0.49957276  0.00277702  1
  Sb  Sb88  1  0.00058463  0.66840447  -0.00039614  1
  Sb  Sb89  1  0.67010375  0.16231735  0.84351495  1
  Sb  Sb90  1  0.83588092  0.82847750  0.33406453  1
  Sb  Sb91  1  0.84045444  0.17272770  0.33447883  1
  Sb  Sb92  1  0.83453935  0.33769727  0.83222761  1
  Sb  Sb93  1  0.00262429  0.83511102  0.16471271  1
  Sb  Sb94  1  0.33136846  0.66651654  0.00407921  1
  Sb  Sb95  1  0.83432826  0.83154378  0.66584990  1
  Sb  Sb96  1  0.49558219  0.16446671  0.32950136  1
  Sb  Sb97  1  0.32877128  0.00155445  0.33153185  1
  Sb  Sb98  1  0.67190646  0.49974349  0.49539906  1
  Sb  Sb99  1  0.49406264  0.50283031  0.33376188  1
  Sb  Sb100  1  0.66738690  0.49864560  0.16915645  1
  Sb  Sb101  1  0.16680394  0.83507028  0.66710484  1
  Sb  Sb102  1  0.33233447  0.83159121  0.16742661  1
  Sb  Sb103  1  0.66905613  0.00040933  0.33122976  1
  Sb  Sb104  1  0.83818052  0.33310277  0.17210673  1
  Sb  Sb105  1  0.00229771  0.16329747  0.83611779  1
  Sb  Sb106  1  0.83690593  0.66426143  0.16823825  1
  Sb  Sb107  1  0.00389685  0.66167863  0.66537801  1
  Te  Te108  1  0.16534519  0.16380241  0.16816000  1
  Te  Te109  1  0.16437079  0.16677067  0.49863913  1
  Te  Te110  1  0.16644861  0.16196124  0.83894817  1
  Te  Te111  1  0.16612439  0.49730901  0.16858821  1
  Te  Te112  1  0.16405062  0.50382157  0.49909720  1
  Te  Te113  1  0.16539646  0.50618428  0.83473892  1
  Te  Te114  1  0.16605719  0.84241557  0.16644240  1
  Te  Te115  1  0.16529598  0.82425859  0.49608636  1
  Te  Te116  1  0.16446592  0.83319760  0.83404058  1
  Te  Te117  1  0.50301797  0.16170599  0.16310250  1
  Te  Te118  1  0.50089459  0.16479968  0.49950879  1
  Te  Te119  1  0.50126450  0.16497165  0.84204633  1
  Te  Te120  1  0.49210448  0.49964036  0.16622158  1
  Te  Te121  1  0.49563615  0.50082982  0.49957424  1
  Te  Te122  1  0.50042498  0.50053116  0.82974439  1
  Te  Te123  1  0.50056868  0.83685470  0.16753997  1
  Te  Te124  1  0.50001827  0.83352370  0.49555070  1
  Te  Te125  1  0.50599000  0.83412103  0.83945707  1
  Te  Te126  1  0.83416309  0.16699383  0.16182710  1
  Te  Te127  1  0.83543255  0.16983774  0.50031889  1
  Te  Te128  1  0.83456251  0.16599267  0.83479284  1
  Te  Te129  1  0.83711919  0.49962741  0.16463879  1
  Te  Te130  1  0.83498470  0.49594640  0.49545464  1
  Te  Te131  1  0.83424420  0.50720095  0.84478028  1
  Te  Te132  1  0.82423416  0.83358237  0.16758202  1
  Te  Te133  1  0.83306554  0.83433554  0.50090475  1
  Te  Te134  1  0.83525790  0.82849360  0.83284328  1
  Te  Te135  1  0.16658020  -0.00090047  0.00256184  1
  Te  Te136  1  0.16527391  0.00310825  0.33110974  1
  Te  Te137  1  0.17160961  0.00375098  0.66266950  1
  Te  Te138  1  0.16833685  0.33751883  0.00504437  1
  Te  Te139  1  0.16558519  0.33397655  0.32895168  1
  Te  Te140  1  0.16270317  0.32735010  0.67433556  1
  Te  Te141  1  0.16786268  0.66397367  0.00003624  1
  Te  Te142  1  0.16638088  0.66623593  0.33104354  1
  Te  Te143  1  0.17017010  0.66657003  0.66942624  1
  Te  Te144  1  0.49967370  -0.00039670  0.00318797  1
  Te  Te145  1  0.49934921  -0.00408374  0.33137970  1
  Te  Te146  1  0.49280640  0.00055735  0.66352869  1
  Te  Te147  1  0.49916021  0.32989983  0.00064051  1
  Te  Te148  1  0.50422657  0.33283184  0.33646867  1
  Te  Te149  1  0.50008381  0.33226420  0.65941709  1
  Te  Te150  1  0.50373168  0.67093655  0.00033361  1
  Te  Te151  1  0.50415811  0.66951733  0.33640576  1
  Te  Te152  1  0.49459036  0.66751349  0.65852063  1
  Te  Te153  1  0.83854320  0.00538563  -0.00060394  1
  Te  Te154  1  0.83803219  -0.00106175  0.33833991  1
  Te  Te155  1  0.83338966  0.00444848  0.66138002  1
  Te  Te156  1  0.83190608  0.33245906  -0.00061193  1
  Te  Te157  1  0.83080607  0.33754431  0.33682689  1
  Te  Te158  1  0.83582678  0.33336045  0.66436284  1
  Te  Te159  1  0.83061393  0.66563326  -0.00074685  1
  Te  Te160  1  0.83045593  0.66242531  0.33556549  1
  Te  Te161  1  0.83259363  0.66256167  0.66593995  1
  Te  Te162  1  0.00250264  0.16532642  0.00273492  1
  Te  Te163  1  0.00121409  0.16896817  0.33256519  1
  Te  Te164  1  0.00054851  0.16995803  0.66601942  1
  Te  Te165  1  0.00098792  0.49894199  0.00254227  1
  Te  Te166  1  0.00306391  0.49982330  0.33356988  1
  Te  Te167  1  -0.00475038  0.49460193  0.66289932  1
  Te  Te168  1  0.00445443  0.83739415  -0.00172628  1
  Te  Te169  1  0.00565872  0.83997603  0.33278472  1
  Te  Te170  1  -0.00000998  0.83513243  0.67448730  1
  Te  Te171  1  0.33055608  0.16688432  0.00047344  1
  Te  Te172  1  0.32941577  0.17076679  0.33832922  1
  Te  Te173  1  0.32938657  0.16463749  0.66196439  1
  Te  Te174  1  0.32927447  0.49745849  0.00115357  1
  Te  Te175  1  0.33181389  0.49932282  0.33621891  1
  Te  Te176  1  0.33285289  0.50253875  0.66065765  1
  Te  Te177  1  0.33320622  0.83613356  0.00064510  1
  Te  Te178  1  0.33191735  0.82879714  0.33252806  1
  Te  Te179  1  0.33381000  0.83511901  0.66795446  1
  Te  Te180  1  0.67164645  0.16851203  0.00476880  1
  Te  Te181  1  0.66712412  0.16996624  0.32576325  1
  Te  Te182  1  0.67240793  0.16732414  0.66934884  1
  Te  Te183  1  0.66813581  0.50061995  0.00290275  1
  Te  Te184  1  0.67057723  0.49912920  0.33185145  1
  Te  Te185  1  0.67735302  0.49887409  0.66871884  1
  Te  Te186  1  0.66769568  0.83131507  0.00384423  1
  Te  Te187  1  0.66443255  0.82996471  0.32881049  1
  Te  Te188  1  0.66589714  0.83330844  0.67425078  1
  Te  Te189  1  0.00235336  0.00185716  0.16778933  1
  Te  Te190  1  -0.00287087  0.00190292  0.49746558  1
  Te  Te191  1  0.00522676  -0.00414294  0.83485611  1
  Te  Te192  1  0.00379407  0.33145199  0.17053229  1
  Te  Te193  1  0.00104781  0.33289368  0.49611499  1
  Te  Te194  1  0.00004056  0.33415780  0.82506937  1
  Te  Te195  1  0.00671471  0.66503340  0.16611004  1
  Te  Te196  1  -0.00640679  0.66600247  0.50158999  1
  Te  Te197  1  -0.00004931  0.67052480  0.83265581  1
  Te  Te198  1  0.33379764  0.00099856  0.16342733  1
  Te  Te199  1  0.33560720  0.00381884  0.49958852  1
  Te  Te200  1  0.32729368  -0.00041099  0.83409348  1
  Te  Te201  1  0.33054797  0.33649062  0.16884673  1
  Te  Te202  1  0.33470904  0.33226824  0.49674690  1
  Te  Te203  1  0.33479775  0.33390945  0.84036273  1
  Te  Te204  1  0.32829730  0.66106842  0.17120823  1
  Te  Te205  1  0.33226814  0.66744568  0.49717359  1
  Te  Te206  1  0.32952434  0.66715867  0.82910702  1
  Te  Te207  1  0.66416932  0.00086477  0.16762029  1
  Te  Te208  1  0.66411055  -0.00019706  0.49993867  1
  Te  Te209  1  0.66779981  -0.00826397  0.83279077  1
  Te  Te210  1  0.66533079  0.33139093  0.16683302  1
  Te  Te211  1  0.66194657  0.33365084  0.49494069  1
  Te  Te212  1  0.66617659  0.33249507  0.84263166  1
  Te  Te213  1  0.66607054  0.66714969  0.16760862  1
  Te  Te214  1  0.67155738  0.66643661  0.49616366  1
  Te  Te215  1  0.66771491  0.67147175  0.83436422  1
