# generated using pymatgen
data_AgSbTe2
_symmetry_space_group_name_H-M   'P 1'
_cell_length_a   18.32955325
_cell_length_b   18.32550484
_cell_length_c   18.33644325
_cell_angle_alpha   90.00010894
_cell_angle_beta   89.99945577
_cell_angle_gamma   90.00050145
_symmetry_Int_Tables_number   1
_chemical_formula_structural   AgSbTe2
_chemical_formula_sum   'Ag54 Sb54 Te108'
_cell_volume   6159.18042384
_cell_formula_units_Z   54
loop_
 _symmetry_equiv_pos_site_id
 _symmetry_equiv_pos_as_xyz
  1  'x, y, z'
loop_
 _atom_site_type_symbol
 _atom_site_label
 _atom_site_symmetry_multiplicity
 _atom_site_fract_x
 _atom_site_fract_y
 _atom_site_fract_z
 _atom_site_occupancy
  Ag  Ag0  1  0.66935147  0.83223726  0.51331295  1
  Ag  Ag1  1  0.33873625  -0.00243858  0.00005353  1
  Ag  Ag2  1  0.83328359  0.48744761  -0.01042638  1
  Ag  Ag3  1  -0.01077089  0.33197391  -0.00326006  1
  Ag  Ag4  1  0.67551885  0.49489813  0.82931012  1
  Ag  Ag5  1  0.16838121  0.66469449  0.50169222  1
  Ag  Ag6  1  0.83314928  0.33120017  0.51273817  1
  Ag  Ag7  1  0.67031036  0.49915468  0.50738063  1
  Ag  Ag8  1  0.33617146  0.33213236  0.66541781  1
  Ag  Ag9  1  0.66521655  0.83960466  0.16223273  1
  Ag  Ag10  1  0.15927569  0.49904401  0.66463207  1
  Ag  Ag11  1  0.33925717  0.84063823  0.84064227  1
  Ag  Ag12  1  0.83049605  0.84277362  0.33501613  1
  Ag  Ag13  1  0.82867363  0.17002692  0.00067796  1
  Ag  Ag14  1  -0.00658742  0.49703240  0.83534399  1
  Ag  Ag15  1  0.34067816  0.83529749  0.15915452  1
  Ag  Ag16  1  0.16748281  -0.00229959  0.83907372  1
  Ag  Ag17  1  0.49755929  0.67000988  0.16382482  1
  Ag  Ag18  1  0.16914799  0.66912924  0.83837851  1
  Ag  Ag19  1  0.16760522  0.66980859  0.16342185  1
  Ag  Ag20  1  0.16730434  -0.00232366  0.15969286  1
  Ag  Ag21  1  0.82978945  0.16495157  0.32294023  1
  Ag  Ag22  1  0.67142943  0.16119555  0.15933245  1
  Ag  Ag23  1  -0.01050575  0.83624420  0.50237742  1
  Ag  Ag24  1  0.83400103  0.48874685  0.67447666  1
  Ag  Ag25  1  0.67250176  0.32450015  -0.00528720  1
  Ag  Ag26  1  0.50710665  0.83932137  0.67399136  1
  Ag  Ag27  1  0.33493768  0.32853904  0.33679224  1
  Ag  Ag28  1  0.83317188  0.00332788  0.16023402  1
  Ag  Ag29  1  0.67440418  0.32791913  0.67268063  1
  Ag  Ag30  1  -0.00985319  0.16972331  0.16405871  1
  Ag  Ag31  1  0.33261464  0.00177315  0.32099884  1
  Ag  Ag32  1  0.49907751  0.84134788  -0.00043234  1
  Ag  Ag33  1  0.66450290  0.83492997  0.82915297  1
  Ag  Ag34  1  -0.00170434  0.49363041  0.15977756  1
  Ag  Ag35  1  0.50249029  0.16770445  0.32265076  1
  Ag  Ag36  1  0.83320962  0.67367932  0.16475908  1
  Ag  Ag37  1  0.16808447  0.50115382  0.33847550  1
  Ag  Ag38  1  0.33191306  0.15980564  0.83623186  1
  Ag  Ag39  1  0.51098470  0.16569188  0.66994896  1
  Ag  Ag40  1  0.50780428  0.16235129  0.00206754  1
  Ag  Ag41  1  0.83239253  0.32979227  0.82864382  1
  Ag  Ag42  1  0.50080207  0.32649147  0.16434159  1
  Ag  Ag43  1  -0.00531858  0.16775765  0.49818265  1
  Ag  Ag44  1  0.67012142  0.00153059  0.67460079  1
  Ag  Ag45  1  0.16792088  0.16442435  0.00061645  1
  Ag  Ag46  1  -0.01351500  0.33449453  0.67138533  1
  Ag  Ag47  1  0.33222207  0.67758888  0.00226985  1
  Ag  Ag48  1  0.66654553  0.00460481  -0.00191116  1
  Ag  Ag49  1  0.83309034  0.00723243  0.83741189  1
  Ag  Ag50  1  0.82483024  0.83669651  0.66469734  1
  Ag  Ag51  1  0.82868869  0.17609674  0.67088189  1
  Ag  Ag52  1  0.33483438  0.83053164  0.50151240  1
  Ag  Ag53  1  0.33016182  0.50166293  0.50051040  1
  Sb  Sb54  1  0.16352782  0.33724014  0.50167534  1
  Sb  Sb55  1  0.16227404  0.49703908  -0.00199412  1
  Sb  Sb56  1  0.67169005  0.16552430  0.50147441  1
  Sb  Sb57  1  0.50360953  0.33222266  0.49978307  1
  Sb  Sb58  1  0.33014063  0.16720823  0.50237766  1
  Sb  Sb59  1  0.00144918  0.33197690  0.33212794  1
  Sb  Sb60  1  0.50203859  0.00048992  0.16370912  1
  Sb  Sb61  1  0.33556118  0.16006929  0.16178522  1
  Sb  Sb62  1  0.83023806  0.32826820  0.16276921  1
  Sb  Sb63  1  0.50563750  0.49819348  0.00060764  1
  Sb  Sb64  1  0.16827499  -0.00510712  0.50124528  1
  Sb  Sb65  1  0.83194603  0.00239044  0.50156703  1
  Sb  Sb66  1  0.66693342  0.66851359  0.33198194  1
  Sb  Sb67  1  0.16700052  0.16846785  0.32831353  1
  Sb  Sb68  1  0.16752543  0.82958487  0.66715060  1
  Sb  Sb69  1  0.83690892  0.49602475  0.33354906  1
  Sb  Sb70  1  -0.00014994  0.66117245  0.66701814  1
  Sb  Sb71  1  0.33191203  0.67022544  0.32892638  1
  Sb  Sb72  1  0.49661701  0.66860919  0.49604684  1
  Sb  Sb73  1  0.00269503  0.66036916  0.00123418  1
  Sb  Sb74  1  0.66764401  0.16328745  0.83680049  1
  Sb  Sb75  1  0.50456989  0.49739207  0.66690757  1
  Sb  Sb76  1  0.16531810  0.83084321  0.33281534  1
  Sb  Sb77  1  0.17293580  0.83950335  0.00031330  1
  Sb  Sb78  1  0.82546057  0.83792277  -0.00083599  1
  Sb  Sb79  1  0.50205996  0.83927102  0.32981242  1
  Sb  Sb80  1  -0.00765583  0.00631359  0.66819289  1
  Sb  Sb81  1  0.67296264  0.49880610  0.16409383  1
  Sb  Sb82  1  0.33222111  0.49962963  0.82954139  1
  Sb  Sb83  1  0.66554492  0.00042287  0.33014792  1
  Sb  Sb84  1  0.33610731  0.32897461  -0.00126434  1
  Sb  Sb85  1  0.66518766  0.33080597  0.33302146  1
  Sb  Sb86  1  0.50432814  0.00070955  0.83549524  1
  Sb  Sb87  1  0.50050068  -0.00010236  0.50068449  1
  Sb  Sb88  1  0.49606904  0.67090062  0.83811341  1
  Sb  Sb89  1  0.16941597  0.33242339  0.16549865  1
  Sb  Sb90  1  0.16165452  0.33376222  0.83261310  1
  Sb  Sb91  1  0.16335381  0.17085988  0.67117985  1
  Sb  Sb92  1  0.50689333  0.32971674  0.83564132  1
  Sb  Sb93  1  0.83654505  0.66720767  0.49721549  1
  Sb  Sb94  1  0.83509272  0.66466554  0.83716566  1
  Sb  Sb95  1  0.00023556  0.49847193  0.50260269  1
  Sb  Sb96  1  0.33821713  0.00153539  0.67330538  1
  Sb  Sb97  1  -0.00174964  0.00623945  0.00088584  1
  Sb  Sb98  1  0.33252872  0.66564121  0.66959387  1
  Sb  Sb99  1  0.66425444  0.66954370  0.00099186  1
  Sb  Sb100  1  -0.00132207  0.17176105  0.83681079  1
  Sb  Sb101  1  -0.00348266  0.83453575  0.16841578  1
  Sb  Sb102  1  0.00106240  0.66653179  0.33310777  1
  Sb  Sb103  1  0.32841879  0.50394936  0.16985082  1
  Sb  Sb104  1  0.49574569  0.49442993  0.33215827  1
  Sb  Sb105  1  0.66702543  0.66769766  0.66811224  1
  Sb  Sb106  1  -0.00225052  0.82974462  0.82957002  1
  Sb  Sb107  1  0.00141734  0.00110006  0.33217390  1
  Te  Te108  1  0.16578337  0.16304059  0.16294510  1
  Te  Te109  1  0.15800566  0.16447250  0.49858367  1
  Te  Te110  1  0.16787522  0.16354293  0.83770163  1
  Te  Te111  1  0.16156345  0.50196516  0.16637309  1
  Te  Te112  1  0.16716135  0.50317249  0.50216309  1
  Te  Te113  1  0.16564210  0.50294542  0.82956547  1
  Te  Te114  1  0.16626435  0.83373841  0.16709703  1
  Te  Te115  1  0.17282907  0.82736083  0.49985688  1
  Te  Te116  1  0.16797117  0.83281415  0.83348395  1
  Te  Te117  1  0.50139245  0.16700499  0.16407973  1
  Te  Te118  1  0.50027255  0.16697219  0.50667542  1
  Te  Te119  1  0.49334404  0.16667347  0.83247048  1
  Te  Te120  1  0.50174272  0.50346919  0.16700659  1
  Te  Te121  1  0.49861278  0.50116912  0.49947140  1
  Te  Te122  1  0.50790499  0.50198748  0.83310015  1
  Te  Te123  1  0.49996700  0.83246957  0.16542981  1
  Te  Te124  1  0.50008411  0.83258334  0.49915065  1
  Te  Te125  1  0.49920733  0.83428713  0.83455464  1
  Te  Te126  1  0.83122295  0.16583414  0.16486889  1
  Te  Te127  1  0.83542160  0.16817919  0.50542104  1
  Te  Te128  1  0.83457526  0.16638868  0.83278196  1
  Te  Te129  1  0.83794712  0.50272277  0.16940716  1
  Te  Te130  1  0.83129192  0.49929854  0.50128728  1
  Te  Te131  1  0.83302084  0.50233012  0.83311568  1
  Te  Te132  1  0.83185728  0.83579161  0.16685518  1
  Te  Te133  1  0.83047639  0.83302660  0.49891166  1
  Te  Te134  1  0.83028683  0.83285309  0.83055260  1
  Te  Te135  1  0.16563028  0.00418269  -0.00049840  1
  Te  Te136  1  0.17293770  -0.00041749  0.32921251  1
  Te  Te137  1  0.16541954  0.00024618  0.67276455  1
  Te  Te138  1  0.16512171  0.32606730  -0.00059761  1
  Te  Te139  1  0.17344937  0.33784676  0.33351566  1
  Te  Te140  1  0.17508082  0.33879607  0.66718274  1
  Te  Te141  1  0.17032151  0.66492042  0.00130213  1
  Te  Te142  1  0.16722019  0.66217203  0.32960237  1
  Te  Te143  1  0.16702524  0.66042317  0.66593633  1
  Te  Te144  1  0.50076339  0.00112911  -0.00023694  1
  Te  Te145  1  0.49369175  0.00790511  0.33358824  1
  Te  Te146  1  0.50616875  0.00161987  0.66723175  1
  Te  Te147  1  0.50446038  0.32950281  0.00321499  1
  Te  Te148  1  0.49638990  0.32714433  0.32975080  1
  Te  Te149  1  0.49832018  0.32940725  0.66752381  1
  Te  Te150  1  0.49480538  0.66776590  0.00528846  1
  Te  Te151  1  0.49958695  0.66659291  0.32348746  1
  Te  Te152  1  0.49897773  0.67536770  0.66517512  1
  Te  Te153  1  0.83152078  0.00362198  -0.00117839  1
  Te  Te154  1  0.83330801  0.00340831  0.32887356  1
  Te  Te155  1  0.82919335  -0.00368555  0.66888341  1
  Te  Te156  1  0.83135612  0.33179159  0.00165223  1
  Te  Te157  1  0.83350938  0.32685138  0.33761654  1
  Te  Te158  1  0.83051150  0.33340553  0.66893232  1
  Te  Te159  1  0.83382723  0.66468717  0.00539025  1
  Te  Te160  1  0.83371416  0.66849584  0.32637872  1
  Te  Te161  1  0.83452565  0.67331606  0.66650919  1
  Te  Te162  1  -0.00440157  0.17124428  0.00243630  1
  Te  Te163  1  -0.00401776  0.16710476  0.33129447  1
  Te  Te164  1  -0.00389661  0.17354155  0.66486402  1
  Te  Te165  1  -0.00385916  0.49414408  -0.00077363  1
  Te  Te166  1  0.00591947  0.49860656  0.32969216  1
  Te  Te167  1  -0.00223243  0.49482852  0.66697427  1
  Te  Te168  1  -0.00091307  0.83191042  -0.00154595  1
  Te  Te169  1  -0.00772161  0.83411956  0.34006353  1
  Te  Te170  1  -0.00223833  0.83388959  0.66180946  1
  Te  Te171  1  0.33379127  0.16384302  -0.00336122  1
  Te  Te172  1  0.33526460  0.16606476  0.33395164  1
  Te  Te173  1  0.33121377  0.16930754  0.67003952  1
  Te  Te174  1  0.33482154  0.50034909  -0.00047268  1
  Te  Te175  1  0.32947648  0.49706004  0.33785573  1
  Te  Te176  1  0.33658606  0.49722256  0.66234018  1
  Te  Te177  1  0.33575813  0.83639618  -0.00034386  1
  Te  Te178  1  0.33388662  0.83816143  0.33539167  1
  Te  Te179  1  0.33581657  0.83396669  0.66479024  1
  Te  Te180  1  0.66705688  0.16506796  -0.00099561  1
  Te  Te181  1  0.66614868  0.16533627  0.33047208  1
  Te  Te182  1  0.66782542  0.16615371  0.66669361  1
  Te  Te183  1  0.67280584  0.49694817  -0.00324167  1
  Te  Te184  1  0.66634775  0.49930662  0.34151095  1
  Te  Te185  1  0.66951314  0.49842692  0.66741495  1
  Te  Te186  1  0.66079990  0.83647082  0.00232859  1
  Te  Te187  1  0.67044301  0.83560047  0.32655087  1
  Te  Te188  1  0.66462470  0.83216752  0.66862893  1
  Te  Te189  1  0.00022782  0.00359839  0.16698641  1
  Te  Te190  1  0.00165916  -0.00174371  0.50022283  1
  Te  Te191  1  -0.00003052  -0.00123237  0.83329486  1
  Te  Te192  1  0.00126012  0.33170446  0.16403860  1
  Te  Te193  1  -0.00430230  0.33070229  0.50250365  1
  Te  Te194  1  -0.00488458  0.33697270  0.83324337  1
  Te  Te195  1  0.00259758  0.66629918  0.16662174  1
  Te  Te196  1  0.00616247  0.67209921  0.50009283  1
  Te  Te197  1  0.00780969  0.66001454  0.83390738  1
  Te  Te198  1  0.33037117  -0.00369330  0.16220623  1
  Te  Te199  1  0.33230342  -0.00441375  0.50075117  1
  Te  Te200  1  0.32964057  -0.00106186  0.83672232  1
  Te  Te201  1  0.33830421  0.33486509  0.16879638  1
  Te  Te202  1  0.33352521  0.33466584  0.49990960  1
  Te  Te203  1  0.33372526  0.33159711  0.82973256  1
  Te  Te204  1  0.33065248  0.67065761  0.16371412  1
  Te  Te205  1  0.32989828  0.66612104  0.49878696  1
  Te  Te206  1  0.32895795  0.66830595  0.83854627  1
  Te  Te207  1  0.67062890  0.00068787  0.16436760  1
  Te  Te208  1  0.66674949  -0.00728625  0.50492326  1
  Te  Te209  1  0.67137826  -0.00319806  0.83542048  1
  Te  Te210  1  0.66158575  0.33129568  0.16440855  1
  Te  Te211  1  0.67056999  0.33452653  0.50383061  1
  Te  Te212  1  0.67132841  0.33441787  0.83361692  1
  Te  Te213  1  0.66929041  0.66917879  0.16604771  1
  Te  Te214  1  0.66622846  0.66856641  0.49921852  1
  Te  Te215  1  0.66586451  0.67199137  0.83554631  1
