# generated using pymatgen
data_AgSbTe2
_symmetry_space_group_name_H-M   'P 1'
_cell_length_a   18.34804659
_cell_length_b   18.33775178
_cell_length_c   18.34258839
_cell_angle_alpha   89.99880743
_cell_angle_beta   90.00189615
_cell_angle_gamma   89.99311991
_symmetry_Int_Tables_number   1
_chemical_formula_structural   AgSbTe2
_chemical_formula_sum   'Ag54 Sb54 Te108'
_cell_volume   6171.58252886
_cell_formula_units_Z   54
loop_
 _symmetry_equiv_pos_site_id
 _symmetry_equiv_pos_as_xyz
  1  'x, y, z'
loop_
 _atom_site_type_symbol
 _atom_site_label
 _atom_site_symmetry_multiplicity
 _atom_site_fract_x
 _atom_site_fract_y
 _atom_site_fract_z
 _atom_site_occupancy
  Ag  Ag0  1  0.50351517  0.17945333  0.65668471  1
  Ag  Ag1  1  0.33557857  0.49924759  0.83112319  1
  Ag  Ag2  1  0.33703111  0.66359625  0.00615902  1
  Ag  Ag3  1  -0.01021227  0.83972348  0.50121844  1
  Ag  Ag4  1  -0.00138428  0.33243468  0.33717992  1
  Ag  Ag5  1  0.34007286  0.65476010  0.32726665  1
  Ag  Ag6  1  -0.01038422  0.49735057  0.15772076  1
  Ag  Ag7  1  0.33539527  0.33566415  0.33822362  1
  Ag  Ag8  1  -0.00180268  0.33845751  0.00066065  1
  Ag  Ag9  1  0.82520962  0.49255757  0.66377912  1
  Ag  Ag10  1  0.66602237  0.83267959  0.82827088  1
  Ag  Ag11  1  0.66414229  0.49331878  0.49580595  1
  Ag  Ag12  1  0.50476220  0.49587321  0.33925362  1
  Ag  Ag13  1  0.17259546  0.17180761  0.33377541  1
  Ag  Ag14  1  0.16816569  0.66426422  0.83570360  1
  Ag  Ag15  1  0.83053644  -0.00091220  0.17181760  1
  Ag  Ag16  1  0.66739352  -0.00443445  0.00273544  1
  Ag  Ag17  1  0.66738078  0.83494956  0.50345462  1
  Ag  Ag18  1  0.82798226  0.01469342  0.49814675  1
  Ag  Ag19  1  0.49951789  0.17749851  0.00280071  1
  Ag  Ag20  1  0.50091357  0.17685490  0.34150148  1
  Ag  Ag21  1  0.17206567  0.00224776  0.50144555  1
  Ag  Ag22  1  -0.01074709  0.65491304  0.00081656  1
  Ag  Ag23  1  0.17056515  0.16932104  0.00651893  1
  Ag  Ag24  1  0.33868265  0.00894822  0.66248478  1
  Ag  Ag25  1  0.82543069  0.32621990  0.50762852  1
  Ag  Ag26  1  0.34368108  0.49597060  0.50133968  1
  Ag  Ag27  1  0.17400707  0.83433186  0.66478953  1
  Ag  Ag28  1  -0.01892671  0.33367909  0.66107195  1
  Ag  Ag29  1  0.33543743  0.16726718  0.16893553  1
  Ag  Ag30  1  0.66988656  0.50301633  0.17456308  1
  Ag  Ag31  1  0.66553097  0.33438337  0.66306108  1
  Ag  Ag32  1  0.82437774  0.65938881  0.16310885  1
  Ag  Ag33  1  0.50626363  0.66291687  0.16634963  1
  Ag  Ag34  1  0.66990267  0.66364214  0.00615737  1
  Ag  Ag35  1  0.66171493  0.66025309  0.32822563  1
  Ag  Ag36  1  0.49904091  0.83385102  0.66386416  1
  Ag  Ag37  1  -0.00502326  0.49681489  0.84029841  1
  Ag  Ag38  1  0.83022106  0.81805822  0.00124294  1
  Ag  Ag39  1  0.82241176  0.18084054  0.65137305  1
  Ag  Ag40  1  0.83124990  0.50079205  0.00677938  1
  Ag  Ag41  1  0.83054383  0.17818341  0.34087517  1
  Ag  Ag42  1  0.82975228  0.33644956  0.81992700  1
  Ag  Ag43  1  0.82367725  0.49579565  0.33178274  1
  Ag  Ag44  1  0.33425852  0.82852666  0.16636842  1
  Ag  Ag45  1  0.50345817  0.01306640  0.50241116  1
  Ag  Ag46  1  0.67197449  0.17289893  0.49979906  1
  Ag  Ag47  1  -0.01324219  0.16928230  0.49805877  1
  Ag  Ag48  1  0.50576235  0.49788805  0.00287775  1
  Ag  Ag49  1  0.16613719  0.33157630  0.16865534  1
  Ag  Ag50  1  0.50345795  0.49069055  0.65887606  1
  Ag  Ag51  1  0.34997618  0.33365486  0.65809268  1
  Ag  Ag52  1  0.50307424  0.33595407  0.81883165  1
  Ag  Ag53  1  0.50725673  0.33080221  0.50569833  1
  Sb  Sb54  1  0.50708982  0.82898165  -0.00303669  1
  Sb  Sb55  1  0.66896683  0.33792089  -0.00517420  1
  Sb  Sb56  1  0.66737650  -0.00231886  0.33370216  1
  Sb  Sb57  1  0.16448656  0.49717920  -0.00006397  1
  Sb  Sb58  1  -0.00471850  0.49383451  0.50052102  1
  Sb  Sb59  1  0.33538638  0.00487234  0.33817745  1
  Sb  Sb60  1  0.50133196  0.65894343  0.49540602  1
  Sb  Sb61  1  -0.00596602  0.00372974  0.00224699  1
  Sb  Sb62  1  0.66474576  0.82649841  0.16781827  1
  Sb  Sb63  1  0.50105354  0.82947449  0.33750710  1
  Sb  Sb64  1  0.16850553  0.83781732  0.33817273  1
  Sb  Sb65  1  0.33931552  -0.00101210  -0.00290325  1
  Sb  Sb66  1  0.16822488  0.66063777  0.16297618  1
  Sb  Sb67  1  -0.00144767  0.65706600  0.32937433  1
  Sb  Sb68  1  0.49644430  0.33793567  0.17133943  1
  Sb  Sb69  1  0.16915730  0.49901823  0.66675336  1
  Sb  Sb70  1  0.66517512  0.66231440  0.66660170  1
  Sb  Sb71  1  0.83150141  0.17319621  0.00283934  1
  Sb  Sb72  1  0.33187708  0.33756831  0.00128518  1
  Sb  Sb73  1  0.33875012  0.83095759  0.49878254  1
  Sb  Sb74  1  -0.00483340  0.82481164  0.82961140  1
  Sb  Sb75  1  0.49880175  0.65750241  0.83861638  1
  Sb  Sb76  1  0.16936806  0.49353673  0.33253692  1
  Sb  Sb77  1  0.66503853  0.16599407  0.82958576  1
  Sb  Sb78  1  0.00098976  0.17510276  0.17230483  1
  Sb  Sb79  1  0.33510121  0.17462500  0.83476813  1
  Sb  Sb80  1  0.83281479  0.83064697  0.33105956  1
  Sb  Sb81  1  0.83347085  0.65700896  0.84047549  1
  Sb  Sb82  1  0.66409295  0.17267260  0.17178721  1
  Sb  Sb83  1  0.16791224  0.67113141  0.50232900  1
  Sb  Sb84  1  0.50147760  0.00520296  0.82766022  1
  Sb  Sb85  1  -0.00051359  0.17632125  0.82861330  1
  Sb  Sb86  1  -0.00190450  0.00865516  0.33678002  1
  Sb  Sb87  1  0.16660944  0.32841340  0.49729676  1
  Sb  Sb88  1  0.16863344  -0.00290362  0.82887359  1
  Sb  Sb89  1  -0.00059800  0.65961681  0.67026553  1
  Sb  Sb90  1  0.33814956  0.17283393  0.49616383  1
  Sb  Sb91  1  0.66223042  0.00361998  0.66321605  1
  Sb  Sb92  1  0.66646726  0.50173394  0.83235934  1
  Sb  Sb93  1  0.16368278  0.00623651  0.17110956  1
  Sb  Sb94  1  0.00093298  0.82687614  0.17007241  1
  Sb  Sb95  1  0.17025353  0.16575830  0.66258174  1
  Sb  Sb96  1  0.83073177  0.83353566  0.66746126  1
  Sb  Sb97  1  0.33570218  0.66063745  0.66593611  1
  Sb  Sb98  1  0.83071460  0.00526029  0.82980871  1
  Sb  Sb99  1  0.16287711  0.83382786  -0.00308335  1
  Sb  Sb100  1  0.33860437  0.82639134  0.83417214  1
  Sb  Sb101  1  0.83626509  0.33851392  0.17176937  1
  Sb  Sb102  1  0.16661885  0.33777989  0.83561638  1
  Sb  Sb103  1  0.83085851  0.66127659  0.49393705  1
  Sb  Sb104  1  0.66665337  0.33952614  0.33988488  1
  Sb  Sb105  1  0.50354170  -0.00188283  0.17025813  1
  Sb  Sb106  1  0.00119528  0.00570654  0.66249492  1
  Sb  Sb107  1  0.33753314  0.49844021  0.16678442  1
  Te  Te108  1  0.16804211  0.16928558  0.16955200  1
  Te  Te109  1  0.16766275  0.16130492  0.49674590  1
  Te  Te110  1  0.16711064  0.16550848  0.83907133  1
  Te  Te111  1  0.16026798  0.49340183  0.16695267  1
  Te  Te112  1  0.17062143  0.50197988  0.50064890  1
  Te  Te113  1  0.17010023  0.50423115  0.83331508  1
  Te  Te114  1  0.17117763  0.83588152  0.16666117  1
  Te  Te115  1  0.16847810  0.83905570  0.50472296  1
  Te  Te116  1  0.16620153  0.82877901  0.82799132  1
  Te  Te117  1  0.49764173  0.16581836  0.16437017  1
  Te  Te118  1  0.49907096  0.16949672  0.49952147  1
  Te  Te119  1  0.49964464  0.17316480  0.83925849  1
  Te  Te120  1  0.50175177  0.50364801  0.16419659  1
  Te  Te121  1  0.50281899  0.49754877  0.49953774  1
  Te  Te122  1  0.49932019  0.49610943  0.83408464  1
  Te  Te123  1  0.49456309  0.82948920  0.16778067  1
  Te  Te124  1  0.50397308  0.83452436  0.50264860  1
  Te  Te125  1  0.50450552  0.83527563  0.82877516  1
  Te  Te126  1  0.83255341  0.16135085  0.17159303  1
  Te  Te127  1  0.83152480  0.16959677  0.49684017  1
  Te  Te128  1  0.83313756  0.17413676  0.83011436  1
  Te  Te129  1  0.83083416  0.50013654  0.16723736  1
  Te  Te130  1  0.83052167  0.49631451  0.49944424  1
  Te  Te131  1  0.83415531  0.49558646  0.83276244  1
  Te  Te132  1  0.83445911  0.83427061  0.16288285  1
  Te  Te133  1  0.83061031  0.83012073  0.49977578  1
  Te  Te134  1  0.82837043  0.83568859  0.83712107  1
  Te  Te135  1  0.16680602  0.00582617  0.00038043  1
  Te  Te136  1  0.16687759  0.00832560  0.34012814  1
  Te  Te137  1  0.17102035  -0.00247545  0.66211671  1
  Te  Te138  1  0.16375373  0.32874235  0.00307235  1
  Te  Te139  1  0.16726426  0.32915774  0.33094031  1
  Te  Te140  1  0.17071351  0.33176840  0.66794417  1
  Te  Te141  1  0.17229502  0.66869894  -0.00307224  1
  Te  Te142  1  0.17152158  0.66787626  0.33287173  1
  Te  Te143  1  0.16751425  0.67153814  0.67134285  1
  Te  Te144  1  0.50490006  0.00052789  -0.00004246  1
  Te  Te145  1  0.50063558  0.00503218  0.33937805  1
  Te  Te146  1  0.49820590  -0.00242925  0.66272446  1
  Te  Te147  1  0.50016436  0.33639495  0.00300586  1
  Te  Te148  1  0.49749748  0.33492971  0.33521518  1
  Te  Te149  1  0.50489778  0.33474737  0.66335549  1
  Te  Te150  1  0.49919925  0.66413404  0.00388037  1
  Te  Te151  1  0.49967887  0.66318824  0.32938197  1
  Te  Te152  1  0.49981901  0.67224095  0.66784322  1
  Te  Te153  1  0.82857657  0.00539563  -0.00033722  1
  Te  Te154  1  0.83281544  -0.00142354  0.33607898  1
  Te  Te155  1  0.83282039  0.00362903  0.66116891  1
  Te  Te156  1  0.83711188  0.33913061  0.00130114  1
  Te  Te157  1  0.83421440  0.33585766  0.33518811  1
  Te  Te158  1  0.82646709  0.33564710  0.66462990  1
  Te  Te159  1  0.83201782  0.66105551  0.00265216  1
  Te  Te160  1  0.83164169  0.66049828  0.32564562  1
  Te  Te161  1  0.83350511  0.65898577  0.66842354  1
  Te  Te162  1  0.00196838  0.17211391  -0.00011928  1
  Te  Te163  1  -0.00445173  0.17321740  0.33760347  1
  Te  Te164  1  0.00067270  0.17344932  0.66140551  1
  Te  Te165  1  0.00187991  0.49920252  -0.00112552  1
  Te  Te166  1  -0.00078280  0.49372485  0.33230465  1
  Te  Te167  1  -0.00053545  0.49365830  0.66894664  1
  Te  Te168  1  -0.00623510  0.83196705  -0.00012706  1
  Te  Te169  1  0.00161947  0.83070641  0.34030084  1
  Te  Te170  1  0.00002040  0.83285106  0.66204249  1
  Te  Te171  1  0.33582887  0.16609263  0.00322118  1
  Te  Te172  1  0.33565712  0.17007339  0.33028118  1
  Te  Te173  1  0.33821148  0.16996985  0.66796500  1
  Te  Te174  1  0.33577408  0.50312441  -0.00111292  1
  Te  Te175  1  0.33552170  0.49625367  0.33297641  1
  Te  Te176  1  0.33717652  0.49592292  0.66564028  1
  Te  Te177  1  0.33342049  0.83009485  0.00269270  1
  Te  Te178  1  0.33337588  0.83185506  0.32842409  1
  Te  Te179  1  0.33501964  0.83035086  0.66661260  1
  Te  Te180  1  0.66218169  0.16575075  0.00178666  1
  Te  Te181  1  0.66542987  0.16492717  0.33749209  1
  Te  Te182  1  0.66396291  0.16802722  0.66329822  1
  Te  Te183  1  0.66631080  0.50286561  -0.00152496  1
  Te  Te184  1  0.66481915  0.50199556  0.33491295  1
  Te  Te185  1  0.66441497  0.49899343  0.66519349  1
  Te  Te186  1  0.67100095  0.83081258  0.00275740  1
  Te  Te187  1  0.66704487  0.82529031  0.33929736  1
  Te  Te188  1  0.66466487  0.83289224  0.66583712  1
  Te  Te189  1  -0.00771932  -0.00280791  0.16822507  1
  Te  Te190  1  -0.00574384  0.00076517  0.50063558  1
  Te  Te191  1  0.00030997  -0.00136672  0.83276806  1
  Te  Te192  1  0.00253766  0.33733938  0.16641197  1
  Te  Te193  1  0.00058060  0.33069709  0.49994918  1
  Te  Te194  1  -0.00032539  0.33853489  0.83333961  1
  Te  Te195  1  -0.00033723  0.66136938  0.16130600  1
  Te  Te196  1  0.00063644  0.67175192  0.49988007  1
  Te  Te197  1  0.00357603  0.65989800  0.83853895  1
  Te  Te198  1  0.33313406  0.00385295  0.16642106  1
  Te  Te199  1  0.33647915  -0.00239114  0.50416476  1
  Te  Te200  1  0.33351819  -0.00197939  0.82413993  1
  Te  Te201  1  0.32909859  0.32966725  0.16952655  1
  Te  Te202  1  0.33223719  0.33740030  0.49925966  1
  Te  Te203  1  0.33700566  0.33974203  0.83147435  1
  Te  Te204  1  0.33249133  0.66535507  0.16728372  1
  Te  Te205  1  0.33352038  0.66025619  0.49331041  1
  Te  Te206  1  0.33116726  0.66121539  0.83693477  1
  Te  Te207  1  0.67117755  -0.00048359  0.16447041  1
  Te  Te208  1  0.66581109  -0.00088794  0.49940947  1
  Te  Te209  1  0.66717670  -0.00602548  0.84111801  1
  Te  Te210  1  0.66631084  0.34075795  0.16357695  1
  Te  Te211  1  0.66660909  0.33316889  0.50088268  1
  Te  Te212  1  0.66596290  0.33276413  0.82801417  1
  Te  Te213  1  0.66601628  0.66445214  0.16656199  1
  Te  Te214  1  0.66643515  0.66904366  0.49719419  1
  Te  Te215  1  0.66628641  0.67253274  0.83837234  1
