# generated using pymatgen
data_AgSbTe2
_symmetry_space_group_name_H-M   'P 1'
_cell_length_a   18.34931408
_cell_length_b   18.35188137
_cell_length_c   18.34921341
_cell_angle_alpha   90.00177521
_cell_angle_beta   89.99789589
_cell_angle_gamma   90.00297647
_symmetry_Int_Tables_number   1
_chemical_formula_structural   AgSbTe2
_chemical_formula_sum   'Ag54 Sb54 Te108'
_cell_volume   6178.99549361
_cell_formula_units_Z   54
loop_
 _symmetry_equiv_pos_site_id
 _symmetry_equiv_pos_as_xyz
  1  'x, y, z'
loop_
 _atom_site_type_symbol
 _atom_site_label
 _atom_site_symmetry_multiplicity
 _atom_site_fract_x
 _atom_site_fract_y
 _atom_site_fract_z
 _atom_site_occupancy
  Ag  Ag0  1  0.16690141  0.49326871  0.33791595  1
  Ag  Ag1  1  0.83812560  -0.00886412  0.16902705  1
  Ag  Ag2  1  0.00371092  -0.00502954  0.00229489  1
  Ag  Ag3  1  0.48960428  0.82139428  0.65992123  1
  Ag  Ag4  1  0.83642464  0.33884110  0.50363545  1
  Ag  Ag5  1  0.83993310  0.16927464  0.34246840  1
  Ag  Ag6  1  0.67070406  0.49750427  0.50323382  1
  Ag  Ag7  1  0.33272636  0.82313725  0.50623037  1
  Ag  Ag8  1  0.50434071  0.66278661  0.50423681  1
  Ag  Ag9  1  0.33608095  0.50304833  0.50487524  1
  Ag  Ag10  1  0.16487337  0.50071052  0.66795728  1
  Ag  Ag11  1  0.82917543  0.83203559  0.32977318  1
  Ag  Ag12  1  0.83518763  0.82301474  0.66202630  1
  Ag  Ag13  1  -0.00225507  0.33885366  0.66659344  1
  Ag  Ag14  1  0.16664564  0.50389683  -0.00851955  1
  Ag  Ag15  1  0.16455667  0.33708916  0.82095676  1
  Ag  Ag16  1  -0.00164612  0.17359106  0.82314604  1
  Ag  Ag17  1  0.32137779  -0.00996070  0.00040353  1
  Ag  Ag18  1  0.32401537  0.17822086  0.50120425  1
  Ag  Ag19  1  0.67118229  0.65865168  0.66378815  1
  Ag  Ag20  1  0.17083540  0.82512944  0.67216115  1
  Ag  Ag21  1  0.84036580  0.17775523  0.65882661  1
  Ag  Ag22  1  0.32981377  0.66305088  0.66651706  1
  Ag  Ag23  1  0.67122357  -0.00270429  0.33404770  1
  Ag  Ag24  1  0.00214659  0.16549940  0.16950203  1
  Ag  Ag25  1  0.16128338  0.66534233  0.16076130  1
  Ag  Ag26  1  0.51247101  0.50427887  0.66174368  1
  Ag  Ag27  1  0.67538557  0.34630027  0.66653983  1
  Ag  Ag28  1  0.15887312  -0.00119197  0.16358250  1
  Ag  Ag29  1  0.84186261  0.83082847  0.00823571  1
  Ag  Ag30  1  -0.00020075  0.65480854  0.66870039  1
  Ag  Ag31  1  0.16488530  0.82220857  -0.00276645  1
  Ag  Ag32  1  0.83136611  0.65719189  0.50252388  1
  Ag  Ag33  1  0.32974049  0.82126559  0.82448917  1
  Ag  Ag34  1  0.32316623  0.50365440  0.82250972  1
  Ag  Ag35  1  -0.00333017  0.17059807  0.50556781  1
  Ag  Ag36  1  0.83836021  0.67183450  0.17198089  1
  Ag  Ag37  1  0.15993784  0.17585146  0.34149103  1
  Ag  Ag38  1  0.00447885  0.66977893  -0.00280149  1
  Ag  Ag39  1  0.16453626  0.33641308  0.17519122  1
  Ag  Ag40  1  0.67498442  0.17612323  0.82020257  1
  Ag  Ag41  1  0.32190526  0.67013400  -0.00712441  1
  Ag  Ag42  1  0.66824269  0.49462073  0.81539633  1
  Ag  Ag43  1  0.67378542  0.83237303  0.17139817  1
  Ag  Ag44  1  0.50491117  0.82757343  0.34046672  1
  Ag  Ag45  1  0.82646162  0.50051538  0.66270667  1
  Ag  Ag46  1  0.00623393  0.49692184  0.82705350  1
  Ag  Ag47  1  0.15571027  0.18088866  0.65985166  1
  Ag  Ag48  1  0.83477241  0.50171851  0.34577162  1
  Ag  Ag49  1  0.50087500  0.50429007  0.34431409  1
  Ag  Ag50  1  0.32656084  0.33680522  0.33924609  1
  Ag  Ag51  1  0.68086809  0.17686584  0.50419139  1
  Ag  Ag52  1  0.66962798  0.33544225  -0.01217274  1
  Ag  Ag53  1  0.16344200  0.33414228  0.50210558  1
  Sb  Sb54  1  0.83491223  -0.00010237  0.83676049  1
  Sb  Sb55  1  0.66918148  -0.00019083  0.66151539  1
  Sb  Sb56  1  0.83890111  0.33406320  0.17449430  1
  Sb  Sb57  1  0.33245953  0.66152816  0.33862441  1
  Sb  Sb58  1  0.49860782  -0.00060938  0.83210447  1
  Sb  Sb59  1  0.49993515  -0.00791235  0.49936214  1
  Sb  Sb60  1  0.83633154  0.16503502  -0.00058817  1
  Sb  Sb61  1  0.83666071  0.33363219  0.82395909  1
  Sb  Sb62  1  0.49987440  0.66793632  0.17397316  1
  Sb  Sb63  1  0.00543260  0.33277351  0.34099032  1
  Sb  Sb64  1  0.33341976  0.83186317  0.16770345  1
  Sb  Sb65  1  0.16415882  0.16929276  -0.00018466  1
  Sb  Sb66  1  0.33421508  0.00217547  0.33096007  1
  Sb  Sb67  1  0.32985736  0.33647660  0.00123784  1
  Sb  Sb68  1  0.16702908  0.00703441  0.49703084  1
  Sb  Sb69  1  -0.00454829  0.83522295  0.16463144  1
  Sb  Sb70  1  -0.00012335  0.00372834  0.67146341  1
  Sb  Sb71  1  0.66599267  0.82930613  0.49895223  1
  Sb  Sb72  1  0.83502104  0.66566762  0.82503614  1
  Sb  Sb73  1  0.66470486  0.83138169  0.83116549  1
  Sb  Sb74  1  0.67087908  0.66347082  -0.00473350  1
  Sb  Sb75  1  0.00582700  0.83034972  0.83402518  1
  Sb  Sb76  1  -0.00153156  0.49451432  0.50864184  1
  Sb  Sb77  1  0.32747440  0.17024718  0.82551746  1
  Sb  Sb78  1  0.66577821  0.33221713  0.33934135  1
  Sb  Sb79  1  0.83804120  0.50527278  -0.00386867  1
  Sb  Sb80  1  0.67593304  0.16323915  0.17182879  1
  Sb  Sb81  1  0.49602970  0.66535762  0.82150235  1
  Sb  Sb82  1  0.50058728  0.16735540  -0.00165934  1
  Sb  Sb83  1  0.16400190  0.65908061  0.50232611  1
  Sb  Sb84  1  0.49862468  0.34351085  0.50124564  1
  Sb  Sb85  1  0.33122134  -0.00746126  0.66857918  1
  Sb  Sb86  1  0.49581226  0.83001377  -0.00089352  1
  Sb  Sb87  1  0.00345188  0.49800667  0.16297962  1
  Sb  Sb88  1  0.50059049  0.16824209  0.33834406  1
  Sb  Sb89  1  0.16509299  0.00384464  0.83761584  1
  Sb  Sb90  1  -0.00432040  0.00385261  0.32715674  1
  Sb  Sb91  1  0.67142411  0.00180004  0.00392107  1
  Sb  Sb92  1  0.00235734  0.83656662  0.50409416  1
  Sb  Sb93  1  0.49674251  0.33577646  0.16994799  1
  Sb  Sb94  1  -0.00229148  0.66493962  0.33502550  1
  Sb  Sb95  1  0.16664936  0.83246583  0.33241620  1
  Sb  Sb96  1  0.83254207  0.00176652  0.49475557  1
  Sb  Sb97  1  0.32241017  0.16649450  0.17178251  1
  Sb  Sb98  1  0.67032963  0.50398074  0.17173877  1
  Sb  Sb99  1  0.50229304  0.17129206  0.66207077  1
  Sb  Sb100  1  -0.00179359  0.33508530  -0.00595633  1
  Sb  Sb101  1  0.16652126  0.65821719  0.83705490  1
  Sb  Sb102  1  0.49424968  0.50252987  -0.00525465  1
  Sb  Sb103  1  0.32888115  0.50176671  0.17006621  1
  Sb  Sb104  1  0.49871366  0.33603099  0.82931189  1
  Sb  Sb105  1  0.50167290  -0.00262880  0.16840526  1
  Sb  Sb106  1  0.32675592  0.34401483  0.66040211  1
  Sb  Sb107  1  0.66911418  0.66895493  0.33989587  1
  Te  Te108  1  0.16217093  0.16702385  0.16759276  1
  Te  Te109  1  0.16612391  0.16866160  0.50056946  1
  Te  Te110  1  0.16327614  0.17329219  0.82636830  1
  Te  Te111  1  0.16631197  0.50009882  0.17155501  1
  Te  Te112  1  0.16617284  0.49689490  0.49819099  1
  Te  Te113  1  0.16633949  0.49678721  0.83261487  1
  Te  Te114  1  0.16708457  0.83245627  0.16408580  1
  Te  Te115  1  0.17073144  0.83381938  0.50086332  1
  Te  Te116  1  0.17128295  0.83689827  0.83530195  1
  Te  Te117  1  0.49960276  0.16641855  0.16789049  1
  Te  Te118  1  0.49371189  0.16494727  0.49991888  1
  Te  Te119  1  0.50713249  0.16734464  0.83093895  1
  Te  Te120  1  0.50065116  0.50184406  0.17645787  1
  Te  Te121  1  0.49701661  0.50382800  0.50158313  1
  Te  Te122  1  0.50589608  0.49975567  0.82752256  1
  Te  Te123  1  0.50778711  0.83233187  0.17247634  1
  Te  Te124  1  0.49938455  0.82662060  0.50095033  1
  Te  Te125  1  0.49286432  0.83322741  0.82926705  1
  Te  Te126  1  0.83955885  0.16599442  0.17084700  1
  Te  Te127  1  0.83573713  0.16491157  0.49988408  1
  Te  Te128  1  0.83406802  0.16668384  0.83042854  1
  Te  Te129  1  0.83554256  0.50434214  0.16911128  1
  Te  Te130  1  0.83550329  0.49837818  0.50233937  1
  Te  Te131  1  0.82889528  0.49939157  0.82911251  1
  Te  Te132  1  0.83317463  0.83150316  0.16753177  1
  Te  Te133  1  0.83415585  0.83240585  0.50137067  1
  Te  Te134  1  0.83335301  0.83357518  0.83318607  1
  Te  Te135  1  0.16421856  0.00273090  0.00392966  1
  Te  Te136  1  0.16745929  0.00149266  0.32477489  1
  Te  Te137  1  0.16618266  -0.00830002  0.66612040  1
  Te  Te138  1  0.16607505  0.33955959  0.00340237  1
  Te  Te139  1  0.16678076  0.33282221  0.33536590  1
  Te  Te140  1  0.16729422  0.33604083  0.66327140  1
  Te  Te141  1  0.16450649  0.66525742  0.00055781  1
  Te  Te142  1  0.16495784  0.66440761  0.32562316  1
  Te  Te143  1  0.16512979  0.66606663  0.66448066  1
  Te  Te144  1  0.49602275  -0.00104299  0.00086674  1
  Te  Te145  1  0.50532200  -0.00621509  0.33211260  1
  Te  Te146  1  0.50063444  -0.01129408  0.66654123  1
  Te  Te147  1  0.50608058  0.33484411  0.00202422  1
  Te  Te148  1  0.49254950  0.33919268  0.33357766  1
  Te  Te149  1  0.51214227  0.33907916  0.66591746  1
  Te  Te150  1  0.49649221  0.66608903  0.00313606  1
  Te  Te151  1  0.49949541  0.66570407  0.34033207  1
  Te  Te152  1  0.49547912  0.66444242  0.66167628  1
  Te  Te153  1  0.83684646  -0.00509422  0.00668240  1
  Te  Te154  1  0.83120839  -0.00078068  0.32876986  1
  Te  Te155  1  0.83345124  -0.00533709  0.66788644  1
  Te  Te156  1  0.82940472  0.33555061  0.00465755  1
  Te  Te157  1  0.83278480  0.33372758  0.34020816  1
  Te  Te158  1  0.83492820  0.33416145  0.66319860  1
  Te  Te159  1  0.83626985  0.67043064  0.00458194  1
  Te  Te160  1  0.83372047  0.66548800  0.33449137  1
  Te  Te161  1  0.83578144  0.66325216  0.66450536  1
  Te  Te162  1  -0.00072246  0.16464975  -0.00016990  1
  Te  Te163  1  0.00038364  0.16783578  0.33171692  1
  Te  Te164  1  -0.00076928  0.16577072  0.66717090  1
  Te  Te165  1  0.00434160  0.50370643  -0.00709733  1
  Te  Te166  1  -0.00156240  0.49990924  0.33120800  1
  Te  Te167  1  0.00517545  0.49824838  0.66986403  1
  Te  Te168  1  0.00273147  0.83132119  -0.00154527  1
  Te  Te169  1  -0.00740654  0.83430442  0.33603636  1
  Te  Te170  1  -0.00130390  0.83331997  0.66932726  1
  Te  Te171  1  0.33412960  0.16540044  -0.00230882  1
  Te  Te172  1  0.33119008  0.16960352  0.33929615  1
  Te  Te173  1  0.33300545  0.16428409  0.66176057  1
  Te  Te174  1  0.32921269  0.50436356  -0.00325162  1
  Te  Te175  1  0.32915993  0.49809623  0.33682131  1
  Te  Te176  1  0.32450620  0.50186294  0.66572826  1
  Te  Te177  1  0.33061797  0.83117267  0.00059181  1
  Te  Te178  1  0.33666884  0.83330739  0.33858916  1
  Te  Te179  1  0.33125155  0.83005785  0.66656960  1
  Te  Te180  1  0.66764540  0.17129201  -0.00046839  1
  Te  Te181  1  0.66900968  0.16375947  0.33850868  1
  Te  Te182  1  0.66782802  0.16494095  0.66312412  1
  Te  Te183  1  0.66505675  0.49639175  0.00195059  1
  Te  Te184  1  0.66903357  0.49980527  0.33886710  1
  Te  Te185  1  0.66863092  0.50263368  0.66072269  1
  Te  Te186  1  0.66852132  0.83314072  0.00063350  1
  Te  Te187  1  0.66901021  0.83444463  0.33300005  1
  Te  Te188  1  0.67345966  0.83120989  0.66733109  1
  Te  Te189  1  -0.00074279  0.00262624  0.16240906  1
  Te  Te190  1  0.00057532  0.00882652  0.49953035  1
  Te  Te191  1  -0.00024301  0.00758581  0.84200752  1
  Te  Te192  1  0.00546863  0.32748049  0.16282841  1
  Te  Te193  1  -0.00023731  0.32885841  0.50594632  1
  Te  Te194  1  0.00349710  0.33384585  0.82969350  1
  Te  Te195  1  -0.00001037  0.66539093  0.16364850  1
  Te  Te196  1  -0.00679860  0.66981475  0.50658851  1
  Te  Te197  1  -0.00044907  0.66288984  0.83132727  1
  Te  Te198  1  0.33073490  -0.00013657  0.16132178  1
  Te  Te199  1  0.33370632  -0.00341542  0.49910084  1
  Te  Te200  1  0.33310087  0.00138437  0.84057029  1
  Te  Te201  1  0.32675735  0.33289750  0.17096716  1
  Te  Te202  1  0.33131244  0.33659979  0.49885146  1
  Te  Te203  1  0.32793684  0.33901466  0.83400018  1
  Te  Te204  1  0.33003925  0.66772812  0.16029634  1
  Te  Te205  1  0.33018392  0.66399028  0.50373400  1
  Te  Te206  1  0.33231860  0.66404008  0.83209236  1
  Te  Te207  1  0.67207342  -0.00420814  0.17101766  1
  Te  Te208  1  0.66544565  0.00725603  0.49394628  1
  Te  Te209  1  0.66630340  0.00605010  0.83507140  1
  Te  Te210  1  0.66645114  0.33331872  0.16660494  1
  Te  Te211  1  0.66807931  0.33519202  0.50240433  1
  Te  Te212  1  0.66620985  0.33351451  0.82970189  1
  Te  Te213  1  0.67054459  0.67156760  0.16401125  1
  Te  Te214  1  0.66914509  0.66316293  0.50485197  1
  Te  Te215  1  0.66570704  0.66193642  0.82664955  1
