# generated using pymatgen
data_AgSbTe2
_symmetry_space_group_name_H-M   'P 1'
_cell_length_a   18.32611180
_cell_length_b   18.32817064
_cell_length_c   18.33298928
_cell_angle_alpha   90.00032889
_cell_angle_beta   90.00000900
_cell_angle_gamma   89.99929706
_symmetry_Int_Tables_number   1
_chemical_formula_structural   AgSbTe2
_chemical_formula_sum   'Ag54 Sb54 Te108'
_cell_volume   6157.75968474
_cell_formula_units_Z   54
loop_
 _symmetry_equiv_pos_site_id
 _symmetry_equiv_pos_as_xyz
  1  'x, y, z'
loop_
 _atom_site_type_symbol
 _atom_site_label
 _atom_site_symmetry_multiplicity
 _atom_site_fract_x
 _atom_site_fract_y
 _atom_site_fract_z
 _atom_site_occupancy
  Ag  Ag0  1  0.33412206  0.83229753  0.50698124  1
  Ag  Ag1  1  0.17159050  0.00698978  0.49985861  1
  Ag  Ag2  1  0.33167286  0.33564700  0.66553725  1
  Ag  Ag3  1  0.00702973  0.66428484  0.66758062  1
  Ag  Ag4  1  0.65901997  0.49413823  0.16862348  1
  Ag  Ag5  1  0.16665289  0.67138240  0.17479825  1
  Ag  Ag6  1  0.67031711  0.17077081  0.16982507  1
  Ag  Ag7  1  0.67438362  0.16583443  0.82194275  1
  Ag  Ag8  1  0.83311144  0.32815588  0.82909067  1
  Ag  Ag9  1  0.49024868  0.83449240  0.34658571  1
  Ag  Ag10  1  0.15892313  0.15674209  0.34154263  1
  Ag  Ag11  1  0.00692549  0.16938709  0.50396217  1
  Ag  Ag12  1  0.83670281  0.17222164  0.66675313  1
  Ag  Ag13  1  0.83666571  0.49364252  0.34054703  1
  Ag  Ag14  1  0.16592947  -0.00254353  0.18144023  1
  Ag  Ag15  1  0.83794394  0.17186036  0.33809098  1
  Ag  Ag16  1  0.83594841  0.49337823  0.66482361  1
  Ag  Ag17  1  -0.00173061  0.16373053  0.17909496  1
  Ag  Ag18  1  0.49718247  0.32666484  0.49981763  1
  Ag  Ag19  1  0.33008614  0.50344136  0.50417555  1
  Ag  Ag20  1  0.66090960  0.16674345  0.50579521  1
  Ag  Ag21  1  0.50175216  0.16097735  0.66292971  1
  Ag  Ag22  1  0.83249864  0.16793203  -0.01175945  1
  Ag  Ag23  1  0.33094793  0.83197496  0.82709510  1
  Ag  Ag24  1  0.66294205  0.66725995  0.66760340  1
  Ag  Ag25  1  0.50079471  0.33420014  0.17066773  1
  Ag  Ag26  1  0.66366032  0.66511752  -0.00874066  1
  Ag  Ag27  1  0.49691839  0.84164755  0.66478021  1
  Ag  Ag28  1  0.00970628  0.49477046  0.50266901  1
  Ag  Ag29  1  0.49131469  0.66888844  0.50404135  1
  Ag  Ag30  1  0.49753039  0.83107050  -0.00552207  1
  Ag  Ag31  1  0.33607213  0.33202983  -0.00853363  1
  Ag  Ag32  1  0.16740738  0.67314696  0.82433208  1
  Ag  Ag33  1  0.17154441  0.66836599  0.50348617  1
  Ag  Ag34  1  0.33309730  0.00301603  -0.00472731  1
  Ag  Ag35  1  0.00157639  0.32705204  0.66525376  1
  Ag  Ag36  1  0.17157864  -0.00380878  0.82798886  1
  Ag  Ag37  1  0.16975983  0.83751907  0.33549280  1
  Ag  Ag38  1  -0.00360441  0.16326789  0.82140658  1
  Ag  Ag39  1  0.33158719  0.16345633  0.50442110  1
  Ag  Ag40  1  0.16623559  0.16455771  0.66048591  1
  Ag  Ag41  1  0.00568282  0.00460135  0.33458875  1
  Ag  Ag42  1  0.16557746  0.50175931  0.33788163  1
  Ag  Ag43  1  0.01035910  0.83756543  0.83212096  1
  Ag  Ag44  1  0.49697687  0.50204767  0.00141304  1
  Ag  Ag45  1  0.33239976  0.66252857  0.66485457  1
  Ag  Ag46  1  0.49274035  -0.00095350  0.82236616  1
  Ag  Ag47  1  0.00641284  0.83985249  0.16480891  1
  Ag  Ag48  1  0.33326971  0.50453671  0.82508941  1
  Ag  Ag49  1  0.66636758  0.33033079  0.33242758  1
  Ag  Ag50  1  0.66025928  0.01088183  0.66660440  1
  Ag  Ag51  1  0.33672580  0.49890190  0.16613038  1
  Ag  Ag52  1  0.83659841  0.66295511  0.82877407  1
  Ag  Ag53  1  0.49122818  0.00358998  0.50561759  1
  Sb  Sb54  1  0.50245289  0.16719777  -0.00448229  1
  Sb  Sb55  1  0.32931314  0.82904490  0.16690710  1
  Sb  Sb56  1  0.82914393  0.33097403  0.16501492  1
  Sb  Sb57  1  0.16415747  0.16454476  -0.00135830  1
  Sb  Sb58  1  0.17262068  0.33024185  0.50017437  1
  Sb  Sb59  1  0.49785601  0.67165037  0.82735375  1
  Sb  Sb60  1  0.00272539  0.33051450  -0.00558715  1
  Sb  Sb61  1  0.00999154  0.83482231  0.50295942  1
  Sb  Sb62  1  0.83834070  0.83438551  0.33335698  1
  Sb  Sb63  1  0.17214490  0.83402215  -0.00014545  1
  Sb  Sb64  1  0.83045100  0.33055823  0.50438922  1
  Sb  Sb65  1  0.66727502  0.83428925  0.16621717  1
  Sb  Sb66  1  0.49785645  0.50156350  0.33315344  1
  Sb  Sb67  1  0.83483015  0.00294686  0.83141683  1
  Sb  Sb68  1  0.33751279  0.66595467  -0.00647258  1
  Sb  Sb69  1  0.00629390  0.00149767  0.00115455  1
  Sb  Sb70  1  0.83999484  0.00529236  0.16751363  1
  Sb  Sb71  1  0.66392625  0.49631310  0.49813582  1
  Sb  Sb72  1  0.00423158  0.49959231  0.82552445  1
  Sb  Sb73  1  0.17378810  0.83580367  0.66455539  1
  Sb  Sb74  1  0.50138069  0.32862796  0.83037539  1
  Sb  Sb75  1  0.66304336  0.49794118  0.83429986  1
  Sb  Sb76  1  0.16562890  0.50123908  0.66120792  1
  Sb  Sb77  1  0.16591845  0.33212151  0.82889529  1
  Sb  Sb78  1  0.17138862  0.33099516  0.16941149  1
  Sb  Sb79  1  0.65994563  0.00034714  -0.00486682  1
  Sb  Sb80  1  0.49468078  0.66364110  0.16930513  1
  Sb  Sb81  1  0.49993529  0.16418046  0.34099697  1
  Sb  Sb82  1  0.83549041  0.00514891  0.50185385  1
  Sb  Sb83  1  0.83559173  0.66277064  0.50744404  1
  Sb  Sb84  1  0.32842011  0.00005209  0.33498966  1
  Sb  Sb85  1  0.00325318  0.49737750  0.17620664  1
  Sb  Sb86  1  0.66598955  0.66197641  0.33681870  1
  Sb  Sb87  1  0.83046569  0.83353912  0.66813737  1
  Sb  Sb88  1  0.82986294  0.83659614  -0.00339292  1
  Sb  Sb89  1  0.33677149  0.33434064  0.33901140  1
  Sb  Sb90  1  0.33774470  0.00054307  0.66692362  1
  Sb  Sb91  1  0.83708676  0.66390742  0.16259153  1
  Sb  Sb92  1  0.66632718  0.33119052  0.66274237  1
  Sb  Sb93  1  0.49925761  0.49889176  0.66778082  1
  Sb  Sb94  1  0.33235106  0.16928595  0.17077052  1
  Sb  Sb95  1  0.66177245  0.33461237  0.00324515  1
  Sb  Sb96  1  -0.00267559  0.66757622  -0.00771112  1
  Sb  Sb97  1  -0.00337939  0.32691310  0.34059103  1
  Sb  Sb98  1  0.00322541  0.66915135  0.33934452  1
  Sb  Sb99  1  0.17407038  0.50214261  0.00294385  1
  Sb  Sb100  1  0.33128820  0.16463542  0.82643793  1
  Sb  Sb101  1  0.82757480  0.49584735  -0.00338799  1
  Sb  Sb102  1  0.49457671  0.00368844  0.16895074  1
  Sb  Sb103  1  0.66899203  0.00783054  0.33826217  1
  Sb  Sb104  1  0.65472903  0.83886630  0.50134534  1
  Sb  Sb105  1  0.66253160  0.83643692  0.83115381  1
  Sb  Sb106  1  -0.00047820  0.00237898  0.66446726  1
  Sb  Sb107  1  0.33081059  0.66636333  0.34216362  1
  Te  Te108  1  0.16341912  0.16253501  0.16874455  1
  Te  Te109  1  0.16745377  0.16722373  0.50038639  1
  Te  Te110  1  0.16220029  0.16427531  0.83060428  1
  Te  Te111  1  0.17017616  0.50259047  0.17192134  1
  Te  Te112  1  0.16856020  0.50169664  0.49832802  1
  Te  Te113  1  0.17243842  0.50403111  0.83442339  1
  Te  Te114  1  0.16467621  0.83444539  0.16801814  1
  Te  Te115  1  0.17258315  0.83042967  0.49741788  1
  Te  Te116  1  0.16980917  0.83341601  0.83299107  1
  Te  Te117  1  0.50211718  0.17144060  0.16765793  1
  Te  Te118  1  0.49827149  0.16470111  0.50141780  1
  Te  Te119  1  0.50199945  0.16143191  0.82856543  1
  Te  Te120  1  0.49912067  0.49814739  0.16642824  1
  Te  Te121  1  0.49560945  0.50250193  0.49969954  1
  Te  Te122  1  0.49476392  0.49907876  0.83824832  1
  Te  Te123  1  0.49914380  0.83335948  0.16457649  1
  Te  Te124  1  0.49452137  0.83337649  0.50336067  1
  Te  Te125  1  0.49676982  0.83759384  0.83181259  1
  Te  Te126  1  0.83396354  0.16717302  0.17527599  1
  Te  Te127  1  0.83349272  0.16643273  0.50023039  1
  Te  Te128  1  0.83414593  0.16512316  0.82914259  1
  Te  Te129  1  0.83079672  0.49881188  0.16879001  1
  Te  Te130  1  0.83348600  0.49798498  0.50108896  1
  Te  Te131  1  0.83334700  0.50125091  0.82933374  1
  Te  Te132  1  0.84298283  0.83342276  0.16558887  1
  Te  Te133  1  0.83381781  0.83312858  0.49882352  1
  Te  Te134  1  0.83872954  0.82773408  0.83411255  1
  Te  Te135  1  0.17311524  -0.00041927  -0.01143767  1
  Te  Te136  1  0.16601401  -0.00095887  0.33776844  1
  Te  Te137  1  0.16612124  0.00387435  0.66532816  1
  Te  Te138  1  0.17651847  0.33347421  -0.00015131  1
  Te  Te139  1  0.16495616  0.33993351  0.33264402  1
  Te  Te140  1  0.16614212  0.32663840  0.66651364  1
  Te  Te141  1  0.16604884  0.66743661  -0.00193341  1
  Te  Te142  1  0.16523627  0.66740011  0.33501602  1
  Te  Te143  1  0.16803842  0.66760358  0.66467785  1
  Te  Te144  1  0.49407571  -0.00264532  0.00128494  1
  Te  Te145  1  0.50052273  -0.00636677  0.33677196  1
  Te  Te146  1  0.50165595  0.00072769  0.66551805  1
  Te  Te147  1  0.49509962  0.33542307  0.00108860  1
  Te  Te148  1  0.50365843  0.33344046  0.33437041  1
  Te  Te149  1  0.49637429  0.33124785  0.66294617  1
  Te  Te150  1  0.50376005  0.66661817  0.00119185  1
  Te  Te151  1  0.50125638  0.67398683  0.33925017  1
  Te  Te152  1  0.49849819  0.66441359  0.66405099  1
  Te  Te153  1  0.83105029  0.00787263  -0.00006070  1
  Te  Te154  1  0.84072440  0.00410518  0.33438487  1
  Te  Te155  1  0.82255747  0.00431580  0.66660707  1
  Te  Te156  1  0.83355923  0.32825264  -0.00757125  1
  Te  Te157  1  0.82986736  0.33361173  0.33174982  1
  Te  Te158  1  0.83331219  0.33334356  0.66973344  1
  Te  Te159  1  0.82640750  0.66595105  -0.00664060  1
  Te  Te160  1  0.83460270  0.66077621  0.33350243  1
  Te  Te161  1  0.83214006  0.66707690  0.67067622  1
  Te  Te162  1  -0.00546548  0.16734986  -0.00264728  1
  Te  Te163  1  0.00013989  0.16658422  0.33680742  1
  Te  Te164  1  -0.00190037  0.16438276  0.66382656  1
  Te  Te165  1  -0.00153519  0.49844130  0.00212141  1
  Te  Te166  1  -0.00071695  0.49915729  0.34095101  1
  Te  Te167  1  -0.00172333  0.50043582  0.66250233  1
  Te  Te168  1  -0.00139791  0.83369519  -0.00146794  1
  Te  Te169  1  0.00451790  0.83861337  0.33149586  1
  Te  Te170  1  -0.00163918  0.83102966  0.67126026  1
  Te  Te171  1  0.33360054  0.16869920  0.00073670  1
  Te  Te172  1  0.32606854  0.16732420  0.34002663  1
  Te  Te173  1  0.33343766  0.17033374  0.66397602  1
  Te  Te174  1  0.33723411  0.49843136  0.00159993  1
  Te  Te175  1  0.32974129  0.49985519  0.33453286  1
  Te  Te176  1  0.33257682  0.49893678  0.66578126  1
  Te  Te177  1  0.33884389  0.83451787  -0.00340257  1
  Te  Te178  1  0.33113165  0.83345953  0.33532192  1
  Te  Te179  1  0.33708609  0.82915268  0.66737969  1
  Te  Te180  1  0.67021223  0.16674158  0.00554316  1
  Te  Te181  1  0.66775766  0.16933045  0.33176425  1
  Te  Te182  1  0.66469465  0.17004969  0.66525348  1
  Te  Te183  1  0.66135907  0.50346091  0.00405601  1
  Te  Te184  1  0.66919360  0.49536955  0.33002747  1
  Te  Te185  1  0.67251264  0.50360566  0.66668936  1
  Te  Te186  1  0.66079788  0.82848870  0.00002777  1
  Te  Te187  1  0.66804176  0.83455149  0.33250080  1
  Te  Te188  1  0.66077526  0.82758555  0.66672793  1
  Te  Te189  1  0.00612508  0.00220089  0.16719095  1
  Te  Te190  1  0.00543471  0.00269942  0.49734922  1
  Te  Te191  1  0.00369587  0.00002658  0.83303988  1
  Te  Te192  1  0.00112127  0.32653442  0.16442855  1
  Te  Te193  1  -0.00109149  0.33259744  0.50649323  1
  Te  Te194  1  -0.00321724  0.32976589  0.82706421  1
  Te  Te195  1  0.00580562  0.66691972  0.16510641  1
  Te  Te196  1  0.00373082  0.66578574  0.50693468  1
  Te  Te197  1  0.00373118  0.66678691  0.82835637  1
  Te  Te198  1  0.32638829  0.00000919  0.16050544  1
  Te  Te199  1  0.33208440  0.00036770  0.50023640  1
  Te  Te200  1  0.33346291  -0.00070109  0.83364220  1
  Te  Te201  1  0.33893055  0.33740907  0.16826195  1
  Te  Te202  1  0.33831091  0.33469017  0.50393631  1
  Te  Te203  1  0.33396689  0.33604469  0.82998099  1
  Te  Te204  1  0.32680651  0.66068122  0.16384107  1
  Te  Te205  1  0.33245530  0.66570832  0.50304512  1
  Te  Te206  1  0.33148679  0.66790374  0.82822752  1
  Te  Te207  1  0.66574964  0.00452611  0.16658849  1
  Te  Te208  1  0.66315004  0.00580194  0.50425626  1
  Te  Te209  1  0.66379435  0.00447989  0.82966768  1
  Te  Te210  1  0.66311534  0.33307550  0.16860584  1
  Te  Te211  1  0.65994436  0.32868982  0.49541974  1
  Te  Te212  1  0.67007006  0.32835052  0.83438596  1
  Te  Te213  1  0.66759770  0.66457731  0.16776212  1
  Te  Te214  1  0.66539268  0.66600445  0.50499813  1
  Te  Te215  1  0.66687131  0.66634204  0.83100880  1
