# generated using pymatgen
data_AgSbTe2
_symmetry_space_group_name_H-M   'P 1'
_cell_length_a   18.32329619
_cell_length_b   18.32134568
_cell_length_c   18.32354886
_cell_angle_alpha   90.00022709
_cell_angle_beta   89.99793768
_cell_angle_gamma   89.99748031
_symmetry_Int_Tables_number   1
_chemical_formula_structural   AgSbTe2
_chemical_formula_sum   'Ag54 Sb54 Te108'
_cell_volume   6151.35173477
_cell_formula_units_Z   54
loop_
 _symmetry_equiv_pos_site_id
 _symmetry_equiv_pos_as_xyz
  1  'x, y, z'
loop_
 _atom_site_type_symbol
 _atom_site_label
 _atom_site_symmetry_multiplicity
 _atom_site_fract_x
 _atom_site_fract_y
 _atom_site_fract_z
 _atom_site_occupancy
  Ag  Ag0  1  0.50231895  0.50318088  0.66530137  1
  Ag  Ag1  1  0.66607342  0.50258122  0.15886338  1
  Ag  Ag2  1  0.66965022  0.17894736  0.50373352  1
  Ag  Ag3  1  0.50186506  0.66531467  0.50288039  1
  Ag  Ag4  1  0.00102501  -0.00314525  0.66480924  1
  Ag  Ag5  1  0.49315966  0.82306514  0.66478777  1
  Ag  Ag6  1  0.16054319  0.50486850  0.66732238  1
  Ag  Ag7  1  0.16278526  0.00285000  0.82934813  1
  Ag  Ag8  1  0.32933795  0.83166828  0.16922546  1
  Ag  Ag9  1  0.15738109  0.50087181  -0.00892886  1
  Ag  Ag10  1  0.16657108  0.33567028  0.83412253  1
  Ag  Ag11  1  0.00444794  -0.01329322  0.34140011  1
  Ag  Ag12  1  0.50492112  0.50196593  0.34151260  1
  Ag  Ag13  1  0.33292835  0.83111250  0.50025261  1
  Ag  Ag14  1  0.00261338  0.66502216  0.65862525  1
  Ag  Ag15  1  -0.00227064  0.34204576  0.33719950  1
  Ag  Ag16  1  0.33472261  0.16350931  0.16561344  1
  Ag  Ag17  1  0.67231330  0.33902479  0.34718052  1
  Ag  Ag18  1  0.32819795  0.16736941  0.83089622  1
  Ag  Ag19  1  0.83619010  0.16779037  0.66415047  1
  Ag  Ag20  1  0.16882566  0.82538867  0.66216951  1
  Ag  Ag21  1  0.83546633  0.81943286  0.00412033  1
  Ag  Ag22  1  -0.00392002  0.66189009  -0.00060462  1
  Ag  Ag23  1  -0.00395784  0.50226517  0.50260391  1
  Ag  Ag24  1  0.33156653  0.83468249  0.83016242  1
  Ag  Ag25  1  0.00117735  0.49792047  0.83695333  1
  Ag  Ag26  1  0.15915918  0.66528232  0.50039770  1
  Ag  Ag27  1  0.33047705  0.34026265  -0.00479850  1
  Ag  Ag28  1  0.50330562  0.66379207  0.16579663  1
  Ag  Ag29  1  0.33335890  0.16428712  0.50470504  1
  Ag  Ag30  1  0.66482021  0.33657416  0.66379762  1
  Ag  Ag31  1  -0.00342448  0.17389872  0.50683672  1
  Ag  Ag32  1  0.83175304  0.34076741  0.49940364  1
  Ag  Ag33  1  0.84241497  -0.00020704  0.83200557  1
  Ag  Ag34  1  0.66446635  0.81783327  0.50092048  1
  Ag  Ag35  1  0.83675231  0.50289853  -0.00189985  1
  Ag  Ag36  1  0.00302655  0.82921756  0.17249180  1
  Ag  Ag37  1  0.66894940  0.49875418  0.83592294  1
  Ag  Ag38  1  0.67284517  0.49979505  0.50147993  1
  Ag  Ag39  1  0.33252525  0.66292133  -0.00007495  1
  Ag  Ag40  1  0.16196692  0.82791494  0.34005229  1
  Ag  Ag41  1  0.32621130  -0.00430842  0.33539958  1
  Ag  Ag42  1  0.16217763  0.50575814  0.33787437  1
  Ag  Ag43  1  0.84409021  0.82952560  0.33316458  1
  Ag  Ag44  1  0.50278255  0.17250202  0.66532260  1
  Ag  Ag45  1  -0.00080996  0.66630423  0.33866393  1
  Ag  Ag46  1  0.67115064  0.34315479  -0.00515923  1
  Ag  Ag47  1  -0.00052151  0.34429532  -0.00521532  1
  Ag  Ag48  1  0.49881141  0.65914225  0.82856475  1
  Ag  Ag49  1  0.83465521  0.66600976  0.16510070  1
  Ag  Ag50  1  0.00475524  0.17304228  0.82676023  1
  Ag  Ag51  1  0.83912354  0.66235590  0.49649363  1
  Ag  Ag52  1  0.49807132  0.34147792  0.83150440  1
  Ag  Ag53  1  0.67590862  0.66033865  0.00141957  1
  Sb  Sb54  1  0.49705904  -0.00017373  0.82968928  1
  Sb  Sb55  1  0.16709971  0.17421103  -0.00444650  1
  Sb  Sb56  1  0.83565383  0.83405078  0.66463062  1
  Sb  Sb57  1  0.83396009  0.49726094  0.66680075  1
  Sb  Sb58  1  0.00072091  0.82534941  0.49652212  1
  Sb  Sb59  1  0.83423724  0.33285593  0.82922290  1
  Sb  Sb60  1  0.66958710  0.00111333  0.33674069  1
  Sb  Sb61  1  0.33220370  0.49921383  0.83467937  1
  Sb  Sb62  1  0.33101632  0.33126373  0.33034514  1
  Sb  Sb63  1  0.16932548  0.66349086  0.82888712  1
  Sb  Sb64  1  0.49716458  0.82442447  0.33981588  1
  Sb  Sb65  1  0.16573351  0.16614298  0.33642848  1
  Sb  Sb66  1  0.50507110  0.50286338  -0.00551610  1
  Sb  Sb67  1  0.00232860  0.16351328  0.16728923  1
  Sb  Sb68  1  0.32879453  0.67070827  0.33136421  1
  Sb  Sb69  1  0.83447184  0.17255712  -0.00657808  1
  Sb  Sb70  1  0.66324549  0.82680052  0.82887009  1
  Sb  Sb71  1  0.83558774  -0.01098246  0.16406426  1
  Sb  Sb72  1  0.32686888  -0.00242469  0.66410093  1
  Sb  Sb73  1  0.66739165  0.66061651  0.66632751  1
  Sb  Sb74  1  0.50606422  0.33981913  0.50651758  1
  Sb  Sb75  1  0.00393477  0.83032837  0.83440340  1
  Sb  Sb76  1  0.33785359  0.33184936  0.67120081  1
  Sb  Sb77  1  0.16293101  0.66667417  0.17039504  1
  Sb  Sb78  1  0.83344450  0.34007908  0.17071565  1
  Sb  Sb79  1  0.16456102  -0.00718279  0.50353796  1
  Sb  Sb80  1  0.00026345  -0.00253601  -0.00423869  1
  Sb  Sb81  1  0.50121411  0.82622671  -0.00511713  1
  Sb  Sb82  1  0.16623039  0.33631072  0.16207529  1
  Sb  Sb83  1  0.66166146  0.17848939  0.17157569  1
  Sb  Sb84  1  0.66640647  0.82382171  0.17139562  1
  Sb  Sb85  1  0.16653810  -0.00233739  0.16570313  1
  Sb  Sb86  1  0.83564717  0.16466902  0.34064174  1
  Sb  Sb87  1  0.67089879  0.66050668  0.33379630  1
  Sb  Sb88  1  0.16188893  0.34008358  0.50435003  1
  Sb  Sb89  1  0.49788799  -0.00481790  0.50192537  1
  Sb  Sb90  1  0.49733728  -0.00813327  0.16945759  1
  Sb  Sb91  1  0.83462021  0.50542924  0.33398310  1
  Sb  Sb92  1  0.83252961  0.66739899  0.83410581  1
  Sb  Sb93  1  0.67024575  -0.00389075  -0.00271286  1
  Sb  Sb94  1  0.33234873  0.50243291  0.50000615  1
  Sb  Sb95  1  0.16416278  0.82588634  -0.00163058  1
  Sb  Sb96  1  0.49930784  0.34008409  0.16250583  1
  Sb  Sb97  1  0.83792212  -0.00161720  0.50360814  1
  Sb  Sb98  1  0.49831071  0.17394320  0.34158694  1
  Sb  Sb99  1  0.16437781  0.16902982  0.66717201  1
  Sb  Sb100  1  -0.00344986  0.33636303  0.66721457  1
  Sb  Sb101  1  0.67174905  0.00323454  0.66575020  1
  Sb  Sb102  1  0.33207413  0.66837104  0.66912791  1
  Sb  Sb103  1  0.33152250  -0.00204174  0.00036909  1
  Sb  Sb104  1  0.66656064  0.17545735  0.82669996  1
  Sb  Sb105  1  0.49855894  0.17272643  -0.00648925  1
  Sb  Sb106  1  0.33827651  0.50439374  0.16402046  1
  Sb  Sb107  1  -0.00389816  0.50682019  0.16586708  1
  Te  Te108  1  0.17481743  0.16582158  0.16621749  1
  Te  Te109  1  0.16741860  0.16821739  0.50159321  1
  Te  Te110  1  0.16552056  0.16961459  0.83174946  1
  Te  Te111  1  0.16830616  0.50049870  0.17294402  1
  Te  Te112  1  0.16542193  0.50531340  0.50128727  1
  Te  Te113  1  0.16428423  0.49805867  0.83137464  1
  Te  Te114  1  0.16827360  0.83324362  0.16922484  1
  Te  Te115  1  0.16876506  0.82810348  0.50061892  1
  Te  Te116  1  0.17174425  0.83321766  0.83049482  1
  Te  Te117  1  0.49445655  0.16553110  0.16804446  1
  Te  Te118  1  0.49923549  0.16697569  0.50575119  1
  Te  Te119  1  0.49690364  0.16802888  0.82656212  1
  Te  Te120  1  0.50510461  0.50578740  0.17185872  1
  Te  Te121  1  0.49872431  0.50412865  0.50255876  1
  Te  Te122  1  0.49985064  0.49995642  0.82903914  1
  Te  Te123  1  0.49666600  0.82472111  0.16700757  1
  Te  Te124  1  0.49865374  0.82897144  0.50463745  1
  Te  Te125  1  0.49462675  0.83181110  0.82687040  1
  Te  Te126  1  0.83155219  0.16429918  0.16511256  1
  Te  Te127  1  0.83477741  0.16644426  0.50404513  1
  Te  Te128  1  0.83706645  0.16382836  0.82822008  1
  Te  Te129  1  0.82739164  0.50633164  0.16183075  1
  Te  Te130  1  0.83552231  0.50028965  0.50085041  1
  Te  Te131  1  0.83490943  0.49976429  0.83646276  1
  Te  Te132  1  0.83380985  0.82574402  0.16706505  1
  Te  Te133  1  0.82955211  0.82919891  0.49711416  1
  Te  Te134  1  0.83205972  0.83785674  0.83491961  1
  Te  Te135  1  0.16623377  -0.00066141  -0.00921554  1
  Te  Te136  1  0.16518932  -0.00434114  0.33355146  1
  Te  Te137  1  0.16029483  -0.00373723  0.67047794  1
  Te  Te138  1  0.16397331  0.33983696  -0.00410475  1
  Te  Te139  1  0.16155744  0.33807730  0.33439982  1
  Te  Te140  1  0.16783603  0.34084575  0.67227475  1
  Te  Te141  1  0.16522946  0.66082487  0.00042813  1
  Te  Te142  1  0.16279801  0.66760277  0.33673372  1
  Te  Te143  1  0.16516996  0.66538402  0.66349509  1
  Te  Te144  1  0.50149493  0.00018503  0.00006541  1
  Te  Te145  1  0.49542481  0.00110462  0.33382112  1
  Te  Te146  1  0.50087995  0.00118107  0.66671686  1
  Te  Te147  1  0.49771975  0.33579611  -0.00588519  1
  Te  Te148  1  0.50189581  0.34183329  0.33178321  1
  Te  Te149  1  0.50381143  0.33525048  0.67147276  1
  Te  Te150  1  0.49582828  0.66662367  -0.00049407  1
  Te  Te151  1  0.50024191  0.66004757  0.33555857  1
  Te  Te152  1  0.50105033  0.66489284  0.66709675  1
  Te  Te153  1  0.83417429  -0.00149437  -0.00641595  1
  Te  Te154  1  0.83877785  -0.00768093  0.33240150  1
  Te  Te155  1  0.84050883  0.00310828  0.67080178  1
  Te  Te156  1  0.83476039  0.33943172  0.00115354  1
  Te  Te157  1  0.83470669  0.33265578  0.33753926  1
  Te  Te158  1  0.82783352  0.32888258  0.66079550  1
  Te  Te159  1  0.83396720  0.66366696  -0.00325534  1
  Te  Te160  1  0.83631535  0.67042885  0.33547807  1
  Te  Te161  1  0.84005108  0.66722657  0.66137657  1
  Te  Te162  1  -0.00013430  0.16959463  -0.00348541  1
  Te  Te163  1  0.00049145  0.17121552  0.33514894  1
  Te  Te164  1  -0.00049363  0.16841503  0.66792992  1
  Te  Te165  1  0.00008381  0.50114035  0.00284880  1
  Te  Te166  1  0.00016707  0.50201241  0.33269222  1
  Te  Te167  1  -0.00011289  0.50276068  0.66438758  1
  Te  Te168  1  -0.00341461  0.82951213  0.00384813  1
  Te  Te169  1  0.00203190  0.82964918  0.33475819  1
  Te  Te170  1  0.00396459  0.83112641  0.66616533  1
  Te  Te171  1  0.33340250  0.16877636  -0.00387725  1
  Te  Te172  1  0.33304276  0.16276001  0.33481984  1
  Te  Te173  1  0.33509927  0.16455066  0.66682470  1
  Te  Te174  1  0.32826851  0.50021999  0.00040695  1
  Te  Te175  1  0.32942934  0.49918504  0.33192328  1
  Te  Te176  1  0.33493279  0.49993117  0.66641072  1
  Te  Te177  1  0.33277543  0.83017672  0.00050998  1
  Te  Te178  1  0.33222894  0.83571846  0.33521851  1
  Te  Te179  1  0.33214541  0.83405219  0.66533561  1
  Te  Te180  1  0.66640273  0.17301012  0.00130480  1
  Te  Te181  1  0.66683940  0.17446146  0.33965634  1
  Te  Te182  1  0.66583458  0.16963227  0.66304794  1
  Te  Te183  1  0.66549918  0.50090578  -0.00345336  1
  Te  Te184  1  0.66797644  0.49712950  0.34129595  1
  Te  Te185  1  0.66624529  0.49761543  0.66549885  1
  Te  Te186  1  0.67265056  0.82753607  -0.00049998  1
  Te  Te187  1  0.66661030  0.83457624  0.34029390  1
  Te  Te188  1  0.66351594  0.83411905  0.66016943  1
  Te  Te189  1  0.00046455  -0.00582067  0.17304361  1
  Te  Te190  1  0.00103168  0.00899349  0.50045126  1
  Te  Te191  1  0.00259256  -0.00117656  0.83095048  1
  Te  Te192  1  -0.00059912  0.32965941  0.16838038  1
  Te  Te193  1  -0.00319923  0.33535603  0.49949739  1
  Te  Te194  1  0.00025759  0.33613715  0.83399064  1
  Te  Te195  1  -0.00331634  0.67089874  0.16534064  1
  Te  Te196  1  -0.00037766  0.66422582  0.49951743  1
  Te  Te197  1  0.00108536  0.66134287  0.83613216  1
  Te  Te198  1  0.33330231  -0.00214908  0.17085372  1
  Te  Te199  1  0.33120731  0.00022770  0.49607029  1
  Te  Te200  1  0.32877352  0.00088258  0.83282967  1
  Te  Te201  1  0.33363276  0.32705254  0.16058831  1
  Te  Te202  1  0.33384016  0.32586724  0.49809314  1
  Te  Te203  1  0.33350280  0.33061111  0.83637214  1
  Te  Te204  1  0.33538776  0.67101902  0.16281864  1
  Te  Te205  1  0.33761777  0.67034528  0.49878519  1
  Te  Te206  1  0.33717584  0.66993339  0.83801672  1
  Te  Te207  1  0.66622239  0.00268700  0.16696022  1
  Te  Te208  1  0.66740913  0.00605294  0.49915392  1
  Te  Te209  1  0.67114966  0.00041814  0.83371099  1
  Te  Te210  1  0.66612824  0.34201381  0.16035444  1
  Te  Te211  1  0.66752996  0.33686636  0.50261259  1
  Te  Te212  1  0.66678847  0.33827365  0.83407942  1
  Te  Te213  1  0.66731561  0.66215004  0.16441211  1
  Te  Te214  1  0.66469125  0.66158425  0.50024853  1
  Te  Te215  1  0.66152414  0.66171728  0.83666045  1
