# generated using pymatgen
data_AgSbTe2
_symmetry_space_group_name_H-M   'P 1'
_cell_length_a   18.34630661
_cell_length_b   18.35066236
_cell_length_c   18.34564761
_cell_angle_alpha   90.00243238
_cell_angle_beta   90.00030030
_cell_angle_gamma   89.99948586
_symmetry_Int_Tables_number   1
_chemical_formula_structural   AgSbTe2
_chemical_formula_sum   'Ag54 Sb54 Te108'
_cell_volume   6176.37190501
_cell_formula_units_Z   54
loop_
 _symmetry_equiv_pos_site_id
 _symmetry_equiv_pos_as_xyz
  1  'x, y, z'
loop_
 _atom_site_type_symbol
 _atom_site_label
 _atom_site_symmetry_multiplicity
 _atom_site_fract_x
 _atom_site_fract_y
 _atom_site_fract_z
 _atom_site_occupancy
  Ag  Ag0  1  0.84477072  -0.00838542  0.50475187  1
  Ag  Ag1  1  0.83639929  0.50440579  -0.00402132  1
  Ag  Ag2  1  0.66376367  0.33519443  0.66141995  1
  Ag  Ag3  1  0.49583149  0.67799187  0.16612041  1
  Ag  Ag4  1  0.48958379  0.83632405  0.00272517  1
  Ag  Ag5  1  0.16519825  0.00222654  0.82658923  1
  Ag  Ag6  1  0.48557550  0.16756013  0.33442679  1
  Ag  Ag7  1  0.33442576  0.66816395  -0.00285614  1
  Ag  Ag8  1  0.84856468  0.83394131  0.34449722  1
  Ag  Ag9  1  0.00097403  0.68373630  0.33713367  1
  Ag  Ag10  1  0.00769986  0.32120771  0.00443051  1
  Ag  Ag11  1  0.83874858  0.83575026  0.65840296  1
  Ag  Ag12  1  0.16304274  0.32393454  0.49920399  1
  Ag  Ag13  1  0.00692674  0.00037071  0.34225849  1
  Ag  Ag14  1  0.49682422  0.33352189  0.50100576  1
  Ag  Ag15  1  0.33159886  -0.00212277  0.65858995  1
  Ag  Ag16  1  0.00966421  0.16095561  0.83285533  1
  Ag  Ag17  1  0.17663168  0.49211602  0.66288755  1
  Ag  Ag18  1  0.32984624  0.83567415  0.49433651  1
  Ag  Ag19  1  0.33201647  0.66234975  0.66681728  1
  Ag  Ag20  1  0.00894197  0.84256736  0.17357767  1
  Ag  Ag21  1  -0.00004098  0.49138330  0.49829938  1
  Ag  Ag22  1  0.16445756  0.84085377  0.33815957  1
  Ag  Ag23  1  0.65502341  0.49682787  0.82313860  1
  Ag  Ag24  1  0.00086990  -0.00178474  -0.00248917  1
  Ag  Ag25  1  0.33020609  0.32409353  0.33415501  1
  Ag  Ag26  1  0.67448633  0.17265361  0.49963444  1
  Ag  Ag27  1  0.49241726  0.00556122  0.83696911  1
  Ag  Ag28  1  0.00871350  0.15918476  0.17683902  1
  Ag  Ag29  1  0.16703527  0.16678179  0.65677099  1
  Ag  Ag30  1  -0.00728267  0.84592062  0.48791802  1
  Ag  Ag31  1  0.16490305  0.00323232  0.49982593  1
  Ag  Ag32  1  0.33604886  0.49059184  0.82454964  1
  Ag  Ag33  1  0.49376716  0.00061351  0.16297305  1
  Ag  Ag34  1  0.33007335  0.16144632  0.17406812  1
  Ag  Ag35  1  0.49411162  0.49690829  0.66673108  1
  Ag  Ag36  1  0.32895295  0.84254048  0.16987637  1
  Ag  Ag37  1  0.33023235  0.16617292  0.83666856  1
  Ag  Ag38  1  0.84560484  -0.00266186  0.82537615  1
  Ag  Ag39  1  0.68021797  0.83685217  0.50032868  1
  Ag  Ag40  1  0.49464221  0.32889048  0.17229541  1
  Ag  Ag41  1  0.16490142  0.83734216  0.00631100  1
  Ag  Ag42  1  0.83965587  0.33202011  0.49967410  1
  Ag  Ag43  1  0.33014583  0.33510859  0.00113011  1
  Ag  Ag44  1  0.32783969  0.00406700  0.33851419  1
  Ag  Ag45  1  0.00284505  0.16444754  0.49598388  1
  Ag  Ag46  1  0.66935987  0.48957806  0.50406788  1
  Ag  Ag47  1  0.83706393  0.67755082  0.49979537  1
  Ag  Ag48  1  0.16754712  0.16152510  0.33854239  1
  Ag  Ag49  1  0.00653732  0.32517433  0.33944752  1
  Ag  Ag50  1  0.32996695  0.49922865  0.50525943  1
  Ag  Ag51  1  0.84547071  0.83360728  -0.00026379  1
  Ag  Ag52  1  -0.00181288  0.84216408  0.83722812  1
  Ag  Ag53  1  0.49291828  0.32930915  0.83083695  1
  Sb  Sb54  1  0.49713917  0.16445740  0.00356280  1
  Sb  Sb55  1  0.50013108  0.50106887  -0.00453283  1
  Sb  Sb56  1  0.32857629  0.16772042  0.49792609  1
  Sb  Sb57  1  0.16272031  0.66971886  0.49978574  1
  Sb  Sb58  1  0.66460910  0.16888653  0.82703841  1
  Sb  Sb59  1  0.49594726  0.83883744  0.33100293  1
  Sb  Sb60  1  0.17029077  0.67230919  0.16652215  1
  Sb  Sb61  1  0.66412583  0.66386362  0.66387517  1
  Sb  Sb62  1  0.33507247  0.49826375  0.16794017  1
  Sb  Sb63  1  0.83294801  0.50221342  0.66500133  1
  Sb  Sb64  1  0.16985077  0.33132591  0.17175837  1
  Sb  Sb65  1  0.16490840  0.83753846  0.66229133  1
  Sb  Sb66  1  0.83265356  0.66967489  0.16931295  1
  Sb  Sb67  1  0.66490691  0.49878815  0.16756986  1
  Sb  Sb68  1  0.83491666  0.67112877  0.82977253  1
  Sb  Sb69  1  0.66811960  0.00026731  0.33695838  1
  Sb  Sb70  1  0.83417940  0.33237865  0.16896190  1
  Sb  Sb71  1  0.16724350  0.16186233  0.00101952  1
  Sb  Sb72  1  0.32923994  0.66927950  0.33384842  1
  Sb  Sb73  1  0.83931576  0.16167502  0.66254439  1
  Sb  Sb74  1  0.00388527  0.66935683  0.65952233  1
  Sb  Sb75  1  0.16714991  -0.00018093  0.17269891  1
  Sb  Sb76  1  0.83709325  -0.00152577  0.16864974  1
  Sb  Sb77  1  0.66927682  -0.00110410  -0.00115958  1
  Sb  Sb78  1  0.66207856  0.00307668  0.66413573  1
  Sb  Sb79  1  0.66481548  0.33130896  0.34191929  1
  Sb  Sb80  1  0.66930056  0.66920853  0.33649457  1
  Sb  Sb81  1  0.49377097  0.17090656  0.66330077  1
  Sb  Sb82  1  0.16648058  0.49681774  0.34213872  1
  Sb  Sb83  1  0.67056128  0.83208091  0.83049573  1
  Sb  Sb84  1  0.49628691  0.66657960  0.83546534  1
  Sb  Sb85  1  0.66360668  0.66728119  -0.00069065  1
  Sb  Sb86  1  0.00801670  -0.00085318  0.66509883  1
  Sb  Sb87  1  0.49696976  0.00431060  0.49904488  1
  Sb  Sb88  1  0.33013124  0.83775202  0.83558847  1
  Sb  Sb89  1  0.16613252  0.50138583  -0.00632318  1
  Sb  Sb90  1  0.66463873  0.83498755  0.16970244  1
  Sb  Sb91  1  0.49767690  0.49364788  0.33953735  1
  Sb  Sb92  1  -0.00037649  0.49956314  0.17052164  1
  Sb  Sb93  1  0.84058331  0.16405032  -0.00132433  1
  Sb  Sb94  1  0.50032501  0.66400045  0.49725557  1
  Sb  Sb95  1  0.00319578  0.49665347  0.82939403  1
  Sb  Sb96  1  0.83246481  0.33020321  0.83110563  1
  Sb  Sb97  1  0.16819827  0.67282204  0.83105959  1
  Sb  Sb98  1  0.66083801  0.16684223  0.17443903  1
  Sb  Sb99  1  0.83579321  0.50156205  0.33629255  1
  Sb  Sb100  1  0.17039987  0.32670637  0.82915673  1
  Sb  Sb101  1  0.84155097  0.16232017  0.33765362  1
  Sb  Sb102  1  0.32660433  -0.00018903  0.00183981  1
  Sb  Sb103  1  -0.00102482  0.33211928  0.66134895  1
  Sb  Sb104  1  0.49886708  0.83240445  0.66839160  1
  Sb  Sb105  1  0.33493066  0.33324833  0.66246122  1
  Sb  Sb106  1  0.66419314  0.33504337  -0.00471509  1
  Sb  Sb107  1  0.00379794  0.67447519  0.00486086  1
  Te  Te108  1  0.16804633  0.16713494  0.17094086  1
  Te  Te109  1  0.16514438  0.16592334  0.49933962  1
  Te  Te110  1  0.16884479  0.16258984  0.83584685  1
  Te  Te111  1  0.16606495  0.50162236  0.16555289  1
  Te  Te112  1  0.16704633  0.50192116  0.50323056  1
  Te  Te113  1  0.17277223  0.49957277  0.82564203  1
  Te  Te114  1  0.16851439  0.83436215  0.16563053  1
  Te  Te115  1  0.17067510  0.83618319  0.49855648  1
  Te  Te116  1  0.16236582  0.83979262  0.83012434  1
  Te  Te117  1  0.49592866  0.16743421  0.17020805  1
  Te  Te118  1  0.50123701  0.16995417  0.49657237  1
  Te  Te119  1  0.49657181  0.16809551  0.83223997  1
  Te  Te120  1  0.50117583  0.49012323  0.16617135  1
  Te  Te121  1  0.49925630  0.49875133  0.50426833  1
  Te  Te122  1  0.49701321  0.50049955  0.83061652  1
  Te  Te123  1  0.49854582  0.83693829  0.16464700  1
  Te  Te124  1  0.48865043  0.83318507  0.49938899  1
  Te  Te125  1  0.50165058  0.83536566  0.83767410  1
  Te  Te126  1  0.83569291  0.16640172  0.16816113  1
  Te  Te127  1  0.83595502  0.17130306  0.50014982  1
  Te  Te128  1  0.83281748  0.15907519  0.83076524  1
  Te  Te129  1  0.83116974  0.50082637  0.15935852  1
  Te  Te130  1  0.83460102  0.49145184  0.50052123  1
  Te  Te131  1  0.83536512  0.49919961  0.83568051  1
  Te  Te132  1  0.83294049  0.83258721  0.15959872  1
  Te  Te133  1  0.83646197  0.83501199  0.50044882  1
  Te  Te134  1  0.83434768  0.83753877  0.83917596  1
  Te  Te135  1  0.16093963  -0.00283596  -0.00685408  1
  Te  Te136  1  0.16791477  -0.00052411  0.33470198  1
  Te  Te137  1  0.17350713  0.00280538  0.66478808  1
  Te  Te138  1  0.16700847  0.33509778  0.00034418  1
  Te  Te139  1  0.16793224  0.33113347  0.33727385  1
  Te  Te140  1  0.16491496  0.33127975  0.66088418  1
  Te  Te141  1  0.17338479  0.67162368  -0.00125706  1
  Te  Te142  1  0.16064362  0.67292170  0.33217675  1
  Te  Te143  1  0.17348246  0.66164890  0.66648226  1
  Te  Te144  1  0.50211091  -0.00369431  -0.00096941  1
  Te  Te145  1  0.49631189  0.00525637  0.33120177  1
  Te  Te146  1  0.49196492  0.00019375  0.67097339  1
  Te  Te147  1  0.49643025  0.33311205  -0.00654094  1
  Te  Te148  1  0.49796107  0.32946897  0.33576958  1
  Te  Te149  1  0.50084965  0.33542013  0.66649666  1
  Te  Te150  1  0.49673764  0.66996746  0.00364861  1
  Te  Te151  1  0.49893301  0.66632553  0.32531965  1
  Te  Te152  1  0.49257482  0.66151621  0.66598625  1
  Te  Te153  1  0.83842713  -0.00367193  -0.00057412  1
  Te  Te154  1  0.83637368  -0.00532272  0.33642653  1
  Te  Te155  1  0.82686167  -0.00496727  0.66565389  1
  Te  Te156  1  0.83441557  0.33494011  0.00035321  1
  Te  Te157  1  0.83711252  0.33307528  0.33708454  1
  Te  Te158  1  0.82780904  0.33219787  0.66300070  1
  Te  Te159  1  0.83369222  0.66722501  -0.00093905  1
  Te  Te160  1  0.83774723  0.67002167  0.33626032  1
  Te  Te161  1  0.83277298  0.67304825  0.66151259  1
  Te  Te162  1  0.00160071  0.16470589  -0.00233747  1
  Te  Te163  1  0.00340196  0.16397765  0.33351517  1
  Te  Te164  1  0.00622589  0.16647852  0.67074224  1
  Te  Te165  1  -0.00207400  0.50301306  -0.00005133  1
  Te  Te166  1  0.00066977  0.48811924  0.33844875  1
  Te  Te167  1  0.00223737  0.50077409  0.65975725  1
  Te  Te168  1  0.00454802  0.83466343  -0.00238468  1
  Te  Te169  1  0.00315735  0.83970333  0.33213472  1
  Te  Te170  1  -0.00326574  0.83188950  0.67249680  1
  Te  Te171  1  0.33393435  0.17256763  0.00023120  1
  Te  Te172  1  0.32952404  0.16619283  0.33391443  1
  Te  Te173  1  0.32834470  0.16181377  0.67257786  1
  Te  Te174  1  0.33244112  0.49903710  -0.00111689  1
  Te  Te175  1  0.33218846  0.49828967  0.33855162  1
  Te  Te176  1  0.33419730  0.49671735  0.66576108  1
  Te  Te177  1  0.33181819  0.83246267  0.00068570  1
  Te  Te178  1  0.33059172  0.83580364  0.33086956  1
  Te  Te179  1  0.33321937  0.83508174  0.66577947  1
  Te  Te180  1  0.66837629  0.16716656  0.00029347  1
  Te  Te181  1  0.66435783  0.16552545  0.34080082  1
  Te  Te182  1  0.66535750  0.17248531  0.65971759  1
  Te  Te183  1  0.67225447  0.50014800  -0.00095148  1
  Te  Te184  1  0.66705133  0.50099344  0.34138808  1
  Te  Te185  1  0.66698640  0.49782420  0.66512102  1
  Te  Te186  1  0.66626741  0.83269586  -0.00008372  1
  Te  Te187  1  0.66781012  0.83399891  0.33921901  1
  Te  Te188  1  0.66749343  0.83293026  0.66167889  1
  Te  Te189  1  -0.00038964  0.00051946  0.16289045  1
  Te  Te190  1  0.00158192  0.00224355  0.50115817  1
  Te  Te191  1  0.00212050  0.00177106  0.82931143  1
  Te  Te192  1  -0.00106953  0.33062912  0.16305062  1
  Te  Te193  1  0.00312120  0.33020416  0.50013708  1
  Te  Te194  1  -0.00045243  0.32829747  0.84078659  1
  Te  Te195  1  -0.00163478  0.66885966  0.17535558  1
  Te  Te196  1  -0.00364945  0.66777775  0.49686637  1
  Te  Te197  1  0.00013164  0.66717979  0.83477870  1
  Te  Te198  1  0.33429156  0.00081600  0.16632573  1
  Te  Te199  1  0.33099765  -0.00091585  0.49907008  1
  Te  Te200  1  0.33352043  0.00306975  0.83717728  1
  Te  Te201  1  0.33566860  0.33235342  0.16735990  1
  Te  Te202  1  0.33476472  0.33523474  0.49734778  1
  Te  Te203  1  0.33393354  0.33181009  0.83429550  1
  Te  Te204  1  0.33709577  0.66698725  0.16454490  1
  Te  Te205  1  0.33351719  0.66506642  0.50272964  1
  Te  Te206  1  0.33259016  0.66436461  0.83338820  1
  Te  Te207  1  0.65733598  0.00116311  0.16711105  1
  Te  Te208  1  0.66720811  -0.00285198  0.50082795  1
  Te  Te209  1  0.65924509  0.00041105  0.83156506  1
  Te  Te210  1  0.66021862  0.33261267  0.16646985  1
  Te  Te211  1  0.66317402  0.33243942  0.50129842  1
  Te  Te212  1  0.66469184  0.33704303  0.82830929  1
  Te  Te213  1  0.65757817  0.66654382  0.16771510  1
  Te  Te214  1  0.67145628  0.67043591  0.50040687  1
  Te  Te215  1  0.66755187  0.65797758  0.83195943  1
