# generated using pymatgen
data_AgSbTe2
_symmetry_space_group_name_H-M   'P 1'
_cell_length_a   18.35140128
_cell_length_b   18.34986419
_cell_length_c   18.34434255
_cell_angle_alpha   89.99991457
_cell_angle_beta   89.99981976
_cell_angle_gamma   89.99732946
_symmetry_Int_Tables_number   1
_chemical_formula_structural   AgSbTe2
_chemical_formula_sum   'Ag54 Sb54 Te108'
_cell_volume   6177.37885420
_cell_formula_units_Z   54
loop_
 _symmetry_equiv_pos_site_id
 _symmetry_equiv_pos_as_xyz
  1  'x, y, z'
loop_
 _atom_site_type_symbol
 _atom_site_label
 _atom_site_symmetry_multiplicity
 _atom_site_fract_x
 _atom_site_fract_y
 _atom_site_fract_z
 _atom_site_occupancy
  Ag  Ag0  1  0.67301081  0.50512902  0.16916026  1
  Ag  Ag1  1  0.82970841  0.16328025  0.00752377  1
  Ag  Ag2  1  0.00543180  -0.01186767  0.65733309  1
  Ag  Ag3  1  0.16710818  0.33282380  0.50390771  1
  Ag  Ag4  1  0.83606270  0.83943640  0.33795595  1
  Ag  Ag5  1  0.33533697  0.83269959  0.17653555  1
  Ag  Ag6  1  0.66812301  0.16492094  0.16786646  1
  Ag  Ag7  1  0.00100646  0.67370525  0.33825070  1
  Ag  Ag8  1  0.15445444  0.83057689  0.34650836  1
  Ag  Ag9  1  0.66594873  0.32933756  0.00409337  1
  Ag  Ag10  1  0.00396892  0.67707721  0.66150301  1
  Ag  Ag11  1  0.50036245  0.67408902  0.82856613  1
  Ag  Ag12  1  0.16117072  -0.00988672  0.50368847  1
  Ag  Ag13  1  0.15706905  0.83318068  0.65677477  1
  Ag  Ag14  1  0.32695315  0.67944330  0.66512561  1
  Ag  Ag15  1  0.83417921  0.83767261  0.01205530  1
  Ag  Ag16  1  0.31998163  0.83971588  0.49955966  1
  Ag  Ag17  1  0.67690312  -0.00319550  0.33483083  1
  Ag  Ag18  1  0.67498762  0.67020276  0.66593276  1
  Ag  Ag19  1  0.50776462  0.15644144  0.33616379  1
  Ag  Ag20  1  -0.00828187  0.50449795  0.17305481  1
  Ag  Ag21  1  0.16338521  0.33298016  0.82352078  1
  Ag  Ag22  1  0.15705699  0.51371310  0.33626174  1
  Ag  Ag23  1  0.32656702  0.15880049  0.50240477  1
  Ag  Ag24  1  0.32794671  0.50526058  0.50070696  1
  Ag  Ag25  1  0.83791215  0.32514552  0.49992739  1
  Ag  Ag26  1  0.83912229  0.50567326  0.33195519  1
  Ag  Ag27  1  0.84771611  -0.00249734  0.49161737  1
  Ag  Ag28  1  0.15543489  0.66867357  0.18201169  1
  Ag  Ag29  1  0.33687022  0.33013685  -0.00503863  1
  Ag  Ag30  1  0.67519908  0.83614448  0.49547651  1
  Ag  Ag31  1  0.50293434  0.32896688  0.16592891  1
  Ag  Ag32  1  0.84592235  0.83320382  0.65925140  1
  Ag  Ag33  1  0.83729479  0.67277728  0.17027584  1
  Ag  Ag34  1  -0.00113157  0.83712951  0.82242984  1
  Ag  Ag35  1  0.83027862  0.15397435  0.33268719  1
  Ag  Ag36  1  0.83210558  -0.01060184  0.18098929  1
  Ag  Ag37  1  0.32450247  -0.00306452  0.66098118  1
  Ag  Ag38  1  0.49622804  -0.00099936  0.82146535  1
  Ag  Ag39  1  -0.00008677  0.15690800  0.82342651  1
  Ag  Ag40  1  0.50405890  0.83804742  0.33670630  1
  Ag  Ag41  1  0.16585968  0.67879759  0.50261249  1
  Ag  Ag42  1  0.83964812  0.33196962  0.83011949  1
  Ag  Ag43  1  0.16285491  -0.00843441  0.82266359  1
  Ag  Ag44  1  0.33016318  0.32833261  0.66440444  1
  Ag  Ag45  1  0.50654012  0.16755726  0.00115285  1
  Ag  Ag46  1  0.00520721  0.84005697  0.50796464  1
  Ag  Ag47  1  0.67374458  0.83566709  0.17532171  1
  Ag  Ag48  1  0.16012006  0.67518706  0.82136562  1
  Ag  Ag49  1  0.00277153  0.15402121  0.50304997  1
  Ag  Ag50  1  0.83905625  0.67209026  0.83036018  1
  Ag  Ag51  1  0.49676793  0.16125239  0.66307508  1
  Ag  Ag52  1  -0.01223051  -0.00883970  0.34786521  1
  Ag  Ag53  1  0.49538926  -0.00149897  0.50202410  1
  Sb  Sb54  1  0.33290988  -0.00349960  0.34178810  1
  Sb  Sb55  1  0.16100880  0.83291291  -0.00100215  1
  Sb  Sb56  1  0.66837769  0.32777920  0.32969240  1
  Sb  Sb57  1  0.17011394  0.15756096  0.66414907  1
  Sb  Sb58  1  0.00074766  0.50455107  0.83592902  1
  Sb  Sb59  1  0.66838931  0.50164228  0.83724542  1
  Sb  Sb60  1  0.50391345  0.66749044  0.16477633  1
  Sb  Sb61  1  0.66923089  0.66563775  -0.00158834  1
  Sb  Sb62  1  0.00588872  0.33149295  0.66541282  1
  Sb  Sb63  1  0.67075371  0.16555906  0.83788582  1
  Sb  Sb64  1  -0.00240053  0.33126317  -0.00234819  1
  Sb  Sb65  1  -0.00453327  0.82925072  0.17495831  1
  Sb  Sb66  1  0.17176569  0.33813263  0.16866595  1
  Sb  Sb67  1  0.32461113  0.67175053  0.34140106  1
  Sb  Sb68  1  0.49309289  0.67555440  0.50361632  1
  Sb  Sb69  1  0.83171795  0.16171238  0.66304569  1
  Sb  Sb70  1  0.33342324  0.50468966  0.17326608  1
  Sb  Sb71  1  0.33332465  0.66462718  -0.00483412  1
  Sb  Sb72  1  0.83253213  0.49924811  0.00465912  1
  Sb  Sb73  1  0.50081265  0.49449608  0.00074892  1
  Sb  Sb74  1  0.49785115  0.83759957  0.66145699  1
  Sb  Sb75  1  0.32962078  0.16611429  0.82632957  1
  Sb  Sb76  1  0.82792431  0.33402706  0.16773335  1
  Sb  Sb77  1  0.66774375  0.50632045  0.49347414  1
  Sb  Sb78  1  0.67456473  0.67680403  0.33655131  1
  Sb  Sb79  1  0.50151407  0.50258703  0.33348078  1
  Sb  Sb80  1  0.66822528  -0.00537706  0.65933640  1
  Sb  Sb81  1  -0.00165283  0.67023531  0.00128598  1
  Sb  Sb82  1  -0.00810113  0.16798016  0.17144177  1
  Sb  Sb83  1  0.00474331  0.50382184  0.49488604  1
  Sb  Sb84  1  0.33276453  0.33252550  0.33840931  1
  Sb  Sb85  1  0.66843030  0.00374236  0.00647581  1
  Sb  Sb86  1  0.33104483  0.50034286  0.82696281  1
  Sb  Sb87  1  0.16577132  0.16750053  -0.00371315  1
  Sb  Sb88  1  0.50540692  0.00232328  0.17307501  1
  Sb  Sb89  1  0.16317268  0.16152950  0.33780268  1
  Sb  Sb90  1  0.67186611  0.83364144  0.83145383  1
  Sb  Sb91  1  0.66886819  0.15916282  0.49434923  1
  Sb  Sb92  1  0.32824776  0.83373255  0.82842484  1
  Sb  Sb93  1  0.50565160  0.83922012  0.00322531  1
  Sb  Sb94  1  0.66535389  0.33478532  0.66897448  1
  Sb  Sb95  1  0.33613099  0.00324828  -0.00560562  1
  Sb  Sb96  1  0.33927686  0.16235825  0.17151563  1
  Sb  Sb97  1  0.83454469  0.50637245  0.66059933  1
  Sb  Sb98  1  0.49758902  0.49963147  0.66471453  1
  Sb  Sb99  1  -0.00198252  0.33269027  0.33580603  1
  Sb  Sb100  1  0.16749635  0.50792940  0.65803505  1
  Sb  Sb101  1  0.49812875  0.32384486  0.49700760  1
  Sb  Sb102  1  0.49883922  0.32938323  0.83625562  1
  Sb  Sb103  1  0.84091652  0.67559849  0.49776186  1
  Sb  Sb104  1  -0.00126709  -0.00053980  -0.00189713  1
  Sb  Sb105  1  0.83601707  -0.00241789  0.82948288  1
  Sb  Sb106  1  0.16694523  0.50066335  0.00419367  1
  Sb  Sb107  1  0.16063646  -0.00888797  0.17504205  1
  Te  Te108  1  0.16713402  0.16442064  0.16693642  1
  Te  Te109  1  0.16578301  0.17309493  0.49972958  1
  Te  Te110  1  0.16056930  0.17243202  0.83266039  1
  Te  Te111  1  0.16716220  0.50665927  0.17358275  1
  Te  Te112  1  0.16911994  0.49125987  0.49432107  1
  Te  Te113  1  0.16603567  0.49565370  0.83556077  1
  Te  Te114  1  0.16924095  0.82842023  0.16608941  1
  Te  Te115  1  0.16575971  0.83453495  0.50088997  1
  Te  Te116  1  0.16316644  0.83335130  0.83304344  1
  Te  Te117  1  0.50330984  0.16764256  0.16810808  1
  Te  Te118  1  0.50192843  0.16202778  0.49719311  1
  Te  Te119  1  0.49916048  0.16420847  0.83515643  1
  Te  Te120  1  0.50504444  0.49633324  0.16743636  1
  Te  Te121  1  0.49380674  0.49878629  0.49767879  1
  Te  Te122  1  0.49973515  0.50858516  0.83319798  1
  Te  Te123  1  0.50170654  0.83427789  0.17041519  1
  Te  Te124  1  0.50359654  0.83773579  0.49626314  1
  Te  Te125  1  0.49998676  0.83468646  0.83534937  1
  Te  Te126  1  0.82959180  0.16799619  0.16735513  1
  Te  Te127  1  0.83475259  0.16423685  0.49830547  1
  Te  Te128  1  0.83757128  0.16791326  0.83133215  1
  Te  Te129  1  0.83163461  0.50029802  0.17001588  1
  Te  Te130  1  0.83338071  0.49453248  0.49356121  1
  Te  Te131  1  0.83396948  0.50069907  0.83335682  1
  Te  Te132  1  0.83446887  0.83246433  0.16820162  1
  Te  Te133  1  0.83569302  0.83507184  0.49881579  1
  Te  Te134  1  0.83571381  0.83183970  0.82547809  1
  Te  Te135  1  0.16762198  0.00074165  -0.00792602  1
  Te  Te136  1  0.16060774  -0.00585666  0.33904959  1
  Te  Te137  1  0.16536352  -0.00272704  0.66544526  1
  Te  Te138  1  0.17160825  0.33361319  -0.00102844  1
  Te  Te139  1  0.16629732  0.33316659  0.33721026  1
  Te  Te140  1  0.16974991  0.33645006  0.66568647  1
  Te  Te141  1  0.16763816  0.66591913  -0.00716941  1
  Te  Te142  1  0.16352415  0.67005214  0.33785339  1
  Te  Te143  1  0.16653648  0.66911208  0.66420133  1
  Te  Te144  1  0.50104376  0.00677593  -0.00335060  1
  Te  Te145  1  0.49820449  -0.00114439  0.33598345  1
  Te  Te146  1  0.50219123  0.00267118  0.66464813  1
  Te  Te147  1  0.50118656  0.32834674  0.00082829  1
  Te  Te148  1  0.50052271  0.33041118  0.32815078  1
  Te  Te149  1  0.49625946  0.32803867  0.66737722  1
  Te  Te150  1  0.50047082  0.66784962  -0.00934713  1
  Te  Te151  1  0.50056658  0.67209541  0.33231152  1
  Te  Te152  1  0.49211825  0.66698478  0.67060574  1
  Te  Te153  1  0.83251404  0.00156860  -0.00251901  1
  Te  Te154  1  0.83272015  -0.00093812  0.33580184  1
  Te  Te155  1  0.83536475  -0.00511068  0.66198731  1
  Te  Te156  1  0.83060853  0.33062284  -0.00315918  1
  Te  Te157  1  0.83299512  0.33510552  0.33712068  1
  Te  Te158  1  0.83329532  0.33454567  0.66824634  1
  Te  Te159  1  0.83220645  0.67004879  -0.00038074  1
  Te  Te160  1  0.83797506  0.66545405  0.33193530  1
  Te  Te161  1  0.83605421  0.67030941  0.66535578  1
  Te  Te162  1  -0.00701076  0.16704197  -0.00139501  1
  Te  Te163  1  -0.00496516  0.16335676  0.33864134  1
  Te  Te164  1  -0.00150381  0.16552146  0.66481591  1
  Te  Te165  1  -0.00010159  0.49904106  0.01053395  1
  Te  Te166  1  -0.00024475  0.50002532  0.33066990  1
  Te  Te167  1  0.00001584  0.50879909  0.66729113  1
  Te  Te168  1  -0.00712790  0.83440754  -0.01022333  1
  Te  Te169  1  -0.00244308  0.83238861  0.33412086  1
  Te  Te170  1  0.00166516  0.83272472  0.66715102  1
  Te  Te171  1  0.33691918  0.17092138  0.00225904  1
  Te  Te172  1  0.33659592  0.16560472  0.33948681  1
  Te  Te173  1  0.33645320  0.16369612  0.66228829  1
  Te  Te174  1  0.33437320  0.49176421  0.00129552  1
  Te  Te175  1  0.33153737  0.50096599  0.33987007  1
  Te  Te176  1  0.33324312  0.49254744  0.65982558  1
  Te  Te177  1  0.33548940  0.83429606  0.00370800  1
  Te  Te178  1  0.33629725  0.83305290  0.33632310  1
  Te  Te179  1  0.33268802  0.83683639  0.66330765  1
  Te  Te180  1  0.66835029  0.16920712  0.00382496  1
  Te  Te181  1  0.66767160  0.16227652  0.32938215  1
  Te  Te182  1  0.65933382  0.16764806  0.66724618  1
  Te  Te183  1  0.66622455  0.49299778  0.00857768  1
  Te  Te184  1  0.66984079  0.50073838  0.32802581  1
  Te  Te185  1  0.66567415  0.50891072  0.66607229  1
  Te  Te186  1  0.67368093  0.83351278  0.00566322  1
  Te  Te187  1  0.67024845  0.83602489  0.33394562  1
  Te  Te188  1  0.66561335  0.82858987  0.66390850  1
  Te  Te189  1  -0.00629305  0.00072441  0.16929090  1
  Te  Te190  1  0.00238557  -0.00095354  0.50213245  1
  Te  Te191  1  0.00163183  0.00013117  0.83148040  1
  Te  Te192  1  0.00274604  0.33875865  0.16595662  1
  Te  Te193  1  -0.00162576  0.33323471  0.50177041  1
  Te  Te194  1  0.00043908  0.33408608  0.83229261  1
  Te  Te195  1  -0.00143410  0.66459549  0.16780837  1
  Te  Te196  1  0.00470293  0.66871312  0.49858409  1
  Te  Te197  1  -0.00003575  0.66753381  0.83321360  1
  Te  Te198  1  0.33084988  -0.00632985  0.16404431  1
  Te  Te199  1  0.33327270  -0.00125750  0.50221879  1
  Te  Te200  1  0.33256087  0.00031836  0.82684333  1
  Te  Te201  1  0.33849290  0.33413226  0.16407584  1
  Te  Te202  1  0.33332865  0.32599040  0.50363310  1
  Te  Te203  1  0.33046859  0.33337217  0.83070877  1
  Te  Te204  1  0.33402698  0.67127326  0.16369339  1
  Te  Te205  1  0.32817404  0.66787014  0.50569772  1
  Te  Te206  1  0.32699641  0.66650111  0.82750740  1
  Te  Te207  1  0.67103162  -0.00125089  0.17196841  1
  Te  Te208  1  0.65971576  -0.00468881  0.49542389  1
  Te  Te209  1  0.65882731  -0.00013750  0.83213859  1
  Te  Te210  1  0.66353889  0.32786048  0.16406052  1
  Te  Te211  1  0.67142414  0.33641573  0.50180893  1
  Te  Te212  1  0.67100859  0.33436889  0.83823452  1
  Te  Te213  1  0.67101838  0.66816939  0.16628769  1
  Te  Te214  1  0.66403584  0.67206222  0.50541995  1
  Te  Te215  1  0.67150231  0.66618268  0.82898569  1
