# generated using pymatgen
data_AgSbTe2
_symmetry_space_group_name_H-M   'P 1'
_cell_length_a   18.33887282
_cell_length_b   18.33866997
_cell_length_c   18.33866216
_cell_angle_alpha   89.99698657
_cell_angle_beta   89.99898657
_cell_angle_gamma   89.99778296
_symmetry_Int_Tables_number   1
_chemical_formula_structural   AgSbTe2
_chemical_formula_sum   'Ag54 Sb54 Te108'
_cell_volume   6167.48528997
_cell_formula_units_Z   54
loop_
 _symmetry_equiv_pos_site_id
 _symmetry_equiv_pos_as_xyz
  1  'x, y, z'
loop_
 _atom_site_type_symbol
 _atom_site_label
 _atom_site_symmetry_multiplicity
 _atom_site_fract_x
 _atom_site_fract_y
 _atom_site_fract_z
 _atom_site_occupancy
  Ag  Ag0  1  0.67754066  0.32870333  -0.00338824  1
  Ag  Ag1  1  0.67254182  0.49222876  0.83430654  1
  Ag  Ag2  1  0.15196135  0.15691687  -0.00343269  1
  Ag  Ag3  1  -0.00004121  0.83363034  0.16600592  1
  Ag  Ag4  1  0.16336095  0.67391622  0.51193422  1
  Ag  Ag5  1  0.68130840  0.83478939  0.15629099  1
  Ag  Ag6  1  0.66844255  0.16718330  0.83325278  1
  Ag  Ag7  1  0.83840497  0.00092476  0.84210508  1
  Ag  Ag8  1  0.84760899  0.67322690  0.49804360  1
  Ag  Ag9  1  0.50087277  0.50000232  0.34654474  1
  Ag  Ag10  1  -0.00316629  0.32598995  -0.00135800  1
  Ag  Ag11  1  0.33626513  0.50854984  0.50753392  1
  Ag  Ag12  1  -0.00032271  0.00350919  0.00422815  1
  Ag  Ag13  1  0.48906689  0.49441338  0.66469231  1
  Ag  Ag14  1  0.67748235  0.16612508  0.51023641  1
  Ag  Ag15  1  0.15478367  -0.00787188  0.15741332  1
  Ag  Ag16  1  -0.00096372  0.51052602  0.16059692  1
  Ag  Ag17  1  0.50286499  0.83749481  -0.00033846  1
  Ag  Ag18  1  0.16812915  0.51347630  0.66850082  1
  Ag  Ag19  1  0.66682023  0.83610090  0.83828170  1
  Ag  Ag20  1  0.49125511  0.66109083  0.50209145  1
  Ag  Ag21  1  -0.00284733  0.15792968  0.15881269  1
  Ag  Ag22  1  0.32075602  0.66159223  0.66247053  1
  Ag  Ag23  1  0.16468211  0.67482755  0.82326790  1
  Ag  Ag24  1  0.83697121  0.16314455  0.34178260  1
  Ag  Ag25  1  0.83885227  0.49919999  -0.00157246  1
  Ag  Ag26  1  0.32175769  0.83218330  0.83437121  1
  Ag  Ag27  1  0.83621636  0.16093638  -0.00222141  1
  Ag  Ag28  1  0.83934898  0.00138173  0.49915613  1
  Ag  Ag29  1  0.15937493  -0.00585953  0.83887381  1
  Ag  Ag30  1  0.49888104  0.33144193  0.82881007  1
  Ag  Ag31  1  0.83294982  0.16551714  0.66571291  1
  Ag  Ag32  1  -0.00119856  0.49720603  0.83609118  1
  Ag  Ag33  1  0.31637668  0.83234455  0.15833823  1
  Ag  Ag34  1  0.83917400  -0.00383971  0.15867698  1
  Ag  Ag35  1  0.16650888  0.82574361  0.66992216  1
  Ag  Ag36  1  0.50740027  0.16459546  -0.00547025  1
  Ag  Ag37  1  0.83939321  0.83940905  0.00257730  1
  Ag  Ag38  1  0.50624426  0.17524775  0.67039059  1
  Ag  Ag39  1  0.31853084  0.82760518  0.50694045  1
  Ag  Ag40  1  0.49888528  0.33747832  0.51266538  1
  Ag  Ag41  1  0.84285157  0.67607270  0.16804687  1
  Ag  Ag42  1  0.00267016  0.83397570  0.49735446  1
  Ag  Ag43  1  0.00909776  0.66419307  0.66188541  1
  Ag  Ag44  1  0.00500488  0.33627047  0.67039714  1
  Ag  Ag45  1  0.15817329  -0.00945875  0.50159897  1
  Ag  Ag46  1  -0.00073306  0.33478214  0.33563810  1
  Ag  Ag47  1  0.67314517  0.00067580  0.33355057  1
  Ag  Ag48  1  0.16130881  0.83684897  -0.00099783  1
  Ag  Ag49  1  0.15827096  0.67544300  0.16470290  1
  Ag  Ag50  1  0.16240630  0.33341065  0.83117659  1
  Ag  Ag51  1  0.33284846  0.33990044  0.66721560  1
  Ag  Ag52  1  -0.00480624  0.16046108  0.49834840  1
  Ag  Ag53  1  -0.00056589  0.66373469  0.33522468  1
  Sb  Sb54  1  0.33020158  -0.00293794  0.66748799  1
  Sb  Sb55  1  0.66467326  0.33163001  0.67319958  1
  Sb  Sb56  1  -0.00469853  0.16986500  0.83449480  1
  Sb  Sb57  1  0.49817664  0.66934139  0.17125961  1
  Sb  Sb58  1  0.66899450  0.00236799  0.66640139  1
  Sb  Sb59  1  0.66184816  0.49491655  0.50617949  1
  Sb  Sb60  1  0.50320112  -0.00205843  0.16409196  1
  Sb  Sb61  1  0.66850734  0.66619891  0.66653379  1
  Sb  Sb62  1  0.83224825  0.33020343  0.50171280  1
  Sb  Sb63  1  0.32577636  0.50778965  0.17303224  1
  Sb  Sb64  1  0.50629353  0.49883311  -0.00664379  1
  Sb  Sb65  1  0.83539647  0.84005212  0.32573579  1
  Sb  Sb66  1  0.33554369  0.16297833  0.83193395  1
  Sb  Sb67  1  0.67523758  0.16065797  0.16185981  1
  Sb  Sb68  1  0.83388473  0.32706497  0.83497063  1
  Sb  Sb69  1  0.83771395  0.32929873  0.16294979  1
  Sb  Sb70  1  0.16669553  0.33467008  0.50875913  1
  Sb  Sb71  1  0.50152110  0.82879831  0.33067420  1
  Sb  Sb72  1  0.00049549  -0.00037145  0.66683045  1
  Sb  Sb73  1  0.32604737  0.66813376  0.34233849  1
  Sb  Sb74  1  0.84003487  0.83682436  0.67035531  1
  Sb  Sb75  1  0.33038573  0.66945979  -0.00587139  1
  Sb  Sb76  1  0.49328696  0.83088194  0.67082147  1
  Sb  Sb77  1  0.32315885  -0.00304586  -0.00109661  1
  Sb  Sb78  1  0.83828371  0.49741417  0.67114867  1
  Sb  Sb79  1  0.67433636  0.50540234  0.16059151  1
  Sb  Sb80  1  0.16253537  0.83284323  0.33295813  1
  Sb  Sb81  1  -0.00498767  0.00055671  0.33023149  1
  Sb  Sb82  1  0.15641058  0.16632149  0.33007752  1
  Sb  Sb83  1  0.33032412  0.16498318  0.50327336  1
  Sb  Sb84  1  0.16107747  0.33300187  0.15860988  1
  Sb  Sb85  1  0.32481111  0.16028052  0.16305064  1
  Sb  Sb86  1  0.00330587  0.50307789  0.50342770  1
  Sb  Sb87  1  0.67092968  0.32987352  0.33060361  1
  Sb  Sb88  1  0.33430266  -0.00225038  0.33356466  1
  Sb  Sb89  1  0.00346442  0.83055533  0.83600422  1
  Sb  Sb90  1  0.15891820  0.50236431  -0.00742506  1
  Sb  Sb91  1  0.66871063  0.66931093  -0.00094073  1
  Sb  Sb92  1  0.49628613  0.66481467  0.82844212  1
  Sb  Sb93  1  0.67652190  0.00196144  0.00115730  1
  Sb  Sb94  1  0.00002685  0.66932448  0.00230708  1
  Sb  Sb95  1  0.16587783  0.50299545  0.33952367  1
  Sb  Sb96  1  0.49991280  0.33296204  0.16159992  1
  Sb  Sb97  1  0.83439092  0.49821521  0.33025139  1
  Sb  Sb98  1  0.32950768  0.33280864  -0.00813704  1
  Sb  Sb99  1  0.32900361  0.50273842  0.82659915  1
  Sb  Sb100  1  0.50118097  0.00028246  0.50098942  1
  Sb  Sb101  1  0.32908675  0.33541681  0.34159927  1
  Sb  Sb102  1  0.50267142  0.00190113  0.83550880  1
  Sb  Sb103  1  0.16327920  0.16559395  0.67212094  1
  Sb  Sb104  1  0.50864887  0.17152896  0.33615375  1
  Sb  Sb105  1  0.83949622  0.67027325  0.83385396  1
  Sb  Sb106  1  0.67258776  0.67003076  0.33410587  1
  Sb  Sb107  1  0.67261530  0.83684521  0.50182804  1
  Te  Te108  1  0.16056593  0.16253533  0.16006420  1
  Te  Te109  1  0.16115383  0.16549359  0.49966890  1
  Te  Te110  1  0.16811393  0.16447191  0.83740370  1
  Te  Te111  1  0.16056720  0.50298930  0.16657389  1
  Te  Te112  1  0.17220602  0.50241698  0.50621488  1
  Te  Te113  1  0.16354909  0.49779254  0.82867866  1
  Te  Te114  1  0.16127924  0.83536422  0.16849261  1
  Te  Te115  1  0.16365869  0.83204494  0.49707069  1
  Te  Te116  1  0.16400718  0.83396488  0.83424370  1
  Te  Te117  1  0.49873376  0.16637117  0.16223298  1
  Te  Te118  1  0.50000837  0.16957240  0.50208734  1
  Te  Te119  1  0.50286327  0.16805180  0.83344212  1
  Te  Te120  1  0.49876159  0.50178664  0.16501922  1
  Te  Te121  1  0.49989573  0.49906935  0.50582873  1
  Te  Te122  1  0.50246753  0.49669539  0.82977384  1
  Te  Te123  1  0.50099640  0.83284774  0.16109743  1
  Te  Te124  1  0.50251950  0.82962821  0.50034977  1
  Te  Te125  1  0.50332921  0.83338677  0.83795025  1
  Te  Te126  1  0.83773669  0.16230570  0.15932134  1
  Te  Te127  1  0.83491222  0.16820672  0.50265545  1
  Te  Te128  1  0.82963002  0.16131856  0.83492023  1
  Te  Te129  1  0.83835685  0.50417254  0.16246890  1
  Te  Te130  1  0.83045676  0.50645869  0.49942696  1
  Te  Te131  1  0.83428606  0.50265238  0.83714219  1
  Te  Te132  1  0.83801595  0.83514431  0.16408031  1
  Te  Te133  1  0.83655808  0.83351720  0.50197813  1
  Te  Te134  1  0.83157252  0.83795313  0.83745467  1
  Te  Te135  1  0.16156249  -0.00154742  -0.00063223  1
  Te  Te136  1  0.16780367  0.00250699  0.34026704  1
  Te  Te137  1  0.16603529  -0.00306327  0.66466501  1
  Te  Te138  1  0.16272115  0.33177232  -0.00828782  1
  Te  Te139  1  0.16005363  0.33480299  0.33292680  1
  Te  Te140  1  0.16540065  0.33057674  0.67206917  1
  Te  Te141  1  0.16688911  0.67138605  0.00331986  1
  Te  Te142  1  0.16028600  0.66499087  0.32597942  1
  Te  Te143  1  0.16572392  0.66926294  0.66739602  1
  Te  Te144  1  0.49824925  -0.00132537  -0.00033079  1
  Te  Te145  1  0.50781501  0.00178642  0.33259455  1
  Te  Te146  1  0.49889774  0.00934914  0.66712984  1
  Te  Te147  1  0.49851412  0.33039856  -0.00590686  1
  Te  Te148  1  0.50007702  0.33831859  0.33338305  1
  Te  Te149  1  0.50274380  0.33407176  0.66918809  1
  Te  Te150  1  0.49926164  0.67356235  0.00021241  1
  Te  Te151  1  0.50143880  0.66109274  0.33949533  1
  Te  Te152  1  0.50043533  0.66307401  0.66160890  1
  Te  Te153  1  0.83769704  -0.00085304  0.00022732  1
  Te  Te154  1  0.83197478  0.00509113  0.34047185  1
  Te  Te155  1  0.83420970  0.00462523  0.66126635  1
  Te  Te156  1  0.83637464  0.33475803  -0.00022008  1
  Te  Te157  1  0.83888142  0.32711675  0.33271700  1
  Te  Te158  1  0.84110864  0.32890082  0.66707626  1
  Te  Te159  1  0.83310325  0.66652939  0.00293052  1
  Te  Te160  1  0.83820287  0.66546717  0.33435989  1
  Te  Te161  1  0.83768449  0.66723680  0.66172950  1
  Te  Te162  1  -0.00336492  0.16561263  -0.00187327  1
  Te  Te163  1  -0.00431359  0.16952489  0.33579456  1
  Te  Te164  1  -0.00265307  0.16920390  0.66305680  1
  Te  Te165  1  -0.00195361  0.49775422  -0.00130810  1
  Te  Te166  1  -0.00090415  0.49852452  0.32812689  1
  Te  Te167  1  0.00245454  0.49884724  0.67005659  1
  Te  Te168  1  0.00045260  0.83615579  0.00141789  1
  Te  Te169  1  -0.00263062  0.82527246  0.33680629  1
  Te  Te170  1  0.00489062  0.82996457  0.66134335  1
  Te  Te171  1  0.34274190  0.16679718  0.00042005  1
  Te  Te172  1  0.33515449  0.16701793  0.33226053  1
  Te  Te173  1  0.33778540  0.17390561  0.66613067  1
  Te  Te174  1  0.33423281  0.50043659  0.00314053  1
  Te  Te175  1  0.33962138  0.50046367  0.34062849  1
  Te  Te176  1  0.33052324  0.50038358  0.66601668  1
  Te  Te177  1  0.32877226  0.83307984  -0.00141213  1
  Te  Te178  1  0.33685794  0.83306379  0.33374711  1
  Te  Te179  1  0.32972757  0.83058401  0.66650563  1
  Te  Te180  1  0.66789281  0.16813893  -0.00239994  1
  Te  Te181  1  0.67381098  0.16390608  0.33155495  1
  Te  Te182  1  0.66865189  0.16766738  0.66877774  1
  Te  Te183  1  0.67263206  0.49525025  -0.00579409  1
  Te  Te184  1  0.66198260  0.49877497  0.33067964  1
  Te  Te185  1  0.66699886  0.49915694  0.67477676  1
  Te  Te186  1  0.66892369  0.83505010  -0.00123250  1
  Te  Te187  1  0.66676567  0.83828171  0.33130447  1
  Te  Te188  1  0.66476526  0.83448902  0.67465513  1
  Te  Te189  1  -0.00152220  -0.00084579  0.16921942  1
  Te  Te190  1  -0.00067432  -0.00041776  0.49910343  1
  Te  Te191  1  -0.00041995  -0.00065980  0.83544198  1
  Te  Te192  1  0.00082957  0.33161731  0.16285035  1
  Te  Te193  1  -0.00007300  0.33338498  0.49998149  1
  Te  Te194  1  0.00051536  0.33565346  0.83380980  1
  Te  Te195  1  -0.00086146  0.66807604  0.16486202  1
  Te  Te196  1  0.00382905  0.66370164  0.50046898  1
  Te  Te197  1  0.00410460  0.66156016  0.82840220  1
  Te  Te198  1  0.32892245  -0.00761698  0.16791403  1
  Te  Te199  1  0.33033149  -0.00761590  0.50008257  1
  Te  Te200  1  0.32702968  -0.00794955  0.83234566  1
  Te  Te201  1  0.33027831  0.33503681  0.16898210  1
  Te  Te202  1  0.33737882  0.33498220  0.50598014  1
  Te  Te203  1  0.33418347  0.33320162  0.82688089  1
  Te  Te204  1  0.32961556  0.67281185  0.16903687  1
  Te  Te205  1  0.33082439  0.66810930  0.50254315  1
  Te  Te206  1  0.32892339  0.67117337  0.82689300  1
  Te  Te207  1  0.67125648  -0.00577491  0.17050817  1
  Te  Te208  1  0.66917872  0.00521060  0.49686183  1
  Te  Te209  1  0.67117514  0.00149382  0.83286390  1
  Te  Te210  1  0.66635673  0.33507218  0.15837377  1
  Te  Te211  1  0.66079813  0.32699796  0.49697247  1
  Te  Te212  1  0.66563928  0.33117710  0.83711863  1
  Te  Te213  1  0.67070923  0.67396960  0.16758955  1
  Te  Te214  1  0.66544039  0.66625948  0.49948395  1
  Te  Te215  1  0.66677758  0.66967983  0.83260195  1
