# generated using pymatgen
data_AgSbTe2
_symmetry_space_group_name_H-M   'P 1'
_cell_length_a   18.33865834
_cell_length_b   18.32983947
_cell_length_c   18.33925796
_cell_angle_alpha   90.00004729
_cell_angle_beta   89.99791855
_cell_angle_gamma   90.00025526
_symmetry_Int_Tables_number   1
_chemical_formula_structural   AgSbTe2
_chemical_formula_sum   'Ag54 Sb54 Te108'
_cell_volume   6164.64368828
_cell_formula_units_Z   54
loop_
 _symmetry_equiv_pos_site_id
 _symmetry_equiv_pos_as_xyz
  1  'x, y, z'
loop_
 _atom_site_type_symbol
 _atom_site_label
 _atom_site_symmetry_multiplicity
 _atom_site_fract_x
 _atom_site_fract_y
 _atom_site_fract_z
 _atom_site_occupancy
  Ag  Ag0  1  0.83076605  0.49894530  -0.00228411  1
  Ag  Ag1  1  0.00577305  0.83734466  0.16893861  1
  Ag  Ag2  1  0.18157629  0.66818061  0.49857302  1
  Ag  Ag3  1  0.50034834  0.66569900  0.82687168  1
  Ag  Ag4  1  0.16892533  0.16500156  0.65905041  1
  Ag  Ag5  1  0.50045424  0.50582479  0.66932871  1
  Ag  Ag6  1  0.82127961  0.00162754  0.49304684  1
  Ag  Ag7  1  0.82832326  0.33006639  0.16125555  1
  Ag  Ag8  1  0.82276641  0.66388038  0.83487125  1
  Ag  Ag9  1  0.33417625  0.50853527  0.84300883  1
  Ag  Ag10  1  0.50395389  0.33313015  0.16599544  1
  Ag  Ag11  1  -0.00259500  0.33372068  0.66729337  1
  Ag  Ag12  1  0.33347945  -0.00141280  0.33450958  1
  Ag  Ag13  1  0.66656629  0.16460551  0.17161095  1
  Ag  Ag14  1  0.83170871  0.16624889  0.66076096  1
  Ag  Ag15  1  0.66653012  0.50628972  0.49890147  1
  Ag  Ag16  1  0.33368010  0.15779712  0.17037765  1
  Ag  Ag17  1  0.66015164  0.66890066  -0.00674394  1
  Ag  Ag18  1  0.83371826  0.33879601  0.83960677  1
  Ag  Ag19  1  0.83441422  0.84176918  0.33391772  1
  Ag  Ag20  1  0.49625961  0.50493403  -0.00031888  1
  Ag  Ag21  1  0.33708941  0.66877733  -0.00316793  1
  Ag  Ag22  1  0.66473683  -0.00289156  0.00242201  1
  Ag  Ag23  1  0.67144468  0.00190703  0.33989419  1
  Ag  Ag24  1  0.17120108  0.00115397  0.16559584  1
  Ag  Ag25  1  0.17300704  0.83874806  0.00257064  1
  Ag  Ag26  1  0.83202279  0.16543272  0.00319710  1
  Ag  Ag27  1  0.66393912  0.83000487  0.83192474  1
  Ag  Ag28  1  0.82896547  0.15974157  0.33290589  1
  Ag  Ag29  1  0.50691789  -0.00434279  0.49865286  1
  Ag  Ag30  1  -0.00486813  -0.00251592  0.32977507  1
  Ag  Ag31  1  0.66120480  0.49553778  0.16496987  1
  Ag  Ag32  1  0.33856058  0.83735818  0.49670305  1
  Ag  Ag33  1  0.49978594  0.16212528  0.33310405  1
  Ag  Ag34  1  0.17864919  0.50661053  0.00007078  1
  Ag  Ag35  1  0.00271618  0.67309476  0.33502897  1
  Ag  Ag36  1  0.33818658  0.15455673  0.48733233  1
  Ag  Ag37  1  0.00684160  0.00000154  0.00884907  1
  Ag  Ag38  1  0.66008227  0.67055626  0.67172424  1
  Ag  Ag39  1  0.66074162  -0.00356928  0.65278250  1
  Ag  Ag40  1  -0.00110503  0.50100586  0.83453972  1
  Ag  Ag41  1  0.32962392  0.83965067  0.16263098  1
  Ag  Ag42  1  -0.00546818  0.50359683  0.50259703  1
  Ag  Ag43  1  0.33234127  0.67656534  0.33773013  1
  Ag  Ag44  1  0.34119070  0.67205090  0.66711916  1
  Ag  Ag45  1  0.65993205  0.84066876  0.50290486  1
  Ag  Ag46  1  0.17593873  0.16047413  0.33202134  1
  Ag  Ag47  1  0.33955635  -0.00483327  0.65505472  1
  Ag  Ag48  1  0.33040129  -0.00696394  0.01127759  1
  Ag  Ag49  1  0.49802223  0.67095422  0.50552622  1
  Ag  Ag50  1  0.16702182  0.15716876  0.00488317  1
  Ag  Ag51  1  0.33865075  0.50323512  0.16070558  1
  Ag  Ag52  1  0.66446962  0.15308666  0.49059980  1
  Ag  Ag53  1  0.33846525  0.82823035  0.84004698  1
  Sb  Sb54  1  0.16688352  0.83797910  0.32832056  1
  Sb  Sb55  1  0.66983557  0.33310052  0.66670625  1
  Sb  Sb56  1  0.17089962  0.67187048  0.16872560  1
  Sb  Sb57  1  0.33579678  0.50710394  0.49853822  1
  Sb  Sb58  1  0.50034833  0.16841370  0.00760997  1
  Sb  Sb59  1  0.16794147  0.49955296  0.32923034  1
  Sb  Sb60  1  0.83190592  0.49968689  0.33036661  1
  Sb  Sb61  1  0.50040605  0.82604175  0.66495605  1
  Sb  Sb62  1  -0.00047586  0.82764360  0.83996214  1
  Sb  Sb63  1  0.17061461  -0.00317448  0.49441951  1
  Sb  Sb64  1  0.17295878  0.83815152  0.66955059  1
  Sb  Sb65  1  0.33113928  0.33262670  0.66694573  1
  Sb  Sb66  1  0.33326691  0.33605575  0.00078898  1
  Sb  Sb67  1  0.83199211  0.32804821  0.49991456  1
  Sb  Sb68  1  0.33271924  0.16219368  0.83716546  1
  Sb  Sb69  1  0.49504579  0.00486096  0.17192251  1
  Sb  Sb70  1  0.66408507  0.83713587  0.16737133  1
  Sb  Sb71  1  0.17404156  0.66601434  0.83192282  1
  Sb  Sb72  1  0.82925308  0.83786386  0.66252011  1
  Sb  Sb73  1  0.82714644  0.67028667  0.50272021  1
  Sb  Sb74  1  0.49863411  0.83868001  0.33604501  1
  Sb  Sb75  1  0.16724788  0.32744961  0.16462380  1
  Sb  Sb76  1  0.50029543  0.49871707  0.33174901  1
  Sb  Sb77  1  0.00082133  0.82973957  0.49336855  1
  Sb  Sb78  1  0.83516391  0.00474431  0.17121124  1
  Sb  Sb79  1  -0.00114100  0.16700148  0.49847257  1
  Sb  Sb80  1  0.50105281  0.33243441  0.49635422  1
  Sb  Sb81  1  0.50570988  0.34231521  0.83775375  1
  Sb  Sb82  1  0.00037590  0.50439956  0.16431151  1
  Sb  Sb83  1  -0.00314686  0.33040321  -0.00233329  1
  Sb  Sb84  1  -0.00208318  0.33043855  0.33606977  1
  Sb  Sb85  1  0.66772746  0.15889356  0.83469897  1
  Sb  Sb86  1  0.16286002  0.33525883  0.83385438  1
  Sb  Sb87  1  0.83112287  -0.00122990  0.83245205  1
  Sb  Sb88  1  0.66735855  0.32312308  0.33107560  1
  Sb  Sb89  1  0.83181529  0.66364046  0.16373953  1
  Sb  Sb90  1  0.33391696  0.32732726  0.33118409  1
  Sb  Sb91  1  -0.00188142  0.16953958  0.83389481  1
  Sb  Sb92  1  0.82907076  0.49729842  0.67125981  1
  Sb  Sb93  1  0.16657543  0.33520825  0.50050217  1
  Sb  Sb94  1  0.49667724  0.66173079  0.16613647  1
  Sb  Sb95  1  0.66890907  0.33675032  0.00235461  1
  Sb  Sb96  1  0.16880080  -0.00016426  0.84095550  1
  Sb  Sb97  1  0.00187927  0.66905338  0.00302327  1
  Sb  Sb98  1  0.17003293  0.49927814  0.66916452  1
  Sb  Sb99  1  0.66656362  0.50885015  0.83770869  1
  Sb  Sb100  1  0.49931649  -0.00655258  0.82813877  1
  Sb  Sb101  1  0.66343354  0.67295970  0.33577969  1
  Sb  Sb102  1  0.00000096  0.66233978  0.66392276  1
  Sb  Sb103  1  0.83418264  0.83559918  0.00430642  1
  Sb  Sb104  1  -0.00011203  0.00478132  0.66365536  1
  Sb  Sb105  1  0.50071620  0.16851979  0.65930721  1
  Sb  Sb106  1  -0.00158037  0.16146619  0.16678339  1
  Sb  Sb107  1  0.49421650  0.82937524  -0.00003241  1
  Te  Te108  1  0.16819226  0.16348679  0.16598032  1
  Te  Te109  1  0.16948505  0.16658852  0.49902407  1
  Te  Te110  1  0.16638487  0.16791795  0.83886890  1
  Te  Te111  1  0.16903967  0.49685859  0.16067902  1
  Te  Te112  1  0.16477363  0.50429803  0.49935944  1
  Te  Te113  1  0.16611586  0.49994836  0.83816015  1
  Te  Te114  1  0.16906467  0.83743976  0.16265802  1
  Te  Te115  1  0.16960586  0.82721869  0.50191186  1
  Te  Te116  1  0.17065280  0.83260276  0.84066495  1
  Te  Te117  1  0.50158391  0.17092190  0.17044528  1
  Te  Te118  1  0.50235135  0.16594752  0.49583458  1
  Te  Te119  1  0.49963215  0.17183017  0.83305418  1
  Te  Te120  1  0.50046756  0.49625787  0.16556450  1
  Te  Te121  1  0.50305645  0.50051283  0.50037266  1
  Te  Te122  1  0.49841592  0.50502427  0.83624733  1
  Te  Te123  1  0.49135301  0.83255306  0.16844510  1
  Te  Te124  1  0.49958066  0.83452250  0.50013112  1
  Te  Te125  1  0.50021022  0.82652164  0.83319030  1
  Te  Te126  1  0.83178785  0.16867610  0.16451546  1
  Te  Te127  1  0.83084469  0.16397494  0.49953135  1
  Te  Te128  1  0.83300514  0.16906636  0.83870714  1
  Te  Te129  1  0.83137494  0.49541502  0.16194989  1
  Te  Te130  1  0.83243989  0.49939808  0.49967176  1
  Te  Te131  1  0.83367200  0.50066248  0.83609449  1
  Te  Te132  1  0.83468064  0.83196549  0.17258758  1
  Te  Te133  1  0.83196740  0.83839860  0.49513529  1
  Te  Te134  1  0.83040919  0.82762351  0.83403287  1
  Te  Te135  1  0.16987088  -0.00093841  0.00328199  1
  Te  Te136  1  0.16911070  0.00277725  0.32923488  1
  Te  Te137  1  0.16876941  0.00571269  0.66726628  1
  Te  Te138  1  0.16466917  0.33076928  -0.00024286  1
  Te  Te139  1  0.16455010  0.32239730  0.33285278  1
  Te  Te140  1  0.16067400  0.32578572  0.66691910  1
  Te  Te141  1  0.17011964  0.66464318  -0.00002109  1
  Te  Te142  1  0.16865066  0.66555625  0.33665903  1
  Te  Te143  1  0.16950321  0.66742242  0.66032000  1
  Te  Te144  1  0.50005234  0.00137756  -0.00324951  1
  Te  Te145  1  0.49644358  0.00389789  0.33766313  1
  Te  Te146  1  0.50063987  0.00324289  0.66128158  1
  Te  Te147  1  0.50105785  0.34170085  0.00535938  1
  Te  Te148  1  0.50033274  0.32608333  0.32687158  1
  Te  Te149  1  0.50037425  0.34293259  0.66789799  1
  Te  Te150  1  0.49901309  0.66359921  0.00067681  1
  Te  Te151  1  0.49449427  0.66689879  0.33981685  1
  Te  Te152  1  0.50026861  0.66339393  0.66591282  1
  Te  Te153  1  0.82969854  0.00238412  -0.00037944  1
  Te  Te154  1  0.83323941  0.00152552  0.33290332  1
  Te  Te155  1  0.83152992  0.00530155  0.66439379  1
  Te  Te156  1  0.83380790  0.33077171  -0.00053246  1
  Te  Te157  1  0.83433314  0.32730329  0.32730151  1
  Te  Te158  1  0.83669564  0.32799830  0.66848167  1
  Te  Te159  1  0.83271422  0.66595303  -0.00352272  1
  Te  Te160  1  0.83597909  0.66807087  0.33338188  1
  Te  Te161  1  0.82891781  0.66667798  0.67166282  1
  Te  Te162  1  0.00019596  0.16029591  0.00008622  1
  Te  Te163  1  -0.00497931  0.16215336  0.33376127  1
  Te  Te164  1  -0.00077148  0.17010124  0.66638971  1
  Te  Te165  1  -0.00659937  0.50062493  -0.00253678  1
  Te  Te166  1  0.00070619  0.50328354  0.33600405  1
  Te  Te167  1  0.00139210  0.49659531  0.66744212  1
  Te  Te168  1  0.00405315  0.83804285  0.00571325  1
  Te  Te169  1  -0.00060436  0.83492845  0.33010759  1
  Te  Te170  1  0.00136821  0.83388076  0.66912230  1
  Te  Te171  1  0.33181494  0.16338095  0.00421736  1
  Te  Te172  1  0.33453657  0.16418234  0.33076139  1
  Te  Te173  1  0.33087177  0.16429111  0.66944071  1
  Te  Te174  1  0.33483284  0.50026580  0.00106274  1
  Te  Te175  1  0.33253425  0.50269068  0.32866781  1
  Te  Te176  1  0.33616779  0.50270549  0.66660418  1
  Te  Te177  1  0.33309656  0.83268508  0.00054267  1
  Te  Te178  1  0.33237005  0.83494568  0.33585351  1
  Te  Te179  1  0.33387302  0.83347186  0.66484269  1
  Te  Te180  1  0.66829708  0.16341290  0.00286829  1
  Te  Te181  1  0.66805043  0.16159672  0.33310854  1
  Te  Te182  1  0.66947399  0.16288388  0.66442347  1
  Te  Te183  1  0.67060907  0.50381922  0.00288130  1
  Te  Te184  1  0.66675925  0.50326973  0.32976670  1
  Te  Te185  1  0.66356548  0.50235055  0.66536970  1
  Te  Te186  1  0.66706562  0.83112249  0.00002704  1
  Te  Te187  1  0.67056242  0.83947063  0.33548514  1
  Te  Te188  1  0.66689663  0.83511677  0.66477109  1
  Te  Te189  1  0.00303095  -0.00308918  0.16843801  1
  Te  Te190  1  -0.00139210  -0.00143732  0.49415597  1
  Te  Te191  1  -0.00022503  -0.00252054  0.83781161  1
  Te  Te192  1  -0.00643976  0.33479717  0.16739489  1
  Te  Te193  1  -0.00056802  0.34198717  0.50417874  1
  Te  Te194  1  -0.00569477  0.33872633  0.82990859  1
  Te  Te195  1  0.00078522  0.67342149  0.17334961  1
  Te  Te196  1  -0.00375830  0.66276305  0.49597647  1
  Te  Te197  1  -0.00237598  0.66134439  0.83321609  1
  Te  Te198  1  0.33377123  0.00040767  0.16856890  1
  Te  Te199  1  0.33128839  -0.00148992  0.49836068  1
  Te  Te200  1  0.33519036  -0.00664725  0.82987923  1
  Te  Te201  1  0.33561527  0.33637358  0.16658304  1
  Te  Te202  1  0.33362824  0.32304016  0.50004299  1
  Te  Te203  1  0.33498898  0.34242718  0.83247848  1
  Te  Te204  1  0.33279679  0.66433950  0.16491867  1
  Te  Te205  1  0.33761209  0.66770456  0.50044547  1
  Te  Te206  1  0.33466566  0.66742711  0.83341433  1
  Te  Te207  1  0.66358687  0.00253952  0.16286013  1
  Te  Te208  1  0.66558717  -0.00221445  0.49744730  1
  Te  Te209  1  0.66540253  -0.00882638  0.84061517  1
  Te  Te210  1  0.66725881  0.33318716  0.16682267  1
  Te  Te211  1  0.66639381  0.34476666  0.49946365  1
  Te  Te212  1  0.67398680  0.33122902  0.83292548  1
  Te  Te213  1  0.66465755  0.66551296  0.16350508  1
  Te  Te214  1  0.66219794  0.66653987  0.50078196  1
  Te  Te215  1  0.66335358  0.66936355  0.83297018  1
