# generated using pymatgen
data_AgSbTe2
_symmetry_space_group_name_H-M   'P 1'
_cell_length_a   18.33912113
_cell_length_b   18.33319073
_cell_length_c   18.33601522
_cell_angle_alpha   90.00132659
_cell_angle_beta   90.00143055
_cell_angle_gamma   89.99729832
_symmetry_Int_Tables_number   1
_chemical_formula_structural   AgSbTe2
_chemical_formula_sum   'Ag54 Sb54 Te108'
_cell_volume   6164.83611187
_cell_formula_units_Z   54
loop_
 _symmetry_equiv_pos_site_id
 _symmetry_equiv_pos_as_xyz
  1  'x, y, z'
loop_
 _atom_site_type_symbol
 _atom_site_label
 _atom_site_symmetry_multiplicity
 _atom_site_fract_x
 _atom_site_fract_y
 _atom_site_fract_z
 _atom_site_occupancy
  Ag  Ag0  1  0.82836846  0.66311147  0.16887452  1
  Ag  Ag1  1  0.82122712  0.66646562  0.49602731  1
  Ag  Ag2  1  0.33411243  0.50098812  0.16901890  1
  Ag  Ag3  1  0.49846555  0.83188362  0.66033820  1
  Ag  Ag4  1  0.83357354  0.33050075  0.83241935  1
  Ag  Ag5  1  0.16644668  0.83546912  -0.00240084  1
  Ag  Ag6  1  0.16289761  -0.00093251  0.16415245  1
  Ag  Ag7  1  0.50811663  0.50773673  0.66479126  1
  Ag  Ag8  1  0.66614438  0.66742968  0.65287420  1
  Ag  Ag9  1  0.83480722  0.34402921  0.50642280  1
  Ag  Ag10  1  0.16331707  0.16789598  0.32821566  1
  Ag  Ag11  1  0.82598368  0.82985027  0.33218452  1
  Ag  Ag12  1  0.50809440  0.83124805  0.34761510  1
  Ag  Ag13  1  0.82985812  0.50309014  0.00776059  1
  Ag  Ag14  1  0.65900268  0.82388185  0.49830000  1
  Ag  Ag15  1  0.16445828  0.50122642  0.00790248  1
  Ag  Ag16  1  0.17283882  0.66699851  0.49823682  1
  Ag  Ag17  1  0.83679506  0.17304016  0.66848485  1
  Ag  Ag18  1  -0.00155959  0.00030245  0.66870026  1
  Ag  Ag19  1  0.82400819  0.82991369  0.00306799  1
  Ag  Ag20  1  0.82978573  0.49740310  0.66638091  1
  Ag  Ag21  1  0.33805417  0.51105761  0.49714725  1
  Ag  Ag22  1  0.33977969  0.66595733  0.33833065  1
  Ag  Ag23  1  -0.00170736  0.83343767  0.50078395  1
  Ag  Ag24  1  0.66774323  0.67154448  0.00454486  1
  Ag  Ag25  1  0.33181670  -0.00770208  0.66674047  1
  Ag  Ag26  1  0.67141836  -0.01247467  -0.00124638  1
  Ag  Ag27  1  0.16196501  0.16106028  0.00596756  1
  Ag  Ag28  1  0.17620054  0.83397471  0.66481988  1
  Ag  Ag29  1  0.00133528  0.16627083  0.16179647  1
  Ag  Ag30  1  0.00158083  -0.00148283  0.32806696  1
  Ag  Ag31  1  0.34430149  0.82814118  0.50300586  1
  Ag  Ag32  1  0.50564810  -0.00591960  0.83353447  1
  Ag  Ag33  1  0.66190078  0.83484884  0.84574074  1
  Ag  Ag34  1  0.66980244  0.50812119  0.15972866  1
  Ag  Ag35  1  -0.00270519  0.16317142  0.83878861  1
  Ag  Ag36  1  0.34538167  0.83543820  0.82233208  1
  Ag  Ag37  1  0.50704910  0.67167966  0.49926602  1
  Ag  Ag38  1  0.66812216  0.82460715  0.15821671  1
  Ag  Ag39  1  0.83216728  0.00107605  0.83533217  1
  Ag  Ag40  1  0.16876338  0.50033759  0.33012641  1
  Ag  Ag41  1  -0.01089917  0.49604872  0.16515067  1
  Ag  Ag42  1  0.50917587  0.33977934  0.16240137  1
  Ag  Ag43  1  0.16041568  0.34082803  0.49904232  1
  Ag  Ag44  1  0.51204225  0.83233980  -0.00447193  1
  Ag  Ag45  1  0.66992926  0.34288915  0.00258729  1
  Ag  Ag46  1  0.51245227  0.50299304  0.00421572  1
  Ag  Ag47  1  0.50218960  0.15842034  0.00051792  1
  Ag  Ag48  1  -0.00287880  0.00080559  0.00050474  1
  Ag  Ag49  1  0.66593657  0.66942394  0.33838296  1
  Ag  Ag50  1  0.83006064  0.34388321  0.16033540  1
  Ag  Ag51  1  0.50114979  -0.01438490  0.50852137  1
  Ag  Ag52  1  0.66643026  0.51086696  0.49812649  1
  Ag  Ag53  1  -0.00679485  0.33009674  0.66433711  1
  Sb  Sb54  1  0.16349143  -0.00156721  0.83759722  1
  Sb  Sb55  1  0.66827568  0.16665342  0.50181190  1
  Sb  Sb56  1  0.66806379  -0.00960481  0.67137396  1
  Sb  Sb57  1  0.50251586  0.67532357  0.82837692  1
  Sb  Sb58  1  -0.00435020  0.49366159  0.83757988  1
  Sb  Sb59  1  0.83535887  0.50612334  0.33088090  1
  Sb  Sb60  1  0.33759521  0.33602618  0.00024419  1
  Sb  Sb61  1  -0.00031976  0.16282177  0.49999855  1
  Sb  Sb62  1  0.50287382  0.34167360  0.49707150  1
  Sb  Sb63  1  0.83427882  0.16670489  -0.00349836  1
  Sb  Sb64  1  0.16747207  -0.00501124  0.49831955  1
  Sb  Sb65  1  0.33060409  0.16314412  0.50005412  1
  Sb  Sb66  1  0.34073220  0.67316780  0.65678686  1
  Sb  Sb67  1  0.33654308  0.50746803  0.83291259  1
  Sb  Sb68  1  0.83053467  -0.00713287  0.50392749  1
  Sb  Sb69  1  -0.00271874  0.50386605  0.49577635  1
  Sb  Sb70  1  0.82948896  0.66825397  0.83374635  1
  Sb  Sb71  1  0.83777955  0.16178735  0.33572141  1
  Sb  Sb72  1  0.16263399  0.66685219  0.16935369  1
  Sb  Sb73  1  0.50514579  0.16127994  0.67167846  1
  Sb  Sb74  1  0.15997651  0.33233021  0.83094663  1
  Sb  Sb75  1  0.32980525  -0.00777469  0.33753465  1
  Sb  Sb76  1  0.50974564  0.66429455  0.17088861  1
  Sb  Sb77  1  0.49778392  0.50762338  0.33183101  1
  Sb  Sb78  1  0.16614819  0.83090135  0.33558159  1
  Sb  Sb79  1  0.49518683  0.15893709  0.32798359  1
  Sb  Sb80  1  0.67343679  0.34190028  0.67040747  1
  Sb  Sb81  1  -0.00498906  0.83478740  0.16760918  1
  Sb  Sb82  1  0.32953383  0.33204997  0.66327148  1
  Sb  Sb83  1  0.49767660  -0.00091121  0.16228121  1
  Sb  Sb84  1  -0.00476567  0.67121242  0.00217071  1
  Sb  Sb85  1  0.16512893  0.50484612  0.66248268  1
  Sb  Sb86  1  0.16765079  0.66963918  0.83089278  1
  Sb  Sb87  1  0.67117422  -0.01110605  0.32844964  1
  Sb  Sb88  1  -0.00404628  0.84048924  0.83192884  1
  Sb  Sb89  1  0.15946876  0.16151624  0.66644560  1
  Sb  Sb90  1  0.67292505  0.16015944  0.83652259  1
  Sb  Sb91  1  0.33780296  0.82808423  0.16918823  1
  Sb  Sb92  1  0.82914058  0.83056142  0.66730507  1
  Sb  Sb93  1  0.32989697  0.15943755  0.83404269  1
  Sb  Sb94  1  0.33245515  0.34083782  0.33284621  1
  Sb  Sb95  1  -0.00558954  0.66897604  0.66239981  1
  Sb  Sb96  1  0.32814982  0.17094279  0.16490439  1
  Sb  Sb97  1  0.67216054  0.16776446  0.16295682  1
  Sb  Sb98  1  0.66704578  0.50632011  0.83676072  1
  Sb  Sb99  1  -0.00529743  0.32963560  -0.00046769  1
  Sb  Sb100  1  0.33994318  0.66715305  0.00743629  1
  Sb  Sb101  1  0.50950127  0.32885196  0.83968655  1
  Sb  Sb102  1  0.16334014  0.33444882  0.16891621  1
  Sb  Sb103  1  -0.00091482  0.33090417  0.33625778  1
  Sb  Sb104  1  0.66850486  0.34356439  0.32844609  1
  Sb  Sb105  1  0.33309162  -0.00436218  -0.00375770  1
  Sb  Sb106  1  0.83723927  -0.00177148  0.16037306  1
  Sb  Sb107  1  -0.00386176  0.67071789  0.33416487  1
  Te  Te108  1  0.16243676  0.16787374  0.16579884  1
  Te  Te109  1  0.16689972  0.17210040  0.49686573  1
  Te  Te110  1  0.16034004  0.16708812  0.83845858  1
  Te  Te111  1  0.17103123  0.49982050  0.16732999  1
  Te  Te112  1  0.16565581  0.50124324  0.49962196  1
  Te  Te113  1  0.16706662  0.50018344  0.83976194  1
  Te  Te114  1  0.16735052  0.83535230  0.16485531  1
  Te  Te115  1  0.16195260  0.83111447  0.50078257  1
  Te  Te116  1  0.16682807  0.83345058  0.83197419  1
  Te  Te117  1  0.49837264  0.17034403  0.16058503  1
  Te  Te118  1  0.49916747  0.16748903  0.49933046  1
  Te  Te119  1  0.49887533  0.16015890  0.83979304  1
  Te  Te120  1  0.50288935  0.49957773  0.16517337  1
  Te  Te121  1  0.50155927  0.50254216  0.50100021  1
  Te  Te122  1  0.49889401  0.49776011  0.83295500  1
  Te  Te123  1  0.50385741  0.83375534  0.15508020  1
  Te  Te124  1  0.49933276  0.83102225  0.50320281  1
  Te  Te125  1  0.50126608  0.83657323  0.83713277  1
  Te  Te126  1  0.84008968  0.16947885  0.16819630  1
  Te  Te127  1  0.83333818  0.16978944  0.50483086  1
  Te  Te128  1  0.83749251  0.16527603  0.83024298  1
  Te  Te129  1  0.83044429  0.50090155  0.16781772  1
  Te  Te130  1  0.83194812  0.50338073  0.49793898  1
  Te  Te131  1  0.83278043  0.49618332  0.83142592  1
  Te  Te132  1  0.83043028  0.83228723  0.16419688  1
  Te  Te133  1  0.83550312  0.82968307  0.50013898  1
  Te  Te134  1  0.82895836  0.83628575  0.83749750  1
  Te  Te135  1  0.16589660  0.00143065  0.00232423  1
  Te  Te136  1  0.16252347  0.00158365  0.33051315  1
  Te  Te137  1  0.16458362  -0.00450023  0.66655269  1
  Te  Te138  1  0.16625555  0.33654232  -0.00048827  1
  Te  Te139  1  0.16609520  0.33469375  0.33830771  1
  Te  Te140  1  0.16075174  0.33340013  0.66156639  1
  Te  Te141  1  0.16645707  0.66497388  0.00058700  1
  Te  Te142  1  0.16590308  0.66339420  0.33669023  1
  Te  Te143  1  0.16454655  0.67276179  0.66182396  1
  Te  Te144  1  0.49946043  -0.00208242  -0.00208350  1
  Te  Te145  1  0.49888340  -0.00689365  0.33454386  1
  Te  Te146  1  0.50138565  -0.00165305  0.66856288  1
  Te  Te147  1  0.50402333  0.34048198  0.00287689  1
  Te  Te148  1  0.50040357  0.32839705  0.32619956  1
  Te  Te149  1  0.49988545  0.33370802  0.66818835  1
  Te  Te150  1  0.50396523  0.66470774  -0.00039365  1
  Te  Te151  1  0.50159566  0.67145976  0.33689315  1
  Te  Te152  1  0.50485218  0.66592090  0.66307571  1
  Te  Te153  1  0.83449312  -0.00031022  -0.00346235  1
  Te  Te154  1  0.83983340  -0.00663468  0.33407739  1
  Te  Te155  1  0.83624725  0.00039853  0.67065569  1
  Te  Te156  1  0.83166735  0.33410271  0.00081101  1
  Te  Te157  1  0.83326713  0.33098723  0.33483253  1
  Te  Te158  1  0.83449270  0.33692537  0.66604344  1
  Te  Te159  1  0.83141542  0.66606051  0.00064859  1
  Te  Te160  1  0.83064209  0.67117064  0.33436741  1
  Te  Te161  1  0.82803962  0.66157620  0.66328596  1
  Te  Te162  1  0.00071099  0.16360447  0.00069288  1
  Te  Te163  1  0.00426410  0.16069009  0.33002502  1
  Te  Te164  1  -0.00315919  0.16407344  0.66708165  1
  Te  Te165  1  -0.00226360  0.49943387  0.00463084  1
  Te  Te166  1  0.00610758  0.49949208  0.32729570  1
  Te  Te167  1  -0.00407854  0.49648468  0.66772205  1
  Te  Te168  1  0.00610871  0.83825685  -0.00056650  1
  Te  Te169  1  -0.00171974  0.83809480  0.33543372  1
  Te  Te170  1  -0.00162652  0.83689392  0.66483904  1
  Te  Te171  1  0.33188246  0.16738123  -0.00081384  1
  Te  Te172  1  0.32537874  0.16547837  0.33295404  1
  Te  Te173  1  0.33293311  0.15771767  0.66729386  1
  Te  Te174  1  0.32895683  0.50154066  0.00231305  1
  Te  Te175  1  0.33115841  0.50515008  0.33632413  1
  Te  Te176  1  0.33560589  0.50017098  0.66305631  1
  Te  Te177  1  0.32423005  0.83170779  0.00151811  1
  Te  Te178  1  0.33621993  0.82713627  0.33751582  1
  Te  Te179  1  0.33587079  0.83385898  0.66418592  1
  Te  Te180  1  0.66149485  0.16871500  0.00004520  1
  Te  Te181  1  0.66554022  0.16443207  0.33268001  1
  Te  Te182  1  0.67464212  0.16772113  0.66835244  1
  Te  Te183  1  0.66927262  0.50057592  -0.00020559  1
  Te  Te184  1  0.66576900  0.50730757  0.33428887  1
  Te  Te185  1  0.66693825  0.50520066  0.66818738  1
  Te  Te186  1  0.66834845  0.83253082  0.00209901  1
  Te  Te187  1  0.66713031  0.83006996  0.33758558  1
  Te  Te188  1  0.66221778  0.82854778  0.65784738  1
  Te  Te189  1  0.00285168  0.00111280  0.16378150  1
  Te  Te190  1  -0.00097086  -0.00413341  0.50407798  1
  Te  Te191  1  -0.00301416  0.00343948  0.83353502  1
  Te  Te192  1  -0.00445910  0.33366533  0.16719548  1
  Te  Te193  1  -0.00282539  0.33394046  0.50297624  1
  Te  Te194  1  -0.00625927  0.32703452  0.82763157  1
  Te  Te195  1  -0.00809205  0.65998244  0.16734837  1
  Te  Te196  1  0.00465167  0.67212097  0.49939959  1
  Te  Te197  1  -0.00107365  0.66607300  0.83208662  1
  Te  Te198  1  0.32554597  0.00117886  0.16861373  1
  Te  Te199  1  0.33733647  -0.00430861  0.50467873  1
  Te  Te200  1  0.33636632  -0.00613870  0.82813196  1
  Te  Te201  1  0.33794695  0.34110622  0.16701598  1
  Te  Te202  1  0.33118284  0.33764014  0.49966715  1
  Te  Te203  1  0.33334358  0.33255825  0.83072402  1
  Te  Te204  1  0.33134408  0.66023146  0.17481882  1
  Te  Te205  1  0.33144118  0.66771522  0.49780083  1
  Te  Te206  1  0.33363269  0.67626065  0.83480060  1
  Te  Te207  1  0.66713257  -0.00174470  0.16035574  1
  Te  Te208  1  0.66215673  -0.00150965  0.49854261  1
  Te  Te209  1  0.66784866  -0.00492412  0.83739760  1
  Te  Te210  1  0.66944481  0.33462398  0.16350948  1
  Te  Te211  1  0.67229817  0.33659294  0.49887051  1
  Te  Te212  1  0.67433878  0.33153642  0.83966312  1
  Te  Te213  1  0.66970333  0.66692079  0.16512761  1
  Te  Te214  1  0.66605597  0.66570219  0.49750313  1
  Te  Te215  1  0.66679467  0.67461694  0.84293251  1
