# generated using pymatgen
data_AgSbTe2
_symmetry_space_group_name_H-M   'P 1'
_cell_length_a   18.33573449
_cell_length_b   18.33339133
_cell_length_c   18.33561240
_cell_angle_alpha   90.00174739
_cell_angle_beta   89.99915351
_cell_angle_gamma   89.99630206
_symmetry_Int_Tables_number   1
_chemical_formula_structural   AgSbTe2
_chemical_formula_sum   'Ag54 Sb54 Te108'
_cell_volume   6163.62969388
_cell_formula_units_Z   54
loop_
 _symmetry_equiv_pos_site_id
 _symmetry_equiv_pos_as_xyz
  1  'x, y, z'
loop_
 _atom_site_type_symbol
 _atom_site_label
 _atom_site_symmetry_multiplicity
 _atom_site_fract_x
 _atom_site_fract_y
 _atom_site_fract_z
 _atom_site_occupancy
  Ag  Ag0  1  0.33367894  0.49772521  0.83838472  1
  Ag  Ag1  1  0.82910591  0.67120495  0.50750620  1
  Ag  Ag2  1  0.32866562  0.49816690  0.15706941  1
  Ag  Ag3  1  0.17118394  0.17131341  -0.00357756  1
  Ag  Ag4  1  0.66663701  0.34039501  -0.00916694  1
  Ag  Ag5  1  0.49346503  0.49641321  -0.00387467  1
  Ag  Ag6  1  0.67758930  0.33444492  0.67322117  1
  Ag  Ag7  1  0.32701899  0.00028519  0.33087959  1
  Ag  Ag8  1  0.33479835  0.33188862  -0.00447854  1
  Ag  Ag9  1  0.83583911  0.49771276  -0.00207813  1
  Ag  Ag10  1  0.16641214  -0.00277251  0.82686416  1
  Ag  Ag11  1  0.00514574  -0.00083428  0.34376601  1
  Ag  Ag12  1  0.32878309  0.32952947  0.67686702  1
  Ag  Ag13  1  0.67340077  0.67446029  0.66582844  1
  Ag  Ag14  1  -0.00121753  0.33546924  0.33458267  1
  Ag  Ag15  1  0.66908022  0.83066329  0.82464024  1
  Ag  Ag16  1  -0.00355926  -0.00755382  0.66532068  1
  Ag  Ag17  1  0.83032360  0.33384480  0.83164805  1
  Ag  Ag18  1  0.48874785  0.17650291  -0.00160920  1
  Ag  Ag19  1  0.16019359  0.84248962  0.66748220  1
  Ag  Ag20  1  0.50352562  0.33842975  0.83600698  1
  Ag  Ag21  1  0.66748686  0.83062821  0.50786081  1
  Ag  Ag22  1  0.33055773  0.16418973  0.15623790  1
  Ag  Ag23  1  0.32506363  0.00271855  0.66753272  1
  Ag  Ag24  1  0.83936588  0.16283842  0.66740283  1
  Ag  Ag25  1  0.50394090  0.66434927  0.83004855  1
  Ag  Ag26  1  0.67132102  0.65944415  -0.00509779  1
  Ag  Ag27  1  0.83500140  0.34263625  0.15198114  1
  Ag  Ag28  1  0.67007164  0.66779307  0.34605926  1
  Ag  Ag29  1  -0.00498600  0.83457764  0.82567465  1
  Ag  Ag30  1  0.49937653  0.83236368  0.34690844  1
  Ag  Ag31  1  0.83892292  0.00124109  0.82582149  1
  Ag  Ag32  1  0.83596692  0.66032194  0.16575159  1
  Ag  Ag33  1  0.16586517  0.15974106  0.67159348  1
  Ag  Ag34  1  0.50869166  0.67489808  0.50997091  1
  Ag  Ag35  1  0.83820691  0.49686297  0.67004973  1
  Ag  Ag36  1  0.50828789  0.83383625  0.66395932  1
  Ag  Ag37  1  -0.00584203  0.67605301  0.66985704  1
  Ag  Ag38  1  -0.00286767  0.33436603  0.67110391  1
  Ag  Ag39  1  -0.00732920  0.83492625  0.50801381  1
  Ag  Ag40  1  0.32947834  0.01031653  0.00082399  1
  Ag  Ag41  1  0.33374707  0.16199405  0.50679400  1
  Ag  Ag42  1  0.33212299  0.83991366  0.16590125  1
  Ag  Ag43  1  -0.00507101  0.66005406  -0.00561575  1
  Ag  Ag44  1  0.16270256  0.49843942  0.67197073  1
  Ag  Ag45  1  0.16954052  0.49600188  -0.00123331  1
  Ag  Ag46  1  0.16275419  0.50059804  0.32305780  1
  Ag  Ag47  1  0.49996424  -0.00692891  0.50503405  1
  Ag  Ag48  1  -0.00238000  0.34049479  -0.00642576  1
  Ag  Ag49  1  0.84066954  0.50170755  0.32999386  1
  Ag  Ag50  1  0.83384438  -0.00719107  0.51026009  1
  Ag  Ag51  1  0.16476809  0.66569957  0.16347899  1
  Ag  Ag52  1  0.67838126  -0.00884520  0.66733572  1
  Ag  Ag53  1  0.17185966  -0.00256609  0.16190103  1
  Sb  Sb54  1  0.83604607  0.17168768  0.33974079  1
  Sb  Sb55  1  0.00305056  0.16085231  0.50503360  1
  Sb  Sb56  1  0.83717060  0.17532852  -0.00584869  1
  Sb  Sb57  1  0.16731737  0.66858309  0.83526910  1
  Sb  Sb58  1  0.84045259  -0.00069329  0.16646316  1
  Sb  Sb59  1  0.00546145  0.83160282  0.16661938  1
  Sb  Sb60  1  0.16491226  0.33084518  0.83335477  1
  Sb  Sb61  1  0.33262137  0.66067470  0.00082279  1
  Sb  Sb62  1  0.33199878  0.17121275  0.83471704  1
  Sb  Sb63  1  0.49637879  0.16152200  0.33144399  1
  Sb  Sb64  1  0.16697958  -0.00107924  0.50471318  1
  Sb  Sb65  1  0.83329159  0.82574790  -0.00258779  1
  Sb  Sb66  1  0.66348400  0.15904809  0.50447520  1
  Sb  Sb67  1  0.66140209  0.83076260  0.16711277  1
  Sb  Sb68  1  0.50018688  0.50394625  0.67259862  1
  Sb  Sb69  1  0.00118044  0.16334143  0.82978097  1
  Sb  Sb70  1  0.33244323  0.66806469  0.66651038  1
  Sb  Sb71  1  0.00235602  0.50035338  0.16366826  1
  Sb  Sb72  1  -0.00169576  0.50465515  0.50401162  1
  Sb  Sb73  1  0.83404373  0.33499617  0.50839200  1
  Sb  Sb74  1  0.32942821  0.33002696  0.32986304  1
  Sb  Sb75  1  0.00522846  0.16802769  0.16504787  1
  Sb  Sb76  1  0.49107765  -0.00150160  0.16924630  1
  Sb  Sb77  1  0.33338187  0.49642833  0.50250368  1
  Sb  Sb78  1  0.33611665  0.67127641  0.33168121  1
  Sb  Sb79  1  0.49818852  0.83093755  -0.00444352  1
  Sb  Sb80  1  0.50053306  0.66624349  0.16280223  1
  Sb  Sb81  1  0.49901217  0.50534662  0.32779638  1
  Sb  Sb82  1  0.66719546  0.16750849  0.83126586  1
  Sb  Sb83  1  0.49662275  0.16303572  0.67205479  1
  Sb  Sb84  1  0.66816048  0.50850910  0.50469090  1
  Sb  Sb85  1  0.00303703  0.50341899  0.83271010  1
  Sb  Sb86  1  0.67337230  0.34231757  0.33445258  1
  Sb  Sb87  1  0.33814779  0.83946702  0.50030634  1
  Sb  Sb88  1  0.50132491  0.33454505  0.15724968  1
  Sb  Sb89  1  0.83340423  0.83518765  0.66782355  1
  Sb  Sb90  1  0.16810639  0.83285274  -0.00338430  1
  Sb  Sb91  1  0.83071227  0.82749270  0.33694600  1
  Sb  Sb92  1  0.49790932  -0.00139262  0.82792226  1
  Sb  Sb93  1  0.66338101  0.00032300  -0.00910501  1
  Sb  Sb94  1  0.66830408  0.50175847  0.16194627  1
  Sb  Sb95  1  0.16474459  0.66754221  0.49978483  1
  Sb  Sb96  1  0.66335176  0.16808614  0.16308429  1
  Sb  Sb97  1  0.66668346  -0.00723078  0.34160581  1
  Sb  Sb98  1  0.16931764  0.83241081  0.33702511  1
  Sb  Sb99  1  0.00584084  0.00107311  -0.00592789  1
  Sb  Sb100  1  0.66349070  0.50367158  0.83406527  1
  Sb  Sb101  1  0.50001755  0.33280431  0.51044626  1
  Sb  Sb102  1  0.16337198  0.33556737  0.16201851  1
  Sb  Sb103  1  0.83016006  0.66401852  0.82932572  1
  Sb  Sb104  1  0.33425455  0.83179854  0.83371681  1
  Sb  Sb105  1  -0.00408832  0.66642974  0.33530623  1
  Sb  Sb106  1  0.16561480  0.33277904  0.50457657  1
  Sb  Sb107  1  0.16738781  0.16790735  0.33312225  1
  Te  Te108  1  0.17180332  0.16355449  0.16463042  1
  Te  Te109  1  0.17366571  0.16633001  0.50477912  1
  Te  Te110  1  0.16637717  0.15810868  0.83276356  1
  Te  Te111  1  0.16873089  0.50137213  0.16388314  1
  Te  Te112  1  0.16671148  0.50098820  0.50432811  1
  Te  Te113  1  0.17172152  0.50132476  0.83432920  1
  Te  Te114  1  0.17210151  0.83114821  0.16870726  1
  Te  Te115  1  0.16163093  0.83140330  0.50600377  1
  Te  Te116  1  0.16449386  0.83630199  0.82821650  1
  Te  Te117  1  0.49313687  0.16663957  0.16037182  1
  Te  Te118  1  0.49497084  0.16114087  0.50014410  1
  Te  Te119  1  0.50069091  0.17277024  0.83971773  1
  Te  Te120  1  0.49082764  0.50079170  0.15967085  1
  Te  Te121  1  0.50022245  0.50668679  0.49731147  1
  Te  Te122  1  0.49568075  0.49875019  0.83663987  1
  Te  Te123  1  0.49263077  0.83178988  0.16768502  1
  Te  Te124  1  0.49978430  0.83266410  0.50367602  1
  Te  Te125  1  0.50360070  0.83008980  0.82818097  1
  Te  Te126  1  0.83309196  0.16989063  0.16837488  1
  Te  Te127  1  0.83226150  0.16034997  0.50698376  1
  Te  Te128  1  0.83374954  0.16588035  0.82697893  1
  Te  Te129  1  0.83370407  0.50099894  0.16435762  1
  Te  Te130  1  0.83299303  0.50547103  0.50147230  1
  Te  Te131  1  0.83491002  0.49540584  0.83401179  1
  Te  Te132  1  0.83290617  0.82817459  0.16670693  1
  Te  Te133  1  0.83181119  0.83279505  0.49824452  1
  Te  Te134  1  0.83249110  0.83858903  0.83519224  1
  Te  Te135  1  0.16890142  0.00012170  0.00080912  1
  Te  Te136  1  0.16677244  0.00028188  0.33097512  1
  Te  Te137  1  0.16488058  0.00085498  0.66669822  1
  Te  Te138  1  0.16501386  0.33416447  -0.00028234  1
  Te  Te139  1  0.16040841  0.33892467  0.33280063  1
  Te  Te140  1  0.16762521  0.33643435  0.66828715  1
  Te  Te141  1  0.16335671  0.66341193  0.00315503  1
  Te  Te142  1  0.16492345  0.66176658  0.32891326  1
  Te  Te143  1  0.16304030  0.66021579  0.66692885  1
  Te  Te144  1  0.49524824  0.00155864  -0.00175494  1
  Te  Te145  1  0.49847998  -0.00544648  0.33917001  1
  Te  Te146  1  0.49790785  -0.00244847  0.66495502  1
  Te  Te147  1  0.49937526  0.33554965  -0.00320498  1
  Te  Te148  1  0.50238371  0.33439925  0.33548602  1
  Te  Te149  1  0.49469670  0.33360547  0.67386277  1
  Te  Te150  1  0.50397040  0.66297076  -0.00458396  1
  Te  Te151  1  0.50558790  0.67039553  0.33264074  1
  Te  Te152  1  0.49973896  0.66953360  0.66834440  1
  Te  Te153  1  0.83474812  0.00402936  -0.00251999  1
  Te  Te154  1  0.83720064  0.00151969  0.33329875  1
  Te  Te155  1  0.83586337  0.00044597  0.66772864  1
  Te  Te156  1  0.83492711  0.33580698  -0.00415457  1
  Te  Te157  1  0.83776192  0.33991547  0.33617174  1
  Te  Te158  1  0.83532416  0.33594821  0.66919743  1
  Te  Te159  1  0.83387333  0.66082037  -0.00237251  1
  Te  Te160  1  0.83165130  0.66172529  0.33045283  1
  Te  Te161  1  0.83362934  0.66041631  0.66680658  1
  Te  Te162  1  0.00723193  0.17257478  -0.00045535  1
  Te  Te163  1  0.00113265  0.16621652  0.33489899  1
  Te  Te164  1  0.00251999  0.17209364  0.66574127  1
  Te  Te165  1  0.00056148  0.50023797  -0.00191906  1
  Te  Te166  1  0.00082357  0.49873669  0.33667434  1
  Te  Te167  1  0.00071406  0.49467152  0.66709656  1
  Te  Te168  1  0.00065006  0.82875487  -0.00284409  1
  Te  Te169  1  0.00086939  0.83818199  0.33568273  1
  Te  Te170  1  -0.00135724  0.83253982  0.66750808  1
  Te  Te171  1  0.32932595  0.16893551  -0.00146139  1
  Te  Te172  1  0.33276934  0.16115790  0.33358695  1
  Te  Te173  1  0.33186968  0.16666408  0.66731591  1
  Te  Te174  1  0.33096910  0.49879460  -0.00035498  1
  Te  Te175  1  0.32832892  0.49886940  0.33180856  1
  Te  Te176  1  0.33092247  0.49612377  0.66782107  1
  Te  Te177  1  0.33360718  0.83862950  0.00396377  1
  Te  Te178  1  0.33674149  0.83893950  0.33042335  1
  Te  Te179  1  0.32889530  0.83707265  0.66759758  1
  Te  Te180  1  0.66460739  0.17174408  -0.00030877  1
  Te  Te181  1  0.66612069  0.16758794  0.33320153  1
  Te  Te182  1  0.66869014  0.17270085  0.66599913  1
  Te  Te183  1  0.66967509  0.49905737  -0.00036274  1
  Te  Te184  1  0.66992769  0.50817052  0.33246365  1
  Te  Te185  1  0.66910488  0.49386427  0.66773318  1
  Te  Te186  1  0.66516720  0.83027280  -0.00315096  1
  Te  Te187  1  0.66078759  0.82711176  0.33441065  1
  Te  Te188  1  0.66744271  0.83221901  0.66678791  1
  Te  Te189  1  0.00704888  -0.00011176  0.16833374  1
  Te  Te190  1  -0.00285034  -0.00329263  0.50313134  1
  Te  Te191  1  0.00019436  -0.00440584  0.82974024  1
  Te  Te192  1  -0.00576142  0.33323074  0.16781973  1
  Te  Te193  1  -0.00107634  0.33146818  0.49963270  1
  Te  Te194  1  -0.00407657  0.33377676  0.83294197  1
  Te  Te195  1  -0.00128740  0.66802537  0.16365588  1
  Te  Te196  1  -0.00406711  0.67303142  0.50408545  1
  Te  Te197  1  -0.00011080  0.67293421  0.83185904  1
  Te  Te198  1  0.33049960  0.00157881  0.16548956  1
  Te  Te199  1  0.33526861  0.00119963  0.50341987  1
  Te  Te200  1  0.33011368  -0.00291542  0.83128531  1
  Te  Te201  1  0.33314158  0.33340105  0.16287991  1
  Te  Te202  1  0.33474456  0.32668694  0.50178204  1
  Te  Te203  1  0.33092805  0.33731437  0.83505538  1
  Te  Te204  1  0.32960899  0.66451647  0.16633491  1
  Te  Te205  1  0.33910157  0.66645255  0.49853008  1
  Te  Te206  1  0.34014530  0.66125642  0.83354844  1
  Te  Te207  1  0.66884070  -0.00069705  0.16615281  1
  Te  Te208  1  0.66800398  -0.00685616  0.50577590  1
  Te  Te209  1  0.66795109  -0.00502915  0.82724544  1
  Te  Te210  1  0.67423283  0.33393009  0.16567242  1
  Te  Te211  1  0.66519517  0.33222428  0.50443614  1
  Te  Te212  1  0.66726949  0.33321892  0.83359377  1
  Te  Te213  1  0.67154430  0.66721374  0.15715309  1
  Te  Te214  1  0.66805409  0.67056168  0.50477089  1
  Te  Te215  1  0.66507788  0.66965849  0.83153899  1
