# generated using pymatgen
data_AgSbTe2
_symmetry_space_group_name_H-M   'P 1'
_cell_length_a   18.33220645
_cell_length_b   18.33159429
_cell_length_c   18.34113389
_cell_angle_alpha   90.00325553
_cell_angle_beta   89.99950023
_cell_angle_gamma   89.99982557
_symmetry_Int_Tables_number   1
_chemical_formula_structural   AgSbTe2
_chemical_formula_sum   'Ag54 Sb54 Te108'
_cell_volume   6163.69523493
_cell_formula_units_Z   54
loop_
 _symmetry_equiv_pos_site_id
 _symmetry_equiv_pos_as_xyz
  1  'x, y, z'
loop_
 _atom_site_type_symbol
 _atom_site_label
 _atom_site_symmetry_multiplicity
 _atom_site_fract_x
 _atom_site_fract_y
 _atom_site_fract_z
 _atom_site_occupancy
  Ag  Ag0  1  0.00442315  0.49337800  0.84343240  1
  Ag  Ag1  1  0.68032187  0.33640981  0.66626674  1
  Ag  Ag2  1  0.68124481  0.33246556  -0.00196796  1
  Ag  Ag3  1  0.49989310  0.83974221  -0.00782899  1
  Ag  Ag4  1  0.67102280  0.16834574  0.16753892  1
  Ag  Ag5  1  -0.00179778  0.82173744  0.16540852  1
  Ag  Ag6  1  0.32753799  0.83223945  0.49773120  1
  Ag  Ag7  1  -0.00296670  0.33751281  0.33574914  1
  Ag  Ag8  1  0.16070063  -0.00056904  0.16685993  1
  Ag  Ag9  1  0.00205040  0.65620056  0.01286418  1
  Ag  Ag10  1  -0.00276267  0.34534636  -0.01300107  1
  Ag  Ag11  1  0.84116030  0.33065238  0.83504994  1
  Ag  Ag12  1  0.00249773  0.66258806  0.32518209  1
  Ag  Ag13  1  0.15550333  0.66910931  0.16898101  1
  Ag  Ag14  1  0.15350866  0.34442554  0.83027287  1
  Ag  Ag15  1  0.31647662  0.50049620  0.83100439  1
  Ag  Ag16  1  -0.00306544  0.82916661  0.83104419  1
  Ag  Ag17  1  0.84451270  0.66197730  0.49693073  1
  Ag  Ag18  1  0.33356437  0.00051698  0.00252167  1
  Ag  Ag19  1  0.16065822  0.66161089  0.49837933  1
  Ag  Ag20  1  0.33158921  -0.00206599  0.33240888  1
  Ag  Ag21  1  0.49818420  0.16415908  0.32932158  1
  Ag  Ag22  1  0.32097486  0.67242653  0.33997064  1
  Ag  Ag23  1  0.83806543  0.00014881  0.83283209  1
  Ag  Ag24  1  -0.00217236  0.50966201  0.15432374  1
  Ag  Ag25  1  0.68154954  0.49608865  0.50246636  1
  Ag  Ag26  1  0.16249297  0.65679017  0.83084641  1
  Ag  Ag27  1  0.83704700  0.17080545  0.33187350  1
  Ag  Ag28  1  -0.00071525  0.50342532  0.50203867  1
  Ag  Ag29  1  -0.00230806  0.33458904  0.67365497  1
  Ag  Ag30  1  0.83987171  0.83471564  0.66644104  1
  Ag  Ag31  1  0.16357018  0.16784744  0.33041890  1
  Ag  Ag32  1  0.67518823  0.83464501  0.83174047  1
  Ag  Ag33  1  0.83638025  0.33196998  0.16775049  1
  Ag  Ag34  1  0.84053304  0.00293316  0.16613770  1
  Ag  Ag35  1  0.49401630  0.50361841  0.66689229  1
  Ag  Ag36  1  0.49615801  0.16257901  0.00308440  1
  Ag  Ag37  1  0.15627930  0.34121613  0.50433244  1
  Ag  Ag38  1  0.84466828  0.49431656  -0.00110101  1
  Ag  Ag39  1  0.68005687  0.33036096  0.33523039  1
  Ag  Ag40  1  -0.00293972  -0.00131283  0.66849602  1
  Ag  Ag41  1  0.83816311  0.00047171  0.50050781  1
  Ag  Ag42  1  0.33059261  0.16084522  0.49551491  1
  Ag  Ag43  1  0.84331629  0.66374662  0.17173051  1
  Ag  Ag44  1  0.16609403  0.17102852  0.00341489  1
  Ag  Ag45  1  0.16335206  0.50123374  0.67559905  1
  Ag  Ag46  1  0.83948465  0.33488728  0.49785778  1
  Ag  Ag47  1  0.49611247  0.83773986  0.33638071  1
  Ag  Ag48  1  0.33068954  0.66611555  0.66081598  1
  Ag  Ag49  1  0.00056016  0.18088854  0.83539412  1
  Ag  Ag50  1  0.15513056  0.49606521  -0.01175543  1
  Ag  Ag51  1  0.50221376  0.83100728  0.66882138  1
  Ag  Ag52  1  -0.00030107  0.82266555  0.50097746  1
  Ag  Ag53  1  0.50248892  -0.00348161  0.83573876  1
  Sb  Sb54  1  0.66490029  0.00540091  0.33273964  1
  Sb  Sb55  1  0.49824642  0.66911971  0.16786678  1
  Sb  Sb56  1  0.66513846  0.66270532  0.66642165  1
  Sb  Sb57  1  0.16729720  0.83319805  0.33367955  1
  Sb  Sb58  1  0.67290052  0.83752954  0.16348492  1
  Sb  Sb59  1  0.32848692  -0.00591026  0.66521161  1
  Sb  Sb60  1  0.32835319  0.33987891  0.66602817  1
  Sb  Sb61  1  0.16295491  0.49908529  0.33395114  1
  Sb  Sb62  1  0.49972736  0.16509547  0.66695742  1
  Sb  Sb63  1  0.16204708  0.00006903  0.49605303  1
  Sb  Sb64  1  0.49880219  0.49833623  -0.00630577  1
  Sb  Sb65  1  0.67270519  0.16472091  0.83810353  1
  Sb  Sb66  1  0.83354623  0.83073386  -0.00431789  1
  Sb  Sb67  1  -0.00280319  0.16842296  0.16382276  1
  Sb  Sb68  1  0.00286048  0.17151516  0.50104594  1
  Sb  Sb69  1  0.84054085  0.50042630  0.66710755  1
  Sb  Sb70  1  0.83296090  0.83685159  0.33729818  1
  Sb  Sb71  1  0.15563485  0.33440593  0.16579069  1
  Sb  Sb72  1  0.32820434  0.16926773  0.83109945  1
  Sb  Sb73  1  0.67373402  0.50085044  0.82914264  1
  Sb  Sb74  1  0.32109942  0.50318862  0.16141193  1
  Sb  Sb75  1  0.67477714  0.66218613  -0.00044149  1
  Sb  Sb76  1  0.32791271  0.83508335  0.17111888  1
  Sb  Sb77  1  0.32682608  0.50376177  0.50450824  1
  Sb  Sb78  1  0.32411678  0.67092157  -0.00057325  1
  Sb  Sb79  1  0.33392364  0.16600656  0.17055900  1
  Sb  Sb80  1  0.84369146  0.66602210  0.83144319  1
  Sb  Sb81  1  0.49897177  -0.00011747  0.16428399  1
  Sb  Sb82  1  0.16660431  0.83290681  0.00111895  1
  Sb  Sb83  1  0.00193354  0.00062424  -0.00272049  1
  Sb  Sb84  1  0.49959353  0.49846699  0.33885840  1
  Sb  Sb85  1  0.16418110  0.17330838  0.66600325  1
  Sb  Sb86  1  0.16123390  0.82621466  0.66539873  1
  Sb  Sb87  1  0.51160549  0.33155703  0.16645978  1
  Sb  Sb88  1  0.50330146  0.32941737  0.83357942  1
  Sb  Sb89  1  0.49413969  0.67132666  0.83242259  1
  Sb  Sb90  1  0.32544202  0.32916488  -0.00111899  1
  Sb  Sb91  1  0.00488032  0.66294652  0.66386236  1
  Sb  Sb92  1  0.83670893  0.17272281  0.00387003  1
  Sb  Sb93  1  0.16155626  0.00098479  0.83726519  1
  Sb  Sb94  1  0.66663791  0.17229034  0.49452981  1
  Sb  Sb95  1  0.32787135  0.33134202  0.33681077  1
  Sb  Sb96  1  0.32999186  0.83056708  0.82913957  1
  Sb  Sb97  1  0.50262300  -0.00174056  0.50228111  1
  Sb  Sb98  1  0.50138399  0.33332366  0.50086178  1
  Sb  Sb99  1  0.67813387  0.49432132  0.16946991  1
  Sb  Sb100  1  0.67268388  0.00223418  0.66775001  1
  Sb  Sb101  1  0.49629022  0.66789426  0.50045294  1
  Sb  Sb102  1  0.67111242  0.82806813  0.50439256  1
  Sb  Sb103  1  0.83579743  0.16693743  0.66360945  1
  Sb  Sb104  1  0.83849133  0.49222496  0.33305099  1
  Sb  Sb105  1  0.00223507  0.00012378  0.33542912  1
  Sb  Sb106  1  0.67273803  0.66221203  0.33496411  1
  Sb  Sb107  1  0.66456451  0.00559953  -0.00049538  1
  Te  Te108  1  0.16685606  0.16537845  0.16616411  1
  Te  Te109  1  0.16985965  0.16776843  0.49649258  1
  Te  Te110  1  0.16313603  0.16921025  0.83696719  1
  Te  Te111  1  0.15805517  0.50375868  0.16299417  1
  Te  Te112  1  0.16350497  0.50037075  0.49992446  1
  Te  Te113  1  0.16074200  0.50084690  0.83224070  1
  Te  Te114  1  0.15982261  0.83379365  0.16728417  1
  Te  Te115  1  0.16552695  0.82966100  0.49955934  1
  Te  Te116  1  0.16108042  0.83086525  0.83358899  1
  Te  Te117  1  0.50458380  0.16523932  0.16665528  1
  Te  Te118  1  0.49470177  0.16558102  0.49527813  1
  Te  Te119  1  0.49965969  0.16071069  0.83726121  1
  Te  Te120  1  0.49978650  0.50048776  0.16556117  1
  Te  Te121  1  0.49775584  0.50068423  0.50732068  1
  Te  Te122  1  0.50408334  0.50009527  0.82765716  1
  Te  Te123  1  0.50258730  0.83408756  0.16878062  1
  Te  Te124  1  0.50030840  0.83358438  0.50090467  1
  Te  Te125  1  0.49640297  0.83635854  0.83250377  1
  Te  Te126  1  0.83182664  0.16622335  0.16945267  1
  Te  Te127  1  0.83315299  0.16764719  0.49463355  1
  Te  Te128  1  0.83839462  0.16563469  0.83327022  1
  Te  Te129  1  0.83877534  0.49864383  0.16359193  1
  Te  Te130  1  0.83759651  0.49790189  0.50134430  1
  Te  Te131  1  0.83927945  0.49727733  0.83570833  1
  Te  Te132  1  0.83728541  0.83609348  0.16661586  1
  Te  Te133  1  0.83529550  0.83569510  0.50403074  1
  Te  Te134  1  0.83405443  0.83314662  0.82962188  1
  Te  Te135  1  0.17127652  0.00287018  0.00454214  1
  Te  Te136  1  0.17086208  0.00565269  0.32949864  1
  Te  Te137  1  0.15958832  0.00089968  0.66655492  1
  Te  Te138  1  0.16155416  0.33335614  -0.00124328  1
  Te  Te139  1  0.16286891  0.32922659  0.33571928  1
  Te  Te140  1  0.16253322  0.33841605  0.66648514  1
  Te  Te141  1  0.16294559  0.66553678  0.00160014  1
  Te  Te142  1  0.16343942  0.66602459  0.33458234  1
  Te  Te143  1  0.17111832  0.66218574  0.66462440  1
  Te  Te144  1  0.49805968  0.00051004  -0.00148478  1
  Te  Te145  1  0.49590014  0.00120815  0.33367717  1
  Te  Te146  1  0.50002789  -0.00399262  0.67144346  1
  Te  Te147  1  0.49788892  0.32824306  -0.00011864  1
  Te  Te148  1  0.49914407  0.32751436  0.33293246  1
  Te  Te149  1  0.49978249  0.33637768  0.66820794  1
  Te  Te150  1  0.49981926  0.66997192  0.00155657  1
  Te  Te151  1  0.49979847  0.67038594  0.33245795  1
  Te  Te152  1  0.49492852  0.66842816  0.66664079  1
  Te  Te153  1  0.83311759  0.00081850  -0.00136725  1
  Te  Te154  1  0.83310923  0.00497164  0.33193411  1
  Te  Te155  1  0.83666780  -0.00099266  0.66922231  1
  Te  Te156  1  0.83733603  0.33264301  -0.00158029  1
  Te  Te157  1  0.83575624  0.33138590  0.33626044  1
  Te  Te158  1  0.83663464  0.33338936  0.66522622  1
  Te  Te159  1  0.83984058  0.66208684  0.00270880  1
  Te  Te160  1  0.83856579  0.66846803  0.33499196  1
  Te  Te161  1  0.83004321  0.67220943  0.66098827  1
  Te  Te162  1  0.00476332  0.16763544  -0.00367719  1
  Te  Te163  1  0.00047846  0.16763246  0.33336183  1
  Te  Te164  1  0.00044888  0.16775840  0.67361935  1
  Te  Te165  1  0.00009720  0.50052440  -0.00097070  1
  Te  Te166  1  0.00075347  0.50173098  0.34255081  1
  Te  Te167  1  0.00251683  0.49548626  0.66047213  1
  Te  Te168  1  -0.00083063  0.83153923  0.00183587  1
  Te  Te169  1  -0.00119737  0.83019369  0.33604181  1
  Te  Te170  1  -0.00120819  0.83462820  0.66372986  1
  Te  Te171  1  0.33271729  0.16224359  -0.00023634  1
  Te  Te172  1  0.33310486  0.16457906  0.33528393  1
  Te  Te173  1  0.33284754  0.16454041  0.65875808  1
  Te  Te174  1  0.33096057  0.50163238  -0.00634542  1
  Te  Te175  1  0.33382363  0.50708635  0.33146166  1
  Te  Te176  1  0.33248408  0.50497572  0.67021645  1
  Te  Te177  1  0.33877149  0.83844604  0.00051361  1
  Te  Te178  1  0.33504926  0.83399159  0.33641632  1
  Te  Te179  1  0.33554050  0.82941322  0.66149254  1
  Te  Te180  1  0.66250702  0.17275963  0.00344234  1
  Te  Te181  1  0.66524177  0.17105744  0.32981589  1
  Te  Te182  1  0.66526322  0.17590562  0.66677626  1
  Te  Te183  1  0.66734035  0.49321401  -0.00005442  1
  Te  Te184  1  0.66465841  0.49198369  0.33969348  1
  Te  Te185  1  0.66559852  0.49541329  0.66341172  1
  Te  Te186  1  0.66082031  0.83190845  -0.00451537  1
  Te  Te187  1  0.65844616  0.83205244  0.33340009  1
  Te  Te188  1  0.66280222  0.83400251  0.67073005  1
  Te  Te189  1  0.00048732  0.00050671  0.16731816  1
  Te  Te190  1  -0.00335584  -0.00167724  0.50353459  1
  Te  Te191  1  -0.00273047  -0.01082436  0.83096119  1
  Te  Te192  1  -0.00563738  0.33457171  0.17674739  1
  Te  Te193  1  -0.00048906  0.33022413  0.49599208  1
  Te  Te194  1  -0.00154157  0.33650488  0.83137708  1
  Te  Te195  1  -0.00074749  0.66600765  0.16850406  1
  Te  Te196  1  0.00085573  0.66637275  0.50385002  1
  Te  Te197  1  0.00354447  0.67010872  0.83002637  1
  Te  Te198  1  0.32917540  0.00037290  0.16777658  1
  Te  Te199  1  0.33352155  -0.00396097  0.49712990  1
  Te  Te200  1  0.33492024  -0.00017361  0.83556441  1
  Te  Te201  1  0.33520013  0.33566134  0.16773076  1
  Te  Te202  1  0.32867721  0.33161131  0.50043467  1
  Te  Te203  1  0.33103041  0.33879052  0.83256155  1
  Te  Te204  1  0.32717302  0.66791833  0.17228867  1
  Te  Te205  1  0.33040389  0.66984164  0.49899960  1
  Te  Te206  1  0.32656312  0.66242164  0.83168306  1
  Te  Te207  1  0.67515742  0.00550715  0.16656505  1
  Te  Te208  1  0.67642560  -0.00045162  0.50030229  1
  Te  Te209  1  0.66906920  -0.00383002  0.83323125  1
  Te  Te210  1  0.67612031  0.32980490  0.16744164  1
  Te  Te211  1  0.66795708  0.33632939  0.50039416  1
  Te  Te212  1  0.67150416  0.33278288  0.83297860  1
  Te  Te213  1  0.67596259  0.66656601  0.16702201  1
  Te  Te214  1  0.67334105  0.65900707  0.49939081  1
  Te  Te215  1  0.66672748  0.67385174  0.83418574  1
