# generated using pymatgen
data_AgSbTe2
_symmetry_space_group_name_H-M   'P 1'
_cell_length_a   18.33927002
_cell_length_b   18.33357801
_cell_length_c   18.32800724
_cell_angle_alpha   89.99870248
_cell_angle_beta   89.99614980
_cell_angle_gamma   90.00047765
_symmetry_Int_Tables_number   1
_chemical_formula_structural   AgSbTe2
_chemical_formula_sum   'Ag54 Sb54 Te108'
_cell_volume   6162.32391157
_cell_formula_units_Z   54
loop_
 _symmetry_equiv_pos_site_id
 _symmetry_equiv_pos_as_xyz
  1  'x, y, z'
loop_
 _atom_site_type_symbol
 _atom_site_label
 _atom_site_symmetry_multiplicity
 _atom_site_fract_x
 _atom_site_fract_y
 _atom_site_fract_z
 _atom_site_occupancy
  Ag  Ag0  1  0.51346948  0.17767047  0.33356213  1
  Ag  Ag1  1  0.67106511  0.00611908  0.33005452  1
  Ag  Ag2  1  0.16537548  0.33443372  0.49867572  1
  Ag  Ag3  1  0.83528799  0.66255157  0.84175140  1
  Ag  Ag4  1  0.66530803  0.33853924  0.32995447  1
  Ag  Ag5  1  0.51185302  0.49729611  0.33634395  1
  Ag  Ag6  1  0.83101542  -0.00054495  0.16926738  1
  Ag  Ag7  1  0.16700327  0.66045331  0.50462652  1
  Ag  Ag8  1  0.83020045  0.81930179  0.00259272  1
  Ag  Ag9  1  0.66438719  0.66328286  0.66518639  1
  Ag  Ag10  1  0.33001324  0.83019015  0.83599884  1
  Ag  Ag11  1  0.32689193  -0.00524169  0.67007955  1
  Ag  Ag12  1  0.49473419  -0.01040193  0.83133028  1
  Ag  Ag13  1  0.34196319  0.50303761  0.17494486  1
  Ag  Ag14  1  0.16387834  0.16730428  0.33912843  1
  Ag  Ag15  1  -0.00410098  0.33903294  -0.00172477  1
  Ag  Ag16  1  0.00630636  0.82360314  0.83509505  1
  Ag  Ag17  1  0.66935056  0.65348208  0.33198034  1
  Ag  Ag18  1  0.66840361  0.50148024  0.17525848  1
  Ag  Ag19  1  -0.01105818  0.66296645  -0.00609402  1
  Ag  Ag20  1  -0.00596887  0.50376056  0.83414479  1
  Ag  Ag21  1  -0.00193112  0.16812305  0.49913839  1
  Ag  Ag22  1  0.83695417  0.17240336  0.66526388  1
  Ag  Ag23  1  0.33797472  0.82944509  0.16308737  1
  Ag  Ag24  1  0.16132188  0.67061486  0.82909478  1
  Ag  Ag25  1  0.82741874  0.66042329  0.15594790  1
  Ag  Ag26  1  0.34329902  0.33675260  0.33226762  1
  Ag  Ag27  1  0.16785131  -0.00322166  0.83048569  1
  Ag  Ag28  1  0.50304812  0.34096119  0.83620751  1
  Ag  Ag29  1  0.82827817  0.50175099  0.66937020  1
  Ag  Ag30  1  0.66846693  0.17594308  0.17508785  1
  Ag  Ag31  1  0.50739108  0.66008998  0.50670758  1
  Ag  Ag32  1  0.16597990  0.83829084  0.33139357  1
  Ag  Ag33  1  0.66455637  0.50093451  0.48988653  1
  Ag  Ag34  1  0.67598399  0.66678246  0.00677778  1
  Ag  Ag35  1  0.82432867  0.50038154  0.32750462  1
  Ag  Ag36  1  0.33809044  0.66677033  0.66748619  1
  Ag  Ag37  1  -0.00135464  0.00631229  0.33517785  1
  Ag  Ag38  1  0.83872034  0.34530131  0.83811534  1
  Ag  Ag39  1  0.67032539  0.17559897  0.49297259  1
  Ag  Ag40  1  0.00337444  0.00412492  0.66534731  1
  Ag  Ag41  1  0.50475471  0.82965716  -0.00073086  1
  Ag  Ag42  1  0.66690875  0.82423021  0.16684987  1
  Ag  Ag43  1  0.16350727  -0.00112838  0.17433102  1
  Ag  Ag44  1  0.34467212  0.50254721  0.49647662  1
  Ag  Ag45  1  -0.00284919  0.33033086  0.33113436  1
  Ag  Ag46  1  0.82534196  0.66050907  0.50195204  1
  Ag  Ag47  1  0.16176833  0.16512482  0.66074396  1
  Ag  Ag48  1  0.50941369  0.33723939  0.17339649  1
  Ag  Ag49  1  0.50446336  0.66358967  0.82806585  1
  Ag  Ag50  1  0.16201527  0.33508752  0.82806988  1
  Ag  Ag51  1  0.50574825  0.50347621  0.65941918  1
  Ag  Ag52  1  0.82838867  0.34127890  0.16875895  1
  Ag  Ag53  1  0.83365613  0.50605623  -0.00014090  1
  Sb  Sb54  1  0.83471580  -0.00367289  0.83632102  1
  Sb  Sb55  1  0.50063826  0.17213713  0.66185986  1
  Sb  Sb56  1  0.66776794  -0.00719790  0.00682569  1
  Sb  Sb57  1  -0.00165429  0.66815731  0.67185141  1
  Sb  Sb58  1  0.66746793  0.33974251  0.66175631  1
  Sb  Sb59  1  0.50746542  0.66167321  0.16567543  1
  Sb  Sb60  1  0.33222443  0.16252480  0.82936882  1
  Sb  Sb61  1  0.83292223  -0.00160042  0.49422905  1
  Sb  Sb62  1  0.00085435  0.83533618  0.50207506  1
  Sb  Sb63  1  0.83536129  0.33788183  0.49744262  1
  Sb  Sb64  1  0.50784095  0.50459012  0.00042935  1
  Sb  Sb65  1  0.33240593  0.50502464  0.83149549  1
  Sb  Sb66  1  0.16452986  0.16734250  -0.00023980  1
  Sb  Sb67  1  0.16507686  0.83233614  0.00011057  1
  Sb  Sb68  1  0.66469153  0.82780040  0.83972189  1
  Sb  Sb69  1  0.33176785  0.82513825  0.50054159  1
  Sb  Sb70  1  0.66753376  0.16942924  0.83085305  1
  Sb  Sb71  1  0.33076637  0.33754815  0.00302109  1
  Sb  Sb72  1  0.83440001  0.82849699  0.32635143  1
  Sb  Sb73  1  0.66793935  -0.00286325  0.66268642  1
  Sb  Sb74  1  0.49849123  0.82406559  0.67287681  1
  Sb  Sb75  1  -0.00606519  0.16655024  0.17455033  1
  Sb  Sb76  1  -0.00090572  -0.00079948  -0.00025300  1
  Sb  Sb77  1  0.33181929  0.00263683  0.33662890  1
  Sb  Sb78  1  0.50380245  0.16567913  0.00352966  1
  Sb  Sb79  1  0.15969095  0.50100515  -0.00092846  1
  Sb  Sb80  1  0.50173730  0.00202233  0.16490492  1
  Sb  Sb81  1  0.33654439  0.16700451  0.17130179  1
  Sb  Sb82  1  -0.00414093  0.49732627  0.50365853  1
  Sb  Sb83  1  0.33751873  0.66104056  0.33639771  1
  Sb  Sb84  1  0.33249451  0.17344218  0.49837218  1
  Sb  Sb85  1  0.66743304  0.82430729  0.49120275  1
  Sb  Sb86  1  0.00041409  0.16917902  0.82728422  1
  Sb  Sb87  1  0.67260147  0.50234989  0.83240531  1
  Sb  Sb88  1  0.16391481  0.66959196  0.16605286  1
  Sb  Sb89  1  -0.00648923  0.49856202  0.16354237  1
  Sb  Sb90  1  0.16486762  0.32975472  0.17112227  1
  Sb  Sb91  1  0.49851999  0.34016671  0.49474303  1
  Sb  Sb92  1  0.16675897  0.83599527  0.66646872  1
  Sb  Sb93  1  0.33350450  -0.00363533  -0.00351171  1
  Sb  Sb94  1  0.83109165  0.17270135  0.33644790  1
  Sb  Sb95  1  -0.00115439  0.33028195  0.66694861  1
  Sb  Sb96  1  0.33320949  0.33797838  0.66377698  1
  Sb  Sb97  1  0.16641207  0.00353210  0.50121253  1
  Sb  Sb98  1  0.83325567  0.17122932  -0.00059894  1
  Sb  Sb99  1  0.83383745  0.82748979  0.67337555  1
  Sb  Sb100  1  0.50058650  -0.00329456  0.50306165  1
  Sb  Sb101  1  0.49835665  0.82970214  0.32848238  1
  Sb  Sb102  1  -0.00471956  0.66453341  0.33128696  1
  Sb  Sb103  1  0.16575341  0.49658977  0.33496268  1
  Sb  Sb104  1  0.67184395  0.34175754  0.00718218  1
  Sb  Sb105  1  0.16594400  0.49895421  0.66708901  1
  Sb  Sb106  1  0.33518429  0.66674906  -0.00379838  1
  Sb  Sb107  1  -0.00319866  0.83378659  0.16267516  1
  Te  Te108  1  0.16677946  0.16064827  0.17043325  1
  Te  Te109  1  0.16592761  0.16971971  0.50009124  1
  Te  Te110  1  0.16679891  0.16537247  0.83053588  1
  Te  Te111  1  0.17423635  0.49990799  0.16628476  1
  Te  Te112  1  0.16520614  0.49917657  0.50164306  1
  Te  Te113  1  0.16251916  0.49835048  0.83272511  1
  Te  Te114  1  0.16837080  0.83688350  0.16812792  1
  Te  Te115  1  0.16666039  0.82689856  0.49406359  1
  Te  Te116  1  0.16773288  0.83332415  0.83360345  1
  Te  Te117  1  0.50450201  0.17123212  0.17172483  1
  Te  Te118  1  0.50397962  0.16607956  0.49449178  1
  Te  Te119  1  0.50019718  0.17193490  0.83264985  1
  Te  Te120  1  0.50119379  0.49701496  0.16752793  1
  Te  Te121  1  0.50225273  0.50090551  0.49895102  1
  Te  Te122  1  0.49897739  0.50182820  0.83314774  1
  Te  Te123  1  0.49990352  0.83371059  0.16199232  1
  Te  Te124  1  0.49919138  0.82337678  0.49865146  1
  Te  Te125  1  0.49799891  0.83079306  0.83662196  1
  Te  Te126  1  0.82781087  0.16442245  0.16649456  1
  Te  Te127  1  0.83327074  0.16613787  0.50522190  1
  Te  Te128  1  0.83229036  0.16674016  0.82662663  1
  Te  Te129  1  0.83248361  0.50063759  0.16700306  1
  Te  Te130  1  0.83052522  0.50190557  0.50337105  1
  Te  Te131  1  0.83310990  0.50204927  0.83249905  1
  Te  Te132  1  0.83031911  0.83339857  0.16278721  1
  Te  Te133  1  0.83450079  0.82381665  0.50073601  1
  Te  Te134  1  0.83513954  0.82956889  0.84039000  1
  Te  Te135  1  0.16564518  0.00073189  -0.00442021  1
  Te  Te136  1  0.16630277  0.00246916  0.33415472  1
  Te  Te137  1  0.16610539  0.00231894  0.66780558  1
  Te  Te138  1  0.16027083  0.33287464  -0.00463116  1
  Te  Te139  1  0.15953272  0.32962759  0.33485345  1
  Te  Te140  1  0.16688560  0.32904376  0.66659615  1
  Te  Te141  1  0.16230054  0.66720909  -0.00627013  1
  Te  Te142  1  0.16509276  0.66922738  0.33399681  1
  Te  Te143  1  0.16873123  0.66674103  0.66822411  1
  Te  Te144  1  0.50067958  -0.00365201  -0.00817770  1
  Te  Te145  1  0.50077359  0.00184878  0.33386168  1
  Te  Te146  1  0.49891244  0.00204445  0.67181959  1
  Te  Te147  1  0.49980619  0.33395128  -0.00248857  1
  Te  Te148  1  0.50149896  0.33584049  0.33333490  1
  Te  Te149  1  0.49955884  0.33950956  0.67466666  1
  Te  Te150  1  0.50255461  0.67047460  -0.00516427  1
  Te  Te151  1  0.50512615  0.66210965  0.33515364  1
  Te  Te152  1  0.49984562  0.66337315  0.66727057  1
  Te  Te153  1  0.83419942  0.00053327  0.00689661  1
  Te  Te154  1  0.83611503  -0.00224675  0.32912442  1
  Te  Te155  1  0.83604126  0.00029449  0.66598440  1
  Te  Te156  1  0.83642381  0.33590687  -0.00096949  1
  Te  Te157  1  0.83328779  0.33799006  0.33133918  1
  Te  Te158  1  0.83229183  0.33493301  0.67047623  1
  Te  Te159  1  0.83262513  0.66396128  -0.00086985  1
  Te  Te160  1  0.83093643  0.66274647  0.33673085  1
  Te  Te161  1  0.83178618  0.66394266  0.66466907  1
  Te  Te162  1  -0.00073153  0.17399447  0.00132153  1
  Te  Te163  1  -0.00047745  0.16659024  0.33798410  1
  Te  Te164  1  0.00060818  0.16447457  0.66155576  1
  Te  Te165  1  -0.00545216  0.50000932  -0.00319443  1
  Te  Te166  1  -0.00340816  0.49514445  0.33369198  1
  Te  Te167  1  -0.00607339  0.50019330  0.67223079  1
  Te  Te168  1  -0.00375842  0.83143587  -0.00511037  1
  Te  Te169  1  0.00490219  0.83678983  0.33344984  1
  Te  Te170  1  -0.00023758  0.84237986  0.67290496  1
  Te  Te171  1  0.33416124  0.16756135  0.00101076  1
  Te  Te172  1  0.32835128  0.17210027  0.33444970  1
  Te  Te173  1  0.32978962  0.16306335  0.66408488  1
  Te  Te174  1  0.33411121  0.50103869  0.00905389  1
  Te  Te175  1  0.33188401  0.49667057  0.33482156  1
  Te  Te176  1  0.33663933  0.50506467  0.66347882  1
  Te  Te177  1  0.33745639  0.83257687  0.00009560  1
  Te  Te178  1  0.32986860  0.83320914  0.32915892  1
  Te  Te179  1  0.33293125  0.83206480  0.67092986  1
  Te  Te180  1  0.66737030  0.16581178  0.00634684  1
  Te  Te181  1  0.66921643  0.16671203  0.33401165  1
  Te  Te182  1  0.67014458  0.16638942  0.65992304  1
  Te  Te183  1  0.67308448  0.50722421  0.00768810  1
  Te  Te184  1  0.66773723  0.49817078  0.33332233  1
  Te  Te185  1  0.66636925  0.50381897  0.66520642  1
  Te  Te186  1  0.66736208  0.82757214  0.00521580  1
  Te  Te187  1  0.66595660  0.84215413  0.32597409  1
  Te  Te188  1  0.66656931  0.82758105  0.66347267  1
  Te  Te189  1  0.00156290  0.00030518  0.17012300  1
  Te  Te190  1  -0.00001717  0.00380485  0.49829761  1
  Te  Te191  1  0.00207462  0.00003510  0.83189206  1
  Te  Te192  1  -0.00388080  0.33239985  0.16778947  1
  Te  Te193  1  0.00350301  0.32974720  0.49643863  1
  Te  Te194  1  -0.00082008  0.33434941  0.83333156  1
  Te  Te195  1  -0.00564392  0.66642448  0.16075149  1
  Te  Te196  1  0.00591187  0.66644680  0.50084828  1
  Te  Te197  1  -0.00042322  0.66552489  0.83318751  1
  Te  Te198  1  0.33021843  -0.00488810  0.16726896  1
  Te  Te199  1  0.33462759  -0.00243971  0.50868719  1
  Te  Te200  1  0.33208771  -0.00389770  0.83027829  1
  Te  Te201  1  0.33393112  0.33596336  0.17117014  1
  Te  Te202  1  0.32816182  0.34057082  0.49601393  1
  Te  Te203  1  0.32885642  0.33516536  0.83376225  1
  Te  Te204  1  0.33266600  0.66828155  0.16678523  1
  Te  Te205  1  0.32941595  0.66153412  0.50313924  1
  Te  Te206  1  0.33280753  0.66934433  0.83005918  1
  Te  Te207  1  0.66671192  -0.00087773  0.17016928  1
  Te  Te208  1  0.66625364  0.00154509  0.49345056  1
  Te  Te209  1  0.66270405  -0.00013777  0.83296143  1
  Te  Te210  1  0.66843951  0.33536204  0.16837711  1
  Te  Te211  1  0.66690905  0.33510236  0.49463135  1
  Te  Te212  1  0.66670165  0.33374240  0.83527426  1
  Te  Te213  1  0.66794571  0.66465478  0.16945718  1
  Te  Te214  1  0.66625225  0.66352457  0.49827751  1
  Te  Te215  1  0.66658257  0.66681742  0.82950049  1
