# generated using pymatgen
data_AgSbTe2
_symmetry_space_group_name_H-M   'P 1'
_cell_length_a   18.36759716
_cell_length_b   18.36488487
_cell_length_c   18.36930504
_cell_angle_alpha   89.99937873
_cell_angle_beta   89.99848733
_cell_angle_gamma   89.99916395
_symmetry_Int_Tables_number   1
_chemical_formula_structural   AgSbTe2
_chemical_formula_sum   'Ag54 Sb54 Te108'
_cell_volume   6196.31206084
_cell_formula_units_Z   54
loop_
 _symmetry_equiv_pos_site_id
 _symmetry_equiv_pos_as_xyz
  1  'x, y, z'
loop_
 _atom_site_type_symbol
 _atom_site_label
 _atom_site_symmetry_multiplicity
 _atom_site_fract_x
 _atom_site_fract_y
 _atom_site_fract_z
 _atom_site_occupancy
  Ag  Ag0  1  0.65448811  0.16876730  0.16397877  1
  Ag  Ag1  1  0.33824735  0.50791332  0.16561772  1
  Ag  Ag2  1  0.33364710  0.83863863  0.83514871  1
  Ag  Ag3  1  0.49976727  0.00286027  0.50447923  1
  Ag  Ag4  1  0.18359466  0.66949451  0.16975917  1
  Ag  Ag5  1  0.65895024  0.00402334  -0.00804106  1
  Ag  Ag6  1  0.33907321  0.16762876  0.51271860  1
  Ag  Ag7  1  0.49775192  0.33680519  0.82698568  1
  Ag  Ag8  1  0.33586211  0.66081556  0.33636401  1
  Ag  Ag9  1  0.01375571  0.83282051  0.15567812  1
  Ag  Ag10  1  0.00929778  0.50365101  0.82830414  1
  Ag  Ag11  1  0.65620621  0.32484277  0.66516335  1
  Ag  Ag12  1  0.49675102  0.65665635  0.83273932  1
  Ag  Ag13  1  0.65624859  0.16075755  0.51360150  1
  Ag  Ag14  1  0.81923625  0.32960195  0.83174323  1
  Ag  Ag15  1  0.65560904  0.16762993  0.82743000  1
  Ag  Ag16  1  0.49963530  0.17078590  0.34327572  1
  Ag  Ag17  1  0.82271010  0.16553914  -0.01245900  1
  Ag  Ag18  1  0.49575083  0.48955539  0.32115416  1
  Ag  Ag19  1  0.65508589  0.01113461  0.66543712  1
  Ag  Ag20  1  0.00831534  -0.00227805  -0.00405919  1
  Ag  Ag21  1  0.65087868  0.66588041  0.66591635  1
  Ag  Ag22  1  0.18763712  0.17174402  0.66859439  1
  Ag  Ag23  1  0.65067508  0.49247027  0.16591736  1
  Ag  Ag24  1  0.33668033  0.49759937  0.82609760  1
  Ag  Ag25  1  0.49811198  0.33750166  0.17437925  1
  Ag  Ag26  1  0.49466352  0.83219267  0.00047937  1
  Ag  Ag27  1  0.49768137  0.49124538  0.66736152  1
  Ag  Ag28  1  0.49617411  0.49894099  0.00700831  1
  Ag  Ag29  1  0.01195420  0.50298181  0.51257108  1
  Ag  Ag30  1  0.17792043  0.83443371  -0.00151236  1
  Ag  Ag31  1  0.33392872  0.50403995  0.51108191  1
  Ag  Ag32  1  0.33708771  0.33372260  0.66790167  1
  Ag  Ag33  1  0.33763896  0.32953154  -0.00583342  1
  Ag  Ag34  1  0.82049824  -0.00002536  0.50372023  1
  Ag  Ag35  1  0.65414567  0.84433377  0.50349784  1
  Ag  Ag36  1  0.65722639  0.32938438  0.34161959  1
  Ag  Ag37  1  0.00936207  0.83027764  0.83673850  1
  Ag  Ag38  1  0.50118631  0.17324769  0.66287161  1
  Ag  Ag39  1  0.33322942  0.82635527  0.15591645  1
  Ag  Ag40  1  0.81414435  0.16623049  0.67271332  1
  Ag  Ag41  1  0.18299337  0.49947996  0.66686407  1
  Ag  Ag42  1  0.33719243  0.16992819  0.82817902  1
  Ag  Ag43  1  0.17434540  -0.00268771  0.83418617  1
  Ag  Ag44  1  0.34054668  0.34152800  0.33306888  1
  Ag  Ag45  1  0.33637654  0.82695342  0.50768549  1
  Ag  Ag46  1  0.17426107  0.66558092  0.50541603  1
  Ag  Ag47  1  0.01226255  0.66262225  0.66751884  1
  Ag  Ag48  1  0.33408006  0.64819542  0.66428888  1
  Ag  Ag49  1  0.33801636  0.01774787  0.67151229  1
  Ag  Ag50  1  0.33656726  -0.00101655  -0.00913381  1
  Ag  Ag51  1  0.83138125  0.83289372  0.33555125  1
  Ag  Ag52  1  0.33704985  0.17443898  0.16397983  1
  Ag  Ag53  1  0.49819900  0.65210302  0.16198189  1
  Sb  Sb54  1  0.49313335  0.67118800  0.50413281  1
  Sb  Sb55  1  0.17094476  0.15986028  -0.00593797  1
  Sb  Sb56  1  0.65647853  0.49500958  0.83524311  1
  Sb  Sb57  1  0.83117387  0.66220108  0.82975066  1
  Sb  Sb58  1  0.00444079  0.82922675  0.50307163  1
  Sb  Sb59  1  0.17177213  0.82944273  0.67205839  1
  Sb  Sb60  1  0.65498854  0.32691582  -0.00393896  1
  Sb  Sb61  1  0.00388947  0.16139598  0.16375861  1
  Sb  Sb62  1  0.49906069  0.83303768  0.33116422  1
  Sb  Sb63  1  0.83258872  0.84021366  0.00270701  1
  Sb  Sb64  1  0.83105862  0.00075926  0.16724079  1
  Sb  Sb65  1  0.18035793  0.16805248  0.34012065  1
  Sb  Sb66  1  0.82547771  0.50326021  0.33474586  1
  Sb  Sb67  1  0.16793012  0.83273847  0.32917916  1
  Sb  Sb68  1  0.00239091  0.67228905  -0.00600032  1
  Sb  Sb69  1  0.49615674  0.32737012  0.50037829  1
  Sb  Sb70  1  -0.00253106  0.33588105  0.33358824  1
  Sb  Sb71  1  0.66119031  0.83845595  0.82774805  1
  Sb  Sb72  1  0.83051371  0.32904822  0.50628491  1
  Sb  Sb73  1  0.00311474  0.33004436  -0.00322307  1
  Sb  Sb74  1  0.00319399  0.16606702  0.83127618  1
  Sb  Sb75  1  0.17620942  0.66912741  0.83181756  1
  Sb  Sb76  1  0.49349483  0.00360561  0.83074596  1
  Sb  Sb77  1  0.82783494  0.66766832  0.16734555  1
  Sb  Sb78  1  0.17247123  0.33810779  0.50350372  1
  Sb  Sb79  1  0.00140993  0.16942827  0.50303931  1
  Sb  Sb80  1  0.00295368  -0.00296932  0.67104851  1
  Sb  Sb81  1  0.17585618  0.33078156  0.83202661  1
  Sb  Sb82  1  0.17068784  -0.00428200  0.15961833  1
  Sb  Sb83  1  0.49936729  0.16886966  -0.00221335  1
  Sb  Sb84  1  0.82712222  0.49151336  -0.00278807  1
  Sb  Sb85  1  0.82247937  0.16402730  0.33814366  1
  Sb  Sb86  1  0.33521224  -0.00036937  0.33605168  1
  Sb  Sb87  1  0.17913410  0.50282632  0.34061961  1
  Sb  Sb88  1  0.66345602  0.00463496  0.33865597  1
  Sb  Sb89  1  0.66106610  0.83480943  0.16915736  1
  Sb  Sb90  1  0.83394254  0.00499729  0.83068584  1
  Sb  Sb91  1  0.65741141  0.49756140  0.50017283  1
  Sb  Sb92  1  0.00818612  0.50596935  0.16278147  1
  Sb  Sb93  1  -0.00422412  -0.00266974  0.32950060  1
  Sb  Sb94  1  0.83179400  0.83773878  0.66466026  1
  Sb  Sb95  1  0.00691979  0.66714909  0.33714352  1
  Sb  Sb96  1  0.65733794  0.66364896  0.33674789  1
  Sb  Sb97  1  0.18065215  0.33900464  0.16568999  1
  Sb  Sb98  1  0.33687171  0.66969107  -0.00123060  1
  Sb  Sb99  1  0.17689106  0.50624939  -0.00474327  1
  Sb  Sb100  1  0.17528652  -0.00428929  0.50950684  1
  Sb  Sb101  1  0.49805773  0.00450115  0.16643790  1
  Sb  Sb102  1  0.49414183  0.83390496  0.67198104  1
  Sb  Sb103  1  0.00030706  0.33738177  0.66936017  1
  Sb  Sb104  1  0.82809544  0.49487417  0.66765439  1
  Sb  Sb105  1  0.66212669  0.67045677  -0.00358426  1
  Sb  Sb106  1  0.83568970  0.67021603  0.50263754  1
  Sb  Sb107  1  0.82178864  0.33068274  0.16110507  1
  Te  Te108  1  0.17228348  0.16836089  0.16904254  1
  Te  Te109  1  0.17151427  0.16566500  0.50714245  1
  Te  Te110  1  0.17131176  0.16190876  0.82793587  1
  Te  Te111  1  0.17095273  0.50852897  0.16499798  1
  Te  Te112  1  0.17052543  0.50412381  0.50534309  1
  Te  Te113  1  0.16961116  0.50148576  0.82860254  1
  Te  Te114  1  0.16952872  0.83029854  0.16348582  1
  Te  Te115  1  0.17200121  0.82785651  0.49855702  1
  Te  Te116  1  0.16874828  0.83440122  0.83717839  1
  Te  Te117  1  0.49746271  0.16866153  0.16321148  1
  Te  Te118  1  0.49980105  0.16533928  0.49972034  1
  Te  Te119  1  0.49801974  0.16910059  0.83214770  1
  Te  Te120  1  0.49663061  0.49656106  0.16594358  1
  Te  Te121  1  0.49413986  0.50584102  0.50805348  1
  Te  Te122  1  0.49713136  0.49730706  0.82810290  1
  Te  Te123  1  0.49589246  0.83580844  0.16314289  1
  Te  Te124  1  0.49736293  0.83857287  0.49738405  1
  Te  Te125  1  0.49620282  0.82949220  0.84068579  1
  Te  Te126  1  0.83691641  0.16673203  0.16735886  1
  Te  Te127  1  0.83360185  0.16157749  0.50382562  1
  Te  Te128  1  0.83733588  0.17015786  0.83074557  1
  Te  Te129  1  0.83464685  0.49969864  0.16587758  1
  Te  Te130  1  0.83589354  0.49989943  0.49848212  1
  Te  Te131  1  0.83395353  0.49284989  0.83503981  1
  Te  Te132  1  0.83006530  0.83327691  0.17241613  1
  Te  Te133  1  0.83689935  0.83755218  0.49673445  1
  Te  Te134  1  0.83593260  0.83229276  0.83515942  1
  Te  Te135  1  0.16851315  -0.00529158  -0.00496984  1
  Te  Te136  1  0.16302454  0.00194289  0.33405345  1
  Te  Te137  1  0.17047122  0.00341685  0.67272711  1
  Te  Te138  1  0.17461732  0.33403081  0.00051316  1
  Te  Te139  1  0.16966147  0.33427391  0.33282811  1
  Te  Te140  1  0.16876026  0.33499698  0.66736501  1
  Te  Te141  1  0.16309727  0.67304968  0.00647173  1
  Te  Te142  1  0.17355189  0.66723563  0.33160364  1
  Te  Te143  1  0.17061527  0.66305661  0.66654809  1
  Te  Te144  1  0.49844746  -0.00497097  0.00038089  1
  Te  Te145  1  0.49956120  0.00572808  0.33974252  1
  Te  Te146  1  0.49851520  -0.00261366  0.66561995  1
  Te  Te147  1  0.49452961  0.33647651  -0.00252754  1
  Te  Te148  1  0.49963554  0.33259699  0.33527640  1
  Te  Te149  1  0.49917589  0.33226834  0.66407464  1
  Te  Te150  1  0.50309455  0.66454411  -0.00125280  1
  Te  Te151  1  0.49472895  0.66578369  0.32747901  1
  Te  Te152  1  0.49342890  0.67059743  0.66980206  1
  Te  Te153  1  0.82746064  0.00675759  0.00043719  1
  Te  Te154  1  0.83191220  -0.00444520  0.34015515  1
  Te  Te155  1  0.83524041  0.00507595  0.66351560  1
  Te  Te156  1  0.83579313  0.32484784  -0.00594340  1
  Te  Te157  1  0.82760034  0.33354937  0.33200443  1
  Te  Te158  1  0.83332389  0.32732487  0.67299617  1
  Te  Te159  1  0.83241716  0.66419522  -0.00019577  1
  Te  Te160  1  0.83234862  0.67220542  0.33407115  1
  Te  Te161  1  0.83352575  0.66667003  0.66654878  1
  Te  Te162  1  0.00075277  0.15914293  -0.00001426  1
  Te  Te163  1  0.00158735  0.16778745  0.33242087  1
  Te  Te164  1  0.00090546  0.16685435  0.66522607  1
  Te  Te165  1  0.00073436  0.49969027  -0.00658889  1
  Te  Te166  1  -0.00027970  0.50063638  0.33154591  1
  Te  Te167  1  -0.00602555  0.50297581  0.66902183  1
  Te  Te168  1  -0.00366373  0.83737366  -0.00216771  1
  Te  Te169  1  -0.00442432  0.83199100  0.33115714  1
  Te  Te170  1  0.00088864  0.82828344  0.67215751  1
  Te  Te171  1  0.33148034  0.16299106  0.00148442  1
  Te  Te172  1  0.33968359  0.16720681  0.32483480  1
  Te  Te173  1  0.34165026  0.17231040  0.66840281  1
  Te  Te174  1  0.33716588  0.49687298  0.00276967  1
  Te  Te175  1  0.33702578  0.50110279  0.32691660  1
  Te  Te176  1  0.33689570  0.49445981  0.66837736  1
  Te  Te177  1  0.33493943  0.83437334  -0.00384842  1
  Te  Te178  1  0.33346223  0.83014157  0.33682247  1
  Te  Te179  1  0.33089081  0.83626337  0.66656189  1
  Te  Te180  1  0.66673241  0.16355390  0.00300615  1
  Te  Te181  1  0.66240557  0.17044421  0.32384972  1
  Te  Te182  1  0.66019853  0.16621019  0.66848049  1
  Te  Te183  1  0.66083599  0.50123269  0.00531230  1
  Te  Te184  1  0.66021957  0.49599992  0.33064813  1
  Te  Te185  1  0.66116114  0.50441029  0.66732871  1
  Te  Te186  1  0.66390913  0.84086091  -0.00082438  1
  Te  Te187  1  0.66788509  0.83234184  0.33907926  1
  Te  Te188  1  0.66710010  0.82855760  0.66112907  1
  Te  Te189  1  -0.00007193  -0.00711425  0.16059809  1
  Te  Te190  1  0.00271347  -0.00071467  0.49908818  1
  Te  Te191  1  0.00264431  -0.00354161  0.83729855  1
  Te  Te192  1  0.00130232  0.33577051  0.16623774  1
  Te  Te193  1  0.00002104  0.34306602  0.49842683  1
  Te  Te194  1  0.00214384  0.33925917  0.83471503  1
  Te  Te195  1  -0.00357864  0.67297901  0.16713820  1
  Te  Te196  1  0.00532580  0.66169043  0.50459156  1
  Te  Te197  1  -0.00147545  0.66632842  0.82782399  1
  Te  Te198  1  0.33176792  -0.00524396  0.16566573  1
  Te  Te199  1  0.33734667  0.00508805  0.50329454  1
  Te  Te200  1  0.33412065  -0.00086497  0.83220442  1
  Te  Te201  1  0.33802855  0.33347825  0.17016417  1
  Te  Te202  1  0.33115871  0.33082220  0.49681196  1
  Te  Te203  1  0.33591028  0.33253908  0.83398083  1
  Te  Te204  1  0.33887060  0.66900761  0.16170418  1
  Te  Te205  1  0.33323170  0.66584572  0.50213757  1
  Te  Te206  1  0.33630072  0.66308472  0.83018566  1
  Te  Te207  1  0.66621104  0.00454760  0.16360314  1
  Te  Te208  1  0.66406765  0.00161515  0.50213037  1
  Te  Te209  1  0.66803179  0.00535384  0.82873808  1
  Te  Te210  1  0.66029574  0.33309306  0.16302740  1
  Te  Te211  1  0.67053175  0.32925227  0.50229280  1
  Te  Te212  1  0.66240925  0.33005919  0.82978821  1
  Te  Te213  1  0.66013750  0.66425226  0.16774743  1
  Te  Te214  1  0.66764675  0.66660611  0.50442677  1
  Te  Te215  1  0.66193684  0.66821252  0.82766013  1
