# generated using pymatgen
data_AgSbTe2
_symmetry_space_group_name_H-M   'P 1'
_cell_length_a   18.32428869
_cell_length_b   18.32369410
_cell_length_c   18.32258758
_cell_angle_alpha   90.00288802
_cell_angle_beta   89.99807312
_cell_angle_gamma   89.99798282
_symmetry_Int_Tables_number   1
_chemical_formula_structural   AgSbTe2
_chemical_formula_sum   'Ag54 Sb54 Te108'
_cell_volume   6152.15067647
_cell_formula_units_Z   54
loop_
 _symmetry_equiv_pos_site_id
 _symmetry_equiv_pos_as_xyz
  1  'x, y, z'
loop_
 _atom_site_type_symbol
 _atom_site_label
 _atom_site_symmetry_multiplicity
 _atom_site_fract_x
 _atom_site_fract_y
 _atom_site_fract_z
 _atom_site_occupancy
  Ag  Ag0  1  0.83559720  0.83223834  0.67283471  1
  Ag  Ag1  1  0.49511474  0.00333056  0.50555011  1
  Ag  Ag2  1  0.16482036  0.83749165  0.67140505  1
  Ag  Ag3  1  0.66389061  0.00588932  0.67787375  1
  Ag  Ag4  1  0.16565766  0.32756134  0.50707039  1
  Ag  Ag5  1  0.50131812  0.83662359  0.00196008  1
  Ag  Ag6  1  0.33180551  0.50094829  0.50119311  1
  Ag  Ag7  1  0.49929114  0.83353525  0.31997459  1
  Ag  Ag8  1  0.83453733  0.66203957  0.49859592  1
  Ag  Ag9  1  0.17614687  0.00966202  0.50471705  1
  Ag  Ag10  1  0.83634143  0.33377995  0.50031116  1
  Ag  Ag11  1  0.50215433  0.32662899  0.83018916  1
  Ag  Ag12  1  0.17259063  0.65937809  0.16150762  1
  Ag  Ag13  1  0.67032405  0.84604253  0.83724987  1
  Ag  Ag14  1  0.83884152  0.34006111  0.16077824  1
  Ag  Ag15  1  0.33215631  0.50072460  0.84047597  1
  Ag  Ag16  1  0.33305335  0.83284114  0.50296994  1
  Ag  Ag17  1  0.00127366  0.17574375  0.16076765  1
  Ag  Ag18  1  0.82110760  -0.00554887  0.83358623  1
  Ag  Ag19  1  0.50004665  0.67099971  0.16291308  1
  Ag  Ag20  1  0.50768956  0.00368756  0.83542783  1
  Ag  Ag21  1  0.17255326  0.83105451  -0.00335057  1
  Ag  Ag22  1  0.33952020  -0.00904386  -0.00010147  1
  Ag  Ag23  1  0.66775821  0.32735763  0.67523228  1
  Ag  Ag24  1  0.15677944  0.34021076  0.15350760  1
  Ag  Ag25  1  0.83291954  0.67316436  0.83824788  1
  Ag  Ag26  1  0.67499498  0.50643897  0.16032415  1
  Ag  Ag27  1  0.83593448  0.16817148  0.33304147  1
  Ag  Ag28  1  0.00269183  0.33249814  0.00131110  1
  Ag  Ag29  1  0.67128529  0.33474453  -0.00489317  1
  Ag  Ag30  1  0.67000519  0.15800004  0.83359509  1
  Ag  Ag31  1  0.16652635  0.16778475  0.66556856  1
  Ag  Ag32  1  0.16522685  0.32949234  0.83687742  1
  Ag  Ag33  1  0.49774324  0.16630951  0.66799491  1
  Ag  Ag34  1  0.66041619  -0.01070502  -0.01000454  1
  Ag  Ag35  1  0.16598738  0.49671369  0.00263329  1
  Ag  Ag36  1  0.83051099  0.65892123  0.16177477  1
  Ag  Ag37  1  0.33358566  0.66849397  0.00323480  1
  Ag  Ag38  1  0.66510776  0.67035042  0.00252145  1
  Ag  Ag39  1  0.83499865  0.49960448  0.00348029  1
  Ag  Ag40  1  0.00055343  0.49524088  0.16298513  1
  Ag  Ag41  1  0.66294879  0.82643831  0.15368188  1
  Ag  Ag42  1  0.32896938  0.50503091  0.15905099  1
  Ag  Ag43  1  0.00028525  0.16833964  0.83258918  1
  Ag  Ag44  1  0.33134696  0.66731981  0.32495697  1
  Ag  Ag45  1  0.49560520  0.32555147  0.50797474  1
  Ag  Ag46  1  0.32528887  0.16635524  0.50181180  1
  Ag  Ag47  1  0.00115529  0.66809023  0.32816206  1
  Ag  Ag48  1  0.00597884  0.17088715  0.50461452  1
  Ag  Ag49  1  0.16556409  0.17665329  -0.00681734  1
  Ag  Ag50  1  -0.00722764  0.83772899  0.83375239  1
  Ag  Ag51  1  0.33275868  0.66830106  0.66499347  1
  Ag  Ag52  1  0.00051736  0.32959883  0.67225026  1
  Ag  Ag53  1  0.50056078  -0.00909302  0.15276589  1
  Sb  Sb54  1  -0.00202379  0.00566604  0.66882572  1
  Sb  Sb55  1  0.82901210  0.83343417  0.33624356  1
  Sb  Sb56  1  0.33582177  -0.00588100  0.33297627  1
  Sb  Sb57  1  0.34013504  0.82554068  0.16580045  1
  Sb  Sb58  1  0.66434173  0.66777777  0.67337092  1
  Sb  Sb59  1  0.00252883  0.66406724  0.66536227  1
  Sb  Sb60  1  -0.00056017  0.66179167  0.00337973  1
  Sb  Sb61  1  0.50185532  0.33591242  0.16326978  1
  Sb  Sb62  1  0.49837655  0.50389977  0.00062826  1
  Sb  Sb63  1  0.82838822  -0.00027038  0.15869378  1
  Sb  Sb64  1  0.66968994  0.16670475  0.15689908  1
  Sb  Sb65  1  0.33652442  -0.00232071  0.66779454  1
  Sb  Sb66  1  0.49727569  0.50549123  0.33201319  1
  Sb  Sb67  1  0.50176360  0.66906070  0.83930903  1
  Sb  Sb68  1  0.16692189  0.50021065  0.32415020  1
  Sb  Sb69  1  0.00446685  0.83573350  0.50513095  1
  Sb  Sb70  1  0.00390537  0.49448030  0.49405316  1
  Sb  Sb71  1  0.83174097  0.00237970  0.50715535  1
  Sb  Sb72  1  0.82931228  0.82708663  -0.00699521  1
  Sb  Sb73  1  0.49982508  0.83931045  0.67150179  1
  Sb  Sb74  1  0.17105757  0.00095377  0.16457742  1
  Sb  Sb75  1  0.66646580  0.66782557  0.32332555  1
  Sb  Sb76  1  0.49875560  0.66857351  0.49644112  1
  Sb  Sb77  1  0.83491289  0.16616338  0.66702718  1
  Sb  Sb78  1  0.00296162  0.49634355  0.83991615  1
  Sb  Sb79  1  0.66300985  0.83349086  0.50463693  1
  Sb  Sb80  1  0.00034309  0.00395217  -0.00278596  1
  Sb  Sb81  1  0.16897107  0.00379551  0.83149280  1
  Sb  Sb82  1  0.32876995  0.17091025  0.16872296  1
  Sb  Sb83  1  0.17163502  0.83004825  0.33169334  1
  Sb  Sb84  1  0.16258583  0.16752602  0.33704372  1
  Sb  Sb85  1  0.33212003  0.33482206  0.66564890  1
  Sb  Sb86  1  0.66492470  0.49798396  0.49580015  1
  Sb  Sb87  1  0.83392639  0.33286967  0.83532985  1
  Sb  Sb88  1  0.50313672  0.16161691  0.34028640  1
  Sb  Sb89  1  0.66410686  0.49817399  0.84012861  1
  Sb  Sb90  1  -0.00421188  0.83020612  0.15920349  1
  Sb  Sb91  1  0.83799650  0.17169961  0.00061003  1
  Sb  Sb92  1  -0.00103393  0.33385048  0.32869236  1
  Sb  Sb93  1  0.83474573  0.49810146  0.32547670  1
  Sb  Sb94  1  0.33241252  0.16969727  0.82976856  1
  Sb  Sb95  1  0.00040976  -0.00189603  0.33369009  1
  Sb  Sb96  1  0.33049111  0.33689892  -0.00113723  1
  Sb  Sb97  1  0.66715046  0.16824669  0.50844570  1
  Sb  Sb98  1  0.16868146  0.49628031  0.67151887  1
  Sb  Sb99  1  0.16501265  0.66502190  0.83857731  1
  Sb  Sb100  1  0.66497036  -0.00047683  0.33063004  1
  Sb  Sb101  1  0.66888567  0.33173999  0.33070481  1
  Sb  Sb102  1  0.33281953  0.33906592  0.33702328  1
  Sb  Sb103  1  0.83362259  0.50205515  0.67199218  1
  Sb  Sb104  1  0.49812506  0.49297579  0.66737861  1
  Sb  Sb105  1  0.16829103  0.66348994  0.49795527  1
  Sb  Sb106  1  0.49612271  0.16157535  -0.00550518  1
  Sb  Sb107  1  0.33395716  0.83084215  0.83361385  1
  Te  Te108  1  0.16191652  0.16959180  0.16585907  1
  Te  Te109  1  0.16590123  0.16760343  0.50105269  1
  Te  Te110  1  0.16532465  0.16911474  0.83144549  1
  Te  Te111  1  0.16668227  0.49952433  0.16271566  1
  Te  Te112  1  0.17136335  0.49439068  0.50206862  1
  Te  Te113  1  0.17026372  0.49548663  0.83901993  1
  Te  Te114  1  0.16473351  0.83132644  0.16194065  1
  Te  Te115  1  0.17067475  0.83208911  0.50285548  1
  Te  Te116  1  0.16518961  0.83422658  0.83261572  1
  Te  Te117  1  0.49928829  0.16431892  0.17028847  1
  Te  Te118  1  0.50064077  0.16640872  0.50470903  1
  Te  Te119  1  0.49880853  0.16704002  0.82923557  1
  Te  Te120  1  0.49346036  0.50339818  0.16715816  1
  Te  Te121  1  0.49589584  0.49538569  0.49937882  1
  Te  Te122  1  0.49296735  0.49523415  0.83324223  1
  Te  Te123  1  0.50158895  0.83247897  0.16283300  1
  Te  Te124  1  0.49533416  0.83633096  0.50394281  1
  Te  Te125  1  0.50398349  0.83668426  0.83843531  1
  Te  Te126  1  0.83770421  0.16822332  0.16858987  1
  Te  Te127  1  0.83604166  0.16996305  0.49858039  1
  Te  Te128  1  0.83497117  0.16431037  0.83352026  1
  Te  Te129  1  0.83447915  0.49925277  0.16448826  1
  Te  Te130  1  0.83405906  0.49890128  0.50005282  1
  Te  Te131  1  0.83395350  0.50629273  0.83993553  1
  Te  Te132  1  0.82650135  0.83066177  0.16796805  1
  Te  Te133  1  0.83456643  0.83105662  0.50526678  1
  Te  Te134  1  0.83347512  0.83307209  0.83292370  1
  Te  Te135  1  0.17144027  -0.00475178  0.00040235  1
  Te  Te136  1  0.16737955  -0.00185933  0.34196131  1
  Te  Te137  1  0.16717775  0.00022006  0.66380636  1
  Te  Te138  1  0.16661121  0.33381354  -0.00151116  1
  Te  Te139  1  0.16628232  0.33329007  0.33854889  1
  Te  Te140  1  0.16475538  0.33022629  0.66798646  1
  Te  Te141  1  0.16711922  0.66671156  0.00229652  1
  Te  Te142  1  0.16744157  0.66708425  0.32730495  1
  Te  Te143  1  0.17068775  0.66978150  0.66715305  1
  Te  Te144  1  0.50022745  -0.00027096  -0.00316908  1
  Te  Te145  1  0.49987154  -0.00608774  0.33988679  1
  Te  Te146  1  0.50273164  0.00400565  0.66762331  1
  Te  Te147  1  0.50364494  0.33120501  -0.00419498  1
  Te  Te148  1  0.50132446  0.33127416  0.33975586  1
  Te  Te149  1  0.50068216  0.32787356  0.66774506  1
  Te  Te150  1  0.49971525  0.67043367  0.00321662  1
  Te  Te151  1  0.49649961  0.67247207  0.32872857  1
  Te  Te152  1  0.49486981  0.66678604  0.66703559  1
  Te  Te153  1  0.82761174  0.00106768  -0.00603106  1
  Te  Te154  1  0.83334338  0.00474075  0.33305075  1
  Te  Te155  1  0.82874166  -0.00502138  0.67198266  1
  Te  Te156  1  0.83378373  0.33743309  0.00196098  1
  Te  Te157  1  0.83318517  0.32961303  0.33712448  1
  Te  Te158  1  0.83422418  0.33420101  0.66417990  1
  Te  Te159  1  0.83331243  0.66192407  0.00202196  1
  Te  Te160  1  0.83494795  0.66787015  0.33444502  1
  Te  Te161  1  0.83358662  0.66973587  0.66646472  1
  Te  Te162  1  0.00424810  0.17040433  -0.00202071  1
  Te  Te163  1  -0.00378353  0.16519309  0.33442634  1
  Te  Te164  1  0.00192193  0.17089174  0.66815715  1
  Te  Te165  1  0.00213594  0.49529020  0.00414982  1
  Te  Te166  1  0.00021136  0.50902069  0.32539890  1
  Te  Te167  1  0.00026962  0.49084930  0.66616215  1
  Te  Te168  1  0.00525624  0.83523548  -0.00665076  1
  Te  Te169  1  -0.00091363  0.82835718  0.33256850  1
  Te  Te170  1  0.00170308  0.83248059  0.67215708  1
  Te  Te171  1  0.32496859  0.16520649  0.00174522  1
  Te  Te172  1  0.33420348  0.16623789  0.34103660  1
  Te  Te173  1  0.33074782  0.16570087  0.66126047  1
  Te  Te174  1  0.33130118  0.50283858  -0.00014679  1
  Te  Te175  1  0.33273579  0.50808302  0.33746897  1
  Te  Te176  1  0.33256011  0.50710555  0.66418217  1
  Te  Te177  1  0.33348540  0.83108556  0.00018013  1
  Te  Te178  1  0.33779081  0.82731747  0.34002859  1
  Te  Te179  1  0.32957834  0.83067543  0.66480997  1
  Te  Te180  1  0.66635143  0.17186288  -0.00671228  1
  Te  Te181  1  0.67401436  0.16610815  0.33175398  1
  Te  Te182  1  0.66755679  0.16780861  0.67270280  1
  Te  Te183  1  0.66566718  0.49991752  0.00361048  1
  Te  Te184  1  0.66537605  0.49955703  0.32230179  1
  Te  Te185  1  0.66648322  0.49287199  0.66601573  1
  Te  Te186  1  0.66699863  0.83146669  -0.00239790  1
  Te  Te187  1  0.65971469  0.83356265  0.33293757  1
  Te  Te188  1  0.66989789  0.83444308  0.67261292  1
  Te  Te189  1  -0.00043427  0.00582464  0.16644989  1
  Te  Te190  1  0.00161642  0.00659750  0.50044266  1
  Te  Te191  1  -0.00054919  0.00212340  0.83271664  1
  Te  Te192  1  -0.00063969  0.33339502  0.16590911  1
  Te  Te193  1  0.00009463  0.33090141  0.49639255  1
  Te  Te194  1  0.00129018  0.33063318  0.83487352  1
  Te  Te195  1  -0.00309965  0.66726167  0.16807099  1
  Te  Te196  1  -0.00392551  0.66573076  0.49699028  1
  Te  Te197  1  -0.00557867  0.66894060  0.83205873  1
  Te  Te198  1  0.33940618  0.00213124  0.16264845  1
  Te  Te199  1  0.33421647  -0.00029797  0.50091748  1
  Te  Te200  1  0.33904193  -0.00006525  0.83903467  1
  Te  Te201  1  0.33113691  0.34045417  0.16851917  1
  Te  Te202  1  0.33354324  0.33346436  0.50083567  1
  Te  Te203  1  0.33297799  0.33791603  0.83215711  1
  Te  Te204  1  0.33272293  0.66568967  0.16448172  1
  Te  Te205  1  0.33358269  0.66575164  0.50140555  1
  Te  Te206  1  0.33364594  0.66261920  0.83821800  1
  Te  Te207  1  0.66054712  -0.00239770  0.16208661  1
  Te  Te208  1  0.66164712  -0.00009898  0.50369789  1
  Te  Te209  1  0.66521882  0.00212011  0.83379310  1
  Te  Te210  1  0.66989291  0.33512697  0.16108728  1
  Te  Te211  1  0.66865476  0.33457174  0.50302471  1
  Te  Te212  1  0.66623857  0.33349275  0.83388340  1
  Te  Te213  1  0.66664565  0.66694943  0.16310198  1
  Te  Te214  1  0.67261239  0.66513616  0.50192211  1
  Te  Te215  1  0.67000294  0.66615429  0.83903822  1
