# generated using pymatgen
data_AgSbTe2
_symmetry_space_group_name_H-M   'P 1'
_cell_length_a   18.33846164
_cell_length_b   18.33357594
_cell_length_c   18.33311284
_cell_angle_alpha   90.00306177
_cell_angle_beta   90.00201811
_cell_angle_gamma   90.00201925
_symmetry_Int_Tables_number   1
_chemical_formula_structural   AgSbTe2
_chemical_formula_sum   'Ag54 Sb54 Te108'
_cell_volume   6163.76813550
_cell_formula_units_Z   54
loop_
 _symmetry_equiv_pos_site_id
 _symmetry_equiv_pos_as_xyz
  1  'x, y, z'
loop_
 _atom_site_type_symbol
 _atom_site_label
 _atom_site_symmetry_multiplicity
 _atom_site_fract_x
 _atom_site_fract_y
 _atom_site_fract_z
 _atom_site_occupancy
  Ag  Ag0  1  0.65712046  -0.00052923  0.00964167  1
  Ag  Ag1  1  0.66133052  0.84217311  0.16367443  1
  Ag  Ag2  1  0.66771859  0.32724224  0.32520623  1
  Ag  Ag3  1  0.00012037  0.66437421  0.66809908  1
  Ag  Ag4  1  0.82468094  0.33645340  0.16890919  1
  Ag  Ag5  1  0.16723234  0.83571590  0.67781268  1
  Ag  Ag6  1  0.33223524  0.33070507  0.00069788  1
  Ag  Ag7  1  0.33453332  0.33606617  0.31708849  1
  Ag  Ag8  1  0.16657751  0.00272158  0.50034643  1
  Ag  Ag9  1  0.50045878  0.00121992  0.16338848  1
  Ag  Ag10  1  0.16350073  0.33276099  0.49840624  1
  Ag  Ag11  1  0.15880920  0.65764193  0.50311318  1
  Ag  Ag12  1  0.65564249  0.67022747  0.00166564  1
  Ag  Ag13  1  0.33042680  -0.00356094  0.68051556  1
  Ag  Ag14  1  0.49239086  0.17086378  0.00086901  1
  Ag  Ag15  1  0.67040135  0.00543352  0.32700261  1
  Ag  Ag16  1  0.83738405  0.50261633  0.66056443  1
  Ag  Ag17  1  0.17127245  0.33117539  0.84423187  1
  Ag  Ag18  1  0.01283094  0.33406675  0.00372406  1
  Ag  Ag19  1  0.32788498  0.83817870  0.84372228  1
  Ag  Ag20  1  0.17499117  0.16680835  -0.00030542  1
  Ag  Ag21  1  0.17366869  0.32984919  0.15907724  1
  Ag  Ag22  1  0.33209539  0.49164202  0.16036170  1
  Ag  Ag23  1  0.49650613  0.33315850  0.16149737  1
  Ag  Ag24  1  0.66517177  0.16489575  0.16724728  1
  Ag  Ag25  1  0.33715814  0.66937807  -0.00159692  1
  Ag  Ag26  1  0.83688436  0.00167933  0.49621265  1
  Ag  Ag27  1  0.83353782  0.83216269  0.00360021  1
  Ag  Ag28  1  0.83476627  0.66574914  0.83311008  1
  Ag  Ag29  1  0.48835729  0.33934959  0.84408351  1
  Ag  Ag30  1  0.17374694  0.84018868  -0.00392246  1
  Ag  Ag31  1  0.65792089  0.32823900  0.00728216  1
  Ag  Ag32  1  0.01019963  0.82669275  0.83602709  1
  Ag  Ag33  1  0.49599191  0.49961715  0.66857236  1
  Ag  Ag34  1  0.49766637  0.00252759  0.49351850  1
  Ag  Ag35  1  0.33592347  0.83407299  0.16053114  1
  Ag  Ag36  1  0.49773322  0.66289958  0.15858362  1
  Ag  Ag37  1  0.83291224  0.83376502  0.33004509  1
  Ag  Ag38  1  0.33088267  0.49783326  0.83782153  1
  Ag  Ag39  1  0.00325214  0.49382900  0.16555737  1
  Ag  Ag40  1  0.33034262  0.16895219  0.83983865  1
  Ag  Ag41  1  0.33104926  -0.00029745  -0.00020610  1
  Ag  Ag42  1  -0.00052145  0.49772109  0.50136112  1
  Ag  Ag43  1  0.49524393  0.66088643  0.84146597  1
  Ag  Ag44  1  0.83504998  0.49847081  0.33748905  1
  Ag  Ag45  1  0.32493208  0.49758011  0.50139907  1
  Ag  Ag46  1  0.17120833  -0.00710639  0.83976842  1
  Ag  Ag47  1  0.84050369  0.33847037  0.49270296  1
  Ag  Ag48  1  0.67194368  0.16553635  0.49124303  1
  Ag  Ag49  1  0.83840915  0.65665280  0.50403458  1
  Ag  Ag50  1  -0.00053243  0.17329679  0.49852936  1
  Ag  Ag51  1  -0.00641093  -0.00085336  0.33569450  1
  Ag  Ag52  1  0.00442898  0.50318399  0.83062781  1
  Ag  Ag53  1  0.17455616  0.00395460  0.15554337  1
  Sb  Sb54  1  0.16901018  0.49721431  -0.00143150  1
  Sb  Sb55  1  0.00444990  0.00290538  0.00392075  1
  Sb  Sb56  1  0.33082190  0.16914210  0.50556583  1
  Sb  Sb57  1  0.00125693  0.83042495  0.50306454  1
  Sb  Sb58  1  0.49366201  0.83080444  0.66956362  1
  Sb  Sb59  1  0.16266112  0.83722473  0.33012048  1
  Sb  Sb60  1  0.66161770  -0.00003539  0.66392918  1
  Sb  Sb61  1  -0.00172422  0.33181404  0.33160603  1
  Sb  Sb62  1  0.82959546  0.66285621  0.16418177  1
  Sb  Sb63  1  0.65934860  0.16753761  0.84080695  1
  Sb  Sb64  1  0.33012078  0.83107548  0.49797403  1
  Sb  Sb65  1  0.83245384  0.16474190  0.00089968  1
  Sb  Sb66  1  0.49836446  0.33000380  0.49773970  1
  Sb  Sb67  1  0.16329072  0.49741771  0.33490970  1
  Sb  Sb68  1  0.66413692  0.83286855  0.84427480  1
  Sb  Sb69  1  0.83455590  0.17185626  0.66188982  1
  Sb  Sb70  1  0.83863899  -0.00710932  0.83146211  1
  Sb  Sb71  1  0.83191118  0.16767177  0.33403174  1
  Sb  Sb72  1  0.66975618  0.83944882  0.49203878  1
  Sb  Sb73  1  0.00676850  -0.00624664  0.66194320  1
  Sb  Sb74  1  0.50200626  0.49737116  0.33548335  1
  Sb  Sb75  1  0.49739883  0.16980297  0.67165280  1
  Sb  Sb76  1  0.49452975  0.83498754  0.00185084  1
  Sb  Sb77  1  0.00293401  0.66334020  -0.00432103  1
  Sb  Sb78  1  0.83094168  0.00164646  0.17117540  1
  Sb  Sb79  1  0.16717794  0.16755843  0.32822077  1
  Sb  Sb80  1  0.49161350  -0.00031331  0.83949568  1
  Sb  Sb81  1  0.66641668  0.33409854  0.66606097  1
  Sb  Sb82  1  0.67067001  0.66641515  0.67258881  1
  Sb  Sb83  1  0.16577615  0.50356702  0.66594164  1
  Sb  Sb84  1  0.16804176  0.66805343  0.83244345  1
  Sb  Sb85  1  0.66943711  0.66702207  0.32757710  1
  Sb  Sb86  1  0.66391510  0.49973013  0.83521304  1
  Sb  Sb87  1  0.33295762  0.66139244  0.32710256  1
  Sb  Sb88  1  0.66325270  0.49540601  0.16568212  1
  Sb  Sb89  1  0.83649113  0.34063358  0.83693200  1
  Sb  Sb90  1  0.67227266  0.49458077  0.49835271  1
  Sb  Sb91  1  0.00119563  0.33969098  0.66679469  1
  Sb  Sb92  1  0.17170906  0.66511664  0.16681798  1
  Sb  Sb93  1  0.00645212  0.16861256  0.83093038  1
  Sb  Sb94  1  -0.00259389  0.17078320  0.16994350  1
  Sb  Sb95  1  0.33389637  0.00509967  0.32698179  1
  Sb  Sb96  1  0.50142753  0.16703552  0.32539776  1
  Sb  Sb97  1  0.83970468  0.82844130  0.66607450  1
  Sb  Sb98  1  0.16824333  0.16254785  0.67069893  1
  Sb  Sb99  1  0.49995627  0.66717520  0.50119578  1
  Sb  Sb100  1  0.33807799  0.16901865  0.15905185  1
  Sb  Sb101  1  0.50432497  0.83574431  0.32837814  1
  Sb  Sb102  1  -0.00212256  0.66772176  0.33695837  1
  Sb  Sb103  1  0.00084761  0.83064655  0.16132438  1
  Sb  Sb104  1  0.32893861  0.66895925  0.67363860  1
  Sb  Sb105  1  0.83519860  0.50197776  0.00093178  1
  Sb  Sb106  1  0.33197874  0.33407273  0.67398970  1
  Sb  Sb107  1  0.49615145  0.49488382  -0.00350485  1
  Te  Te108  1  0.16416437  0.16605392  0.16176924  1
  Te  Te109  1  0.16425531  0.16718525  0.49999239  1
  Te  Te110  1  0.16998171  0.17014338  0.83716820  1
  Te  Te111  1  0.16787502  0.49650404  0.16799790  1
  Te  Te112  1  0.16477819  0.49883574  0.50001661  1
  Te  Te113  1  0.16568116  0.49646269  0.83130664  1
  Te  Te114  1  0.16940140  0.83608879  0.16236299  1
  Te  Te115  1  0.16682104  0.84075237  0.49865996  1
  Te  Te116  1  0.16855546  0.83179240  0.83535282  1
  Te  Te117  1  0.50482008  0.16594130  0.16065927  1
  Te  Te118  1  0.50031095  0.16169104  0.50293737  1
  Te  Te119  1  0.49343089  0.17115794  0.83884993  1
  Te  Te120  1  0.49397565  0.49939222  0.16934215  1
  Te  Te121  1  0.49755605  0.50083744  0.50541297  1
  Te  Te122  1  0.49801339  0.49996874  0.83038863  1
  Te  Te123  1  0.49976859  0.83763790  0.16711748  1
  Te  Te124  1  0.50041610  0.83969191  0.50012124  1
  Te  Te125  1  0.49257337  0.82664126  0.83252780  1
  Te  Te126  1  0.82784882  0.17524562  0.16582301  1
  Te  Te127  1  0.83447930  0.16631608  0.50030976  1
  Te  Te128  1  0.83487079  0.16587716  0.83014306  1
  Te  Te129  1  0.83691938  0.49645013  0.16924263  1
  Te  Te130  1  0.83457291  0.49871511  0.49954329  1
  Te  Te131  1  0.83705980  0.50451683  0.82973329  1
  Te  Te132  1  0.83318089  0.83116405  0.16577279  1
  Te  Te133  1  0.83430477  0.83668177  0.49698271  1
  Te  Te134  1  0.83448908  0.82747931  0.83455198  1
  Te  Te135  1  0.16627109  0.00123990  -0.00088211  1
  Te  Te136  1  0.16607784  0.00121550  0.33894714  1
  Te  Te137  1  0.17098558  -0.00358065  0.66448914  1
  Te  Te138  1  0.16969455  0.33369301  0.00107889  1
  Te  Te139  1  0.17025065  0.33293737  0.33700309  1
  Te  Te140  1  0.16578471  0.33191476  0.65825830  1
  Te  Te141  1  0.17271816  0.67574381  0.00060690  1
  Te  Te142  1  0.16641524  0.66893593  0.34402439  1
  Te  Te143  1  0.16286254  0.67204620  0.66134544  1
  Te  Te144  1  0.49937676  0.00339433  0.00260742  1
  Te  Te145  1  0.50439469  0.00115321  0.33135324  1
  Te  Te146  1  0.49352436  -0.00006382  0.66627625  1
  Te  Te147  1  0.49829999  0.33242554  0.00134642  1
  Te  Te148  1  0.50129566  0.33358968  0.32870797  1
  Te  Te149  1  0.50067604  0.33856550  0.67049347  1
  Te  Te150  1  0.49822686  0.66677294  0.00094504  1
  Te  Te151  1  0.50153313  0.66650562  0.32693974  1
  Te  Te152  1  0.50128497  0.66194877  0.66994938  1
  Te  Te153  1  0.83350148  -0.00462642  -0.00106266  1
  Te  Te154  1  0.83109075  -0.00160935  0.33547505  1
  Te  Te155  1  0.83250343  -0.00122548  0.66088414  1
  Te  Te156  1  0.82948604  0.33308081  0.00373767  1
  Te  Te157  1  0.83296663  0.33544624  0.33280735  1
  Te  Te158  1  0.83325874  0.34113863  0.66242645  1
  Te  Te159  1  0.83531478  0.67016705  -0.00346696  1
  Te  Te160  1  0.83232457  0.66803383  0.33721686  1
  Te  Te161  1  0.83645067  0.66329893  0.66632019  1
  Te  Te162  1  0.00176520  0.17364983  -0.00000801  1
  Te  Te163  1  0.00087347  0.15952759  0.34025576  1
  Te  Te164  1  0.00059496  0.16575300  0.65765198  1
  Te  Te165  1  0.00119015  0.49537651  -0.00030079  1
  Te  Te166  1  -0.00512437  0.49990233  0.33551199  1
  Te  Te167  1  -0.00084646  0.50454612  0.66580020  1
  Te  Te168  1  -0.00306883  0.83402025  -0.00419408  1
  Te  Te169  1  -0.00626245  0.83780585  0.33035912  1
  Te  Te170  1  0.00532583  0.82690764  0.67418868  1
  Te  Te171  1  0.33233448  0.16701804  -0.00183076  1
  Te  Te172  1  0.33427721  0.17768089  0.33692467  1
  Te  Te173  1  0.33342859  0.15678791  0.67617946  1
  Te  Te174  1  0.33224500  0.50069890  0.00016495  1
  Te  Te175  1  0.33331157  0.49471025  0.33433217  1
  Te  Te176  1  0.33454049  0.50148649  0.66802971  1
  Te  Te177  1  0.33306612  0.83606628  0.00214048  1
  Te  Te178  1  0.33301375  0.83239593  0.32409029  1
  Te  Te179  1  0.32729206  0.83708590  0.66563285  1
  Te  Te180  1  0.66586234  0.16644817  0.00447390  1
  Te  Te181  1  0.66600028  0.16714677  0.33186358  1
  Te  Te182  1  0.66604842  0.16611960  0.65950189  1
  Te  Te183  1  0.66789584  0.50148362  0.00041072  1
  Te  Te184  1  0.67321529  0.49512636  0.33310249  1
  Te  Te185  1  0.66824370  0.50045114  0.66658223  1
  Te  Te186  1  0.67004003  0.83428058  0.00475608  1
  Te  Te187  1  0.67206480  0.83737482  0.32517177  1
  Te  Te188  1  0.66548687  0.83360765  0.66821533  1
  Te  Te189  1  0.00239321  0.00082575  0.17251823  1
  Te  Te190  1  -0.00034175  -0.00325088  0.49772531  1
  Te  Te191  1  0.00792159  -0.00131565  0.83179400  1
  Te  Te192  1  0.00508437  0.33495536  0.16603397  1
  Te  Te193  1  -0.00072528  0.33564239  0.49888939  1
  Te  Te194  1  0.00419636  0.33713425  0.83677314  1
  Te  Te195  1  0.00174954  0.65724224  0.16658981  1
  Te  Te196  1  -0.00132689  0.66396345  0.50236540  1
  Te  Te197  1  0.00021169  0.66443188  0.83172789  1
  Te  Te198  1  0.33392651  0.00081524  0.16392064  1
  Te  Te199  1  0.33331617  0.00059768  0.49395041  1
  Te  Te200  1  0.33071332  -0.00312622  0.83852693  1
  Te  Te201  1  0.33381142  0.33204319  0.16190271  1
  Te  Te202  1  0.33186985  0.33731007  0.50590808  1
  Te  Te203  1  0.33152957  0.33648089  0.83469647  1
  Te  Te204  1  0.33632722  0.66615912  0.16231625  1
  Te  Te205  1  0.33352194  0.66080800  0.49921907  1
  Te  Te206  1  0.33436323  0.66130104  0.83684724  1
  Te  Te207  1  0.66909432  0.00091271  0.16637278  1
  Te  Te208  1  0.66660444  0.00409497  0.49796801  1
  Te  Te209  1  0.66692179  0.00079865  0.83795739  1
  Te  Te210  1  0.66436351  0.33458774  0.16608012  1
  Te  Te211  1  0.66750650  0.32709102  0.49805138  1
  Te  Te212  1  0.66560002  0.33142654  0.83906082  1
  Te  Te213  1  0.66191165  0.66787219  0.16106161  1
  Te  Te214  1  0.67072153  0.66868714  0.49884674  1
  Te  Te215  1  0.66720751  0.66691729  0.84095318  1
