# generated using pymatgen
data_AgSbTe2
_symmetry_space_group_name_H-M   'P 1'
_cell_length_a   18.33748700
_cell_length_b   18.33844418
_cell_length_c   18.33109009
_cell_angle_alpha   90.00015399
_cell_angle_beta   89.99985250
_cell_angle_gamma   90.00015256
_symmetry_Int_Tables_number   1
_chemical_formula_structural   AgSbTe2
_chemical_formula_sum   'Ag54 Sb54 Te108'
_cell_volume   6164.39697259
_cell_formula_units_Z   54
loop_
 _symmetry_equiv_pos_site_id
 _symmetry_equiv_pos_as_xyz
  1  'x, y, z'
loop_
 _atom_site_type_symbol
 _atom_site_label
 _atom_site_symmetry_multiplicity
 _atom_site_fract_x
 _atom_site_fract_y
 _atom_site_fract_z
 _atom_site_occupancy
  Ag  Ag0  1  0.00220075  0.83059481  0.84026896  1
  Ag  Ag1  1  0.50075261  0.51195068  0.66955374  1
  Ag  Ag2  1  0.82911039  0.66493858  0.16915027  1
  Ag  Ag3  1  0.49897744  0.83304393  -0.00503057  1
  Ag  Ag4  1  0.17639041  0.66789377  0.83208384  1
  Ag  Ag5  1  0.65543536  0.67026257  0.66727283  1
  Ag  Ag6  1  0.50185672  0.66868644  0.51118801  1
  Ag  Ag7  1  0.34018641  0.50862701  0.16659356  1
  Ag  Ag8  1  0.00442705  -0.00340318  0.00556453  1
  Ag  Ag9  1  0.00352629  0.83282878  0.16606857  1
  Ag  Ag10  1  0.49322895  0.67144669  0.82497151  1
  Ag  Ag11  1  0.83077278  0.50265130  0.66971565  1
  Ag  Ag12  1  0.66562327  0.33900808  -0.00064173  1
  Ag  Ag13  1  0.65604096  0.82853982  0.83193316  1
  Ag  Ag14  1  0.34412783  0.82722437  0.83740019  1
  Ag  Ag15  1  0.66060375  -0.01279218  0.66798362  1
  Ag  Ag16  1  0.00577184  0.00142976  0.32765723  1
  Ag  Ag17  1  0.84178201  0.16461230  0.33340331  1
  Ag  Ag18  1  -0.00239103  0.49891939  0.50257432  1
  Ag  Ag19  1  0.16279531  0.15834531  -0.00289969  1
  Ag  Ag20  1  0.16004128  0.15768190  0.33293739  1
  Ag  Ag21  1  0.65778491  0.83010091  0.16890423  1
  Ag  Ag22  1  0.16740376  0.16669011  0.67182217  1
  Ag  Ag23  1  0.16436901  0.33717769  0.83327645  1
  Ag  Ag24  1  0.83028956  0.83406946  0.32817973  1
  Ag  Ag25  1  0.00450926  0.50199520  0.83129088  1
  Ag  Ag26  1  0.83502274  0.34142313  0.16507939  1
  Ag  Ag27  1  0.16744290  -0.00515369  0.16864675  1
  Ag  Ag28  1  0.00097585  0.66441158  0.67137958  1
  Ag  Ag29  1  0.66910254  0.16193459  0.50161498  1
  Ag  Ag30  1  -0.00107876  0.16955879  0.49436321  1
  Ag  Ag31  1  0.66387934  0.66962117  0.00794892  1
  Ag  Ag32  1  0.65960303  0.67103130  0.32788404  1
  Ag  Ag33  1  0.34024443  0.82896917  0.17022600  1
  Ag  Ag34  1  0.66222026  0.83044619  0.49996025  1
  Ag  Ag35  1  0.33647266  0.34380847  0.67294214  1
  Ag  Ag36  1  0.49982201  0.82887170  0.32923244  1
  Ag  Ag37  1  0.83577786  0.33579163  0.83592632  1
  Ag  Ag38  1  0.49959226  0.51213407  0.33340891  1
  Ag  Ag39  1  0.50285430  0.82304853  0.67982068  1
  Ag  Ag40  1  0.34248331  0.67037735  0.33141541  1
  Ag  Ag41  1  0.32856253  -0.01289732  0.32844520  1
  Ag  Ag42  1  0.16879918  0.83578913  0.00429574  1
  Ag  Ag43  1  0.49931326  0.16506730  0.66826901  1
  Ag  Ag44  1  0.50024477  -0.01422490  0.83355609  1
  Ag  Ag45  1  -0.00025031  0.32643611  0.33055001  1
  Ag  Ag46  1  0.49564479  -0.00834818  0.16546079  1
  Ag  Ag47  1  0.66588456  0.51285555  0.16780610  1
  Ag  Ag48  1  0.00393610  0.17050786  0.82968900  1
  Ag  Ag49  1  0.34367770  0.66448811  0.67634794  1
  Ag  Ag50  1  -0.00409560  0.50556444  0.16730940  1
  Ag  Ag51  1  0.49723839  0.33752847  0.83033138  1
  Ag  Ag52  1  0.17304583  0.83734094  0.32383171  1
  Ag  Ag53  1  0.33621281  0.50825418  0.83104343  1
  Sb  Sb54  1  0.82552653  0.82661455  0.66461065  1
  Sb  Sb55  1  0.83737441  0.16869680  0.00361347  1
  Sb  Sb56  1  0.32876494  0.16633634  0.83114877  1
  Sb  Sb57  1  -0.00325988  0.67167592  -0.00387781  1
  Sb  Sb58  1  0.32883237  -0.00458546  0.00441582  1
  Sb  Sb59  1  0.33179592  0.16270008  0.16836665  1
  Sb  Sb60  1  0.83174075  0.00128182  0.83308231  1
  Sb  Sb61  1  0.83222680  0.00031725  0.49864262  1
  Sb  Sb62  1  -0.00012451  0.16266498  0.16964900  1
  Sb  Sb63  1  -0.00172170  -0.00223922  0.66688458  1
  Sb  Sb64  1  0.83122091  0.50255780  0.33190120  1
  Sb  Sb65  1  0.66231623  0.33783061  0.67249698  1
  Sb  Sb66  1  0.33899916  -0.00522350  0.66598174  1
  Sb  Sb67  1  0.16496766  0.67434686  0.16198696  1
  Sb  Sb68  1  0.16643940  0.50490238  -0.00239099  1
  Sb  Sb69  1  0.50493738  0.67341129  0.16770109  1
  Sb  Sb70  1  0.32859166  0.33732078  0.33540950  1
  Sb  Sb71  1  0.50149419  0.33808972  0.50569383  1
  Sb  Sb72  1  0.83199217  0.83135419  0.00439660  1
  Sb  Sb73  1  0.49988240  0.16163496  0.33875412  1
  Sb  Sb74  1  0.83462470  -0.00541401  0.16929656  1
  Sb  Sb75  1  0.82839816  0.66676435  0.49663706  1
  Sb  Sb76  1  0.16973544  0.66763657  0.50413760  1
  Sb  Sb77  1  0.50200668  0.50915970  -0.00217009  1
  Sb  Sb78  1  -0.00535460  0.83211139  0.49577735  1
  Sb  Sb79  1  0.66577343  -0.00926681  0.33600895  1
  Sb  Sb80  1  -0.00163518  0.33027102  0.00090482  1
  Sb  Sb81  1  0.17164244  0.83579768  0.67043655  1
  Sb  Sb82  1  0.50347923  0.33364415  0.16210711  1
  Sb  Sb83  1  0.66824057  0.50400446  0.49830151  1
  Sb  Sb84  1  0.66389374  0.50556382  0.83554474  1
  Sb  Sb85  1  0.16611289  0.00033933  0.49173979  1
  Sb  Sb86  1  0.83465756  0.33477687  0.49959392  1
  Sb  Sb87  1  0.16951864  0.49872569  0.67053855  1
  Sb  Sb88  1  0.66775626  -0.00516368  -0.00245369  1
  Sb  Sb89  1  0.34026838  0.67044085  -0.00046733  1
  Sb  Sb90  1  0.66845401  0.16289985  0.17140310  1
  Sb  Sb91  1  0.16261983  0.33006468  0.16227245  1
  Sb  Sb92  1  0.16425086  0.33170359  0.50548306  1
  Sb  Sb93  1  0.00081489  0.66877569  0.33411719  1
  Sb  Sb94  1  0.83261055  0.50017354  -0.00136341  1
  Sb  Sb95  1  0.16991095  -0.00288742  0.83832033  1
  Sb  Sb96  1  0.50258632  -0.00788769  0.50222697  1
  Sb  Sb97  1  0.00322526  0.33726846  0.66851993  1
  Sb  Sb98  1  0.33950200  0.83079416  0.49559715  1
  Sb  Sb99  1  0.16856076  0.50373176  0.33068807  1
  Sb  Sb100  1  0.33233901  0.50341223  0.50345857  1
  Sb  Sb101  1  0.66855950  0.16526936  0.82895002  1
  Sb  Sb102  1  0.33676911  0.33520630  -0.00644979  1
  Sb  Sb103  1  0.83397408  0.17227572  0.66383608  1
  Sb  Sb104  1  0.67112017  0.33615703  0.32898444  1
  Sb  Sb105  1  0.49673672  0.16044659  -0.00696927  1
  Sb  Sb106  1  0.33301839  0.16637673  0.50238664  1
  Sb  Sb107  1  0.83108642  0.66387192  0.83412875  1
  Te  Te108  1  0.16661022  0.16195291  0.16748787  1
  Te  Te109  1  0.16189039  0.16690740  0.49747364  1
  Te  Te110  1  0.16362391  0.16416074  0.83325390  1
  Te  Te111  1  0.16395803  0.50017203  0.16483663  1
  Te  Te112  1  0.15687257  0.49960695  0.49923292  1
  Te  Te113  1  0.16750649  0.50081954  0.83371310  1
  Te  Te114  1  0.16407915  0.83452590  0.16527825  1
  Te  Te115  1  0.16477686  0.83283393  0.49537333  1
  Te  Te116  1  0.16039235  0.83138140  0.83392942  1
  Te  Te117  1  0.49956795  0.15931486  0.16573351  1
  Te  Te118  1  0.50299279  0.16755320  0.50600061  1
  Te  Te119  1  0.50006463  0.17497670  0.82886819  1
  Te  Te120  1  0.50021966  0.49743304  0.16647540  1
  Te  Te121  1  0.50016872  0.50504135  0.50030986  1
  Te  Te122  1  0.49741661  0.49734720  0.83211494  1
  Te  Te123  1  0.49827343  0.83451695  0.16875319  1
  Te  Te124  1  0.50475747  0.82837047  0.49190596  1
  Te  Te125  1  0.49988235  0.83081970  0.83500738  1
  Te  Te126  1  0.83279831  0.17307841  0.17268388  1
  Te  Te127  1  0.83580183  0.16818177  0.49594117  1
  Te  Te128  1  0.83979180  0.17150904  0.83321505  1
  Te  Te129  1  0.83288391  0.50112122  0.16727102  1
  Te  Te130  1  0.83811914  0.50000613  0.50652518  1
  Te  Te131  1  0.83558235  0.49639461  0.83001123  1
  Te  Te132  1  0.83656858  0.83037632  0.16975770  1
  Te  Te133  1  0.82459883  0.83334888  0.49301257  1
  Te  Te134  1  0.84328714  0.83392141  0.83280645  1
  Te  Te135  1  0.16350575  -0.00279135  0.00454914  1
  Te  Te136  1  0.16622784  -0.00176116  0.32935544  1
  Te  Te137  1  0.16876822  0.00572940  0.66540245  1
  Te  Te138  1  0.16751047  0.32968378  -0.00631398  1
  Te  Te139  1  0.16163479  0.33145031  0.33204612  1
  Te  Te140  1  0.17090769  0.32787772  0.67264729  1
  Te  Te141  1  0.16487570  0.67366390  -0.00782620  1
  Te  Te142  1  0.17107581  0.67242188  0.33453616  1
  Te  Te143  1  0.16284932  0.66825978  0.67160531  1
  Te  Te144  1  0.50063985  -0.00462928  -0.00138898  1
  Te  Te145  1  0.49711400  -0.00258302  0.33065654  1
  Te  Te146  1  0.50184209  0.00283815  0.66891581  1
  Te  Te147  1  0.50455409  0.32935531  -0.00610422  1
  Te  Te148  1  0.49863993  0.33383280  0.33296774  1
  Te  Te149  1  0.49728045  0.32997313  0.67021564  1
  Te  Te150  1  0.50618837  0.67317039  -0.01267957  1
  Te  Te151  1  0.49996023  0.66797129  0.32714711  1
  Te  Te152  1  0.49885639  0.66792101  0.66659888  1
  Te  Te153  1  0.84333275  0.00157903  0.00102661  1
  Te  Te154  1  0.83771277  0.00040200  0.33237540  1
  Te  Te155  1  0.82445282  0.00056635  0.66688626  1
  Te  Te156  1  0.82844372  0.33332330  -0.00026114  1
  Te  Te157  1  0.83792885  0.33267179  0.32991175  1
  Te  Te158  1  0.83237896  0.34005738  0.67208054  1
  Te  Te159  1  0.82386399  0.66604974  0.00764051  1
  Te  Te160  1  0.83085998  0.67004141  0.32972342  1
  Te  Te161  1  0.84025468  0.66116159  0.66535554  1
  Te  Te162  1  0.00411220  0.16282694  -0.00352206  1
  Te  Te163  1  0.00114311  0.16597911  0.33209204  1
  Te  Te164  1  0.00190238  0.16666306  0.66746588  1
  Te  Te165  1  0.00036344  0.49999492  0.00049572  1
  Te  Te166  1  0.00029152  0.50056625  0.32961402  1
  Te  Te167  1  0.00297167  0.50081537  0.67060073  1
  Te  Te168  1  0.00001876  0.83531823  0.00210715  1
  Te  Te169  1  -0.00218097  0.83522505  0.33259377  1
  Te  Te170  1  -0.00116702  0.83049248  0.66508471  1
  Te  Te171  1  0.32390358  0.16684536  0.00033655  1
  Te  Te172  1  0.32773460  0.16816094  0.33470785  1
  Te  Te173  1  0.33262469  0.16426613  0.66595063  1
  Te  Te174  1  0.33404300  0.50133440  0.00292521  1
  Te  Te175  1  0.33700804  0.50367873  0.33148205  1
  Te  Te176  1  0.33629372  0.50348239  0.66958663  1
  Te  Te177  1  0.33333635  0.83353379  0.00124428  1
  Te  Te178  1  0.33331196  0.83055621  0.33269436  1
  Te  Te179  1  0.33935794  0.82807526  0.66896605  1
  Te  Te180  1  0.66648511  0.16732188  0.00055997  1
  Te  Te181  1  0.66925083  0.16608966  0.34002035  1
  Te  Te182  1  0.66557312  0.16905026  0.66258150  1
  Te  Te183  1  0.66597673  0.50149768  0.00647438  1
  Te  Te184  1  0.66263788  0.50428036  0.33019649  1
  Te  Te185  1  0.66351267  0.50521180  0.66615048  1
  Te  Te186  1  0.66496790  0.83206312  -0.00037303  1
  Te  Te187  1  0.66585864  0.83168520  0.33010111  1
  Te  Te188  1  0.66451709  0.83052818  0.66876687  1
  Te  Te189  1  0.00073043  -0.00381589  0.16814840  1
  Te  Te190  1  -0.00080788  0.00525131  0.49660136  1
  Te  Te191  1  -0.00008897  -0.00184426  0.83292684  1
  Te  Te192  1  -0.00318592  0.33698634  0.16822948  1
  Te  Te193  1  -0.00040808  0.33276479  0.49513249  1
  Te  Te194  1  0.00145926  0.33424289  0.83403841  1
  Te  Te195  1  -0.00317288  0.66711917  0.16646539  1
  Te  Te196  1  0.00037613  0.66315216  0.50503623  1
  Te  Te197  1  -0.00285993  0.66437971  0.83265294  1
  Te  Te198  1  0.33350073  -0.00365362  0.16973878  1
  Te  Te199  1  0.33470795  -0.00034194  0.48959932  1
  Te  Te200  1  0.33987351  -0.00590202  0.83298904  1
  Te  Te201  1  0.33314609  0.34044225  0.16645707  1
  Te  Te202  1  0.33275392  0.33475278  0.50976469  1
  Te  Te203  1  0.33180660  0.33365918  0.83027138  1
  Te  Te204  1  0.33059845  0.66766806  0.16776402  1
  Te  Te205  1  0.33769776  0.66528159  0.49901138  1
  Te  Te206  1  0.33299699  0.66713672  0.83539464  1
  Te  Te207  1  0.66268054  -0.00648548  0.16623096  1
  Te  Te208  1  0.66621368  -0.00067957  0.50533343  1
  Te  Te209  1  0.66328586  -0.00403754  0.83007231  1
  Te  Te210  1  0.67145730  0.33180791  0.16171553  1
  Te  Te211  1  0.66725958  0.32774121  0.49909179  1
  Te  Te212  1  0.66971423  0.33414014  0.83815431  1
  Te  Te213  1  0.66650783  0.66936216  0.16797995  1
  Te  Te214  1  0.66280338  0.66831276  0.50213735  1
  Te  Te215  1  0.66745992  0.66921662  0.82811918  1
