# generated using pymatgen
data_AgSbTe2
_symmetry_space_group_name_H-M   'P 1'
_cell_length_a   18.33931685
_cell_length_b   18.33307661
_cell_length_c   18.33633021
_cell_angle_alpha   89.99664453
_cell_angle_beta   90.00141388
_cell_angle_gamma   89.99887073
_symmetry_Int_Tables_number   1
_chemical_formula_structural   AgSbTe2
_chemical_formula_sum   'Ag54 Sb54 Te108'
_cell_volume   6164.96943431
_cell_formula_units_Z   54
loop_
 _symmetry_equiv_pos_site_id
 _symmetry_equiv_pos_as_xyz
  1  'x, y, z'
loop_
 _atom_site_type_symbol
 _atom_site_label
 _atom_site_symmetry_multiplicity
 _atom_site_fract_x
 _atom_site_fract_y
 _atom_site_fract_z
 _atom_site_occupancy
  Ag  Ag0  1  0.00059795  0.82908050  0.50668770  1
  Ag  Ag1  1  0.17642952  0.66101840  0.16826416  1
  Ag  Ag2  1  0.33548201  0.65687903  0.32973929  1
  Ag  Ag3  1  0.65238152  0.50226751  0.17120792  1
  Ag  Ag4  1  0.32979995  0.50487183  0.82623694  1
  Ag  Ag5  1  0.16971214  0.49661704  0.66287678  1
  Ag  Ag6  1  0.16161224  0.82978402  0.66948652  1
  Ag  Ag7  1  0.16790656  -0.00268043  0.16701500  1
  Ag  Ag8  1  0.33195546  0.17622494  0.17501553  1
  Ag  Ag9  1  0.49145015  0.49818219  0.33126395  1
  Ag  Ag10  1  0.16441005  0.00445673  0.50884414  1
  Ag  Ag11  1  0.33005885  0.65831787  0.66890652  1
  Ag  Ag12  1  0.49829685  -0.00253886  0.83295282  1
  Ag  Ag13  1  0.49687737  0.18001082  0.34078194  1
  Ag  Ag14  1  0.33428844  0.66388318  -0.00249314  1
  Ag  Ag15  1  0.66348534  0.16694222  0.82431626  1
  Ag  Ag16  1  0.66447147  0.82562611  0.16846859  1
  Ag  Ag17  1  0.83015327  0.82893862  0.34125540  1
  Ag  Ag18  1  0.32517888  0.33940875  0.65733387  1
  Ag  Ag19  1  0.00826832  0.49802282  0.50313891  1
  Ag  Ag20  1  0.84431811  0.83218312  0.66254091  1
  Ag  Ag21  1  0.66403587  0.33218363  -0.00135854  1
  Ag  Ag22  1  0.66535443  0.00356744  -0.00288694  1
  Ag  Ag23  1  0.00968275  0.50515594  0.81941830  1
  Ag  Ag24  1  0.83293557  -0.00247448  0.82599208  1
  Ag  Ag25  1  0.33372852  0.50201405  0.17825643  1
  Ag  Ag26  1  0.83087896  0.33184613  0.50092816  1
  Ag  Ag27  1  0.49738693  0.50127364  0.00964126  1
  Ag  Ag28  1  0.01095247  0.66362424  0.66721295  1
  Ag  Ag29  1  0.01440676  0.34192226  0.66308011  1
  Ag  Ag30  1  0.65746580  0.17279816  0.50575292  1
  Ag  Ag31  1  0.32938823  0.82436228  0.83034756  1
  Ag  Ag32  1  0.49361193  0.33103522  0.49968572  1
  Ag  Ag33  1  0.49492047  0.17143558  0.66114230  1
  Ag  Ag34  1  0.01027979  0.17420067  0.16834265  1
  Ag  Ag35  1  0.17170122  0.18233308  0.66424398  1
  Ag  Ag36  1  0.50052719  0.82750238  0.33277585  1
  Ag  Ag37  1  0.66023384  0.66171636  0.66774825  1
  Ag  Ag38  1  0.17899644  0.33605072  0.50832153  1
  Ag  Ag39  1  0.32771062  0.49157541  0.49285265  1
  Ag  Ag40  1  0.33880042  0.34600382  0.34730043  1
  Ag  Ag41  1  0.49459913  0.66148443  0.16713045  1
  Ag  Ag42  1  0.16808883  0.83288420  -0.01352115  1
  Ag  Ag43  1  0.16808592  -0.00567418  0.82735991  1
  Ag  Ag44  1  0.49463554  0.66668283  0.83259786  1
  Ag  Ag45  1  0.17757460  0.49904569  0.34417549  1
  Ag  Ag46  1  0.66336132  0.33476935  0.65921684  1
  Ag  Ag47  1  0.16797863  0.34109050  0.82311857  1
  Ag  Ag48  1  0.33742172  0.17783203  0.49883503  1
  Ag  Ag49  1  0.65732643  0.33669146  0.34242585  1
  Ag  Ag50  1  0.01016759  0.50010131  0.17180703  1
  Ag  Ag51  1  0.83297351  0.50102070  0.33477982  1
  Ag  Ag52  1  0.83812295  0.00015175  0.50387364  1
  Ag  Ag53  1  0.01167917  0.82835363  0.82279917  1
  Sb  Sb54  1  0.67102295  0.83829792  0.49760972  1
  Sb  Sb55  1  0.83590574  -0.00141010  0.16881144  1
  Sb  Sb56  1  0.65836743  0.66523463  -0.00179381  1
  Sb  Sb57  1  0.83210050  0.66524215  0.16954916  1
  Sb  Sb58  1  0.33509628  -0.00527885  -0.00174001  1
  Sb  Sb59  1  0.66142286  0.17073773  0.16885295  1
  Sb  Sb60  1  0.32952369  0.00343184  0.66759567  1
  Sb  Sb61  1  0.49919658  0.17147067  -0.00048314  1
  Sb  Sb62  1  0.49726117  0.66028706  0.50005234  1
  Sb  Sb63  1  0.49633539  0.33508888  0.82640126  1
  Sb  Sb64  1  0.00248993  0.33739845  0.34076519  1
  Sb  Sb65  1  0.00225285  -0.00284997  0.66671742  1
  Sb  Sb66  1  0.83380831  0.66571648  0.50114198  1
  Sb  Sb67  1  0.66067616  0.66106681  0.33627871  1
  Sb  Sb68  1  0.16710350  0.65992597  0.50099534  1
  Sb  Sb69  1  0.66461788  0.83771545  0.83572326  1
  Sb  Sb70  1  0.00990546  0.66529058  -0.00634183  1
  Sb  Sb71  1  0.83526253  0.33035467  0.82502424  1
  Sb  Sb72  1  0.17353557  0.17225810  0.33864785  1
  Sb  Sb73  1  0.32777771  0.83134170  0.50432174  1
  Sb  Sb74  1  0.83997146  0.50169313  0.66132245  1
  Sb  Sb75  1  0.33737123  0.34103851  -0.00098585  1
  Sb  Sb76  1  0.33527290  0.16853579  0.82908121  1
  Sb  Sb77  1  0.66521623  0.49224951  0.49752998  1
  Sb  Sb78  1  0.83656550  0.83518218  -0.00288212  1
  Sb  Sb79  1  0.83269463  0.33486366  0.17369108  1
  Sb  Sb80  1  0.17566643  0.66798561  0.83134379  1
  Sb  Sb81  1  0.00562390  0.66287816  0.33745240  1
  Sb  Sb82  1  0.49112494  0.49487129  0.66293933  1
  Sb  Sb83  1  0.16907153  0.16275239  -0.00371101  1
  Sb  Sb84  1  -0.00127382  0.33710318  -0.00481231  1
  Sb  Sb85  1  0.49823388  0.00655981  0.50317943  1
  Sb  Sb86  1  0.00111718  0.16601675  0.83151235  1
  Sb  Sb87  1  0.17384398  0.50465019  -0.00271923  1
  Sb  Sb88  1  0.49895912  0.34113613  0.17543852  1
  Sb  Sb89  1  0.83441860  0.16410794  0.66434653  1
  Sb  Sb90  1  0.16815912  0.33628298  0.16859768  1
  Sb  Sb91  1  0.82826078  0.49905544  0.00474406  1
  Sb  Sb92  1  0.33332128  0.00069957  0.33291971  1
  Sb  Sb93  1  0.83018655  0.67003410  0.82933512  1
  Sb  Sb94  1  0.00082665  0.82947212  0.16916071  1
  Sb  Sb95  1  0.49589338  0.82844946  0.00127219  1
  Sb  Sb96  1  0.00062670  -0.00042498  0.33481137  1
  Sb  Sb97  1  0.49758074  0.83449373  0.66446441  1
  Sb  Sb98  1  0.00442912  0.17044568  0.49935429  1
  Sb  Sb99  1  0.33407617  0.82557604  0.16519828  1
  Sb  Sb100  1  0.66680574  0.00203691  0.66993564  1
  Sb  Sb101  1  0.83170185  0.16627617  -0.00086468  1
  Sb  Sb102  1  0.82883795  0.16900096  0.33706447  1
  Sb  Sb103  1  0.66359191  0.49570164  0.83340119  1
  Sb  Sb104  1  -0.00091966  -0.00046972  -0.00235146  1
  Sb  Sb105  1  0.66529440  0.00272884  0.33114504  1
  Sb  Sb106  1  0.16847012  0.82802724  0.33838980  1
  Sb  Sb107  1  0.49655469  -0.00376495  0.16278949  1
  Te  Te108  1  0.16948707  0.16625991  0.16646840  1
  Te  Te109  1  0.16885977  0.16546633  0.50389595  1
  Te  Te110  1  0.16668817  0.15759880  0.82796134  1
  Te  Te111  1  0.17011132  0.50083082  0.16386543  1
  Te  Te112  1  0.16722029  0.49797964  0.50211554  1
  Te  Te113  1  0.16689878  0.50115955  0.83179188  1
  Te  Te114  1  0.16534320  0.83651464  0.17096445  1
  Te  Te115  1  0.16163236  0.83864259  0.50301518  1
  Te  Te116  1  0.16781163  0.83194916  0.83064971  1
  Te  Te117  1  0.49426877  0.16435191  0.17061849  1
  Te  Te118  1  0.49835651  0.16798246  0.50056661  1
  Te  Te119  1  0.50271147  0.16422735  0.83186723  1
  Te  Te120  1  0.49568432  0.50217900  0.17002267  1
  Te  Te121  1  0.49557922  0.49379301  0.49465618  1
  Te  Te122  1  0.49670653  0.50313326  0.83170447  1
  Te  Te123  1  0.50296044  0.82887423  0.16889470  1
  Te  Te124  1  0.50019602  0.83604487  0.49473381  1
  Te  Te125  1  0.49636667  0.83321082  0.83289828  1
  Te  Te126  1  0.83846203  0.16574108  0.16779344  1
  Te  Te127  1  0.83386446  0.16416913  0.49927287  1
  Te  Te128  1  0.82928703  0.15883999  0.83249785  1
  Te  Te129  1  0.83594183  0.50019174  0.17236425  1
  Te  Te130  1  0.83534515  0.49700412  0.49555142  1
  Te  Te131  1  0.83872358  0.49982966  0.83537060  1
  Te  Te132  1  0.82970765  0.83341083  0.17039681  1
  Te  Te133  1  0.83593482  0.83501897  0.50100486  1
  Te  Te134  1  0.83329823  0.83802891  0.82944176  1
  Te  Te135  1  0.16697250  -0.00502824  -0.00088987  1
  Te  Te136  1  0.16646033  0.00039754  0.33104345  1
  Te  Te137  1  0.16703882  -0.00947777  0.66724658  1
  Te  Te138  1  0.16668669  0.33202093  -0.00967643  1
  Te  Te139  1  0.17102613  0.33901515  0.33669975  1
  Te  Te140  1  0.16972631  0.33715707  0.66724403  1
  Te  Te141  1  0.17323907  0.67140174  0.00880977  1
  Te  Te142  1  0.17234947  0.66104246  0.32853832  1
  Te  Te143  1  0.16850919  0.66837129  0.66601419  1
  Te  Te144  1  0.50439346  -0.00037041  -0.00571074  1
  Te  Te145  1  0.50061635  -0.00703801  0.33223249  1
  Te  Te146  1  0.49890634  0.00557788  0.67216464  1
  Te  Te147  1  0.50494825  0.33901083  -0.00366352  1
  Te  Te148  1  0.49838980  0.33633773  0.33583706  1
  Te  Te149  1  0.50495016  0.32944741  0.66231834  1
  Te  Te150  1  0.49504685  0.66229516  0.00012980  1
  Te  Te151  1  0.49698678  0.66448973  0.33303614  1
  Te  Te152  1  0.49670533  0.66663210  0.66843245  1
  Te  Te153  1  0.82685901  -0.00068287  -0.00414297  1
  Te  Te154  1  0.83261321  -0.00503810  0.33848405  1
  Te  Te155  1  0.83354963  -0.00472595  0.66537158  1
  Te  Te156  1  0.82528828  0.33330496  -0.00231363  1
  Te  Te157  1  0.83120739  0.33644065  0.34001336  1
  Te  Te158  1  0.82324361  0.33256202  0.66114284  1
  Te  Te159  1  0.83348318  0.66814005  -0.00044845  1
  Te  Te160  1  0.83197495  0.66750840  0.33438910  1
  Te  Te161  1  0.83202798  0.67213564  0.66681360  1
  Te  Te162  1  0.00008019  0.16830419  0.00791705  1
  Te  Te163  1  0.00038575  0.16846502  0.32736851  1
  Te  Te164  1  0.00650393  0.17643185  0.66693652  1
  Te  Te165  1  -0.00223830  0.50047322  0.00707492  1
  Te  Te166  1  -0.00454001  0.50061781  0.33278174  1
  Te  Te167  1  0.00114520  0.50190285  0.66349368  1
  Te  Te168  1  0.00588646  0.83218786  -0.00389972  1
  Te  Te169  1  -0.00481681  0.83084548  0.33882918  1
  Te  Te170  1  0.00026288  0.83352161  0.66679219  1
  Te  Te171  1  0.33425729  0.16797956  0.00824084  1
  Te  Te172  1  0.33742964  0.16700925  0.33445869  1
  Te  Te173  1  0.33274743  0.17017620  0.66497170  1
  Te  Te174  1  0.33838959  0.50463299  -0.00372031  1
  Te  Te175  1  0.33187786  0.50068832  0.33310297  1
  Te  Te176  1  0.33167772  0.49851144  0.66691996  1
  Te  Te177  1  0.32883980  0.82754337  -0.00436324  1
  Te  Te178  1  0.33727704  0.82850880  0.33512327  1
  Te  Te179  1  0.33069421  0.82964108  0.67020228  1
  Te  Te180  1  0.66511414  0.16774056  0.00002092  1
  Te  Te181  1  0.66103460  0.17249759  0.33597625  1
  Te  Te182  1  0.66786089  0.16843955  0.66538700  1
  Te  Te183  1  0.66114766  0.49728837  0.00352323  1
  Te  Te184  1  0.66990488  0.49704735  0.33132919  1
  Te  Te185  1  0.66869887  0.50079222  0.66639029  1
  Te  Te186  1  0.66744063  0.83456515  0.00564642  1
  Te  Te187  1  0.66675863  0.83202103  0.32976553  1
  Te  Te188  1  0.66641406  0.82892242  0.66633537  1
  Te  Te189  1  0.00502392  0.00056217  0.16567947  1
  Te  Te190  1  0.00039889  -0.00059684  0.50023479  1
  Te  Te191  1  0.00027577  -0.00347635  0.83383922  1
  Te  Te192  1  0.00000209  0.33584590  0.16567536  1
  Te  Te193  1  -0.00494299  0.33621038  0.50425898  1
  Te  Te194  1  0.00344078  0.33655922  0.82779959  1
  Te  Te195  1  0.00241618  0.66128645  0.16550669  1
  Te  Te196  1  0.00042797  0.66497751  0.50574451  1
  Te  Te197  1  -0.00268431  0.66652980  0.82810822  1
  Te  Te198  1  0.32809261  0.00078060  0.16497701  1
  Te  Te199  1  0.32729312  0.00178416  0.50008141  1
  Te  Te200  1  0.33302619  -0.00072259  0.83423323  1
  Te  Te201  1  0.33279660  0.33589887  0.16642908  1
  Te  Te202  1  0.33385267  0.33193528  0.50165101  1
  Te  Te203  1  0.32907548  0.33661422  0.83160831  1
  Te  Te204  1  0.33532428  0.66468775  0.16921407  1
  Te  Te205  1  0.33316995  0.66314420  0.50317556  1
  Te  Te206  1  0.33648122  0.66518422  0.83100154  1
  Te  Te207  1  0.66654285  -0.00027602  0.16161037  1
  Te  Te208  1  0.66987658  0.00721690  0.50010678  1
  Te  Te209  1  0.66555724  0.00272534  0.83580709  1
  Te  Te210  1  0.66714553  0.33792218  0.16385695  1
  Te  Te211  1  0.66863400  0.33159022  0.49864862  1
  Te  Te212  1  0.66707928  0.32867896  0.83338442  1
  Te  Te213  1  0.66238790  0.66373587  0.16620908  1
  Te  Te214  1  0.66556229  0.66815046  0.50793621  1
  Te  Te215  1  0.65947759  0.66631361  0.82965842  1
