# generated using pymatgen
data_AgSbTe2
_symmetry_space_group_name_H-M   'P 1'
_cell_length_a   18.33173757
_cell_length_b   18.33229707
_cell_length_c   18.33837611
_cell_angle_alpha   90.00348893
_cell_angle_beta   89.99724564
_cell_angle_gamma   90.00177080
_symmetry_Int_Tables_number   1
_chemical_formula_structural   AgSbTe2
_chemical_formula_sum   'Ag54 Sb54 Te108'
_cell_volume   6162.84708247
_cell_formula_units_Z   54
loop_
 _symmetry_equiv_pos_site_id
 _symmetry_equiv_pos_as_xyz
  1  'x, y, z'
loop_
 _atom_site_type_symbol
 _atom_site_label
 _atom_site_symmetry_multiplicity
 _atom_site_fract_x
 _atom_site_fract_y
 _atom_site_fract_z
 _atom_site_occupancy
  Ag  Ag0  1  0.16207903  0.66940698  0.50116748  1
  Ag  Ag1  1  0.83716932  0.66486032  0.50418269  1
  Ag  Ag2  1  0.00036022  0.50063367  0.17227531  1
  Ag  Ag3  1  0.83703372  0.33760507  0.50266341  1
  Ag  Ag4  1  0.67530959  0.16816918  0.17375134  1
  Ag  Ag5  1  -0.00403491  0.50347931  0.83298455  1
  Ag  Ag6  1  0.33335451  0.66202731  0.66445854  1
  Ag  Ag7  1  0.67346882  0.00127820  -0.00014749  1
  Ag  Ag8  1  0.49888899  0.49783180  -0.01090618  1
  Ag  Ag9  1  0.16435800  0.16942243  0.00414233  1
  Ag  Ag10  1  0.33015725  -0.00100206  0.33292927  1
  Ag  Ag11  1  0.67427970  0.49941708  0.82299297  1
  Ag  Ag12  1  0.83445981  0.16445325  0.00136565  1
  Ag  Ag13  1  0.83617604  0.33514663  0.82190647  1
  Ag  Ag14  1  0.32547305  0.82620386  0.49780190  1
  Ag  Ag15  1  0.83430676  0.84151212  -0.01018323  1
  Ag  Ag16  1  0.83997312  0.66513577  0.82466138  1
  Ag  Ag17  1  0.16291629  0.83000389  0.65675759  1
  Ag  Ag18  1  0.83738324  -0.00250243  0.83797999  1
  Ag  Ag19  1  0.83094703  0.17850169  0.66689670  1
  Ag  Ag20  1  -0.00273723  0.82647509  0.82743029  1
  Ag  Ag21  1  0.83348193  0.00883107  0.16038395  1
  Ag  Ag22  1  0.16731690  0.17635600  0.33169478  1
  Ag  Ag23  1  0.66975720  0.65971598  0.66364132  1
  Ag  Ag24  1  0.16120840  0.33445945  0.17868646  1
  Ag  Ag25  1  0.32018648  0.83272567  0.17997839  1
  Ag  Ag26  1  0.84030116  0.32792735  0.17573026  1
  Ag  Ag27  1  -0.00787880  0.33451175  0.66076268  1
  Ag  Ag28  1  0.67576037  0.34137385  0.66448264  1
  Ag  Ag29  1  0.83611542  0.48996382  0.33628397  1
  Ag  Ag30  1  0.48608208  0.83591091  0.34276793  1
  Ag  Ag31  1  0.00125230  0.33742272  0.33689439  1
  Ag  Ag32  1  0.83417391  0.17143858  0.33042568  1
  Ag  Ag33  1  0.16077435  -0.00460567  0.83386395  1
  Ag  Ag34  1  0.83852464  0.83196960  0.66803001  1
  Ag  Ag35  1  0.00233358  0.82564967  0.17534031  1
  Ag  Ag36  1  0.50052965  0.50296878  0.66911200  1
  Ag  Ag37  1  0.16859515  0.83386160  0.33963901  1
  Ag  Ag38  1  0.00139852  0.66382184  0.33531828  1
  Ag  Ag39  1  0.66862072  0.49986509  0.50670658  1
  Ag  Ag40  1  0.49818061  0.16622315  0.33426274  1
  Ag  Ag41  1  0.33198874  0.49629159  0.82200419  1
  Ag  Ag42  1  0.16299654  0.33876234  0.49646387  1
  Ag  Ag43  1  0.67304095  0.17419922  0.49636685  1
  Ag  Ag44  1  0.16249895  0.66827839  0.17479715  1
  Ag  Ag45  1  0.33482444  0.50097687  0.50511323  1
  Ag  Ag46  1  0.16015353  0.67006223  0.82361112  1
  Ag  Ag47  1  0.32954023  0.33362428  -0.00537592  1
  Ag  Ag48  1  0.33102688  0.34399337  0.66448287  1
  Ag  Ag49  1  0.32907103  0.17698343  0.83224047  1
  Ag  Ag50  1  0.49942983  0.82586913  0.66086258  1
  Ag  Ag51  1  0.67054026  0.82752291  0.50318675  1
  Ag  Ag52  1  0.00377179  0.82644218  0.50180869  1
  Ag  Ag53  1  0.32156313  0.33027208  0.33664168  1
  Sb  Sb54  1  0.33526871  0.17128167  0.50043234  1
  Sb  Sb55  1  0.16099956  0.00132697  0.16418124  1
  Sb  Sb56  1  0.50470234  0.16979714  0.66232332  1
  Sb  Sb57  1  0.50237272  0.49895138  0.33841902  1
  Sb  Sb58  1  0.83116154  0.49761470  -0.00184300  1
  Sb  Sb59  1  -0.00160047  0.50117998  0.50128574  1
  Sb  Sb60  1  -0.00110806  0.66349235  0.66406276  1
  Sb  Sb61  1  0.32687190  0.50162850  0.16982156  1
  Sb  Sb62  1  0.67050798  0.66896508  -0.00721756  1
  Sb  Sb63  1  0.16355646  0.16659372  0.66446263  1
  Sb  Sb64  1  0.50039498  0.33615566  0.83176147  1
  Sb  Sb65  1  0.16447286  0.33564073  0.82862693  1
  Sb  Sb66  1  0.33053798  0.66249556  -0.00638616  1
  Sb  Sb67  1  0.66815628  0.33070595  -0.00388389  1
  Sb  Sb68  1  0.50131883  -0.00069226  0.83298790  1
  Sb  Sb69  1  0.49893684  0.33343906  0.16911479  1
  Sb  Sb70  1  0.67419701  0.49444742  0.16810409  1
  Sb  Sb71  1  0.67427018  0.66842034  0.34261699  1
  Sb  Sb72  1  0.67387245  0.33128385  0.34039135  1
  Sb  Sb73  1  0.83289182  0.00054577  0.50089710  1
  Sb  Sb74  1  0.67220278  0.83588078  0.17213790  1
  Sb  Sb75  1  -0.00646647  -0.00080037  0.00015946  1
  Sb  Sb76  1  0.16132819  0.83745017  0.00034077  1
  Sb  Sb77  1  0.67049774  -0.00150442  0.66914264  1
  Sb  Sb78  1  0.33196824  -0.00281049  0.66363596  1
  Sb  Sb79  1  0.00183853  0.33376177  0.00195069  1
  Sb  Sb80  1  0.50177571  0.33432349  0.50015636  1
  Sb  Sb81  1  -0.00408416  0.16852261  0.49868524  1
  Sb  Sb82  1  0.32478198  0.82993370  0.82754473  1
  Sb  Sb83  1  0.49826010  0.66840408  0.50138245  1
  Sb  Sb84  1  0.33303362  0.16560219  0.16819345  1
  Sb  Sb85  1  0.49080560  0.66749792  0.16931741  1
  Sb  Sb86  1  0.32468548  0.66694923  0.34151614  1
  Sb  Sb87  1  0.83881540  0.83549052  0.33769705  1
  Sb  Sb88  1  0.00015382  0.16851161  0.83248248  1
  Sb  Sb89  1  0.50416206  0.82976757  -0.00083248  1
  Sb  Sb90  1  0.83925911  0.66556021  0.16902984  1
  Sb  Sb91  1  0.16740791  -0.00287185  0.50099558  1
  Sb  Sb92  1  0.00037068  0.66690447  0.00044912  1
  Sb  Sb93  1  0.17144786  0.50571517  0.66558087  1
  Sb  Sb94  1  0.66965942  0.17031662  0.83106104  1
  Sb  Sb95  1  0.50357301  -0.00013984  0.16890921  1
  Sb  Sb96  1  -0.00129376  -0.00178846  0.66802759  1
  Sb  Sb97  1  0.49978349  -0.00321104  0.49868968  1
  Sb  Sb98  1  0.66563652  0.00266049  0.33140517  1
  Sb  Sb99  1  -0.00467347  0.16973671  0.16846296  1
  Sb  Sb100  1  0.50167773  0.17127859  0.00355452  1
  Sb  Sb101  1  0.00290263  -0.00034469  0.33237757  1
  Sb  Sb102  1  0.82838956  0.50094033  0.66261732  1
  Sb  Sb103  1  0.16932459  0.49534577  -0.00095350  1
  Sb  Sb104  1  0.67646797  0.82782880  0.82412304  1
  Sb  Sb105  1  0.16116898  0.49948635  0.33540040  1
  Sb  Sb106  1  0.49995851  0.66419680  0.82831119  1
  Sb  Sb107  1  0.33467140  0.00383945  0.00322945  1
  Te  Te108  1  0.16648082  0.16927367  0.16864965  1
  Te  Te109  1  0.16611721  0.16835894  0.49443075  1
  Te  Te110  1  0.16834266  0.16554786  0.83282447  1
  Te  Te111  1  0.16055735  0.49996572  0.16575570  1
  Te  Te112  1  0.17184112  0.49984569  0.49991882  1
  Te  Te113  1  0.16744892  0.50481252  0.83448996  1
  Te  Te114  1  0.16318156  0.83366519  0.16551897  1
  Te  Te115  1  0.16641114  0.83343077  0.49950296  1
  Te  Te116  1  0.16084719  0.83116659  0.83554145  1
  Te  Te117  1  0.50732557  0.16714878  0.17294686  1
  Te  Te118  1  0.50660046  0.16606777  0.49388330  1
  Te  Te119  1  0.49209409  0.16567232  0.83326348  1
  Te  Te120  1  0.50162895  0.50054975  0.16625524  1
  Te  Te121  1  0.50195938  0.50136768  0.50444131  1
  Te  Te122  1  0.49625368  0.50030660  0.83007923  1
  Te  Te123  1  0.49897007  0.83259538  0.16949433  1
  Te  Te124  1  0.50148423  0.83262723  0.50125538  1
  Te  Te125  1  0.50006859  0.83223338  0.82880110  1
  Te  Te126  1  0.83405695  0.16835321  0.16623728  1
  Te  Te127  1  0.83188881  0.16785618  0.50202783  1
  Te  Te128  1  0.83312345  0.16973564  0.83127323  1
  Te  Te129  1  0.83919623  0.49571547  0.16883279  1
  Te  Te130  1  0.83274526  0.50025287  0.49698717  1
  Te  Te131  1  0.83370220  0.49920344  0.83573101  1
  Te  Te132  1  0.83798652  0.83349390  0.16825405  1
  Te  Te133  1  0.83238299  0.83318506  0.50223755  1
  Te  Te134  1  0.83586101  0.83248938  0.83118800  1
  Te  Te135  1  0.16916088  0.00816880  -0.00476786  1
  Te  Te136  1  0.17009883  -0.00276921  0.33198005  1
  Te  Te137  1  0.16585214  -0.00512372  0.67364231  1
  Te  Te138  1  0.17008757  0.32792773  -0.00131817  1
  Te  Te139  1  0.16343224  0.33547487  0.33544600  1
  Te  Te140  1  0.17208378  0.33038000  0.66050635  1
  Te  Te141  1  0.16758587  0.66795485  0.00062491  1
  Te  Te142  1  0.16159923  0.66949292  0.33516339  1
  Te  Te143  1  0.16647055  0.67105727  0.66436084  1
  Te  Te144  1  0.50786394  -0.00016327  0.00009869  1
  Te  Te145  1  0.49309953  -0.00079584  0.33266906  1
  Te  Te146  1  0.50102407  -0.00722236  0.66713775  1
  Te  Te147  1  0.49342387  0.33756150  0.00128474  1
  Te  Te148  1  0.49402671  0.32966244  0.33290533  1
  Te  Te149  1  0.49210566  0.33614657  0.66628194  1
  Te  Te150  1  0.50079139  0.66003172  -0.00005273  1
  Te  Te151  1  0.50125921  0.67282721  0.33282644  1
  Te  Te152  1  0.49942499  0.66661220  0.66623891  1
  Te  Te153  1  0.83201899  0.00229557  -0.00163041  1
  Te  Te154  1  0.83440109  0.00776205  0.32955749  1
  Te  Te155  1  0.83392677  -0.00482049  0.67252499  1
  Te  Te156  1  0.83392497  0.32892542  0.00098991  1
  Te  Te157  1  0.83484849  0.33075987  0.33542847  1
  Te  Te158  1  0.83299209  0.33595391  0.66443597  1
  Te  Te159  1  0.83291008  0.67102118  -0.00455934  1
  Te  Te160  1  0.84096688  0.66707968  0.33760528  1
  Te  Te161  1  0.83268114  0.66895311  0.66529606  1
  Te  Te162  1  0.00057799  0.16644405  0.00017811  1
  Te  Te163  1  0.00138900  0.17071687  0.33365883  1
  Te  Te164  1  -0.00676945  0.17348256  0.66580287  1
  Te  Te165  1  -0.00022859  0.49978143  -0.00346840  1
  Te  Te166  1  -0.00449800  0.49928884  0.33391324  1
  Te  Te167  1  0.00318685  0.49233085  0.67214892  1
  Te  Te168  1  -0.00642855  0.83277320  -0.00356305  1
  Te  Te169  1  0.00406687  0.83278252  0.33453767  1
  Te  Te170  1  0.00010420  0.83310654  0.66662785  1
  Te  Te171  1  0.33297918  0.17137699  -0.00123310  1
  Te  Te172  1  0.33082511  0.16767619  0.33366766  1
  Te  Te173  1  0.33494227  0.16593212  0.66949231  1
  Te  Te174  1  0.33723268  0.49486862  0.00162279  1
  Te  Te175  1  0.33724600  0.49510665  0.33774035  1
  Te  Te176  1  0.33561890  0.50134787  0.66566167  1
  Te  Te177  1  0.33644281  0.83351647  0.00190707  1
  Te  Te178  1  0.33015067  0.82888309  0.33596829  1
  Te  Te179  1  0.33180490  0.83160978  0.66280081  1
  Te  Te180  1  0.66955399  0.16444939  0.00064304  1
  Te  Te181  1  0.66897181  0.16684251  0.33438780  1
  Te  Te182  1  0.66941851  0.17073187  0.66280817  1
  Te  Te183  1  0.66178904  0.49998818  -0.00237633  1
  Te  Te184  1  0.67188800  0.50016415  0.33806932  1
  Te  Te185  1  0.66399903  0.49987200  0.66613422  1
  Te  Te186  1  0.67177986  0.83695338  0.00229038  1
  Te  Te187  1  0.66323707  0.83512033  0.34062221  1
  Te  Te188  1  0.66739735  0.83146084  0.66200648  1
  Te  Te189  1  -0.00626780  -0.01017478  0.16690611  1
  Te  Te190  1  0.00004798  -0.01240766  0.50023853  1
  Te  Te191  1  -0.00103596  -0.00350201  0.83367667  1
  Te  Te192  1  0.00086448  0.33567285  0.16845682  1
  Te  Te193  1  -0.00041541  0.33394874  0.49933726  1
  Te  Te194  1  -0.00317340  0.33628594  0.83122174  1
  Te  Te195  1  0.00348730  0.66467502  0.16998378  1
  Te  Te196  1  0.00018007  0.66656788  0.49747339  1
  Te  Te197  1  -0.00034887  0.66574589  0.83323552  1
  Te  Te198  1  0.33212859  -0.00548504  0.17123917  1
  Te  Te199  1  0.33266931  -0.00513879  0.49372507  1
  Te  Te200  1  0.33108779  0.00013247  0.83422874  1
  Te  Te201  1  0.32766173  0.33367950  0.17117462  1
  Te  Te202  1  0.33237431  0.33423444  0.50014085  1
  Te  Te203  1  0.33179517  0.33643449  0.83204726  1
  Te  Te204  1  0.32392188  0.67046028  0.16539690  1
  Te  Te205  1  0.32906591  0.66590921  0.50449636  1
  Te  Te206  1  0.32899543  0.66181661  0.82702034  1
  Te  Te207  1  0.67321384  0.00375936  0.16371258  1
  Te  Te208  1  0.66712101  -0.00032740  0.50042866  1
  Te  Te209  1  0.67128690  0.00089077  0.83737523  1
  Te  Te210  1  0.67195535  0.32850322  0.16533251  1
  Te  Te211  1  0.66923086  0.33514809  0.50429210  1
  Te  Te212  1  0.67049890  0.33783130  0.82812076  1
  Te  Te213  1  0.66719604  0.66513987  0.16725348  1
  Te  Te214  1  0.67247237  0.66557964  0.50442319  1
  Te  Te215  1  0.67093546  0.66050173  0.82625518  1
