# generated using pymatgen
data_AgSbTe2
_symmetry_space_group_name_H-M   'P 1'
_cell_length_a   18.33380698
_cell_length_b   18.33370277
_cell_length_c   18.33290820
_cell_angle_alpha   90.00082117
_cell_angle_beta   89.99922920
_cell_angle_gamma   89.99663283
_symmetry_Int_Tables_number   1
_chemical_formula_structural   AgSbTe2
_chemical_formula_sum   'Ag54 Sb54 Te108'
_cell_volume   6162.17750195
_cell_formula_units_Z   54
loop_
 _symmetry_equiv_pos_site_id
 _symmetry_equiv_pos_as_xyz
  1  'x, y, z'
loop_
 _atom_site_type_symbol
 _atom_site_label
 _atom_site_symmetry_multiplicity
 _atom_site_fract_x
 _atom_site_fract_y
 _atom_site_fract_z
 _atom_site_occupancy
  Ag  Ag0  1  0.66871838  0.67284823  0.34105833  1
  Ag  Ag1  1  0.66691542  0.51310754  0.50006562  1
  Ag  Ag2  1  0.00871953  0.50041461  0.49569685  1
  Ag  Ag3  1  0.00276817  0.33282877  0.33596234  1
  Ag  Ag4  1  0.16487952  0.34721619  0.49718830  1
  Ag  Ag5  1  0.16550768  0.82850426  0.65578064  1
  Ag  Ag6  1  0.16510776  0.66994449  0.18196460  1
  Ag  Ag7  1  0.49776805  0.49418859  0.00038640  1
  Ag  Ag8  1  0.83564990  0.15882514  0.66974262  1
  Ag  Ag9  1  0.32097988  0.67246958  0.34108625  1
  Ag  Ag10  1  0.84784736  0.51163450  0.33927953  1
  Ag  Ag11  1  0.16855901  0.51139087  0.65532543  1
  Ag  Ag12  1  0.16540309  -0.00207346  0.49348271  1
  Ag  Ag13  1  0.66269704  0.33131715  -0.00518278  1
  Ag  Ag14  1  0.66702708  0.83012585  0.49594082  1
  Ag  Ag15  1  0.16373561  0.00061059  0.82949963  1
  Ag  Ag16  1  0.00160147  0.83681130  0.17303077  1
  Ag  Ag17  1  0.00877347  0.67341812  0.00366438  1
  Ag  Ag18  1  0.67868678  0.16870753  0.83232797  1
  Ag  Ag19  1  0.49893372  0.83268677  0.65588603  1
  Ag  Ag20  1  0.32144963  0.50403761  0.50305043  1
  Ag  Ag21  1  0.49839197  0.83513141  0.33738198  1
  Ag  Ag22  1  0.32738863  0.16259478  0.83043983  1
  Ag  Ag23  1  0.00436760  -0.00023560  0.00445354  1
  Ag  Ag24  1  0.83605427  0.83630393  0.65946047  1
  Ag  Ag25  1  0.16683031  0.65899145  0.49308736  1
  Ag  Ag26  1  0.50222039  0.32616895  0.16493356  1
  Ag  Ag27  1  0.32225662  -0.00926087  0.33788261  1
  Ag  Ag28  1  0.32266687  0.16377650  0.50249423  1
  Ag  Ag29  1  0.66911824  0.83241189  0.17893912  1
  Ag  Ag30  1  0.00015768  0.16247549  0.83048015  1
  Ag  Ag31  1  0.16325632  0.16021550  0.34223203  1
  Ag  Ag32  1  0.33009671  0.51001184  0.82666316  1
  Ag  Ag33  1  0.49334554  -0.00330521  0.49457304  1
  Ag  Ag34  1  0.32901656  0.83360250  0.82920941  1
  Ag  Ag35  1  0.66721956  0.66861743  0.65757900  1
  Ag  Ag36  1  0.00471909  -0.00526249  0.33368088  1
  Ag  Ag37  1  0.16303323  0.51744933  0.34466399  1
  Ag  Ag38  1  0.32680774  0.66821193  -0.00371787  1
  Ag  Ag39  1  0.83219581  0.32433469  0.82994584  1
  Ag  Ag40  1  0.84497367  0.00427557  0.82474955  1
  Ag  Ag41  1  0.00679482  0.16492022  0.49718923  1
  Ag  Ag42  1  0.01065423  0.66864147  0.65477898  1
  Ag  Ag43  1  0.84115339  -0.00291854  0.50296950  1
  Ag  Ag44  1  0.49362444  0.16801650  -0.00050911  1
  Ag  Ag45  1  0.16450420  0.83475491  0.00161084  1
  Ag  Ag46  1  0.00275314  0.15762502  0.17472619  1
  Ag  Ag47  1  0.00753969  0.67168058  0.33633709  1
  Ag  Ag48  1  0.66978133  0.33653934  0.66730805  1
  Ag  Ag49  1  0.32464929  0.66876893  0.66265934  1
  Ag  Ag50  1  0.50061816  -0.00036676  0.17281240  1
  Ag  Ag51  1  0.16503113  0.15962083  0.00010258  1
  Ag  Ag52  1  0.16312243  0.83085345  0.33969393  1
  Ag  Ag53  1  0.83911139  0.83058074  0.34048412  1
  Sb  Sb54  1  0.66971785  0.00298955  -0.00162037  1
  Sb  Sb55  1  0.83657392  0.67094336  0.82879951  1
  Sb  Sb56  1  0.50247442  0.16191550  0.66964682  1
  Sb  Sb57  1  0.32811946  0.83378881  0.16946176  1
  Sb  Sb58  1  0.67180731  0.34040226  0.33588738  1
  Sb  Sb59  1  0.66413610  0.49546586  0.82723402  1
  Sb  Sb60  1  0.83120892  0.33085553  0.16518016  1
  Sb  Sb61  1  0.33521423  0.33727959  0.66663179  1
  Sb  Sb62  1  0.66347310  0.83790328  0.82817061  1
  Sb  Sb63  1  0.66861909  0.16262102  0.16265495  1
  Sb  Sb64  1  0.49610295  0.50565511  0.66724210  1
  Sb  Sb65  1  0.00681023  0.83980900  0.83469468  1
  Sb  Sb66  1  0.83883643  0.67209537  0.49906474  1
  Sb  Sb67  1  0.83522376  -0.00167572  0.17065762  1
  Sb  Sb68  1  0.83819279  0.16556434  -0.00815051  1
  Sb  Sb69  1  0.66427871  0.66518079  0.00107571  1
  Sb  Sb70  1  0.32665264  0.33426819  0.33570094  1
  Sb  Sb71  1  0.33301567  0.50257243  0.16970645  1
  Sb  Sb72  1  0.16633296  -0.00533168  0.17121348  1
  Sb  Sb73  1  0.17014087  0.50520474  -0.00062520  1
  Sb  Sb74  1  0.16757954  0.67471570  0.82764813  1
  Sb  Sb75  1  0.32692604  0.16429192  0.16740103  1
  Sb  Sb76  1  0.00062297  -0.00577390  0.66259508  1
  Sb  Sb77  1  -0.00132187  0.32934514  0.00363403  1
  Sb  Sb78  1  0.66855648  -0.00642619  0.33533057  1
  Sb  Sb79  1  0.84085765  0.66940586  0.17184289  1
  Sb  Sb80  1  0.66878515  0.16296771  0.50371052  1
  Sb  Sb81  1  0.83127270  0.50002586  0.00229927  1
  Sb  Sb82  1  0.49351985  0.83501707  0.00326917  1
  Sb  Sb83  1  0.49638396  0.67272124  0.49957464  1
  Sb  Sb84  1  0.49601169  0.66723352  0.83214515  1
  Sb  Sb85  1  0.00594279  0.49732148  0.82771470  1
  Sb  Sb86  1  0.83679834  0.50330215  0.65977641  1
  Sb  Sb87  1  0.66970397  -0.00310375  0.66577670  1
  Sb  Sb88  1  0.33583944  0.33583472  -0.00142263  1
  Sb  Sb89  1  0.84053087  0.83494997  -0.00091475  1
  Sb  Sb90  1  0.16324865  0.32555624  0.82744352  1
  Sb  Sb91  1  0.32659951  -0.00276461  0.00231141  1
  Sb  Sb92  1  0.49507670  0.50539360  0.33337004  1
  Sb  Sb93  1  0.66475834  0.50546517  0.17165356  1
  Sb  Sb94  1  0.16785673  0.33417372  0.17259354  1
  Sb  Sb95  1  0.49289942  0.15838353  0.32970848  1
  Sb  Sb96  1  0.84296679  0.16138457  0.34085774  1
  Sb  Sb97  1  0.49541946  0.00078566  0.83301383  1
  Sb  Sb98  1  0.83891154  0.33021953  0.50291831  1
  Sb  Sb99  1  0.33056340  -0.00644561  0.66121712  1
  Sb  Sb100  1  0.00003198  0.83446498  0.49409154  1
  Sb  Sb101  1  -0.00189069  0.33421120  0.66071749  1
  Sb  Sb102  1  0.00139226  0.50371003  0.17580736  1
  Sb  Sb103  1  0.49444338  0.67061968  0.16935639  1
  Sb  Sb104  1  0.33228052  0.83224285  0.50154654  1
  Sb  Sb105  1  0.49671461  0.32817499  0.49574127  1
  Sb  Sb106  1  0.16266039  0.16293201  0.66174781  1
  Sb  Sb107  1  0.50384446  0.33125754  0.83625994  1
  Te  Te108  1  0.16136558  0.16860966  0.16340824  1
  Te  Te109  1  0.16596816  0.15559875  0.50169289  1
  Te  Te110  1  0.16516324  0.16245268  0.83093391  1
  Te  Te111  1  0.16731289  0.50473780  0.17034402  1
  Te  Te112  1  0.16552991  0.50250893  0.49971659  1
  Te  Te113  1  0.17231448  0.49374835  0.83158643  1
  Te  Te114  1  0.16323191  0.82937559  0.16443302  1
  Te  Te115  1  0.16612235  0.83921589  0.49943579  1
  Te  Te116  1  0.16951598  0.84060136  0.83822094  1
  Te  Te117  1  0.50036400  0.16403951  0.16202884  1
  Te  Te118  1  0.49766627  0.15947495  0.49964382  1
  Te  Te119  1  0.49138576  0.16519011  0.83758660  1
  Te  Te120  1  0.50050611  0.49850819  0.16198232  1
  Te  Te121  1  0.50542480  0.49610758  0.49983874  1
  Te  Te122  1  0.49258461  0.49871481  0.83740705  1
  Te  Te123  1  0.50182666  0.83694369  0.17048868  1
  Te  Te124  1  0.50289682  0.83736413  0.49824134  1
  Te  Te125  1  0.49366399  0.83490494  0.83203685  1
  Te  Te126  1  0.84151362  0.16547120  0.16687514  1
  Te  Te127  1  0.83603801  0.16114137  0.50766629  1
  Te  Te128  1  0.83567223  0.16428801  0.83010101  1
  Te  Te129  1  0.83164386  0.49909604  0.17726194  1
  Te  Te130  1  0.82825162  0.49763643  0.49585821  1
  Te  Te131  1  0.83414423  0.49628486  0.83209835  1
  Te  Te132  1  0.83472402  0.83437864  0.16964255  1
  Te  Te133  1  0.83030224  0.83660628  0.50050941  1
  Te  Te134  1  0.83253063  0.83990995  0.83005076  1
  Te  Te135  1  0.16321611  -0.00004102  0.00300202  1
  Te  Te136  1  0.16539596  -0.00033147  0.33140279  1
  Te  Te137  1  0.16649431  -0.00740390  0.66934065  1
  Te  Te138  1  0.16666543  0.32900847  0.00157267  1
  Te  Te139  1  0.16226188  0.32296162  0.33693082  1
  Te  Te140  1  0.16651287  0.33728208  0.65970860  1
  Te  Te141  1  0.16732629  0.66880883  -0.00543226  1
  Te  Te142  1  0.16532272  0.67308166  0.33733325  1
  Te  Te143  1  0.16672676  0.67018526  0.66619578  1
  Te  Te144  1  0.49953921  0.00430570  0.00195889  1
  Te  Te145  1  0.50111964  -0.00474690  0.33440710  1
  Te  Te146  1  0.49945104  -0.00678512  0.66221614  1
  Te  Te147  1  0.50185455  0.33073942  0.00239417  1
  Te  Te148  1  0.50097949  0.33213245  0.32729756  1
  Te  Te149  1  0.50786458  0.33322076  0.66488632  1
  Te  Te150  1  0.49467658  0.66410358  0.00140503  1
  Te  Te151  1  0.50575155  0.67310229  0.33251415  1
  Te  Te152  1  0.50430307  0.67330396  0.66643396  1
  Te  Te153  1  0.84096626  0.00003910  -0.00425519  1
  Te  Te154  1  0.83921166  -0.00577874  0.33815115  1
  Te  Te155  1  0.83456191  -0.00228597  0.66527861  1
  Te  Te156  1  0.82673961  0.33446216  -0.00453365  1
  Te  Te157  1  0.83986954  0.33397413  0.33390600  1
  Te  Te158  1  0.83077404  0.33492457  0.66999105  1
  Te  Te159  1  0.83962037  0.66565937  0.00018045  1
  Te  Te160  1  0.82993488  0.66941429  0.33420522  1
  Te  Te161  1  0.82905999  0.67207856  0.66622666  1
  Te  Te162  1  0.00405675  0.16560687  -0.00438533  1
  Te  Te163  1  0.00198939  0.16199198  0.33665919  1
  Te  Te164  1  -0.00408360  0.16756718  0.66615024  1
  Te  Te165  1  0.00009069  0.50218418  0.00106483  1
  Te  Te166  1  0.00301542  0.50498799  0.33617365  1
  Te  Te167  1  0.00467668  0.50573574  0.66106576  1
  Te  Te168  1  0.00419633  0.83373681  0.00239083  1
  Te  Te169  1  0.00077771  0.83268302  0.33327097  1
  Te  Te170  1  0.00030267  0.82731401  0.66914520  1
  Te  Te171  1  0.32948230  0.16581798  -0.00101988  1
  Te  Te172  1  0.32691152  0.16554585  0.33724716  1
  Te  Te173  1  0.33413564  0.16751672  0.66587437  1
  Te  Te174  1  0.33651886  0.50425200  -0.00243166  1
  Te  Te175  1  0.32828399  0.50451735  0.33911750  1
  Te  Te176  1  0.33123327  0.50413196  0.66541375  1
  Te  Te177  1  0.32829262  0.82949472  -0.00335985  1
  Te  Te178  1  0.33153761  0.83193280  0.33367253  1
  Te  Te179  1  0.33085118  0.82909387  0.66851660  1
  Te  Te180  1  0.66416493  0.17044205  -0.00377653  1
  Te  Te181  1  0.66894313  0.16900307  0.33195171  1
  Te  Te182  1  0.66957683  0.16960654  0.67161576  1
  Te  Te183  1  0.66195528  0.49625595  -0.00051344  1
  Te  Te184  1  0.66351156  0.50625409  0.33903965  1
  Te  Te185  1  0.66604163  0.50286665  0.66216486  1
  Te  Te186  1  0.66611742  0.83228961  0.00014911  1
  Te  Te187  1  0.66789391  0.83297704  0.33528035  1
  Te  Te188  1  0.66705156  0.83052148  0.66548543  1
  Te  Te189  1  -0.00029643  -0.00191704  0.16629938  1
  Te  Te190  1  0.00102701  0.00194246  0.49732954  1
  Te  Te191  1  0.00239273  0.00328669  0.83298867  1
  Te  Te192  1  -0.00053118  0.32881142  0.17219512  1
  Te  Te193  1  0.00422606  0.33297291  0.49584144  1
  Te  Te194  1  -0.00543148  0.32843008  0.83336268  1
  Te  Te195  1  0.00480324  0.66988463  0.16746905  1
  Te  Te196  1  0.00383492  0.66427458  0.49818533  1
  Te  Te197  1  -0.00043199  0.66424190  0.83844817  1
  Te  Te198  1  0.34111642  0.00035148  0.17440885  1
  Te  Te199  1  0.33136649  0.00203573  0.49717849  1
  Te  Te200  1  0.32820125  0.00012224  0.83390728  1
  Te  Te201  1  0.34117575  0.33321401  0.16708935  1
  Te  Te202  1  0.32859161  0.33104184  0.50028509  1
  Te  Te203  1  0.33253012  0.32558244  0.83254094  1
  Te  Te204  1  0.32676351  0.66745310  0.16700829  1
  Te  Te205  1  0.33077997  0.66407395  0.50094449  1
  Te  Te206  1  0.33329075  0.66706222  0.83096540  1
  Te  Te207  1  0.66356142  -0.00582940  0.16540790  1
  Te  Te208  1  0.66745589  -0.00466423  0.50075033  1
  Te  Te209  1  0.66790000  0.00722197  0.83342202  1
  Te  Te210  1  0.66380948  0.33356354  0.16398500  1
  Te  Te211  1  0.66600014  0.33196358  0.50430781  1
  Te  Te212  1  0.66974097  0.33026001  0.83211736  1
  Te  Te213  1  0.66666082  0.67312874  0.16681745  1
  Te  Te214  1  0.66481798  0.66975927  0.49986240  1
  Te  Te215  1  0.66735360  0.66573865  0.83121639  1
