# generated using pymatgen
data_AgSbTe2
_symmetry_space_group_name_H-M   'P 1'
_cell_length_a   18.33311685
_cell_length_b   18.33659452
_cell_length_c   18.33643138
_cell_angle_alpha   89.99749849
_cell_angle_beta   89.99511858
_cell_angle_gamma   90.00140163
_symmetry_Int_Tables_number   1
_chemical_formula_structural   AgSbTe2
_chemical_formula_sum   'Ag54 Sb54 Te108'
_cell_volume   6164.10181449
_cell_formula_units_Z   54
loop_
 _symmetry_equiv_pos_site_id
 _symmetry_equiv_pos_as_xyz
  1  'x, y, z'
loop_
 _atom_site_type_symbol
 _atom_site_label
 _atom_site_symmetry_multiplicity
 _atom_site_fract_x
 _atom_site_fract_y
 _atom_site_fract_z
 _atom_site_occupancy
  Ag  Ag0  1  0.66430572  0.16753058  0.16048439  1
  Ag  Ag1  1  -0.01461101  0.66472790  -0.00362834  1
  Ag  Ag2  1  0.66377364  0.66137443  0.67423179  1
  Ag  Ag3  1  0.49387918  0.00221548  0.83421293  1
  Ag  Ag4  1  0.16657211  0.49776820  -0.00703009  1
  Ag  Ag5  1  0.83196949  0.82944371  0.67889672  1
  Ag  Ag6  1  0.83035573  0.50704490  -0.00418904  1
  Ag  Ag7  1  -0.00332114  0.33438229  0.67125530  1
  Ag  Ag8  1  0.66922193  0.50165994  0.16518733  1
  Ag  Ag9  1  0.33111950  0.50140834  0.83622889  1
  Ag  Ag10  1  0.67507464  0.82726498  0.83713938  1
  Ag  Ag11  1  0.66343230  0.82993637  0.15512044  1
  Ag  Ag12  1  0.50710474  0.49497088  0.33672477  1
  Ag  Ag13  1  0.34397428  0.33228729  0.33339033  1
  Ag  Ag14  1  -0.00734308  0.82866737  0.83398781  1
  Ag  Ag15  1  0.82881789  0.66348064  0.83616666  1
  Ag  Ag16  1  -0.00341748  0.66483859  0.32922423  1
  Ag  Ag17  1  0.82608519  0.16928619  -0.00474789  1
  Ag  Ag18  1  0.16859735  0.49442262  0.67490488  1
  Ag  Ag19  1  0.50042965  0.83244787  0.33428919  1
  Ag  Ag20  1  0.33578889  0.00177631  -0.00464963  1
  Ag  Ag21  1  0.50150781  0.66931737  0.50068361  1
  Ag  Ag22  1  0.17087184  -0.00004117  0.15082442  1
  Ag  Ag23  1  0.33254791  0.83560546  0.83625838  1
  Ag  Ag24  1  0.49708097  0.00652668  0.50323981  1
  Ag  Ag25  1  0.50085609  0.16872863  0.34168560  1
  Ag  Ag26  1  0.34059913  0.16706803  0.51033673  1
  Ag  Ag27  1  0.66628859  0.49248290  0.49982770  1
  Ag  Ag28  1  0.17297595  0.00490875  0.83316265  1
  Ag  Ag29  1  0.33859017  0.83374769  0.15415106  1
  Ag  Ag30  1  0.82261870  0.33484854  0.50960470  1
  Ag  Ag31  1  0.65778077  0.17360963  0.49986006  1
  Ag  Ag32  1  0.17654504  0.00881559  0.50958797  1
  Ag  Ag33  1  0.32931668  0.16433997  0.83530658  1
  Ag  Ag34  1  0.83240674  0.34326675  0.83111277  1
  Ag  Ag35  1  0.82395670  0.49990039  0.32778007  1
  Ag  Ag36  1  0.00999214  0.16694840  0.83402814  1
  Ag  Ag37  1  0.82529168  0.81936156  -0.00485257  1
  Ag  Ag38  1  0.82886210  0.66526534  0.14909152  1
  Ag  Ag39  1  0.33093185  0.32522431  -0.00500442  1
  Ag  Ag40  1  0.33461289  0.66991230  -0.00857042  1
  Ag  Ag41  1  0.17426280  0.16679549  0.67275175  1
  Ag  Ag42  1  -0.00390946  0.50217965  0.83482388  1
  Ag  Ag43  1  0.67393510  0.67159551  -0.00553860  1
  Ag  Ag44  1  0.16688701  0.83537218  0.67293561  1
  Ag  Ag45  1  0.66281140  0.33794802  0.34108175  1
  Ag  Ag46  1  0.67095129  0.33819642  0.66236785  1
  Ag  Ag47  1  0.16690595  0.32870633  0.50429894  1
  Ag  Ag48  1  0.67178021  0.50577247  0.83446418  1
  Ag  Ag49  1  0.49504679  0.16644423  0.66372355  1
  Ag  Ag50  1  0.33674924  0.66539607  0.67507484  1
  Ag  Ag51  1  0.17514241  0.16621636  -0.01035798  1
  Ag  Ag52  1  0.66264516  -0.00670443  -0.00152467  1
  Ag  Ag53  1  0.49806614  0.16323519  -0.00687478  1
  Sb  Sb54  1  0.50287899  0.32849986  0.83318981  1
  Sb  Sb55  1  0.00250814  0.33766727  -0.00864535  1
  Sb  Sb56  1  0.33884820  0.50448907  0.15928059  1
  Sb  Sb57  1  0.83325218  -0.00482349  0.16231559  1
  Sb  Sb58  1  0.33667269  0.00443837  0.33009513  1
  Sb  Sb59  1  -0.00450934  0.33763785  0.34215203  1
  Sb  Sb60  1  0.50281761  0.67081882  0.83138995  1
  Sb  Sb61  1  0.50181182  0.33151009  0.16837976  1
  Sb  Sb62  1  0.17375185  0.16726788  0.33580163  1
  Sb  Sb63  1  0.33351179  0.33307637  0.66901663  1
  Sb  Sb64  1  0.50312195  0.83726700  -0.00088837  1
  Sb  Sb65  1  0.82441687  0.17575931  0.32928672  1
  Sb  Sb66  1  0.50231237  0.32990905  0.49953804  1
  Sb  Sb67  1  0.82720621  0.82358535  0.32854878  1
  Sb  Sb68  1  0.16415989  0.66991122  0.16175881  1
  Sb  Sb69  1  0.66547946  0.33438266  -0.00233283  1
  Sb  Sb70  1  0.33802882  0.16279180  0.16067903  1
  Sb  Sb71  1  0.17158041  0.66492774  0.50420445  1
  Sb  Sb72  1  0.66482645  0.16639970  0.83444065  1
  Sb  Sb73  1  0.50252081  0.49684665  0.00059899  1
  Sb  Sb74  1  0.00389980  0.00355725  0.67082429  1
  Sb  Sb75  1  -0.00144881  0.66331136  0.67364291  1
  Sb  Sb76  1  0.00123727  -0.00337319  -0.00427518  1
  Sb  Sb77  1  0.66495480  0.83304766  0.50283358  1
  Sb  Sb78  1  -0.00422138  0.16620417  0.15620105  1
  Sb  Sb79  1  0.16797944  0.83444129  -0.00760675  1
  Sb  Sb80  1  0.50659973  0.66872898  0.16746436  1
  Sb  Sb81  1  0.66446352  -0.00033924  0.67292797  1
  Sb  Sb82  1  0.00259535  -0.00398588  0.33369052  1
  Sb  Sb83  1  0.49880466  0.83569102  0.66706454  1
  Sb  Sb84  1  0.00295107  0.16888170  0.50660257  1
  Sb  Sb85  1  0.83139687  -0.00343438  0.83607078  1
  Sb  Sb86  1  0.49770931  -0.00040607  0.16294633  1
  Sb  Sb87  1  0.82969768  0.33912849  0.16119649  1
  Sb  Sb88  1  0.33305041  -0.00090731  0.67572344  1
  Sb  Sb89  1  -0.00552138  0.50264729  0.15882736  1
  Sb  Sb90  1  0.00091645  0.83166169  0.50837203  1
  Sb  Sb91  1  0.82845102  0.00678880  0.50202332  1
  Sb  Sb92  1  0.82609302  0.66067895  0.50548981  1
  Sb  Sb93  1  0.83254167  0.50038860  0.67356616  1
  Sb  Sb94  1  0.17147806  0.83336886  0.33578615  1
  Sb  Sb95  1  0.33435740  0.66310510  0.33315970  1
  Sb  Sb96  1  0.33796853  0.49441429  0.50384737  1
  Sb  Sb97  1  0.16889689  0.32907629  0.16624159  1
  Sb  Sb98  1  0.16669612  0.66687534  0.83382637  1
  Sb  Sb99  1  0.33475585  0.83971567  0.50450296  1
  Sb  Sb100  1  0.83282882  0.16809601  0.67244430  1
  Sb  Sb101  1  0.16244322  0.33163235  0.82763992  1
  Sb  Sb102  1  0.50078316  0.49720529  0.66455361  1
  Sb  Sb103  1  0.16785490  0.49821696  0.33381988  1
  Sb  Sb104  1  -0.00101691  0.83070663  0.15840968  1
  Sb  Sb105  1  -0.00506464  0.49985596  0.50658534  1
  Sb  Sb106  1  0.66778853  0.65911637  0.33087091  1
  Sb  Sb107  1  0.66362285  0.00415826  0.32737277  1
  Te  Te108  1  0.16508809  0.16066891  0.16526885  1
  Te  Te109  1  0.16801482  0.16670348  0.50212726  1
  Te  Te110  1  0.16826961  0.16799991  0.83314385  1
  Te  Te111  1  0.16774574  0.49984231  0.15941669  1
  Te  Te112  1  0.16720879  0.49645908  0.50399448  1
  Te  Te113  1  0.16981974  0.49921368  0.83453376  1
  Te  Te114  1  0.16991624  0.83820130  0.16759894  1
  Te  Te115  1  0.16689714  0.83717547  0.50663738  1
  Te  Te116  1  0.17253120  0.83438841  0.83055490  1
  Te  Te117  1  0.50561495  0.16478776  0.16796870  1
  Te  Te118  1  0.49947676  0.16618277  0.50107812  1
  Te  Te119  1  0.49774171  0.16315329  0.83395730  1
  Te  Te120  1  0.50736735  0.50108555  0.17312286  1
  Te  Te121  1  0.50422848  0.50462007  0.49742350  1
  Te  Te122  1  0.49785176  0.49868305  0.83282295  1
  Te  Te123  1  0.50131607  0.83433782  0.17279959  1
  Te  Te124  1  0.50029626  0.83518419  0.49652280  1
  Te  Te125  1  0.49257207  0.84037742  0.83197044  1
  Te  Te126  1  0.82748615  0.16660763  0.16055002  1
  Te  Te127  1  0.83123984  0.17365514  0.49961377  1
  Te  Te128  1  0.83435832  0.16382184  0.83614049  1
  Te  Te129  1  0.82882160  0.50441982  0.16355303  1
  Te  Te130  1  0.82821951  0.49484379  0.49987477  1
  Te  Te131  1  0.83252355  0.50221738  0.83410546  1
  Te  Te132  1  0.82896406  0.82808947  0.16054782  1
  Te  Te133  1  0.83386297  0.83542345  0.50139538  1
  Te  Te134  1  0.83361530  0.83488882  0.83621969  1
  Te  Te135  1  0.16785517  0.00101550  -0.00582384  1
  Te  Te136  1  0.16820475  -0.00102752  0.34181738  1
  Te  Te137  1  0.16754595  0.00193365  0.66845634  1
  Te  Te138  1  0.16991698  0.33243842  0.00165353  1
  Te  Te139  1  0.16664758  0.33362133  0.33948451  1
  Te  Te140  1  0.16847581  0.33234809  0.66339586  1
  Te  Te141  1  0.17624431  0.66162571  0.00079363  1
  Te  Te142  1  0.16043948  0.66625816  0.33317027  1
  Te  Te143  1  0.17019036  0.66693313  0.66532374  1
  Te  Te144  1  0.49939589  0.00331475  -0.00234265  1
  Te  Te145  1  0.50064744  0.00373859  0.33789918  1
  Te  Te146  1  0.49942314  0.00508248  0.66601711  1
  Te  Te147  1  0.49299436  0.32587254  0.00101997  1
  Te  Te148  1  0.50207695  0.33270973  0.33323842  1
  Te  Te149  1  0.50643163  0.32716268  0.66700543  1
  Te  Te150  1  0.49373071  0.66556455  0.00024516  1
  Te  Te151  1  0.49982731  0.66725735  0.33752942  1
  Te  Te152  1  0.50083660  0.66679776  0.66303153  1
  Te  Te153  1  0.82929028  0.00848585  0.00160087  1
  Te  Te154  1  0.83432912  -0.00111892  0.33279774  1
  Te  Te155  1  0.83373601  -0.00954403  0.66533850  1
  Te  Te156  1  0.83466257  0.33093238  -0.00551423  1
  Te  Te157  1  0.82862311  0.34112764  0.33489944  1
  Te  Te158  1  0.83262737  0.33343484  0.66928485  1
  Te  Te159  1  0.82985871  0.66363752  -0.00642879  1
  Te  Te160  1  0.83674674  0.65996674  0.33765640  1
  Te  Te161  1  0.83067532  0.67029596  0.67154399  1
  Te  Te162  1  0.00145598  0.16726548  -0.00643740  1
  Te  Te163  1  -0.00296908  0.16686373  0.33138709  1
  Te  Te164  1  0.00210839  0.17225085  0.67344843  1
  Te  Te165  1  0.00021429  0.50359900  -0.00554010  1
  Te  Te166  1  -0.00161111  0.50397113  0.33302106  1
  Te  Te167  1  0.00653744  0.49694177  0.67308617  1
  Te  Te168  1  -0.00312102  0.82806519  -0.00627947  1
  Te  Te169  1  -0.00142235  0.82728502  0.33306943  1
  Te  Te170  1  0.00257635  0.83163622  0.67443199  1
  Te  Te171  1  0.33366067  0.16500475  -0.00052633  1
  Te  Te172  1  0.33928267  0.17221845  0.33067511  1
  Te  Te173  1  0.33351390  0.16728383  0.66869528  1
  Te  Te174  1  0.33408597  0.50085483  -0.00286093  1
  Te  Te175  1  0.33656367  0.49427019  0.33185549  1
  Te  Te176  1  0.33097530  0.50244061  0.67053279  1
  Te  Te177  1  0.33401041  0.83494208  -0.00208454  1
  Te  Te178  1  0.33867443  0.83245475  0.33332937  1
  Te  Te179  1  0.33002705  0.82690219  0.67044689  1
  Te  Te180  1  0.66405848  0.16947391  0.00040156  1
  Te  Te181  1  0.66242889  0.17070547  0.33471703  1
  Te  Te182  1  0.66623823  0.16772102  0.66464561  1
  Te  Te183  1  0.66803639  0.50045460  -0.00157549  1
  Te  Te184  1  0.66623625  0.49905910  0.33417975  1
  Te  Te185  1  0.66631096  0.50048629  0.66918636  1
  Te  Te186  1  0.66535254  0.83203236  -0.00180690  1
  Te  Te187  1  0.66260967  0.83340165  0.33164073  1
  Te  Te188  1  0.66803796  0.83031715  0.67079864  1
  Te  Te189  1  0.01010005  -0.00121074  0.16715250  1
  Te  Te190  1  0.00424338  0.00020440  0.50044787  1
  Te  Te191  1  0.00721083  0.00077277  0.83322565  1
  Te  Te192  1  -0.00068355  0.33368121  0.17061470  1
  Te  Te193  1  0.00244280  0.33400331  0.50879754  1
  Te  Te194  1  -0.00553797  0.33540291  0.82982831  1
  Te  Te195  1  -0.00601873  0.66749626  0.16265329  1
  Te  Te196  1  -0.00009835  0.66613125  0.49685485  1
  Te  Te197  1  -0.00293951  0.66643145  0.83638124  1
  Te  Te198  1  0.33032407  -0.00530491  0.16122687  1
  Te  Te199  1  0.33509130  0.00613105  0.49798038  1
  Te  Te200  1  0.33319304  0.00260374  0.83634750  1
  Te  Te201  1  0.33296458  0.33494170  0.16857242  1
  Te  Te202  1  0.32928830  0.32873921  0.49930649  1
  Te  Te203  1  0.33509111  0.33366409  0.83591309  1
  Te  Te204  1  0.33356836  0.67325610  0.16507773  1
  Te  Te205  1  0.33918728  0.66631752  0.50118625  1
  Te  Te206  1  0.33500347  0.66494592  0.83237427  1
  Te  Te207  1  0.66651053  -0.00161071  0.15968074  1
  Te  Te208  1  0.66192157  0.00530848  0.49979280  1
  Te  Te209  1  0.66313528  -0.00416870  0.83913224  1
  Te  Te210  1  0.66798137  0.33430956  0.17085414  1
  Te  Te211  1  0.66606703  0.33356597  0.50117451  1
  Te  Te212  1  0.67089931  0.33645117  0.82998324  1
  Te  Te213  1  0.66980020  0.66621541  0.16417502  1
  Te  Te214  1  0.66246808  0.66514111  0.50461148  1
  Te  Te215  1  0.66497440  0.66723948  0.83418381  1
