# generated using pymatgen
data_AgSbTe2
_symmetry_space_group_name_H-M   'P 1'
_cell_length_a   18.34751777
_cell_length_b   18.34487592
_cell_length_c   18.34404135
_cell_angle_alpha   90.00212524
_cell_angle_beta   90.00049858
_cell_angle_gamma   89.99944503
_symmetry_Int_Tables_number   1
_chemical_formula_structural   AgSbTe2
_chemical_formula_sum   'Ag54 Sb54 Te108'
_cell_volume   6174.29130880
_cell_formula_units_Z   54
loop_
 _symmetry_equiv_pos_site_id
 _symmetry_equiv_pos_as_xyz
  1  'x, y, z'
loop_
 _atom_site_type_symbol
 _atom_site_label
 _atom_site_symmetry_multiplicity
 _atom_site_fract_x
 _atom_site_fract_y
 _atom_site_fract_z
 _atom_site_occupancy
  Ag  Ag0  1  0.65426511  0.33320150  0.67168479  1
  Ag  Ag1  1  0.00755349  0.51346363  0.83351451  1
  Ag  Ag2  1  0.33011890  0.66944224  -0.00075483  1
  Ag  Ag3  1  0.32918980  -0.00236805  0.33091960  1
  Ag  Ag4  1  0.82510039  0.34207041  0.50195946  1
  Ag  Ag5  1  0.00540247  0.67110279  -0.00798490  1
  Ag  Ag6  1  0.83313697  0.51396311  -0.00536627  1
  Ag  Ag7  1  0.16068690  0.66567691  0.83592802  1
  Ag  Ag8  1  0.17058473  0.16385542  0.33986019  1
  Ag  Ag9  1  0.49270611  0.34206258  0.82624003  1
  Ag  Ag10  1  0.49604900  -0.01081399  0.16614810  1
  Ag  Ag11  1  0.17064048  0.82764847  0.33247570  1
  Ag  Ag12  1  0.16849425  0.66956493  0.48713718  1
  Ag  Ag13  1  0.48824022  0.65937435  0.49348067  1
  Ag  Ag14  1  0.66690956  0.17040119  0.83191199  1
  Ag  Ag15  1  0.49667451  0.66213846  0.84127768  1
  Ag  Ag16  1  0.16988024  0.66684198  0.17264793  1
  Ag  Ag17  1  0.17087511  0.51341793  0.33534875  1
  Ag  Ag18  1  0.49706639  0.82731419  0.00304817  1
  Ag  Ag19  1  0.84596966  0.66936811  0.83743004  1
  Ag  Ag20  1  0.33534220  0.33539601  0.66342465  1
  Ag  Ag21  1  0.16800007  0.33865179  0.16656634  1
  Ag  Ag22  1  0.83923944  0.66379140  0.50430942  1
  Ag  Ag23  1  0.84061885  0.16951090  0.66994972  1
  Ag  Ag24  1  0.49028206  0.67072215  0.16350244  1
  Ag  Ag25  1  0.33114932  0.49898333  0.82982398  1
  Ag  Ag26  1  0.16755943  0.16681328  0.66801068  1
  Ag  Ag27  1  0.33620477  0.49691713  0.49676624  1
  Ag  Ag28  1  0.16875006  -0.00949664  0.49342208  1
  Ag  Ag29  1  0.49058143  0.82273351  0.32220282  1
  Ag  Ag30  1  0.83344320  -0.00315322  0.15952128  1
  Ag  Ag31  1  0.00348159  0.66732026  0.67974837  1
  Ag  Ag32  1  0.33410957  -0.01165533  0.00214257  1
  Ag  Ag33  1  0.33029131  0.17631062  0.50150849  1
  Ag  Ag34  1  -0.00020206  0.82492316  0.83927355  1
  Ag  Ag35  1  0.65378555  0.33428056  0.33906677  1
  Ag  Ag36  1  0.00265856  0.83039137  0.15933207  1
  Ag  Ag37  1  0.83749357  0.83003312  -0.00477984  1
  Ag  Ag38  1  0.17363637  0.34105742  0.83491201  1
  Ag  Ag39  1  0.32747550  0.17533263  0.82961811  1
  Ag  Ag40  1  0.33319730  0.34552812  0.34231774  1
  Ag  Ag41  1  0.01600000  0.67107134  0.33229563  1
  Ag  Ag42  1  0.67334762  0.82573483  0.83737739  1
  Ag  Ag43  1  0.16429680  0.82760887  -0.00032449  1
  Ag  Ag44  1  0.16498019  0.82387983  0.66978677  1
  Ag  Ag45  1  0.00246676  0.16614636  0.83191665  1
  Ag  Ag46  1  0.49646461  0.49821524  0.66381150  1
  Ag  Ag47  1  0.32980130  0.66346375  0.33215991  1
  Ag  Ag48  1  0.83585308  -0.01113506  0.83770719  1
  Ag  Ag49  1  0.66721348  0.66799534  -0.00417857  1
  Ag  Ag50  1  0.01277339  -0.01145066  0.33137483  1
  Ag  Ag51  1  0.66603183  0.33931865  -0.01064710  1
  Ag  Ag52  1  0.49532741  0.34067551  0.50742708  1
  Ag  Ag53  1  0.48693462  0.50670682  0.33996655  1
  Sb  Sb54  1  0.66829812  0.00650111  0.67041144  1
  Sb  Sb55  1  0.17323231  0.33696945  0.50159344  1
  Sb  Sb56  1  0.00301046  0.15953659  0.16353612  1
  Sb  Sb57  1  0.66714046  0.83138668  0.16095497  1
  Sb  Sb58  1  0.00408299  0.33667855  0.66867491  1
  Sb  Sb59  1  0.33100949  0.16530387  0.16754969  1
  Sb  Sb60  1  0.66231247  0.00409764  0.33175250  1
  Sb  Sb61  1  0.66372530  -0.00521000  -0.00215234  1
  Sb  Sb62  1  0.49161901  0.16935101  0.33485873  1
  Sb  Sb63  1  0.83159916  0.33636212  0.82975940  1
  Sb  Sb64  1  0.50057189  -0.00280680  0.83652021  1
  Sb  Sb65  1  0.83883315  0.16723765  0.34043709  1
  Sb  Sb66  1  0.16827168  0.16243728  -0.00340551  1
  Sb  Sb67  1  0.66906669  0.66283774  0.67336648  1
  Sb  Sb68  1  0.00318682  0.82853046  0.50059013  1
  Sb  Sb69  1  0.49537616  0.17409773  0.66853196  1
  Sb  Sb70  1  0.00397495  -0.00901990  0.00159039  1
  Sb  Sb71  1  0.49304961  0.82322341  0.67069780  1
  Sb  Sb72  1  0.66172949  0.17180613  0.50427596  1
  Sb  Sb73  1  0.00373551  -0.00402888  0.66665355  1
  Sb  Sb74  1  0.83667469  0.67149957  0.15983798  1
  Sb  Sb75  1  0.65925888  0.66338860  0.33025295  1
  Sb  Sb76  1  0.83080274  0.49812072  0.67003232  1
  Sb  Sb77  1  0.50123762  0.50736273  -0.00101276  1
  Sb  Sb78  1  0.84127001  -0.00204604  0.50224322  1
  Sb  Sb79  1  0.83735128  0.83188667  0.32833629  1
  Sb  Sb80  1  0.83300296  0.16268160  -0.00926516  1
  Sb  Sb81  1  0.83832961  0.83342600  0.67431975  1
  Sb  Sb82  1  0.01006499  0.33634488  0.33488264  1
  Sb  Sb83  1  0.00568165  0.50278085  0.50461664  1
  Sb  Sb84  1  0.49896356  0.16414392  -0.00224366  1
  Sb  Sb85  1  0.00296420  0.50935710  0.16161179  1
  Sb  Sb86  1  0.66594498  0.50077701  0.16526369  1
  Sb  Sb87  1  0.66656175  0.16807378  0.16097315  1
  Sb  Sb88  1  0.32953062  0.82787758  0.83665790  1
  Sb  Sb89  1  0.66412078  0.50066270  0.83419330  1
  Sb  Sb90  1  0.16576853  0.50790967  -0.00081596  1
  Sb  Sb91  1  0.49542509  0.33802609  0.16816687  1
  Sb  Sb92  1  0.16815296  -0.00705171  0.17208391  1
  Sb  Sb93  1  0.33075298  0.00691975  0.66681920  1
  Sb  Sb94  1  0.32807903  0.83085341  0.16694492  1
  Sb  Sb95  1  0.83702237  0.32911417  0.16901989  1
  Sb  Sb96  1  0.83657556  0.50172465  0.33201076  1
  Sb  Sb97  1  0.33603345  0.33842678  -0.00346214  1
  Sb  Sb98  1  0.33037941  0.82807177  0.49709040  1
  Sb  Sb99  1  0.00839080  0.16790603  0.50384058  1
  Sb  Sb100  1  0.32829387  0.66095473  0.66628929  1
  Sb  Sb101  1  0.17174294  0.50098946  0.66675039  1
  Sb  Sb102  1  0.66458253  0.83007257  0.50589722  1
  Sb  Sb103  1  0.48945131  -0.00189190  0.49334195  1
  Sb  Sb104  1  0.65769978  0.49980729  0.50010580  1
  Sb  Sb105  1  0.16433068  -0.00384216  0.83131623  1
  Sb  Sb106  1  0.33234874  0.50283909  0.16819444  1
  Sb  Sb107  1  -0.00240947  0.34053570  -0.00375480  1
  Te  Te108  1  0.16577456  0.17158961  0.16873248  1
  Te  Te109  1  0.17080711  0.17063760  0.50126703  1
  Te  Te110  1  0.16796173  0.16258143  0.83172779  1
  Te  Te111  1  0.16614410  0.50092338  0.17156505  1
  Te  Te112  1  0.17271292  0.50478187  0.49839143  1
  Te  Te113  1  0.16738700  0.50017412  0.83353392  1
  Te  Te114  1  0.16235253  0.82840855  0.16747252  1
  Te  Te115  1  0.16675115  0.83056259  0.49893339  1
  Te  Te116  1  0.16371657  0.83154395  0.83439638  1
  Te  Te117  1  0.50006151  0.15919161  0.16662827  1
  Te  Te118  1  0.49243585  0.16967281  0.50072850  1
  Te  Te119  1  0.50203857  0.16761905  0.83307277  1
  Te  Te120  1  0.49972747  0.50638256  0.17468892  1
  Te  Te121  1  0.49582528  0.49934676  0.49897555  1
  Te  Te122  1  0.49755748  0.50010511  0.83418043  1
  Te  Te123  1  0.50251202  0.83037893  0.16533930  1
  Te  Te124  1  0.49907445  0.82757691  0.49907960  1
  Te  Te125  1  0.50086644  0.82922023  0.83755669  1
  Te  Te126  1  0.83466643  0.15917698  0.16729857  1
  Te  Te127  1  0.83371859  0.16555193  0.50778494  1
  Te  Te128  1  0.83275731  0.16983612  0.82866192  1
  Te  Te129  1  0.83489073  0.49782756  0.15874160  1
  Te  Te130  1  0.83486173  0.50252113  0.50105637  1
  Te  Te131  1  0.83706970  0.50419627  0.83571860  1
  Te  Te132  1  0.83740269  0.83767766  0.16150462  1
  Te  Te133  1  0.83269667  0.82809629  0.50189843  1
  Te  Te134  1  0.83404212  0.83058353  0.83475714  1
  Te  Te135  1  0.17309575  -0.00630718  0.00261724  1
  Te  Te136  1  0.16948516  -0.00073182  0.33265070  1
  Te  Te137  1  0.16677890  0.00434358  0.65861302  1
  Te  Te138  1  0.16675441  0.33313315  -0.00302277  1
  Te  Te139  1  0.17193067  0.32804260  0.33463672  1
  Te  Te140  1  0.17039747  0.33160172  0.67173350  1
  Te  Te141  1  0.16776081  0.66802760  -0.00426423  1
  Te  Te142  1  0.17122704  0.66956747  0.33141129  1
  Te  Te143  1  0.16397905  0.66636386  0.67694491  1
  Te  Te144  1  0.49622592  -0.00641922  0.00403522  1
  Te  Te145  1  0.49482000  -0.00302852  0.32843736  1
  Te  Te146  1  0.49985305  -0.00398597  0.66385424  1
  Te  Te147  1  0.50547207  0.33482784  -0.00006079  1
  Te  Te148  1  0.49507692  0.33558285  0.33171257  1
  Te  Te149  1  0.49667032  0.33638762  0.66706686  1
  Te  Te150  1  0.49693527  0.66703406  0.00160286  1
  Te  Te151  1  0.49964180  0.66635436  0.33464618  1
  Te  Te152  1  0.50070853  0.66084727  0.66247266  1
  Te  Te153  1  0.83335456  -0.00452947  -0.00207184  1
  Te  Te154  1  0.83355696  0.00055335  0.33287198  1
  Te  Te155  1  0.83570574  0.00642376  0.67099700  1
  Te  Te156  1  0.82793305  0.33227960  0.00191170  1
  Te  Te157  1  0.83407579  0.33335495  0.33818766  1
  Te  Te158  1  0.83514006  0.33085031  0.66240869  1
  Te  Te159  1  0.83377306  0.67067691  -0.00098621  1
  Te  Te160  1  0.82802376  0.66591224  0.33443733  1
  Te  Te161  1  0.83752573  0.66586995  0.66750940  1
  Te  Te162  1  -0.00003222  0.16618847  -0.00591787  1
  Te  Te163  1  0.00708789  0.16580029  0.33268170  1
  Te  Te164  1  0.00378770  0.16623053  0.67030699  1
  Te  Te165  1  -0.00395669  0.50719390  -0.00560178  1
  Te  Te166  1  0.00535987  0.50479824  0.33297239  1
  Te  Te167  1  -0.00016511  0.50547950  0.67299282  1
  Te  Te168  1  0.00153618  0.83066684  -0.00064502  1
  Te  Te169  1  0.00148386  0.83157677  0.33381893  1
  Te  Te170  1  0.00558625  0.82892160  0.67226898  1
  Te  Te171  1  0.33355990  0.16589395  -0.00616175  1
  Te  Te172  1  0.32960651  0.16206190  0.33459531  1
  Te  Te173  1  0.32986872  0.17218296  0.66791208  1
  Te  Te174  1  0.33356509  0.50642660  -0.00783643  1
  Te  Te175  1  0.33126816  0.50233099  0.33263478  1
  Te  Te176  1  0.33663439  0.49588618  0.66897860  1
  Te  Te177  1  0.33333774  0.83010048  -0.00005269  1
  Te  Te178  1  0.33280781  0.83141867  0.33320467  1
  Te  Te179  1  0.32435972  0.83672036  0.66758289  1
  Te  Te180  1  0.66658043  0.17245784  -0.00613516  1
  Te  Te181  1  0.66759277  0.17324811  0.33319523  1
  Te  Te182  1  0.66760810  0.17338992  0.67102937  1
  Te  Te183  1  0.67124915  0.50121711  -0.00016769  1
  Te  Te184  1  0.66841226  0.49244902  0.33251208  1
  Te  Te185  1  0.66033415  0.49243292  0.66705944  1
  Te  Te186  1  0.66550729  0.82960259  -0.00487904  1
  Te  Te187  1  0.66255958  0.83448572  0.33510399  1
  Te  Te188  1  0.66577371  0.83481947  0.67603003  1
  Te  Te189  1  -0.00200547  -0.00537039  0.17043148  1
  Te  Te190  1  0.00595467  0.00047952  0.49206264  1
  Te  Te191  1  -0.00355425  0.00347082  0.83416513  1
  Te  Te192  1  0.00650074  0.33270384  0.16555863  1
  Te  Te193  1  -0.01147018  0.33497457  0.50028111  1
  Te  Te194  1  0.00570638  0.32646308  0.83372780  1
  Te  Te195  1  0.00265479  0.67148000  0.17164556  1
  Te  Te196  1  0.00272917  0.66556875  0.49194067  1
  Te  Te197  1  0.00001220  0.66902076  0.83603348  1
  Te  Te198  1  0.33606895  0.00034079  0.16597853  1
  Te  Te199  1  0.32782512  0.00456577  0.49562308  1
  Te  Te200  1  0.33339312  0.00476343  0.83696065  1
  Te  Te201  1  0.32796968  0.33324265  0.16767738  1
  Te  Te202  1  0.33435466  0.33620847  0.50025908  1
  Te  Te203  1  0.33425574  0.33433009  0.83556067  1
  Te  Te204  1  0.33129625  0.66611748  0.16605570  1
  Te  Te205  1  0.33047286  0.66299081  0.49976525  1
  Te  Te206  1  0.33755115  0.66467087  0.83229962  1
  Te  Te207  1  0.66869825  0.00041924  0.16622584  1
  Te  Te208  1  0.66719776  0.00108277  0.50086010  1
  Te  Te209  1  0.67152122  0.00550624  0.83429792  1
  Te  Te210  1  0.66676006  0.33246197  0.16930486  1
  Te  Te211  1  0.66351073  0.33418643  0.50027289  1
  Te  Te212  1  0.66603686  0.33337306  0.83153973  1
  Te  Te213  1  0.66425473  0.66642355  0.15888436  1
  Te  Te214  1  0.67301258  0.66696158  0.50188719  1
  Te  Te215  1  0.65992438  0.66704207  0.83621681  1
