# generated using pymatgen
data_AgSbTe2
_symmetry_space_group_name_H-M   'P 1'
_cell_length_a   18.33986661
_cell_length_b   18.33948316
_cell_length_c   18.34027651
_cell_angle_alpha   90.00331984
_cell_angle_beta   90.00020826
_cell_angle_gamma   89.99825216
_symmetry_Int_Tables_number   1
_chemical_formula_structural   AgSbTe2
_chemical_formula_sum   'Ag54 Sb54 Te108'
_cell_volume   6168.63598567
_cell_formula_units_Z   54
loop_
 _symmetry_equiv_pos_site_id
 _symmetry_equiv_pos_as_xyz
  1  'x, y, z'
loop_
 _atom_site_type_symbol
 _atom_site_label
 _atom_site_symmetry_multiplicity
 _atom_site_fract_x
 _atom_site_fract_y
 _atom_site_fract_z
 _atom_site_occupancy
  Ag  Ag0  1  0.00236997  -0.00174517  0.33565241  1
  Ag  Ag1  1  0.82873136  0.16682029  0.66917713  1
  Ag  Ag2  1  0.50106181  0.67133390  0.84027991  1
  Ag  Ag3  1  0.00029174  0.50593981  0.17611240  1
  Ag  Ag4  1  0.34497234  0.66278254  0.00663048  1
  Ag  Ag5  1  0.66084852  -0.00325692  0.66919180  1
  Ag  Ag6  1  0.34139675  0.50544572  0.49235362  1
  Ag  Ag7  1  0.33840845  0.34099830  0.00935297  1
  Ag  Ag8  1  0.17527457  0.32786764  0.49812204  1
  Ag  Ag9  1  0.81988663  0.82826489  0.00785705  1
  Ag  Ag10  1  0.33858501  0.33974331  0.33253403  1
  Ag  Ag11  1  0.33717415  0.65936775  0.33727679  1
  Ag  Ag12  1  0.50298125  0.51223184  0.65620208  1
  Ag  Ag13  1  0.34394728  0.66493255  0.65472060  1
  Ag  Ag14  1  -0.00307020  0.16495925  0.82173948  1
  Ag  Ag15  1  0.50350317  0.16638713  0.00780816  1
  Ag  Ag16  1  0.82449231  0.50491789  0.33414866  1
  Ag  Ag17  1  0.49846320  0.50157068  0.33706858  1
  Ag  Ag18  1  0.17402617  0.00269730  0.82400120  1
  Ag  Ag19  1  0.50266518  0.82362133  0.00344988  1
  Ag  Ag20  1  0.17578907  0.16177370  0.33749771  1
  Ag  Ag21  1  0.83097383  0.66452259  0.49810138  1
  Ag  Ag22  1  0.82167947  0.50154617  0.00740104  1
  Ag  Ag23  1  0.82581642  0.82557450  0.33126747  1
  Ag  Ag24  1  0.82403778  0.16957665  -0.00313794  1
  Ag  Ag25  1  0.66184580  0.67290480  -0.00385481  1
  Ag  Ag26  1  0.66009694  0.50635024  0.49913318  1
  Ag  Ag27  1  0.66369370  0.50166825  0.83355773  1
  Ag  Ag28  1  0.50317957  0.50837829  0.00174483  1
  Ag  Ag29  1  0.65718283  0.33902129  0.33479370  1
  Ag  Ag30  1  0.66588476  0.83483713  0.16776718  1
  Ag  Ag31  1  0.16933251  0.16360828  0.65568866  1
  Ag  Ag32  1  0.50039554  0.16004779  0.65969170  1
  Ag  Ag33  1  -0.01055745  0.82513949  0.17095397  1
  Ag  Ag34  1  0.66030051  0.16099026  0.16492035  1
  Ag  Ag35  1  0.00778570  0.16903162  0.50145877  1
  Ag  Ag36  1  0.49944176  0.66639637  0.15838779  1
  Ag  Ag37  1  0.17502326  0.66638372  0.49984723  1
  Ag  Ag38  1  0.17408179  0.83802102  0.33541899  1
  Ag  Ag39  1  0.50048641  -0.00248546  0.82669506  1
  Ag  Ag40  1  0.34135875  0.82635964  0.49508656  1
  Ag  Ag41  1  0.49684892  0.34014681  0.49762636  1
  Ag  Ag42  1  0.49739953  0.17401615  0.33571608  1
  Ag  Ag43  1  0.33947457  0.49834514  0.17405768  1
  Ag  Ag44  1  0.00004624  0.49804790  0.49574076  1
  Ag  Ag45  1  0.34414395  0.17513589  0.16938760  1
  Ag  Ag46  1  0.50198234  0.82671779  0.33938379  1
  Ag  Ag47  1  0.82988472  0.33053563  0.83682281  1
  Ag  Ag48  1  0.66372376  -0.00967980  -0.00470095  1
  Ag  Ag49  1  0.50211517  0.82785538  0.65913565  1
  Ag  Ag50  1  0.17358252  0.00676117  0.50065264  1
  Ag  Ag51  1  0.65983175  0.82585584  0.49353255  1
  Ag  Ag52  1  0.66098078  0.67036289  0.66272453  1
  Ag  Ag53  1  0.49778679  -0.00599712  0.50386959  1
  Sb  Sb54  1  0.83087256  -0.00228740  0.49898737  1
  Sb  Sb55  1  0.00080434  0.33376317  -0.00009660  1
  Sb  Sb56  1  0.00338383  0.66869250  0.33363404  1
  Sb  Sb57  1  0.82984880  0.33642342  0.50025182  1
  Sb  Sb58  1  0.82561941  0.66345903  0.83130016  1
  Sb  Sb59  1  0.17318237  0.50165663  0.00051970  1
  Sb  Sb60  1  0.17564233  0.83761311  0.65601532  1
  Sb  Sb61  1  0.17358770  0.83298209  0.00628987  1
  Sb  Sb62  1  0.66286608  0.16631417  0.49772470  1
  Sb  Sb63  1  0.66558056  -0.00265910  0.33430101  1
  Sb  Sb64  1  -0.00239394  0.00261315  0.66257432  1
  Sb  Sb65  1  0.17069754  0.16483948  0.00172267  1
  Sb  Sb66  1  0.33913805  0.83314040  0.82904455  1
  Sb  Sb67  1  0.83150066  0.33553257  0.16518294  1
  Sb  Sb68  1  0.34149418  0.83002966  0.17338751  1
  Sb  Sb69  1  0.66808650  0.17020064  0.83512769  1
  Sb  Sb70  1  0.33409361  0.00109660  0.33610259  1
  Sb  Sb71  1  -0.00709492  0.66578988  0.00187730  1
  Sb  Sb72  1  0.17460101  0.66663798  0.17196566  1
  Sb  Sb73  1  0.17653924  0.67077233  0.82702531  1
  Sb  Sb74  1  0.82364251  0.83585712  0.66413575  1
  Sb  Sb75  1  0.83089523  -0.00268331  0.16711222  1
  Sb  Sb76  1  0.00148953  0.83829001  0.83995202  1
  Sb  Sb77  1  0.50035088  -0.00019628  0.16935297  1
  Sb  Sb78  1  0.16445377  0.32787735  0.82875619  1
  Sb  Sb79  1  0.34224179  -0.00041564  0.66216839  1
  Sb  Sb80  1  -0.00166538  0.66606072  0.66263826  1
  Sb  Sb81  1  0.82520707  0.66791462  0.17126910  1
  Sb  Sb82  1  0.34139647  0.50176613  0.83311535  1
  Sb  Sb83  1  -0.00519100  0.00091232  0.00337874  1
  Sb  Sb84  1  0.34361633  -0.00177192  -0.00072077  1
  Sb  Sb85  1  0.82570381  0.49802349  0.66255307  1
  Sb  Sb86  1  0.49865200  0.66730749  0.50265991  1
  Sb  Sb87  1  0.65750376  0.66596777  0.33616209  1
  Sb  Sb88  1  0.00173867  0.33338554  0.33551598  1
  Sb  Sb89  1  0.33309171  0.17058200  0.49605767  1
  Sb  Sb90  1  0.50014078  0.33572103  0.17339784  1
  Sb  Sb91  1  -0.00195012  0.16685950  0.17102926  1
  Sb  Sb92  1  0.50287370  0.33335387  0.83135530  1
  Sb  Sb93  1  -0.00066010  0.33042394  0.66377367  1
  Sb  Sb94  1  0.17095314  0.33360919  0.17279220  1
  Sb  Sb95  1  0.82872111  0.00309215  0.83441023  1
  Sb  Sb96  1  0.66168207  0.50323126  0.17116539  1
  Sb  Sb97  1  0.66129916  0.33535886  0.00526123  1
  Sb  Sb98  1  0.33627959  0.33671588  0.66185183  1
  Sb  Sb99  1  0.66445940  0.33462024  0.66175956  1
  Sb  Sb100  1  0.66255294  0.82999782  0.83538427  1
  Sb  Sb101  1  -0.00020599  0.83364547  0.49435243  1
  Sb  Sb102  1  -0.00968189  0.49624431  0.83149979  1
  Sb  Sb103  1  0.82944130  0.16770665  0.33322956  1
  Sb  Sb104  1  0.33506471  0.16667540  0.83574152  1
  Sb  Sb105  1  0.17222065  0.49951223  0.33772134  1
  Sb  Sb106  1  0.17393899  0.49825829  0.66059446  1
  Sb  Sb107  1  0.16699524  -0.00118469  0.17133980  1
  Te  Te108  1  0.16682534  0.16727094  0.17231788  1
  Te  Te109  1  0.17073182  0.16557995  0.49815893  1
  Te  Te110  1  0.16344517  0.16236363  0.83438221  1
  Te  Te111  1  0.16269449  0.50029388  0.16578987  1
  Te  Te112  1  0.16177105  0.50182723  0.50194618  1
  Te  Te113  1  0.16170480  0.49971361  0.83122267  1
  Te  Te114  1  0.16414019  0.83252052  0.17517958  1
  Te  Te115  1  0.16551356  0.83223962  0.49383054  1
  Te  Te116  1  0.16782391  0.84092882  0.83284523  1
  Te  Te117  1  0.50095711  0.16573593  0.17074823  1
  Te  Te118  1  0.49917776  0.16438047  0.49675878  1
  Te  Te119  1  0.49999327  0.16375783  0.82945226  1
  Te  Te120  1  0.49765174  0.50169164  0.16515160  1
  Te  Te121  1  0.50073744  0.50144104  0.49735674  1
  Te  Te122  1  0.50519073  0.49832685  0.83979995  1
  Te  Te123  1  0.50451119  0.83346753  0.16558692  1
  Te  Te124  1  0.50122741  0.83278296  0.49951868  1
  Te  Te125  1  0.49882550  0.83667835  0.83648859  1
  Te  Te126  1  0.82964712  0.16727996  0.16326043  1
  Te  Te127  1  0.83541851  0.16749846  0.50254837  1
  Te  Te128  1  0.83451431  0.16765893  0.83391778  1
  Te  Te129  1  0.83487486  0.50242784  0.16848177  1
  Te  Te130  1  0.83441649  0.50064175  0.49659239  1
  Te  Te131  1  0.82652184  0.49554336  0.83609947  1
  Te  Te132  1  0.82933198  0.83175655  0.16773155  1
  Te  Te133  1  0.83089273  0.82964806  0.49658056  1
  Te  Te134  1  0.83491973  0.83208476  0.84097125  1
  Te  Te135  1  0.16565652  -0.00192536  -0.00298748  1
  Te  Te136  1  0.16509308  0.00016551  0.33744576  1
  Te  Te137  1  0.16496153  0.00421060  0.66473501  1
  Te  Te138  1  0.17416699  0.33325203  -0.00068616  1
  Te  Te139  1  0.17033685  0.32971386  0.33983644  1
  Te  Te140  1  0.16747673  0.32678300  0.66042913  1
  Te  Te141  1  0.17010392  0.66865706  -0.00445917  1
  Te  Te142  1  0.17275623  0.66881629  0.33896821  1
  Te  Te143  1  0.16989685  0.66880848  0.66145358  1
  Te  Te144  1  0.50450850  0.00851852  -0.00135671  1
  Te  Te145  1  0.50160572  -0.00185736  0.33972597  1
  Te  Te146  1  0.50198629  0.00025895  0.66532811  1
  Te  Te147  1  0.49556874  0.32480512  -0.00214525  1
  Te  Te148  1  0.49961870  0.33420625  0.33562516  1
  Te  Te149  1  0.49924916  0.32765543  0.65988842  1
  Te  Te150  1  0.50108605  0.66549872  -0.00272715  1
  Te  Te151  1  0.49752546  0.66687308  0.32646122  1
  Te  Te152  1  0.50076990  0.66763861  0.66827907  1
  Te  Te153  1  0.82678356  0.00143435  0.00062331  1
  Te  Te154  1  0.83776227  -0.00368854  0.33396429  1
  Te  Te155  1  0.82616307  0.00520231  0.66716689  1
  Te  Te156  1  0.83435812  0.33448641  -0.00233237  1
  Te  Te157  1  0.83086653  0.33915784  0.33322077  1
  Te  Te158  1  0.83248579  0.32749746  0.67029913  1
  Te  Te159  1  0.82669622  0.66512583  0.00033325  1
  Te  Te160  1  0.83436408  0.66507235  0.33657866  1
  Te  Te161  1  0.82741599  0.66677338  0.66197676  1
  Te  Te162  1  -0.00338340  0.16659037  0.00175747  1
  Te  Te163  1  -0.00158776  0.16435073  0.33773010  1
  Te  Te164  1  0.00044498  0.16500898  0.66303591  1
  Te  Te165  1  -0.00217172  0.50008986  -0.00101943  1
  Te  Te166  1  0.00016040  0.50052380  0.33481763  1
  Te  Te167  1  -0.00214351  0.49981780  0.66226378  1
  Te  Te168  1  -0.00031549  0.83383248  0.00903231  1
  Te  Te169  1  -0.00548581  0.83397025  0.33034153  1
  Te  Te170  1  -0.00317982  0.83348004  0.67107149  1
  Te  Te171  1  0.33735243  0.16584662  0.00423205  1
  Te  Te172  1  0.33533380  0.16687850  0.33129854  1
  Te  Te173  1  0.33667636  0.16807684  0.66746312  1
  Te  Te174  1  0.33807662  0.50047869  0.00012003  1
  Te  Te175  1  0.33350356  0.49910626  0.33304973  1
  Te  Te176  1  0.34085936  0.50394382  0.66507960  1
  Te  Te177  1  0.34130710  0.82806240  0.00365548  1
  Te  Te178  1  0.33710905  0.83300510  0.33483963  1
  Te  Te179  1  0.34032614  0.82759447  0.66158263  1
  Te  Te180  1  0.66620406  0.17011497  0.00173522  1
  Te  Te181  1  0.66299039  0.16495428  0.32967855  1
  Te  Te182  1  0.66454903  0.16499975  0.66623107  1
  Te  Te183  1  0.66455950  0.49985743  0.00408351  1
  Te  Te184  1  0.66427830  0.50018046  0.33608933  1
  Te  Te185  1  0.66228531  0.50019973  0.66068282  1
  Te  Te186  1  0.66373349  0.83368686  -0.00080203  1
  Te  Te187  1  0.66529653  0.83216610  0.33369576  1
  Te  Te188  1  0.66299856  0.83328168  0.66531339  1
  Te  Te189  1  0.00023488  -0.00351543  0.17333393  1
  Te  Te190  1  0.00139177  0.00297388  0.49628519  1
  Te  Te191  1  -0.00009218  0.00681930  0.83327025  1
  Te  Te192  1  0.00174077  0.34319580  0.16757687  1
  Te  Te193  1  0.00302788  0.33289241  0.49981171  1
  Te  Te194  1  -0.00476675  0.32632754  0.83293204  1
  Te  Te195  1  0.00386332  0.66575735  0.16526150  1
  Te  Te196  1  -0.00130205  0.66289267  0.50014672  1
  Te  Te197  1  0.00233969  0.66722338  0.83258664  1
  Te  Te198  1  0.33238953  0.00944489  0.16492110  1
  Te  Te199  1  0.33413917  -0.00931805  0.50037958  1
  Te  Te200  1  0.33392230  -0.00044624  0.83171949  1
  Te  Te201  1  0.33334045  0.33542043  0.16845590  1
  Te  Te202  1  0.33483681  0.33804357  0.49672022  1
  Te  Te203  1  0.33064387  0.33431993  0.83885861  1
  Te  Te204  1  0.33816516  0.66275256  0.16699719  1
  Te  Te205  1  0.33258084  0.66531544  0.49852557  1
  Te  Te206  1  0.33963999  0.66761414  0.83687948  1
  Te  Te207  1  0.66575876  -0.00095602  0.16146515  1
  Te  Te208  1  0.66230474  -0.00236801  0.50371435  1
  Te  Te209  1  0.66130846  0.00200741  0.83310441  1
  Te  Te210  1  0.66749252  0.32504317  0.17579728  1
  Te  Te211  1  0.66199460  0.33546288  0.49422429  1
  Te  Te212  1  0.67076018  0.34036729  0.83319968  1
  Te  Te213  1  0.66133890  0.67219816  0.16107686  1
  Te  Te214  1  0.67068320  0.66733078  0.50119259  1
  Te  Te215  1  0.66282143  0.66246268  0.83238738  1
