# generated using pymatgen
data_AgSbTe2
_symmetry_space_group_name_H-M   'P 1'
_cell_length_a   18.32799708
_cell_length_b   18.32453970
_cell_length_c   18.32156128
_cell_angle_alpha   90.00292796
_cell_angle_beta   89.99985952
_cell_angle_gamma   90.00200071
_symmetry_Int_Tables_number   1
_chemical_formula_structural   AgSbTe2
_chemical_formula_sum   'Ag54 Sb54 Te108'
_cell_volume   6153.33500455
_cell_formula_units_Z   54
loop_
 _symmetry_equiv_pos_site_id
 _symmetry_equiv_pos_as_xyz
  1  'x, y, z'
loop_
 _atom_site_type_symbol
 _atom_site_label
 _atom_site_symmetry_multiplicity
 _atom_site_fract_x
 _atom_site_fract_y
 _atom_site_fract_z
 _atom_site_occupancy
  Ag  Ag0  1  0.82769433  0.33427941  0.17534204  1
  Ag  Ag1  1  0.83399129  0.50117446  -0.00041478  1
  Ag  Ag2  1  0.16932293  0.83057141  0.66581871  1
  Ag  Ag3  1  0.50470373  0.32821106  0.83057943  1
  Ag  Ag4  1  0.17786348  0.66812575  0.50358516  1
  Ag  Ag5  1  0.83691362  0.50523604  0.65798765  1
  Ag  Ag6  1  0.67085586  0.66577339  0.66164856  1
  Ag  Ag7  1  0.50691854  0.49131604  0.33988674  1
  Ag  Ag8  1  -0.00548563  0.49999307  0.50342550  1
  Ag  Ag9  1  -0.00037988  0.66635963  0.66226802  1
  Ag  Ag10  1  -0.00149717  0.83643074  0.16499880  1
  Ag  Ag11  1  -0.01412530  0.33329096  0.33582631  1
  Ag  Ag12  1  0.48927375  0.66040362  0.50174836  1
  Ag  Ag13  1  0.16425280  -0.00416485  0.50443149  1
  Ag  Ag14  1  0.16636321  0.15992249  0.66603871  1
  Ag  Ag15  1  0.32762056  0.67043987  0.65766231  1
  Ag  Ag16  1  0.83301534  0.66164032  0.50214658  1
  Ag  Ag17  1  0.66886868  0.66784589  -0.00160808  1
  Ag  Ag18  1  0.83402598  -0.00304682  0.49949797  1
  Ag  Ag19  1  0.65930506  0.00008427  0.00836925  1
  Ag  Ag20  1  0.66468793  0.16446952  0.17096050  1
  Ag  Ag21  1  0.50892804  0.32230685  0.17661978  1
  Ag  Ag22  1  0.33622638  0.66995515  0.34523524  1
  Ag  Ag23  1  0.17369424  0.15556282  -0.00275596  1
  Ag  Ag24  1  0.49375127  0.83250636  0.66538794  1
  Ag  Ag25  1  0.67028814  -0.00063834  0.66173484  1
  Ag  Ag26  1  0.33784241  0.00147772  0.00209399  1
  Ag  Ag27  1  0.33379098  0.83869165  0.82361901  1
  Ag  Ag28  1  0.15791390  0.50899167  0.66278887  1
  Ag  Ag29  1  0.16676213  -0.00038922  0.16700273  1
  Ag  Ag30  1  0.33209283  0.82450037  0.50559002  1
  Ag  Ag31  1  -0.00379323  0.49852944  0.82144142  1
  Ag  Ag32  1  0.33979425  0.51098745  0.50090927  1
  Ag  Ag33  1  0.49801746  0.00635516  0.83729401  1
  Ag  Ag34  1  0.82584174  0.17441389  0.33276640  1
  Ag  Ag35  1  0.83255824  0.66424658  0.17302178  1
  Ag  Ag36  1  0.66661287  0.33611453  0.65865222  1
  Ag  Ag37  1  0.66840528  0.50078432  0.50052197  1
  Ag  Ag38  1  0.66417753  0.00910366  0.33023939  1
  Ag  Ag39  1  0.33587861  0.15848169  0.83401970  1
  Ag  Ag40  1  0.82864840  0.49516285  0.34029440  1
  Ag  Ag41  1  0.50297111  0.34004807  0.49620155  1
  Ag  Ag42  1  0.82690701  0.00149819  0.17438990  1
  Ag  Ag43  1  0.82851502  0.33703996  0.83290275  1
  Ag  Ag44  1  0.16292625  0.50364008  -0.00391449  1
  Ag  Ag45  1  0.83379473  0.82518066  0.66485685  1
  Ag  Ag46  1  0.50771490  0.17000333  0.32885863  1
  Ag  Ag47  1  0.16819512  0.83873847  -0.00352842  1
  Ag  Ag48  1  0.50748676  0.00429111  0.16394465  1
  Ag  Ag49  1  -0.00085812  0.16994895  0.49985711  1
  Ag  Ag50  1  0.49787358  0.16214521  0.00619551  1
  Ag  Ag51  1  -0.00090231  -0.00639245  0.66260334  1
  Ag  Ag52  1  0.34028727  -0.00118444  0.33147271  1
  Ag  Ag53  1  0.66741508  0.32853747  0.33587518  1
  Sb  Sb54  1  0.50138427  0.00006054  0.49957887  1
  Sb  Sb55  1  0.33483351  0.32701291  -0.00170648  1
  Sb  Sb56  1  0.83608050  0.16881128  0.65900331  1
  Sb  Sb57  1  -0.00200866  0.33445388  0.00278252  1
  Sb  Sb58  1  0.00294458  0.83155170  0.50104032  1
  Sb  Sb59  1  0.16733113  0.66665309  0.82314739  1
  Sb  Sb60  1  -0.00407490  0.50213976  0.17065401  1
  Sb  Sb61  1  0.16734629  0.16369089  0.33477104  1
  Sb  Sb62  1  0.50249034  0.49538729  0.00350914  1
  Sb  Sb63  1  0.66472009  0.66380082  0.33832713  1
  Sb  Sb64  1  -0.00354570  0.00359821  0.33907894  1
  Sb  Sb65  1  0.82831374  0.33774813  0.49744126  1
  Sb  Sb66  1  0.33021092  0.83767047  0.16835527  1
  Sb  Sb67  1  0.33558323  0.67269578  -0.00149968  1
  Sb  Sb68  1  0.00403728  0.83070449  0.83033825  1
  Sb  Sb69  1  0.49580983  0.84104534  -0.00581888  1
  Sb  Sb70  1  0.82721636  0.00587007  0.83038871  1
  Sb  Sb71  1  -0.00557875  0.33812766  0.66158774  1
  Sb  Sb72  1  -0.00263261  0.66449858  -0.00351496  1
  Sb  Sb73  1  0.67118548  0.84042629  0.16574938  1
  Sb  Sb74  1  0.83090164  0.16944240  0.00605235  1
  Sb  Sb75  1  0.49912709  0.83580544  0.33864696  1
  Sb  Sb76  1  0.33323898  -0.00752805  0.66623548  1
  Sb  Sb77  1  0.33388341  0.50129137  0.17233598  1
  Sb  Sb78  1  0.00103753  -0.00009006  -0.00226205  1
  Sb  Sb79  1  0.34130692  0.33112588  0.33510172  1
  Sb  Sb80  1  0.83268093  0.83312687  0.33831817  1
  Sb  Sb81  1  0.67152901  0.49807690  0.82618236  1
  Sb  Sb82  1  0.16477299  0.32827586  0.16600197  1
  Sb  Sb83  1  0.00374655  0.17053360  0.82639791  1
  Sb  Sb84  1  0.33058765  0.50066990  0.82679551  1
  Sb  Sb85  1  0.34087033  0.16279286  0.16386372  1
  Sb  Sb86  1  0.83562076  0.82979885  -0.00319077  1
  Sb  Sb87  1  0.00039174  0.66286181  0.34088469  1
  Sb  Sb88  1  0.33838954  0.33798391  0.66573677  1
  Sb  Sb89  1  -0.00448350  0.16307523  0.17166172  1
  Sb  Sb90  1  0.50369910  0.50359573  0.65944506  1
  Sb  Sb91  1  0.83310530  0.66145948  0.82664458  1
  Sb  Sb92  1  0.16622436  0.33385041  0.83153505  1
  Sb  Sb93  1  0.16851549  0.33541545  0.50085909  1
  Sb  Sb94  1  0.67065011  0.16911429  0.49495595  1
  Sb  Sb95  1  0.50059366  0.66645811  0.82531039  1
  Sb  Sb96  1  0.66982709  0.49543106  0.17263674  1
  Sb  Sb97  1  0.66107671  0.16721491  0.83672307  1
  Sb  Sb98  1  0.66224280  0.83490209  0.82918184  1
  Sb  Sb99  1  0.16717907  0.83571258  0.33847589  1
  Sb  Sb100  1  0.16135009  0.67204750  0.17099101  1
  Sb  Sb101  1  0.33051645  0.16446887  0.50339107  1
  Sb  Sb102  1  0.50586598  0.66859334  0.17237942  1
  Sb  Sb103  1  0.66352829  0.82939860  0.50400892  1
  Sb  Sb104  1  0.66647192  0.33219454  0.00309373  1
  Sb  Sb105  1  0.17215239  0.00000523  0.83096753  1
  Sb  Sb106  1  0.49782383  0.16344233  0.66598615  1
  Sb  Sb107  1  0.16583955  0.50060965  0.33928462  1
  Te  Te108  1  0.16583508  0.16153889  0.16183991  1
  Te  Te109  1  0.16307433  0.16323753  0.50278884  1
  Te  Te110  1  0.17116103  0.16753113  0.83455451  1
  Te  Te111  1  0.16519121  0.49958569  0.16150865  1
  Te  Te112  1  0.16403667  0.50223135  0.50297859  1
  Te  Te113  1  0.16230348  0.49932587  0.83293941  1
  Te  Te114  1  0.16286685  0.83752813  0.16369127  1
  Te  Te115  1  0.16843727  0.83423006  0.50422783  1
  Te  Te116  1  0.17122315  0.83299395  0.83209053  1
  Te  Te117  1  0.50208385  0.16443124  0.16698487  1
  Te  Te118  1  0.49921698  0.17063325  0.49639365  1
  Te  Te119  1  0.49639410  0.16644213  0.83292304  1
  Te  Te120  1  0.50059815  0.49834234  0.17403699  1
  Te  Te121  1  0.50084782  0.50117128  0.49900238  1
  Te  Te122  1  0.49933255  0.49251062  0.83483864  1
  Te  Te123  1  0.49976224  0.83947777  0.16611552  1
  Te  Te124  1  0.49494383  0.82956060  0.50563015  1
  Te  Te125  1  0.49451287  0.83570988  0.82686977  1
  Te  Te126  1  0.82999701  0.16446170  0.17099795  1
  Te  Te127  1  0.83807364  0.15945903  0.49392912  1
  Te  Te128  1  0.83449769  0.17530522  0.83589849  1
  Te  Te129  1  0.83334625  0.50001250  0.16498251  1
  Te  Te130  1  0.83291624  0.49856154  0.49964343  1
  Te  Te131  1  0.83589774  0.49617615  0.83707548  1
  Te  Te132  1  0.83733510  0.83491349  0.16480005  1
  Te  Te133  1  0.83423487  0.83665513  0.50488723  1
  Te  Te134  1  0.83535851  0.83548074  0.82584484  1
  Te  Te135  1  0.16634642  -0.00137847  -0.00044932  1
  Te  Te136  1  0.16853026  0.00058814  0.33263036  1
  Te  Te137  1  0.16695463  -0.00090544  0.66485735  1
  Te  Te138  1  0.16682625  0.33861381  0.00036212  1
  Te  Te139  1  0.16367535  0.33235677  0.33122506  1
  Te  Te140  1  0.16640958  0.33130780  0.66646739  1
  Te  Te141  1  0.16722446  0.66494873  0.00306531  1
  Te  Te142  1  0.17213039  0.66715879  0.33996619  1
  Te  Te143  1  0.16560190  0.66771243  0.66204015  1
  Te  Te144  1  0.49925575  0.00204268  0.00114800  1
  Te  Te145  1  0.50086129  0.00216986  0.33230198  1
  Te  Te146  1  0.50356478  -0.00349990  0.66782422  1
  Te  Te147  1  0.50083435  0.32752560  -0.00156384  1
  Te  Te148  1  0.50281534  0.33219300  0.33391874  1
  Te  Te149  1  0.50571739  0.33272065  0.66618261  1
  Te  Te150  1  0.50551725  0.66633039  0.00136304  1
  Te  Te151  1  0.49723992  0.66490570  0.33828051  1
  Te  Te152  1  0.50568836  0.67029001  0.66263147  1
  Te  Te153  1  0.83051999  -0.00035810  0.00181127  1
  Te  Te154  1  0.83170373  -0.00145222  0.33395824  1
  Te  Te155  1  0.83196885  0.00257229  0.66523362  1
  Te  Te156  1  0.83224210  0.33801490  0.00136433  1
  Te  Te157  1  0.82881149  0.33414073  0.33428181  1
  Te  Te158  1  0.82761176  0.33654540  0.66816603  1
  Te  Te159  1  0.83023273  0.66346646  0.00138451  1
  Te  Te160  1  0.83304847  0.66307211  0.33457685  1
  Te  Te161  1  0.83224949  0.66526606  0.66547345  1
  Te  Te162  1  0.00725684  0.16670066  -0.00221182  1
  Te  Te163  1  -0.00217754  0.17095755  0.33899479  1
  Te  Te164  1  0.00443236  0.16488567  0.66096929  1
  Te  Te165  1  -0.00077220  0.50064856  -0.00037747  1
  Te  Te166  1  -0.00381262  0.49584151  0.33849356  1
  Te  Te167  1  -0.00189813  0.49967222  0.66379597  1
  Te  Te168  1  0.00694290  0.83207658  0.00081879  1
  Te  Te169  1  -0.00001604  0.83278217  0.32503460  1
  Te  Te170  1  0.00138260  0.83251162  0.66676743  1
  Te  Te171  1  0.33394367  0.16145428  -0.00352147  1
  Te  Te172  1  0.33694257  0.16098870  0.33465974  1
  Te  Te173  1  0.32770703  0.16881703  0.67185092  1
  Te  Te174  1  0.33018843  0.50221343  -0.00165360  1
  Te  Te175  1  0.33476799  0.50045513  0.33922244  1
  Te  Te176  1  0.32828141  0.50578123  0.66295569  1
  Te  Te177  1  0.32825732  0.83799721  -0.00235364  1
  Te  Te178  1  0.33359305  0.83529639  0.33863823  1
  Te  Te179  1  0.33195265  0.83160307  0.66559522  1
  Te  Te180  1  0.66315361  0.16175516  0.00511694  1
  Te  Te181  1  0.66710817  0.16677445  0.33289300  1
  Te  Te182  1  0.66721494  0.16445177  0.66732168  1
  Te  Te183  1  0.66991932  0.50440378  0.00029396  1
  Te  Te184  1  0.66677727  0.49814200  0.33863192  1
  Te  Te185  1  0.67009273  0.50048804  0.66213168  1
  Te  Te186  1  0.66654530  0.83412114  -0.00234941  1
  Te  Te187  1  0.66635216  0.84373314  0.33415349  1
  Te  Te188  1  0.67145765  0.83381081  0.66654768  1
  Te  Te189  1  0.00073997  -0.00222648  0.16641214  1
  Te  Te190  1  0.00119026  -0.00219213  0.50296438  1
  Te  Te191  1  -0.00273108  0.00066652  0.82426169  1
  Te  Te192  1  -0.00601320  0.33201698  0.17365938  1
  Te  Te193  1  0.00173938  0.33326516  0.49592219  1
  Te  Te194  1  -0.00560769  0.33864073  0.83307456  1
  Te  Te195  1  -0.00657981  0.67095126  0.16780688  1
  Te  Te196  1  -0.00764854  0.66485666  0.50398302  1
  Te  Te197  1  0.00013964  0.65963031  0.82569976  1
  Te  Te198  1  0.32950643  -0.00049001  0.16711336  1
  Te  Te199  1  0.33086160  -0.00083586  0.49641431  1
  Te  Te200  1  0.33738451  -0.00077970  0.83423826  1
  Te  Te201  1  0.34013233  0.33425275  0.16655848  1
  Te  Te202  1  0.33988652  0.33659184  0.50000505  1
  Te  Te203  1  0.33960502  0.33059465  0.83278684  1
  Te  Te204  1  0.33418675  0.66867342  0.17186042  1
  Te  Te205  1  0.33352657  0.66713181  0.50157286  1
  Te  Te206  1  0.33530368  0.67234562  0.82911675  1
  Te  Te207  1  0.66767621  0.00292945  0.16748205  1
  Te  Te208  1  0.66959193  -0.00100799  0.50163846  1
  Te  Te209  1  0.65969032  0.00113275  0.83154572  1
  Te  Te210  1  0.66709249  0.32982699  0.16955037  1
  Te  Te211  1  0.66317545  0.33479568  0.49928408  1
  Te  Te212  1  0.66636821  0.33280429  0.83134538  1
  Te  Te213  1  0.67272008  0.66816526  0.16666585  1
  Te  Te214  1  0.67372937  0.66343246  0.50224837  1
  Te  Te215  1  0.66582168  0.66650935  0.83415725  1
