# generated using pymatgen
data_AgSbTe2
_symmetry_space_group_name_H-M   'P 1'
_cell_length_a   18.32391070
_cell_length_b   18.31984091
_cell_length_c   18.32736249
_cell_angle_alpha   89.99936753
_cell_angle_beta   89.99858955
_cell_angle_gamma   89.99707799
_symmetry_Int_Tables_number   1
_chemical_formula_structural   AgSbTe2
_chemical_formula_sum   'Ag54 Sb54 Te108'
_cell_volume   6152.33299521
_cell_formula_units_Z   54
loop_
 _symmetry_equiv_pos_site_id
 _symmetry_equiv_pos_as_xyz
  1  'x, y, z'
loop_
 _atom_site_type_symbol
 _atom_site_label
 _atom_site_symmetry_multiplicity
 _atom_site_fract_x
 _atom_site_fract_y
 _atom_site_fract_z
 _atom_site_occupancy
  Ag  Ag0  1  0.50306692  0.00310915  0.16178949  1
  Ag  Ag1  1  0.33741256  -0.00216851  0.00249824  1
  Ag  Ag2  1  0.83043720  0.16477655  0.66844924  1
  Ag  Ag3  1  0.51111285  0.66628777  0.49661756  1
  Ag  Ag4  1  0.66864174  0.66936070  0.67517494  1
  Ag  Ag5  1  0.34363181  0.66660721  0.67556100  1
  Ag  Ag6  1  0.66818784  0.34092158  0.00539266  1
  Ag  Ag7  1  -0.01162857  0.00463911  0.67539202  1
  Ag  Ag8  1  0.66961898  0.33456854  0.67036640  1
  Ag  Ag9  1  0.83668941  0.16618349  0.00598663  1
  Ag  Ag10  1  -0.00400267  0.16793830  0.49781707  1
  Ag  Ag11  1  0.50467384  0.50965687  0.00401064  1
  Ag  Ag12  1  0.49878544  -0.00137986  0.84247402  1
  Ag  Ag13  1  0.66904996  0.82896428  0.50593358  1
  Ag  Ag14  1  0.16641958  0.00400961  0.83732020  1
  Ag  Ag15  1  0.49876899  0.16755704  0.32809886  1
  Ag  Ag16  1  0.82782015  0.00946109  0.16549703  1
  Ag  Ag17  1  0.66347782  0.50331033  0.15987355  1
  Ag  Ag18  1  0.15671871  0.16476174  0.00408907  1
  Ag  Ag19  1  0.66862790  0.50699655  0.84033428  1
  Ag  Ag20  1  0.33563221  0.50298247  0.49500085  1
  Ag  Ag21  1  0.82776891  0.83044862  0.66624012  1
  Ag  Ag22  1  0.66608556  0.66285399  0.00183848  1
  Ag  Ag23  1  0.16068785  0.32541708  0.83570451  1
  Ag  Ag24  1  0.83395539  0.16528448  0.32258425  1
  Ag  Ag25  1  0.82903063  0.50686631  0.66779926  1
  Ag  Ag26  1  -0.01338069  0.67049871  0.00605665  1
  Ag  Ag27  1  0.66607462  0.82756550  0.83367942  1
  Ag  Ag28  1  0.83018922  0.83200716  0.33035983  1
  Ag  Ag29  1  -0.00648847  0.66675918  0.32407553  1
  Ag  Ag30  1  0.16676851  0.66489960  0.16292354  1
  Ag  Ag31  1  0.50576758  0.66148253  0.16197279  1
  Ag  Ag32  1  0.82830722  0.66445795  0.83425397  1
  Ag  Ag33  1  0.82446026  0.32765310  0.16273526  1
  Ag  Ag34  1  -0.00343776  0.50097467  0.50031521  1
  Ag  Ag35  1  0.34287832  0.83302787  0.83619886  1
  Ag  Ag36  1  0.33598282  0.00717937  0.32093129  1
  Ag  Ag37  1  0.50858441  0.16486256  0.66425402  1
  Ag  Ag38  1  0.50180314  0.82851661  0.00128764  1
  Ag  Ag39  1  0.33425792  0.16773744  0.16911384  1
  Ag  Ag40  1  0.82906254  0.66826693  0.50274168  1
  Ag  Ag41  1  0.67067013  -0.00343149  0.67062019  1
  Ag  Ag42  1  -0.00595607  0.16560352  0.16264448  1
  Ag  Ag43  1  0.34488078  0.49807381  0.16692663  1
  Ag  Ag44  1  0.66514915  0.33040402  0.32087124  1
  Ag  Ag45  1  -0.00246978  0.16404232  0.84055131  1
  Ag  Ag46  1  0.82698902  0.66633837  0.16321076  1
  Ag  Ag47  1  0.34528193  0.67181453  0.00177776  1
  Ag  Ag48  1  0.82931680  0.33079412  0.83620280  1
  Ag  Ag49  1  0.50753028  0.33304555  0.16708984  1
  Ag  Ag50  1  0.66750228  0.82617004  0.16273604  1
  Ag  Ag51  1  0.00126294  0.00782969  -0.00276685  1
  Ag  Ag52  1  0.16826329  0.16606172  0.32225533  1
  Ag  Ag53  1  0.34055221  0.32574637  0.32628705  1
  Sb  Sb54  1  0.17201725  0.83780970  -0.00002322  1
  Sb  Sb55  1  0.16646593  0.33183678  0.50202923  1
  Sb  Sb56  1  0.16204395  0.83314344  0.66908538  1
  Sb  Sb57  1  0.16322846  0.16589796  0.67126018  1
  Sb  Sb58  1  0.33738065  -0.00376139  0.67291650  1
  Sb  Sb59  1  0.17180922  0.49723681  0.00117435  1
  Sb  Sb60  1  -0.00300600  0.33226736  0.33197571  1
  Sb  Sb61  1  -0.00907649  0.32729180  0.66834870  1
  Sb  Sb62  1  0.33862893  0.33187383  0.00533550  1
  Sb  Sb63  1  0.50189052  0.33781403  0.49341480  1
  Sb  Sb64  1  0.50167598  -0.00261560  0.49889644  1
  Sb  Sb65  1  0.50919485  0.67260122  0.83853027  1
  Sb  Sb66  1  0.50625653  0.83678404  0.32640088  1
  Sb  Sb67  1  0.33237366  0.66741919  0.32663997  1
  Sb  Sb68  1  0.50668251  0.32779297  0.83884562  1
  Sb  Sb69  1  0.16532862  0.00328867  0.50276636  1
  Sb  Sb70  1  -0.00560200  0.83823087  0.83531832  1
  Sb  Sb71  1  0.66704438  0.50583229  0.50037245  1
  Sb  Sb72  1  0.83257093  -0.00254962  0.49946220  1
  Sb  Sb73  1  0.50060674  0.49677231  0.32493524  1
  Sb  Sb74  1  0.16780061  0.00085795  0.16091261  1
  Sb  Sb75  1  0.66570750  -0.00149644  -0.00190600  1
  Sb  Sb76  1  0.16293684  0.83728702  0.32940372  1
  Sb  Sb77  1  -0.00010311  0.00170724  0.32985007  1
  Sb  Sb78  1  -0.00904960  0.83538057  0.16448560  1
  Sb  Sb79  1  0.67216738  0.16629633  0.83169203  1
  Sb  Sb80  1  0.83232454  0.50064757  0.33563607  1
  Sb  Sb81  1  0.34127626  0.83416355  0.16119702  1
  Sb  Sb82  1  0.82583237  0.83390360  0.00091141  1
  Sb  Sb83  1  0.16349871  0.66796896  0.84083161  1
  Sb  Sb84  1  -0.00912665  0.49690470  0.83167544  1
  Sb  Sb85  1  0.50745560  0.50016046  0.67085082  1
  Sb  Sb86  1  0.82641674  0.49854602  -0.00243540  1
  Sb  Sb87  1  0.33181605  0.16963305  0.49161883  1
  Sb  Sb88  1  0.34333283  0.82699367  0.50441122  1
  Sb  Sb89  1  0.16369518  0.66560988  0.49503367  1
  Sb  Sb90  1  -0.00917056  0.66984072  0.66842579  1
  Sb  Sb91  1  -0.00480085  0.50046154  0.16739564  1
  Sb  Sb92  1  0.50939651  0.83526110  0.67351737  1
  Sb  Sb93  1  0.83157338  0.00163643  0.83497016  1
  Sb  Sb94  1  0.83143071  0.33518385  0.50007075  1
  Sb  Sb95  1  0.16228377  0.50091064  0.66828515  1
  Sb  Sb96  1  0.34063355  0.33675980  0.66446136  1
  Sb  Sb97  1  -0.00872268  0.83277431  0.50009268  1
  Sb  Sb98  1  0.67129823  0.16367921  0.50182695  1
  Sb  Sb99  1  0.66777783  0.16928696  0.16611195  1
  Sb  Sb100  1  0.67097904  0.66467395  0.32756820  1
  Sb  Sb101  1  0.66519577  0.00302946  0.33210015  1
  Sb  Sb102  1  0.50264852  0.16475967  0.00352553  1
  Sb  Sb103  1  0.16745773  0.33213114  0.16362928  1
  Sb  Sb104  1  0.33000152  0.16227532  0.83951717  1
  Sb  Sb105  1  0.16808777  0.49534026  0.33113590  1
  Sb  Sb106  1  0.33975639  0.50496868  0.83673899  1
  Sb  Sb107  1  -0.00732132  0.33074277  0.00002965  1
  Te  Te108  1  0.16815761  0.16680949  0.16478200  1
  Te  Te109  1  0.15961984  0.16733437  0.49625458  1
  Te  Te110  1  0.16359988  0.16528622  0.83698211  1
  Te  Te111  1  0.16958511  0.50424134  0.16642652  1
  Te  Te112  1  0.16612551  0.49945915  0.50031792  1
  Te  Te113  1  0.16602824  0.49381996  0.83347809  1
  Te  Te114  1  0.16557806  0.82418752  0.16677401  1
  Te  Te115  1  0.16752972  0.83409703  0.49936366  1
  Te  Te116  1  0.16977218  0.83829854  0.83298898  1
  Te  Te117  1  0.49815212  0.16473185  0.16816693  1
  Te  Te118  1  0.50014950  0.16697102  0.49973238  1
  Te  Te119  1  0.49845956  0.16007229  0.83025515  1
  Te  Te120  1  0.50170910  0.50017230  0.16439470  1
  Te  Te121  1  0.49589341  0.50591441  0.50199501  1
  Te  Te122  1  0.50730098  0.49651185  0.84024189  1
  Te  Te123  1  0.50612328  0.83584195  0.16254184  1
  Te  Te124  1  0.50753885  0.82661523  0.49806673  1
  Te  Te125  1  0.50169471  0.83810990  0.83773344  1
  Te  Te126  1  0.83215206  0.16706116  0.16572301  1
  Te  Te127  1  0.83780875  0.16642477  0.50485345  1
  Te  Te128  1  0.83739372  0.16792396  0.82948692  1
  Te  Te129  1  0.82915441  0.50108780  0.16726928  1
  Te  Te130  1  0.83492525  0.50470698  0.50399393  1
  Te  Te131  1  0.82820117  0.49863198  0.82860513  1
  Te  Te132  1  0.82763054  0.82851086  0.16768413  1
  Te  Te133  1  0.82874825  0.82985070  0.49925742  1
  Te  Te134  1  0.82808010  0.83052316  0.83116369  1
  Te  Te135  1  0.16484926  0.00396489  -0.00319834  1
  Te  Te136  1  0.17121494  0.00531773  0.33283885  1
  Te  Te137  1  0.16526796  -0.00080665  0.67488714  1
  Te  Te138  1  0.16707119  0.32764670  -0.00444253  1
  Te  Te139  1  0.16982747  0.32545042  0.33284725  1
  Te  Te140  1  0.16861307  0.33364847  0.67494224  1
  Te  Te141  1  0.17023666  0.66614712  0.00416245  1
  Te  Te142  1  0.16051200  0.66790224  0.32651646  1
  Te  Te143  1  0.17049593  0.66681674  0.66826418  1
  Te  Te144  1  0.49884156  -0.00027774  0.00184399  1
  Te  Te145  1  0.49709646  0.00492119  0.32941669  1
  Te  Te146  1  0.50387940  0.00423748  0.66664001  1
  Te  Te147  1  0.50612367  0.33303907  0.00613543  1
  Te  Te148  1  0.50057332  0.32938527  0.32811577  1
  Te  Te149  1  0.50634680  0.32804768  0.66687907  1
  Te  Te150  1  0.50409018  0.66807220  0.00048629  1
  Te  Te151  1  0.49936133  0.66828825  0.33292020  1
  Te  Te152  1  0.50222748  0.66742660  0.66490026  1
  Te  Te153  1  0.83569617  0.00217418  0.00370224  1
  Te  Te154  1  0.83386374  0.00233377  0.32847257  1
  Te  Te155  1  0.83144040  0.00172762  0.66715236  1
  Te  Te156  1  0.82916659  0.33157102  -0.00052285  1
  Te  Te157  1  0.82998599  0.32943185  0.33031827  1
  Te  Te158  1  0.82875043  0.32870747  0.66803294  1
  Te  Te159  1  0.82865558  0.66758781  -0.00004215  1
  Te  Te160  1  0.83436841  0.66752151  0.33221470  1
  Te  Te161  1  0.83033845  0.66894295  0.66811582  1
  Te  Te162  1  -0.00257456  0.16793553  0.00122619  1
  Te  Te163  1  -0.00490932  0.16623454  0.33146546  1
  Te  Te164  1  -0.00113614  0.16231062  0.66650079  1
  Te  Te165  1  0.00291838  0.50889674  -0.00033200  1
  Te  Te166  1  0.00074193  0.50468565  0.33804121  1
  Te  Te167  1  -0.00674706  0.50022368  0.66207525  1
  Te  Te168  1  0.00181453  0.83052957  -0.00043753  1
  Te  Te169  1  -0.00711735  0.82925695  0.33352895  1
  Te  Te170  1  -0.00778077  0.84128333  0.66694825  1
  Te  Te171  1  0.33333434  0.16342245  0.00603086  1
  Te  Te172  1  0.33500489  0.16666817  0.33104407  1
  Te  Te173  1  0.33637276  0.16723365  0.66361764  1
  Te  Te174  1  0.33983341  0.50289001  0.00469303  1
  Te  Te175  1  0.33345516  0.49828781  0.33077303  1
  Te  Te176  1  0.33417276  0.50562251  0.66632505  1
  Te  Te177  1  0.33795984  0.83470291  -0.00359170  1
  Te  Te178  1  0.33238851  0.84071852  0.33496877  1
  Te  Te179  1  0.33347160  0.82701280  0.67205379  1
  Te  Te180  1  0.67416488  0.17057964  -0.00163625  1
  Te  Te181  1  0.66913922  0.17052593  0.33594017  1
  Te  Te182  1  0.66768720  0.16528598  0.66617346  1
  Te  Te183  1  0.66564621  0.50099387  -0.00006279  1
  Te  Te184  1  0.66645023  0.49084460  0.32921137  1
  Te  Te185  1  0.67065377  0.50293252  0.66739546  1
  Te  Te186  1  0.66287018  0.83169119  -0.00124725  1
  Te  Te187  1  0.67218905  0.83491224  0.33018739  1
  Te  Te188  1  0.66898485  0.83034995  0.67025317  1
  Te  Te189  1  -0.00220258  0.00406117  0.16212383  1
  Te  Te190  1  0.00057431  0.00488577  0.50313968  1
  Te  Te191  1  -0.00103771  0.00321694  0.83661149  1
  Te  Te192  1  -0.00513131  0.32981600  0.16704903  1
  Te  Te193  1  0.00005483  0.33470719  0.50012136  1
  Te  Te194  1  -0.00364934  0.32883991  0.83362244  1
  Te  Te195  1  -0.00705692  0.66604572  0.16520997  1
  Te  Te196  1  -0.00419375  0.66472513  0.49986175  1
  Te  Te197  1  -0.00583399  0.66638018  0.83847476  1
  Te  Te198  1  0.33408100  0.00080472  0.16329571  1
  Te  Te199  1  0.33362228  -0.00143687  0.49914378  1
  Te  Te200  1  0.33597675  -0.00376632  0.83710791  1
  Te  Te201  1  0.33391998  0.33331929  0.16885482  1
  Te  Te202  1  0.33352998  0.34136987  0.49505775  1
  Te  Te203  1  0.33253306  0.33445235  0.83376868  1
  Te  Te204  1  0.34056396  0.66628952  0.16277940  1
  Te  Te205  1  0.33220117  0.66259597  0.49809843  1
  Te  Te206  1  0.33159028  0.66982668  0.83689109  1
  Te  Te207  1  0.66694152  -0.00500135  0.16634162  1
  Te  Te208  1  0.66586820  -0.00830515  0.50767654  1
  Te  Te209  1  0.66301320  -0.00386168  0.83046634  1
  Te  Te210  1  0.66748211  0.33267201  0.16528644  1
  Te  Te211  1  0.66605166  0.33484364  0.50711407  1
  Te  Te212  1  0.67013726  0.33343797  0.83112778  1
  Te  Te213  1  0.66582120  0.66486324  0.16637496  1
  Te  Te214  1  0.66879655  0.66915598  0.49676544  1
  Te  Te215  1  0.66887660  0.66656631  0.83395057  1
