# generated using pymatgen
data_AgSbTe2
_symmetry_space_group_name_H-M   'P 1'
_cell_length_a   18.32957877
_cell_length_b   18.32091370
_cell_length_c   18.32263002
_cell_angle_alpha   90.00289409
_cell_angle_beta   89.99818755
_cell_angle_gamma   90.00081771
_symmetry_Int_Tables_number   1
_chemical_formula_structural   AgSbTe2
_chemical_formula_sum   'Ag54 Sb54 Te108'
_cell_volume   6153.00722168
_cell_formula_units_Z   54
loop_
 _symmetry_equiv_pos_site_id
 _symmetry_equiv_pos_as_xyz
  1  'x, y, z'
loop_
 _atom_site_type_symbol
 _atom_site_label
 _atom_site_symmetry_multiplicity
 _atom_site_fract_x
 _atom_site_fract_y
 _atom_site_fract_z
 _atom_site_occupancy
  Ag  Ag0  1  0.66377401  0.32141278  0.66153746  1
  Ag  Ag1  1  -0.00162892  0.00140374  0.65951533  1
  Ag  Ag2  1  0.49916969  0.16682711  -0.00464869  1
  Ag  Ag3  1  0.50851666  0.16564582  0.67164569  1
  Ag  Ag4  1  0.83422126  0.33402276  0.49258609  1
  Ag  Ag5  1  0.33691098  0.67165081  0.66623115  1
  Ag  Ag6  1  0.66703843  0.16619463  0.50942677  1
  Ag  Ag7  1  0.16536486  0.83085196  0.33180285  1
  Ag  Ag8  1  0.66241816  0.16832374  0.82215906  1
  Ag  Ag9  1  -0.00451774  0.33180637  0.33060361  1
  Ag  Ag10  1  0.00098166  0.16551434  0.84143785  1
  Ag  Ag11  1  0.66749075  0.01031413  0.65783412  1
  Ag  Ag12  1  0.15965546  0.16459255  0.00158588  1
  Ag  Ag13  1  0.83630944  0.49040249  0.33374930  1
  Ag  Ag14  1  0.16279261  0.67750109  0.49247365  1
  Ag  Ag15  1  0.49844809  0.66786206  0.83136766  1
  Ag  Ag16  1  0.67017174  0.00640906  0.33882134  1
  Ag  Ag17  1  0.33772963  0.17110859  0.83298731  1
  Ag  Ag18  1  0.16366887  0.83905548  0.01152724  1
  Ag  Ag19  1  0.00397860  0.00253068  0.00651634  1
  Ag  Ag20  1  0.66254538  0.66958346  0.66487174  1
  Ag  Ag21  1  0.16642691  0.67538374  0.17522118  1
  Ag  Ag22  1  0.33479430  0.49046223  0.83566897  1
  Ag  Ag23  1  0.16708165  -0.00415025  0.49489063  1
  Ag  Ag24  1  0.67178966  0.32655763  0.33176006  1
  Ag  Ag25  1  0.33887640  0.32742383  0.66617717  1
  Ag  Ag26  1  0.50151168  0.33067745  0.16862533  1
  Ag  Ag27  1  0.00114201  0.32127219  0.01025504  1
  Ag  Ag28  1  0.83815870  0.67159717  0.49796577  1
  Ag  Ag29  1  0.32747002  0.83117242  0.17353820  1
  Ag  Ag30  1  0.49504382  0.49669180  0.33160058  1
  Ag  Ag31  1  0.16527150  0.50365669  0.33301443  1
  Ag  Ag32  1  0.83230361  0.84120372  0.65574479  1
  Ag  Ag33  1  0.00446220  0.83606933  0.49253635  1
  Ag  Ag34  1  0.33111857  0.49686023  0.16926255  1
  Ag  Ag35  1  0.16522602  -0.00493604  0.17246095  1
  Ag  Ag36  1  0.16530250  0.32926945  0.49432751  1
  Ag  Ag37  1  0.66994391  0.17074258  0.16720206  1
  Ag  Ag38  1  0.49617222  0.83956024  0.00673795  1
  Ag  Ag39  1  0.84563008  0.83166345  0.33600492  1
  Ag  Ag40  1  0.00163670  -0.00540526  0.33512463  1
  Ag  Ag41  1  0.84441683  0.83255752  0.00856122  1
  Ag  Ag42  1  0.32572492  0.83566042  0.49446703  1
  Ag  Ag43  1  0.00472148  0.67601505  0.33153749  1
  Ag  Ag44  1  0.82075003  0.16059740  0.66536152  1
  Ag  Ag45  1  0.49476514  0.83221209  0.33202011  1
  Ag  Ag46  1  0.33456105  0.00260132  0.66216881  1
  Ag  Ag47  1  0.00273068  0.68046945  0.00737992  1
  Ag  Ag48  1  0.66613946  0.32682227  0.01254161  1
  Ag  Ag49  1  0.49824130  -0.00013136  0.50026911  1
  Ag  Ag50  1  -0.00207382  0.16793070  0.16262696  1
  Ag  Ag51  1  0.33356213  0.32853079  0.00469299  1
  Ag  Ag52  1  0.82922662  0.33089387  0.17302303  1
  Ag  Ag53  1  0.33311135  0.33687309  0.33153112  1
  Sb  Sb54  1  0.33204339  0.50138232  0.49639441  1
  Sb  Sb55  1  0.49767865  0.49606821  0.66248313  1
  Sb  Sb56  1  0.49875731  0.67330772  0.50119476  1
  Sb  Sb57  1  0.00042987  0.50390631  0.49621340  1
  Sb  Sb58  1  0.00626449  0.49421550  0.83752456  1
  Sb  Sb59  1  0.50266650  0.16691271  0.33312207  1
  Sb  Sb60  1  0.16715049  0.33053433  0.17150669  1
  Sb  Sb61  1  0.83170719  0.16790960  0.33800286  1
  Sb  Sb62  1  0.00656045  0.84023416  0.17170562  1
  Sb  Sb63  1  0.50051880  0.32687441  0.49489090  1
  Sb  Sb64  1  0.83187192  0.49850279  0.65975421  1
  Sb  Sb65  1  0.83395647  0.00229223  0.83066455  1
  Sb  Sb66  1  0.33631891  0.16353890  0.50482804  1
  Sb  Sb67  1  0.66755583  0.49291418  0.49817137  1
  Sb  Sb68  1  0.66027517  0.49388434  0.83211513  1
  Sb  Sb69  1  0.66871322  0.66593350  -0.00301794  1
  Sb  Sb70  1  0.83024997  0.66851818  0.82744672  1
  Sb  Sb71  1  0.83497694  0.50031200  0.00904696  1
  Sb  Sb72  1  0.16535163  0.83530236  0.66033898  1
  Sb  Sb73  1  0.00617722  0.49485171  0.17174834  1
  Sb  Sb74  1  0.83204340  0.33086728  0.83383963  1
  Sb  Sb75  1  0.33118424  -0.00011270  0.33728223  1
  Sb  Sb76  1  0.49723646  0.49579432  0.00392978  1
  Sb  Sb77  1  0.16998400  0.49945839  0.65850225  1
  Sb  Sb78  1  0.49586058  0.00415811  0.17068268  1
  Sb  Sb79  1  -0.00327259  0.16195550  0.49819275  1
  Sb  Sb80  1  0.16863961  0.49829226  0.00819507  1
  Sb  Sb81  1  0.16861448  0.16542951  0.66945325  1
  Sb  Sb82  1  0.49836103  0.33270234  0.83778412  1
  Sb  Sb83  1  0.00039657  0.83867741  0.83384743  1
  Sb  Sb84  1  0.49427114  0.66499835  0.16535505  1
  Sb  Sb85  1  0.66922120  0.83914851  0.49907348  1
  Sb  Sb86  1  0.33227874  0.16835878  0.16230419  1
  Sb  Sb87  1  0.67236623  0.66751744  0.33710480  1
  Sb  Sb88  1  0.32887017  0.00431371  -0.00271866  1
  Sb  Sb89  1  0.50260007  0.83826847  0.66351236  1
  Sb  Sb90  1  0.84242926  0.66489803  0.17401564  1
  Sb  Sb91  1  -0.00219833  0.32436125  0.66222378  1
  Sb  Sb92  1  0.16973532  0.66755705  0.83270493  1
  Sb  Sb93  1  0.66101109  0.49115552  0.16999451  1
  Sb  Sb94  1  0.32567236  0.66524824  0.33674975  1
  Sb  Sb95  1  0.67002025  0.00612724  0.00123502  1
  Sb  Sb96  1  0.66295943  0.83989006  0.16930730  1
  Sb  Sb97  1  0.83917574  0.00456216  0.16908575  1
  Sb  Sb98  1  0.32995653  0.66630066  -0.00288347  1
  Sb  Sb99  1  0.16970509  0.33119073  0.83231309  1
  Sb  Sb100  1  0.83455397  -0.00103173  0.49992072  1
  Sb  Sb101  1  0.66532315  0.83908707  0.83170662  1
  Sb  Sb102  1  0.83507964  0.16502122  -0.00190427  1
  Sb  Sb103  1  0.49955481  0.00131439  0.82951800  1
  Sb  Sb104  1  0.00033994  0.67491083  0.66190182  1
  Sb  Sb105  1  0.33439714  0.83608265  0.83224613  1
  Sb  Sb106  1  0.16589520  0.00096882  0.83345250  1
  Sb  Sb107  1  0.16482186  0.16497816  0.32949797  1
  Te  Te108  1  0.16411970  0.16137203  0.16103767  1
  Te  Te109  1  0.16622792  0.16688252  0.50042556  1
  Te  Te110  1  0.16587530  0.16676831  0.84069340  1
  Te  Te111  1  0.17255368  0.50489119  0.17422061  1
  Te  Te112  1  0.16623952  0.49609082  0.49143754  1
  Te  Te113  1  0.17543702  0.49982920  0.83249179  1
  Te  Te114  1  0.16762889  0.83418611  0.16877397  1
  Te  Te115  1  0.16565271  0.83524950  0.49881607  1
  Te  Te116  1  0.16725909  0.83310326  0.84554564  1
  Te  Te117  1  0.50112120  0.17019774  0.16165517  1
  Te  Te118  1  0.50434219  0.16016902  0.50427794  1
  Te  Te119  1  0.49982682  0.16687234  0.83421714  1
  Te  Te120  1  0.49250905  0.49616979  0.17189022  1
  Te  Te121  1  0.49982218  0.50243589  0.49055351  1
  Te  Te122  1  0.49355592  0.50593121  0.83229391  1
  Te  Te123  1  0.49439964  0.83340032  0.16759709  1
  Te  Te124  1  0.49630870  0.83930022  0.49625359  1
  Te  Te125  1  0.49941948  0.82922400  0.83894946  1
  Te  Te126  1  0.83391762  0.17131158  0.16511405  1
  Te  Te127  1  0.83049326  0.17253876  0.50558744  1
  Te  Te128  1  0.83283044  0.16764101  0.82604576  1
  Te  Te129  1  0.83287319  0.49447753  0.17498005  1
  Te  Te130  1  0.83410285  0.49795246  0.49262727  1
  Te  Te131  1  0.83332112  0.50034227  0.83414107  1
  Te  Te132  1  0.83141781  0.83301642  0.16817896  1
  Te  Te133  1  0.83487500  0.83203298  0.49768983  1
  Te  Te134  1  0.83278091  0.83266786  0.83580890  1
  Te  Te135  1  0.16383246  0.00125051  0.00001705  1
  Te  Te136  1  0.16473669  -0.00171415  0.33389910  1
  Te  Te137  1  0.16574268  -0.00106315  0.66176284  1
  Te  Te138  1  0.16658972  0.33038223  0.00112681  1
  Te  Te139  1  0.16632135  0.33152622  0.33463262  1
  Te  Te140  1  0.16931351  0.33347832  0.65848823  1
  Te  Te141  1  0.16200468  0.66689796  0.00078754  1
  Te  Te142  1  0.16481911  0.66874440  0.33499889  1
  Te  Te143  1  0.17154136  0.66724018  0.66151877  1
  Te  Te144  1  0.50072741  0.00078482  -0.00029533  1
  Te  Te145  1  0.50111121  -0.00311834  0.33733937  1
  Te  Te146  1  0.50060112  0.00287671  0.66358512  1
  Te  Te147  1  0.49892746  0.33041084  0.00399849  1
  Te  Te148  1  0.49965566  0.33392046  0.33025217  1
  Te  Te149  1  0.49974926  0.32954958  0.66506749  1
  Te  Te150  1  0.50112573  0.66948778  -0.00311982  1
  Te  Te151  1  0.50285213  0.66983366  0.33282811  1
  Te  Te152  1  0.49864923  0.66719281  0.66803003  1
  Te  Te153  1  0.83840871  -0.00755618  0.00091355  1
  Te  Te154  1  0.83456482  -0.00614357  0.33276578  1
  Te  Te155  1  0.83243414  -0.00019879  0.66615005  1
  Te  Te156  1  0.83423559  0.33412846  0.00423324  1
  Te  Te157  1  0.83303879  0.33104337  0.33316727  1
  Te  Te158  1  0.82986576  0.33178976  0.66239889  1
  Te  Te159  1  0.83780964  0.67042961  0.00099859  1
  Te  Te160  1  0.83880934  0.67192294  0.33844296  1
  Te  Te161  1  0.83180611  0.66722925  0.65986757  1
  Te  Te162  1  -0.00247191  0.16402689  0.00057871  1
  Te  Te163  1  -0.00165528  0.16696107  0.32928221  1
  Te  Te164  1  0.00100998  0.16079574  0.66936284  1
  Te  Te165  1  0.00064596  0.49520428  0.00104186  1
  Te  Te166  1  0.00059823  0.49389524  0.33374910  1
  Te  Te167  1  0.00086362  0.49954613  0.67019579  1
  Te  Te168  1  0.00168667  0.83691454  -0.00011010  1
  Te  Te169  1  0.00285510  0.83432109  0.33329525  1
  Te  Te170  1  -0.00547075  0.84009430  0.66594808  1
  Te  Te171  1  0.33759151  0.16949558  -0.00376359  1
  Te  Te172  1  0.33438437  0.17530025  0.33328891  1
  Te  Te173  1  0.33393900  0.16692948  0.67057823  1
  Te  Te174  1  0.33346142  0.49382307  0.00077181  1
  Te  Te175  1  0.33258508  0.49856250  0.33115181  1
  Te  Te176  1  0.33423513  0.49554292  0.66999432  1
  Te  Te177  1  0.33346098  0.83484283  0.00095715  1
  Te  Te178  1  0.33189923  0.83299379  0.33428262  1
  Te  Te179  1  0.33395695  0.83557218  0.66416263  1
  Te  Te180  1  0.66758003  0.16904392  0.00414337  1
  Te  Te181  1  0.66634368  0.16599434  0.32895551  1
  Te  Te182  1  0.66474103  0.16570111  0.66579869  1
  Te  Te183  1  0.66642373  0.48980040  -0.00097913  1
  Te  Te184  1  0.66834197  0.49630713  0.33317773  1
  Te  Te185  1  0.66564339  0.50476787  0.66648952  1
  Te  Te186  1  0.66289204  0.83518082  0.00055206  1
  Te  Te187  1  0.66073161  0.83652443  0.33323624  1
  Te  Te188  1  0.67071733  0.83060202  0.66651957  1
  Te  Te189  1  0.00396877  0.00632020  0.16811975  1
  Te  Te190  1  0.00240525  -0.00269335  0.49683529  1
  Te  Te191  1  -0.00001632  0.00613850  0.83276033  1
  Te  Te192  1  0.00115218  0.32957749  0.16855125  1
  Te  Te193  1  -0.00022468  0.33277227  0.49604458  1
  Te  Te194  1  0.00079936  0.32673055  0.83679120  1
  Te  Te195  1  0.00591437  0.66329249  0.16744502  1
  Te  Te196  1  0.00107766  0.67142001  0.49720851  1
  Te  Te197  1  0.00017157  0.66413353  0.83693730  1
  Te  Te198  1  0.32776879  -0.00511551  0.16685443  1
  Te  Te199  1  0.33101465  -0.00269183  0.50228121  1
  Te  Te200  1  0.33295442  0.00672124  0.82454656  1
  Te  Te201  1  0.33365661  0.33415998  0.16732632  1
  Te  Te202  1  0.33171371  0.33312978  0.49871697  1
  Te  Te203  1  0.33406927  0.33180440  0.83100897  1
  Te  Te204  1  0.32825658  0.66918174  0.16496463  1
  Te  Te205  1  0.33088567  0.67045732  0.50535471  1
  Te  Te206  1  0.33664762  0.66757993  0.82862044  1
  Te  Te207  1  0.66559723  0.00767577  0.17172818  1
  Te  Te208  1  0.66665572  0.00361233  0.49852003  1
  Te  Te209  1  0.66653019  0.00782874  0.82832653  1
  Te  Te210  1  0.66611290  0.33110397  0.16982128  1
  Te  Te211  1  0.66771657  0.32837631  0.49912951  1
  Te  Te212  1  0.66537412  0.32839770  0.82570029  1
  Te  Te213  1  0.66722643  0.66493709  0.16520724  1
  Te  Te214  1  0.66912265  0.66674462  0.50457179  1
  Te  Te215  1  0.66168234  0.66561646  0.82891481  1
