# generated using pymatgen
data_AgSbTe2
_symmetry_space_group_name_H-M   'P 1'
_cell_length_a   18.34732493
_cell_length_b   18.34911199
_cell_length_c   18.34461276
_cell_angle_alpha   90.00399650
_cell_angle_beta   89.99859994
_cell_angle_gamma   90.00009567
_symmetry_Int_Tables_number   1
_chemical_formula_structural   AgSbTe2
_chemical_formula_sum   'Ag54 Sb54 Te108'
_cell_volume   6175.84448247
_cell_formula_units_Z   54
loop_
 _symmetry_equiv_pos_site_id
 _symmetry_equiv_pos_as_xyz
  1  'x, y, z'
loop_
 _atom_site_type_symbol
 _atom_site_label
 _atom_site_symmetry_multiplicity
 _atom_site_fract_x
 _atom_site_fract_y
 _atom_site_fract_z
 _atom_site_occupancy
  Ag  Ag0  1  0.83596534  0.50150479  0.33992793  1
  Ag  Ag1  1  0.84527434  0.81932086  0.33732785  1
  Ag  Ag2  1  0.66386507  0.00031998  -0.00553117  1
  Ag  Ag3  1  0.50701000  0.49578595  0.33893921  1
  Ag  Ag4  1  0.66694776  0.33748254  0.33829436  1
  Ag  Ag5  1  0.83156117  0.49755198  0.00233614  1
  Ag  Ag6  1  -0.00180983  0.66599842  0.33471551  1
  Ag  Ag7  1  0.82500083  0.34508622  0.50028776  1
  Ag  Ag8  1  0.82422779  0.17780318  0.67090112  1
  Ag  Ag9  1  0.50024200  0.33553188  0.17829153  1
  Ag  Ag10  1  0.00011106  0.82215325  0.48954241  1
  Ag  Ag11  1  0.50641880  0.16844289  0.66929018  1
  Ag  Ag12  1  0.00110349  0.82112170  0.17752015  1
  Ag  Ag13  1  0.66601367  0.18202137  0.83208228  1
  Ag  Ag14  1  0.50308309  0.66164078  0.50078219  1
  Ag  Ag15  1  0.33306767  0.66845249  -0.00487271  1
  Ag  Ag16  1  0.67026897  0.50191208  0.50345956  1
  Ag  Ag17  1  0.66614511  0.65759660  -0.00751980  1
  Ag  Ag18  1  0.33612182  -0.00608493  0.00124406  1
  Ag  Ag19  1  0.17423111  0.82533511  0.65650607  1
  Ag  Ag20  1  0.15960983  0.66188212  0.17007806  1
  Ag  Ag21  1  0.00696949  -0.01854414  0.33119811  1
  Ag  Ag22  1  0.15758023  0.83037824  0.33730955  1
  Ag  Ag23  1  0.33969571  0.82822862  0.82462964  1
  Ag  Ag24  1  0.82924466  0.49745310  0.65266163  1
  Ag  Ag25  1  -0.00094650  0.50172544  0.17347754  1
  Ag  Ag26  1  0.00244824  0.17534000  0.17048886  1
  Ag  Ag27  1  0.82937150  0.17705456  -0.00251140  1
  Ag  Ag28  1  0.50864207  0.34454360  0.49708985  1
  Ag  Ag29  1  0.32917017  0.82391946  0.50479958  1
  Ag  Ag30  1  0.16321085  0.16770274  0.32900342  1
  Ag  Ag31  1  -0.00140172  0.34293933  0.33060842  1
  Ag  Ag32  1  0.84054192  0.66310776  0.17871791  1
  Ag  Ag33  1  0.66778512  0.34220585  0.67028515  1
  Ag  Ag34  1  0.66632209  0.82059629  0.50439111  1
  Ag  Ag35  1  0.16402745  0.17254186  0.00873602  1
  Ag  Ag36  1  0.32867985  -0.00107463  0.33222844  1
  Ag  Ag37  1  0.83315591  0.65900369  0.49687874  1
  Ag  Ag38  1  0.82412587  0.33662165  0.82523419  1
  Ag  Ag39  1  0.50308071  -0.00001951  0.83253748  1
  Ag  Ag40  1  0.33845077  0.66968760  0.65913595  1
  Ag  Ag41  1  0.17137354  0.66689879  0.83330120  1
  Ag  Ag42  1  0.66123575  0.82839735  0.82619383  1
  Ag  Ag43  1  0.66875665  0.33779821  -0.01456016  1
  Ag  Ag44  1  0.33297678  0.33744956  0.33408699  1
  Ag  Ag45  1  -0.01536124  0.50485848  0.49016328  1
  Ag  Ag46  1  0.16594507  0.66749278  0.49862441  1
  Ag  Ag47  1  0.16346284  0.50162532  0.00346623  1
  Ag  Ag48  1  0.51200927  0.33181667  0.82901191  1
  Ag  Ag49  1  0.66885868  0.49471214  0.82423887  1
  Ag  Ag50  1  0.33847997  0.50691537  0.49877826  1
  Ag  Ag51  1  0.16493347  0.33835873  0.17073294  1
  Ag  Ag52  1  0.66381675  0.66096769  0.66340411  1
  Ag  Ag53  1  0.49809653  0.83092048  0.66649696  1
  Sb  Sb54  1  -0.01008679  0.33414981  0.65810031  1
  Sb  Sb55  1  0.32767693  0.16805419  0.16693015  1
  Sb  Sb56  1  0.32836633  0.83034518  0.17096711  1
  Sb  Sb57  1  0.67322027  0.17190923  0.15930012  1
  Sb  Sb58  1  0.16762174  -0.01156332  0.49572040  1
  Sb  Sb59  1  0.34414905  0.34125357  0.66037690  1
  Sb  Sb60  1  -0.00663967  0.50081377  0.83306569  1
  Sb  Sb61  1  -0.00727555  0.16798271  0.83925847  1
  Sb  Sb62  1  -0.00156893  0.66641799  0.65676949  1
  Sb  Sb63  1  0.33988260  0.50493060  0.82997652  1
  Sb  Sb64  1  0.34022499  0.16139186  0.83476508  1
  Sb  Sb65  1  0.83060275  0.82863443  0.00316848  1
  Sb  Sb66  1  0.00088808  0.83051239  0.83140906  1
  Sb  Sb67  1  0.83502581  0.34043527  0.16967804  1
  Sb  Sb68  1  0.16626324  0.34208902  0.49306495  1
  Sb  Sb69  1  0.49788288  0.82695405  0.34279332  1
  Sb  Sb70  1  0.49997361  0.83292524  -0.00679023  1
  Sb  Sb71  1  0.16523891  0.00020950  0.16864173  1
  Sb  Sb72  1  0.83264464  -0.00173945  0.49884056  1
  Sb  Sb73  1  0.67333897  0.66063138  0.34036686  1
  Sb  Sb74  1  0.16245473  0.50577553  0.66762158  1
  Sb  Sb75  1  0.67074065  0.82848180  0.16949836  1
  Sb  Sb76  1  0.83488050  -0.00388328  0.16754624  1
  Sb  Sb77  1  0.33777892  0.33569677  0.00325415  1
  Sb  Sb78  1  0.49992430  -0.00249512  0.50406485  1
  Sb  Sb79  1  0.83113013  0.66105683  0.82999489  1
  Sb  Sb80  1  0.83812289  0.17310670  0.33169559  1
  Sb  Sb81  1  0.67309438  0.49974845  0.16931162  1
  Sb  Sb82  1  0.32661912  0.66429156  0.33929522  1
  Sb  Sb83  1  0.32756105  0.50074648  0.17177372  1
  Sb  Sb84  1  -0.00642579  0.33430071  0.00637941  1
  Sb  Sb85  1  0.50303822  0.49981220  0.00334089  1
  Sb  Sb86  1  0.33544481  -0.00929205  0.66565857  1
  Sb  Sb87  1  0.66535393  -0.00082661  0.67100234  1
  Sb  Sb88  1  0.33320884  0.16772183  0.49889507  1
  Sb  Sb89  1  0.16732342  0.16459624  0.66711389  1
  Sb  Sb90  1  0.50360718  0.16852063  -0.00455837  1
  Sb  Sb91  1  0.16843406  0.82793271  0.00429157  1
  Sb  Sb92  1  0.49999383  0.66108175  0.17244065  1
  Sb  Sb93  1  0.16081368  0.50190029  0.33090402  1
  Sb  Sb94  1  0.16754974  0.33832320  0.84040378  1
  Sb  Sb95  1  -0.00114980  0.17025734  0.49201907  1
  Sb  Sb96  1  0.66502473  0.00236423  0.33068886  1
  Sb  Sb97  1  0.00032705  0.00205241  0.00612691  1
  Sb  Sb98  1  0.49926584  0.00599347  0.16250755  1
  Sb  Sb99  1  0.82398674  0.00606858  0.83543382  1
  Sb  Sb100  1  -0.00032622  0.66463947  0.00797557  1
  Sb  Sb101  1  0.50877539  0.50224359  0.65898891  1
  Sb  Sb102  1  0.17441237  -0.00645032  0.83785862  1
  Sb  Sb103  1  0.49604338  0.17491818  0.33900933  1
  Sb  Sb104  1  0.82974107  0.82769454  0.66026233  1
  Sb  Sb105  1  0.50052638  0.66478136  0.82621312  1
  Sb  Sb106  1  0.66783584  0.17528749  0.50684739  1
  Sb  Sb107  1  -0.00153013  -0.00196902  0.65779188  1
  Te  Te108  1  0.16296007  0.16821187  0.16825152  1
  Te  Te109  1  0.16584494  0.16796796  0.49793186  1
  Te  Te110  1  0.16603773  0.16727670  0.83634422  1
  Te  Te111  1  0.16261643  0.50004330  0.16445858  1
  Te  Te112  1  0.17388276  0.50708998  0.50202461  1
  Te  Te113  1  0.16657742  0.50518329  0.83887122  1
  Te  Te114  1  0.16217856  0.82877428  0.17198844  1
  Te  Te115  1  0.16686144  0.82809392  0.49812452  1
  Te  Te116  1  0.16961909  0.82738084  0.83363327  1
  Te  Te117  1  0.50086538  0.17461393  0.16769353  1
  Te  Te118  1  0.50048216  0.16818939  0.50743402  1
  Te  Te119  1  0.50499336  0.16815512  0.82970558  1
  Te  Te120  1  0.49817390  0.49460850  0.17444108  1
  Te  Te121  1  0.49991513  0.50100412  0.49897443  1
  Te  Te122  1  0.50715850  0.49538034  0.83532867  1
  Te  Te123  1  0.50016134  0.83436888  0.17004361  1
  Te  Te124  1  0.50171046  0.83097320  0.50610892  1
  Te  Te125  1  0.49935983  0.83097994  0.82819350  1
  Te  Te126  1  0.84007865  0.16724359  0.16244403  1
  Te  Te127  1  0.83354177  0.16948118  0.50430021  1
  Te  Te128  1  0.82839537  0.17227584  0.83542238  1
  Te  Te129  1  0.83836453  0.50425225  0.16231064  1
  Te  Te130  1  0.83012794  0.49957062  0.49660626  1
  Te  Te131  1  0.82876598  0.49626684  0.84283014  1
  Te  Te132  1  0.83826957  0.82664214  0.17182839  1
  Te  Te133  1  0.83413789  0.83198027  0.49739959  1
  Te  Te134  1  0.83091118  0.83411628  0.83101268  1
  Te  Te135  1  0.17138976  0.00497014  0.00129755  1
  Te  Te136  1  0.16707259  0.00133344  0.33287024  1
  Te  Te137  1  0.16693433  -0.00514861  0.66841832  1
  Te  Te138  1  0.16877356  0.33500373  0.00538173  1
  Te  Te139  1  0.16749720  0.33290991  0.33036196  1
  Te  Te140  1  0.16741072  0.33162293  0.66889023  1
  Te  Te141  1  0.16681114  0.66452923  0.00292302  1
  Te  Te142  1  0.16381743  0.66880158  0.33265232  1
  Te  Te143  1  0.16630909  0.66832775  0.66472211  1
  Te  Te144  1  0.49853701  0.00135147  -0.00442152  1
  Te  Te145  1  0.49497827  0.00172249  0.33180468  1
  Te  Te146  1  0.49863704  0.00058105  0.67143552  1
  Te  Te147  1  0.50565543  0.33332303  -0.00325147  1
  Te  Te148  1  0.49806562  0.33533759  0.33712383  1
  Te  Te149  1  0.50470985  0.33252510  0.66504608  1
  Te  Te150  1  0.50033435  0.66662197  0.00326253  1
  Te  Te151  1  0.49918665  0.65913658  0.33919293  1
  Te  Te152  1  0.50158292  0.66962187  0.66178476  1
  Te  Te153  1  0.82964700  0.00367188  0.00038657  1
  Te  Te154  1  0.83495949  0.00070756  0.33295974  1
  Te  Te155  1  0.83391631  0.01016152  0.66732445  1
  Te  Te156  1  0.82876390  0.33434679  0.00403592  1
  Te  Te157  1  0.83359730  0.33692030  0.33559138  1
  Te  Te158  1  0.82943145  0.33558152  0.66482953  1
  Te  Te159  1  0.82898068  0.66332401  -0.00263252  1
  Te  Te160  1  0.83306489  0.66283082  0.33551734  1
  Te  Te161  1  0.82788760  0.66176573  0.66229587  1
  Te  Te162  1  0.00236758  0.16690371  0.00650977  1
  Te  Te163  1  0.00328762  0.17560042  0.32896379  1
  Te  Te164  1  -0.00200373  0.16580012  0.66657384  1
  Te  Te165  1  0.00066906  0.49940174  0.00087333  1
  Te  Te166  1  -0.00111015  0.50310744  0.33344114  1
  Te  Te167  1  -0.00809369  0.49882533  0.66321254  1
  Te  Te168  1  -0.00074792  0.83571427  0.00554936  1
  Te  Te169  1  0.00107405  0.82683646  0.33358028  1
  Te  Te170  1  0.00212711  0.83458680  0.66200170  1
  Te  Te171  1  0.32876603  0.16457614  -0.00036260  1
  Te  Te172  1  0.32737329  0.16557474  0.33357349  1
  Te  Te173  1  0.33600670  0.16691339  0.66726716  1
  Te  Te174  1  0.33004543  0.50441107  -0.00137949  1
  Te  Te175  1  0.33472547  0.49784958  0.33742317  1
  Te  Te176  1  0.33079547  0.50860077  0.66204242  1
  Te  Te177  1  0.33342281  0.83276033  0.00003399  1
  Te  Te178  1  0.33132464  0.83520111  0.33836025  1
  Te  Te179  1  0.33362843  0.82941448  0.66554540  1
  Te  Te180  1  0.66951634  0.16966178  -0.00564524  1
  Te  Te181  1  0.66721560  0.17014351  0.33300283  1
  Te  Te182  1  0.66627449  0.16491834  0.67151993  1
  Te  Te183  1  0.66752505  0.49828761  0.00377353  1
  Te  Te184  1  0.66967476  0.49755650  0.33520701  1
  Te  Te185  1  0.66950983  0.50142289  0.66566643  1
  Te  Te186  1  0.66660737  0.83561818  -0.00212288  1
  Te  Te187  1  0.66692027  0.83585666  0.33823268  1
  Te  Te188  1  0.66630820  0.83255171  0.66439067  1
  Te  Te189  1  -0.00032697  0.00039210  0.17368870  1
  Te  Te190  1  0.00039705  -0.00145311  0.49040296  1
  Te  Te191  1  0.00076881  -0.00121791  0.83405586  1
  Te  Te192  1  0.00213814  0.33681308  0.17025030  1
  Te  Te193  1  -0.00156553  0.33860935  0.49201934  1
  Te  Te194  1  -0.00433329  0.33361647  0.83246472  1
  Te  Te195  1  -0.00007852  0.66313037  0.16859799  1
  Te  Te196  1  -0.00163248  0.66509854  0.49716479  1
  Te  Te197  1  0.00753562  0.66735207  0.83291056  1
  Te  Te198  1  0.33424785  -0.00133034  0.16537859  1
  Te  Te199  1  0.33414277  -0.00302095  0.49459484  1
  Te  Te200  1  0.34000718  -0.00647927  0.83656160  1
  Te  Te201  1  0.33235017  0.33405652  0.17145952  1
  Te  Te202  1  0.33485300  0.33567285  0.49473003  1
  Te  Te203  1  0.33792858  0.33403790  0.83216157  1
  Te  Te204  1  0.33120196  0.66659628  0.15922082  1
  Te  Te205  1  0.33261024  0.66778753  0.49961592  1
  Te  Te206  1  0.33390313  0.66861248  0.83419191  1
  Te  Te207  1  0.66593303  0.00069916  0.15731322  1
  Te  Te208  1  0.66584658  -0.00625971  0.49784636  1
  Te  Te209  1  0.66117709  -0.01168425  0.83653549  1
  Te  Te210  1  0.66292411  0.33344765  0.17687543  1
  Te  Te211  1  0.66635286  0.33523004  0.50000996  1
  Te  Te212  1  0.66816364  0.33776231  0.83042161  1
  Te  Te213  1  0.66740355  0.66698878  0.15630675  1
  Te  Te214  1  0.66802772  0.66345431  0.49990728  1
  Te  Te215  1  0.66666204  0.66868901  0.83207427  1
