# generated using pymatgen
data_AgSbTe2
_symmetry_space_group_name_H-M   'P 1'
_cell_length_a   18.33103718
_cell_length_b   18.33325287
_cell_length_c   18.34029101
_cell_angle_alpha   89.99941839
_cell_angle_beta   90.00226227
_cell_angle_gamma   89.99857511
_symmetry_Int_Tables_number   1
_chemical_formula_structural   AgSbTe2
_chemical_formula_sum   'Ag54 Sb54 Te108'
_cell_volume   6163.57647761
_cell_formula_units_Z   54
loop_
 _symmetry_equiv_pos_site_id
 _symmetry_equiv_pos_as_xyz
  1  'x, y, z'
loop_
 _atom_site_type_symbol
 _atom_site_label
 _atom_site_symmetry_multiplicity
 _atom_site_fract_x
 _atom_site_fract_y
 _atom_site_fract_z
 _atom_site_occupancy
  Ag  Ag0  1  -0.00185695  0.15645316  0.83119520  1
  Ag  Ag1  1  0.67279845  -0.00094479  0.32609960  1
  Ag  Ag2  1  0.33965071  0.16538137  0.16347234  1
  Ag  Ag3  1  0.83567660  0.49987496  -0.00512439  1
  Ag  Ag4  1  0.00461343  0.50253555  0.16660375  1
  Ag  Ag5  1  0.49279198  0.83807497  0.67042301  1
  Ag  Ag6  1  0.16573094  0.83243547  0.32064818  1
  Ag  Ag7  1  0.66577981  0.84116072  0.16242512  1
  Ag  Ag8  1  0.84306634  -0.00088595  0.84364904  1
  Ag  Ag9  1  0.84063734  0.67155471  0.16794497  1
  Ag  Ag10  1  0.65222143  0.15800480  0.16654709  1
  Ag  Ag11  1  0.16132977  0.67466899  0.16930929  1
  Ag  Ag12  1  0.49946720  0.16364226  0.66797475  1
  Ag  Ag13  1  0.32653910  0.84081843  0.16182008  1
  Ag  Ag14  1  0.83935849  0.84066641  0.00016679  1
  Ag  Ag15  1  0.00100574  -0.00151314  -0.00376225  1
  Ag  Ag16  1  0.15796122  0.33358105  0.83430102  1
  Ag  Ag17  1  0.32973246  0.49839792  0.84154242  1
  Ag  Ag18  1  0.67941652  0.50176665  0.83395219  1
  Ag  Ag19  1  0.49913318  0.17094727  0.32049576  1
  Ag  Ag20  1  0.49828199  0.33319847  0.48952330  1
  Ag  Ag21  1  -0.00030969  0.33663393  0.67304258  1
  Ag  Ag22  1  0.15514563  -0.00684050  0.84125038  1
  Ag  Ag23  1  0.00143046  0.66899306  0.33178883  1
  Ag  Ag24  1  0.49251143  0.49215244  0.00440315  1
  Ag  Ag25  1  0.33156858  0.83526251  0.49671504  1
  Ag  Ag26  1  0.33686988  0.33618298  0.32163727  1
  Ag  Ag27  1  0.49421722  0.32122023  0.17001752  1
  Ag  Ag28  1  0.67629877  0.49925346  0.50096223  1
  Ag  Ag29  1  0.67584303  0.83431136  0.83872601  1
  Ag  Ag30  1  0.83268341  0.15639682  -0.00136107  1
  Ag  Ag31  1  0.50005275  0.00854121  0.16618535  1
  Ag  Ag32  1  0.84021352  0.34023824  0.83534776  1
  Ag  Ag33  1  -0.00041145  -0.00044227  0.68148256  1
  Ag  Ag34  1  0.33216786  0.49614630  0.16111530  1
  Ag  Ag35  1  0.33478559  0.33152974  0.00348915  1
  Ag  Ag36  1  0.16555750  0.83511078  0.67817669  1
  Ag  Ag37  1  -0.00533829  0.50086157  0.50514246  1
  Ag  Ag38  1  0.32270509  0.83568313  0.83916760  1
  Ag  Ag39  1  -0.00289420  0.16308598  0.50731874  1
  Ag  Ag40  1  0.00418900  0.84410509  0.83294948  1
  Ag  Ag41  1  0.83871397  -0.00426672  0.49949802  1
  Ag  Ag42  1  0.16448905  0.83923751  0.00123043  1
  Ag  Ag43  1  0.83893223  0.50134929  0.67651716  1
  Ag  Ag44  1  0.49385594  0.49187957  0.32362272  1
  Ag  Ag45  1  0.16521707  0.50375010  0.32702549  1
  Ag  Ag46  1  0.83833759  0.66861884  0.49649672  1
  Ag  Ag47  1  -0.00171559  -0.00487634  0.32955408  1
  Ag  Ag48  1  0.49962831  0.16871731  0.00869090  1
  Ag  Ag49  1  -0.00198654  0.66389725  0.66467299  1
  Ag  Ag50  1  0.32661321  -0.00014831  0.00406675  1
  Ag  Ag51  1  0.83586665  -0.00344839  0.16059499  1
  Ag  Ag52  1  -0.00243088  0.49734303  0.83318582  1
  Ag  Ag53  1  0.16633004  -0.00605818  0.16076896  1
  Sb  Sb54  1  0.50380120  0.00376228  0.49502167  1
  Sb  Sb55  1  0.50412511  0.49942022  0.66948660  1
  Sb  Sb56  1  0.83831902  0.83083576  0.67322634  1
  Sb  Sb57  1  0.49872824  0.66693166  0.16696790  1
  Sb  Sb58  1  0.67123757  0.00015968  0.00699476  1
  Sb  Sb59  1  0.00137109  0.16483481  0.16354963  1
  Sb  Sb60  1  0.17301014  0.33250892  0.16155648  1
  Sb  Sb61  1  0.49974635  0.33382659  0.83689033  1
  Sb  Sb62  1  0.16271707  0.67057287  0.83874810  1
  Sb  Sb63  1  0.32652763  0.66342654  0.33108872  1
  Sb  Sb64  1  0.00275366  0.83367549  0.50418004  1
  Sb  Sb65  1  0.16573921  0.50367722  0.00311601  1
  Sb  Sb66  1  0.67020805  0.33370168  0.66828207  1
  Sb  Sb67  1  0.50099492  -0.00048331  0.83980122  1
  Sb  Sb68  1  0.33204077  0.66861367  0.00142105  1
  Sb  Sb69  1  0.15841200  0.50581245  0.66712613  1
  Sb  Sb70  1  0.67401081  0.66753370  0.66645561  1
  Sb  Sb71  1  -0.00093457  0.67006827  0.00183761  1
  Sb  Sb72  1  0.16942111  0.16527614  0.33108750  1
  Sb  Sb73  1  0.83483025  0.16772904  0.67185968  1
  Sb  Sb74  1  0.66957282  0.16969210  0.49567540  1
  Sb  Sb75  1  0.83073127  0.33198976  0.15899120  1
  Sb  Sb76  1  0.00233588  0.83288774  0.16069321  1
  Sb  Sb77  1  0.16561736  0.16209012  0.66949094  1
  Sb  Sb78  1  0.49525353  0.83462727  0.33290692  1
  Sb  Sb79  1  0.67114137  -0.00154956  0.66445601  1
  Sb  Sb80  1  0.00380543  0.32969182  -0.00649247  1
  Sb  Sb81  1  0.84107345  0.83541187  0.32520006  1
  Sb  Sb82  1  0.66567595  0.83139438  0.49943997  1
  Sb  Sb83  1  0.33104465  0.00130433  0.32348424  1
  Sb  Sb84  1  0.50439253  0.66213878  0.49925804  1
  Sb  Sb85  1  0.66911919  0.66699897  0.00081823  1
  Sb  Sb86  1  0.33186620  0.50257426  0.49741912  1
  Sb  Sb87  1  0.49945978  0.66719227  0.83294551  1
  Sb  Sb88  1  0.32503906  0.66970569  0.66669814  1
  Sb  Sb89  1  0.83022105  0.16213427  0.32623859  1
  Sb  Sb90  1  0.33243997  0.16216614  0.49500929  1
  Sb  Sb91  1  0.15924896  0.66870506  0.49415306  1
  Sb  Sb92  1  0.66567339  0.50085606  0.16511801  1
  Sb  Sb93  1  0.83330091  0.33501868  0.50492268  1
  Sb  Sb94  1  0.16048013  -0.00331765  0.49886234  1
  Sb  Sb95  1  0.00599132  0.33515517  0.33714506  1
  Sb  Sb96  1  0.67270159  0.67016603  0.33154807  1
  Sb  Sb97  1  0.16722054  0.16008970  -0.00056007  1
  Sb  Sb98  1  0.49838546  0.83704346  -0.00119993  1
  Sb  Sb99  1  0.32882974  -0.00231758  0.67333733  1
  Sb  Sb100  1  0.83735895  0.66679484  0.83719172  1
  Sb  Sb101  1  0.65983583  0.33170884  0.33239491  1
  Sb  Sb102  1  0.33028600  0.33382686  0.67142684  1
  Sb  Sb103  1  0.67183757  0.16479849  0.83865727  1
  Sb  Sb104  1  0.32974607  0.16563683  0.84019748  1
  Sb  Sb105  1  0.83648164  0.50111473  0.33169878  1
  Sb  Sb106  1  0.16897758  0.33527284  0.50332537  1
  Sb  Sb107  1  0.66204431  0.33382288  0.00030936  1
  Te  Te108  1  0.17152102  0.16036437  0.16682157  1
  Te  Te109  1  0.15886653  0.16645966  0.50078970  1
  Te  Te110  1  0.16132121  0.16737801  0.83262955  1
  Te  Te111  1  0.16756292  0.49803121  0.16776097  1
  Te  Te112  1  0.16184898  0.50097776  0.49485374  1
  Te  Te113  1  0.16796110  0.50092983  0.83449855  1
  Te  Te114  1  0.16648465  0.83497533  0.16385958  1
  Te  Te115  1  0.17222506  0.83326661  0.50083233  1
  Te  Te116  1  0.16448146  0.83364783  0.83729037  1
  Te  Te117  1  0.49666376  0.16575205  0.16444511  1
  Te  Te118  1  0.50087105  0.17121975  0.50241878  1
  Te  Te119  1  0.50206674  0.16677128  0.83131331  1
  Te  Te120  1  0.49902646  0.50190338  0.16519810  1
  Te  Te121  1  0.49986364  0.49563977  0.50127441  1
  Te  Te122  1  0.49463179  0.49995600  0.83741475  1
  Te  Te123  1  0.50131333  0.83495601  0.16646282  1
  Te  Te124  1  0.49603037  0.83332431  0.50337627  1
  Te  Te125  1  0.49926227  0.83330106  0.83091354  1
  Te  Te126  1  0.83363362  0.16343858  0.15904318  1
  Te  Te127  1  0.83710378  0.16509417  0.50031155  1
  Te  Te128  1  0.83573681  0.16251245  0.83750931  1
  Te  Te129  1  0.83373963  0.50061737  0.16356313  1
  Te  Te130  1  0.83529649  0.49983748  0.49777965  1
  Te  Te131  1  0.83619115  0.50385806  0.83380247  1
  Te  Te132  1  0.83347851  0.83449184  0.16218145  1
  Te  Te133  1  0.83200418  0.83333561  0.50063854  1
  Te  Te134  1  0.83478308  0.83341768  0.83791339  1
  Te  Te135  1  0.16485633  -0.00094425  0.00029956  1
  Te  Te136  1  0.16288120  -0.00274904  0.33001779  1
  Te  Te137  1  0.16127352  -0.00497176  0.66986860  1
  Te  Te138  1  0.17284230  0.33309139  -0.00584663  1
  Te  Te139  1  0.17401720  0.33692359  0.33455540  1
  Te  Te140  1  0.16211279  0.33360455  0.67249868  1
  Te  Te141  1  0.16553983  0.67636092  0.00935366  1
  Te  Te142  1  0.16109046  0.66617550  0.32878799  1
  Te  Te143  1  0.15770841  0.67425956  0.66566650  1
  Te  Te144  1  0.49504207  0.00374443  0.00587587  1
  Te  Te145  1  0.50135044  0.00258289  0.32825569  1
  Te  Te146  1  0.50093109  -0.00060420  0.66497371  1
  Te  Te147  1  0.49598193  0.33164277  0.00271173  1
  Te  Te148  1  0.49757297  0.33255736  0.33044032  1
  Te  Te149  1  0.49910312  0.33071523  0.66661405  1
  Te  Te150  1  0.50085196  0.65417704  0.00036833  1
  Te  Te151  1  0.50114345  0.65925006  0.33419307  1
  Te  Te152  1  0.49940848  0.67297959  0.66481407  1
  Te  Te153  1  0.83413708  -0.00145056  0.00064315  1
  Te  Te154  1  0.83513345  -0.00097308  0.33229202  1
  Te  Te155  1  0.83834708  -0.00045654  0.66348620  1
  Te  Te156  1  0.83399409  0.33853768  -0.00555299  1
  Te  Te157  1  0.83397670  0.33127278  0.33212126  1
  Te  Te158  1  0.83856828  0.33656359  0.67242207  1
  Te  Te159  1  0.83402247  0.66250220  0.00750309  1
  Te  Te160  1  0.84026937  0.66841102  0.33185110  1
  Te  Te161  1  0.83985026  0.66333052  0.66153271  1
  Te  Te162  1  -0.00395513  0.16247332  -0.00377638  1
  Te  Te163  1  0.00011426  0.16584253  0.33519264  1
  Te  Te164  1  -0.00065874  0.16330006  0.66842194  1
  Te  Te165  1  -0.00137138  0.49986005  0.00116628  1
  Te  Te166  1  0.00298625  0.50064219  0.32960292  1
  Te  Te167  1  -0.00143388  0.49957547  0.66509922  1
  Te  Te168  1  -0.00155169  0.83594821  -0.00543216  1
  Te  Te169  1  0.00598470  0.83254457  0.33672350  1
  Te  Te170  1  0.00219763  0.83689237  0.67109772  1
  Te  Te171  1  0.33510999  0.16571690  0.00266165  1
  Te  Te172  1  0.33728363  0.17170598  0.33013128  1
  Te  Te173  1  0.33839919  0.16599284  0.66537117  1
  Te  Te174  1  0.33206506  0.50065083  0.00105266  1
  Te  Te175  1  0.33336451  0.49740798  0.33360978  1
  Te  Te176  1  0.33272007  0.50176994  0.67132688  1
  Te  Te177  1  0.33402227  0.83569775  0.00043037  1
  Te  Te178  1  0.32787870  0.83268192  0.32820046  1
  Te  Te179  1  0.33112159  0.83346558  0.67509882  1
  Te  Te180  1  0.66574373  0.16729488  0.00459570  1
  Te  Te181  1  0.66229623  0.16162280  0.32891246  1
  Te  Te182  1  0.66075235  0.16588765  0.66592192  1
  Te  Te183  1  0.67161710  0.50013805  -0.00434764  1
  Te  Te184  1  0.66238853  0.50119592  0.33526436  1
  Te  Te185  1  0.67224559  0.50073975  0.66941607  1
  Te  Te186  1  0.66681925  0.83325924  -0.00094967  1
  Te  Te187  1  0.66487012  0.83800678  0.32971660  1
  Te  Te188  1  0.66176548  0.83308040  0.67013856  1
  Te  Te189  1  -0.00128689  0.00107012  0.16827483  1
  Te  Te190  1  -0.00299787  0.00051912  0.49103059  1
  Te  Te191  1  -0.00073210  0.00059596  0.83662724  1
  Te  Te192  1  0.00076546  0.33851067  0.16658619  1
  Te  Te193  1  0.00066651  0.33482191  0.50560031  1
  Te  Te194  1  0.00004225  0.33889612  0.83295842  1
  Te  Te195  1  0.00053152  0.66469157  0.16728504  1
  Te  Te196  1  -0.00397646  0.66497188  0.49867405  1
  Te  Te197  1  0.00017200  0.65627226  0.82869627  1
  Te  Te198  1  0.33203146  -0.00028976  0.16433712  1
  Te  Te199  1  0.33362035  -0.00525680  0.50072416  1
  Te  Te200  1  0.33271248  -0.00235815  0.84034086  1
  Te  Te201  1  0.33460809  0.33602785  0.16411064  1
  Te  Te202  1  0.33725816  0.33234639  0.50162002  1
  Te  Te203  1  0.33125944  0.33510368  0.83817156  1
  Te  Te204  1  0.33026635  0.66457359  0.16729104  1
  Te  Te205  1  0.33408723  0.67510861  0.49941411  1
  Te  Te206  1  0.33116888  0.66639514  0.83341280  1
  Te  Te207  1  0.66913637  -0.00113074  0.16763895  1
  Te  Te208  1  0.67378266  0.00050817  0.49348056  1
  Te  Te209  1  0.67048795  -0.00410109  0.83159598  1
  Te  Te210  1  0.65991521  0.32952002  0.16742721  1
  Te  Te211  1  0.66195588  0.33910892  0.50039582  1
  Te  Te212  1  0.67384584  0.33754849  0.83331968  1
  Te  Te213  1  0.67274161  0.67317490  0.16786479  1
  Te  Te214  1  0.67502453  0.66000881  0.49898391  1
  Te  Te215  1  0.66743977  0.66702821  0.83270020  1
