# generated using pymatgen
data_AgSbTe2
_symmetry_space_group_name_H-M   'P 1'
_cell_length_a   18.33312335
_cell_length_b   18.33598476
_cell_length_c   18.33250829
_cell_angle_alpha   90.00358128
_cell_angle_beta   89.99526779
_cell_angle_gamma   90.00220881
_symmetry_Int_Tables_number   1
_chemical_formula_structural   AgSbTe2
_chemical_formula_sum   'Ag54 Sb54 Te108'
_cell_volume   6162.58024306
_cell_formula_units_Z   54
loop_
 _symmetry_equiv_pos_site_id
 _symmetry_equiv_pos_as_xyz
  1  'x, y, z'
loop_
 _atom_site_type_symbol
 _atom_site_label
 _atom_site_symmetry_multiplicity
 _atom_site_fract_x
 _atom_site_fract_y
 _atom_site_fract_z
 _atom_site_occupancy
  Ag  Ag0  1  0.66989429  0.16768041  0.83026245  1
  Ag  Ag1  1  0.82642134  0.66283462  0.83312719  1
  Ag  Ag2  1  0.17430135  0.49647934  0.66587571  1
  Ag  Ag3  1  0.32807815  0.34232943  0.33488843  1
  Ag  Ag4  1  0.00372079  0.34379576  0.00360992  1
  Ag  Ag5  1  0.49486997  0.82498396  0.66442929  1
  Ag  Ag6  1  0.00762487  0.83160858  0.49992024  1
  Ag  Ag7  1  0.50025845  0.66741054  0.50666532  1
  Ag  Ag8  1  0.16581907  0.16070857  0.66583382  1
  Ag  Ag9  1  0.49532501  0.82962186  0.33167258  1
  Ag  Ag10  1  0.49898358  0.66436655  0.83326041  1
  Ag  Ag11  1  0.84101798  0.33790124  0.50424405  1
  Ag  Ag12  1  0.17243699  -0.00370848  0.16891195  1
  Ag  Ag13  1  0.16661560  0.33381147  0.82311025  1
  Ag  Ag14  1  0.84083016  0.17424129  0.66836317  1
  Ag  Ag15  1  0.66420606  0.82681940  0.50013656  1
  Ag  Ag16  1  0.01311321  0.00176931  0.66731955  1
  Ag  Ag17  1  0.33047238  0.17639095  0.16750145  1
  Ag  Ag18  1  0.00211656  0.16943113  0.83041144  1
  Ag  Ag19  1  0.01087178  0.65843981  0.32845597  1
  Ag  Ag20  1  0.32580584  0.34212662  0.66369638  1
  Ag  Ag21  1  0.16468794  0.33409655  0.50379680  1
  Ag  Ag22  1  0.49338289  0.50422213  0.00072066  1
  Ag  Ag23  1  0.65414005  0.66235071  0.00095238  1
  Ag  Ag24  1  0.84213748  0.49921283  0.33582740  1
  Ag  Ag25  1  0.01225575  0.34213497  0.32980696  1
  Ag  Ag26  1  0.16534830  0.50001979  0.33042569  1
  Ag  Ag27  1  0.16585894  0.00018695  0.50806148  1
  Ag  Ag28  1  0.17027749  0.82707852  0.33785800  1
  Ag  Ag29  1  0.49767277  0.34374145  0.16573454  1
  Ag  Ag30  1  0.16798868  0.18048840  0.33834725  1
  Ag  Ag31  1  0.00683541  0.66074444  0.00326945  1
  Ag  Ag32  1  0.66664966  0.34272675  -0.00467874  1
  Ag  Ag33  1  0.17453746  0.84607717  0.65908559  1
  Ag  Ag34  1  0.33517785  0.65943373  0.66737095  1
  Ag  Ag35  1  0.50267812  0.82128293  0.00533376  1
  Ag  Ag36  1  0.33193346  0.50037012  0.83242116  1
  Ag  Ag37  1  0.66366019  0.33692360  0.66974837  1
  Ag  Ag38  1  0.66776127  0.50250458  0.50393847  1
  Ag  Ag39  1  0.16721762  0.00741553  0.82065063  1
  Ag  Ag40  1  0.16784052  0.66205199  0.17191754  1
  Ag  Ag41  1  0.66299757  0.00273941  0.66945068  1
  Ag  Ag42  1  0.32904624  0.66138231  0.32822809  1
  Ag  Ag43  1  0.49556716  -0.00406749  0.16374776  1
  Ag  Ag44  1  0.33690496  0.66131901  -0.00030230  1
  Ag  Ag45  1  0.01223482  0.50124496  0.16923326  1
  Ag  Ag46  1  0.32981040  0.50044023  0.16323816  1
  Ag  Ag47  1  0.66179361  0.50280240  0.16444080  1
  Ag  Ag48  1  0.17422996  0.50222796  0.00883084  1
  Ag  Ag49  1  0.66054802  0.82539588  0.16641873  1
  Ag  Ag50  1  0.32493897  -0.00186817  0.66891189  1
  Ag  Ag51  1  0.82958181  0.49506016  0.66313743  1
  Ag  Ag52  1  0.66179772  -0.00579427  -0.00291042  1
  Ag  Ag53  1  0.49227313  0.50523597  0.67079957  1
  Sb  Sb54  1  0.00512688  0.33175006  0.66530204  1
  Sb  Sb55  1  0.83142757  0.83078163  0.66475206  1
  Sb  Sb56  1  0.83238465  0.50104769  -0.00213527  1
  Sb  Sb57  1  0.00678609  0.66781367  0.66560669  1
  Sb  Sb58  1  0.83162916  0.16876153  -0.00707330  1
  Sb  Sb59  1  0.82680949  0.82986721  0.00037612  1
  Sb  Sb60  1  0.00486058  0.16652273  0.50563284  1
  Sb  Sb61  1  0.83136311  -0.00031997  0.16622775  1
  Sb  Sb62  1  0.49663873  -0.00527205  0.83452531  1
  Sb  Sb63  1  0.49465132  0.50506172  0.33214621  1
  Sb  Sb64  1  0.66232197  0.49792201  0.83332943  1
  Sb  Sb65  1  0.49534859  0.16851586  0.66716686  1
  Sb  Sb66  1  -0.00129086  0.50204930  0.49476583  1
  Sb  Sb67  1  0.17056634  0.66149331  0.83462166  1
  Sb  Sb68  1  0.49744839  0.34110376  0.49932923  1
  Sb  Sb69  1  0.17302339  0.33913044  0.16997862  1
  Sb  Sb70  1  0.33136096  0.83150976  0.50117887  1
  Sb  Sb71  1  0.00162125  -0.00140402  -0.00440060  1
  Sb  Sb72  1  0.66422462  -0.00318687  0.33400094  1
  Sb  Sb73  1  0.00689130  0.49649099  0.83732726  1
  Sb  Sb74  1  0.49674945  0.33994983  0.83530924  1
  Sb  Sb75  1  0.00415783  0.83434856  0.82916974  1
  Sb  Sb76  1  0.17043290  0.66550692  0.49599281  1
  Sb  Sb77  1  0.49282763  0.16397999  0.32980458  1
  Sb  Sb78  1  0.65868460  0.66325672  0.66999569  1
  Sb  Sb79  1  0.00636448  0.00005201  0.33828925  1
  Sb  Sb80  1  0.82935529  0.66006206  0.50380767  1
  Sb  Sb81  1  0.33129132  0.17258860  0.83476504  1
  Sb  Sb82  1  0.83662429  0.33728273  0.82713383  1
  Sb  Sb83  1  0.66075425  0.16921804  0.16162074  1
  Sb  Sb84  1  0.66329041  0.66465933  0.32893608  1
  Sb  Sb85  1  0.84183061  0.17720944  0.34071775  1
  Sb  Sb86  1  0.32910926  -0.00179927  0.33481475  1
  Sb  Sb87  1  0.33006807  0.16785922  0.49821609  1
  Sb  Sb88  1  0.16733727  0.17517126  -0.00097172  1
  Sb  Sb89  1  0.82999868  0.33654818  0.16965280  1
  Sb  Sb90  1  0.83544507  0.82413516  0.33590176  1
  Sb  Sb91  1  0.49456803  0.66579800  0.16375281  1
  Sb  Sb92  1  0.66395235  0.83420513  0.83261007  1
  Sb  Sb93  1  0.33302327  0.82545929  0.82950654  1
  Sb  Sb94  1  0.33707355  0.82835375  0.16805516  1
  Sb  Sb95  1  0.17143475  0.82666034  0.00068014  1
  Sb  Sb96  1  0.33406041  0.50108787  0.50059665  1
  Sb  Sb97  1  0.83458728  -0.00210493  0.82974627  1
  Sb  Sb98  1  0.83656075  0.66241900  0.16400420  1
  Sb  Sb99  1  0.00107805  0.82742741  0.17103662  1
  Sb  Sb100  1  0.33597229  -0.00641383  -0.00186218  1
  Sb  Sb101  1  0.66344859  0.33729063  0.33467665  1
  Sb  Sb102  1  0.49586002  -0.00973246  0.49964454  1
  Sb  Sb103  1  0.66862438  0.16979116  0.50790703  1
  Sb  Sb104  1  0.49958030  0.17105614  -0.00016586  1
  Sb  Sb105  1  0.83693313  0.00367363  0.50408860  1
  Sb  Sb106  1  0.00889437  0.17425417  0.16317648  1
  Sb  Sb107  1  0.33188641  0.34192364  0.00092808  1
  Te  Te108  1  0.17036385  0.16271775  0.16717763  1
  Te  Te109  1  0.16715526  0.16741776  0.49988417  1
  Te  Te110  1  0.16667787  0.16894612  0.83207933  1
  Te  Te111  1  0.16839975  0.50126536  0.16752946  1
  Te  Te112  1  0.16535060  0.49657598  0.49990200  1
  Te  Te113  1  0.17093811  0.49639462  0.82958445  1
  Te  Te114  1  0.16591487  0.83143566  0.16971485  1
  Te  Te115  1  0.16601373  0.83222298  0.50081300  1
  Te  Te116  1  0.16719653  0.84143468  0.82852752  1
  Te  Te117  1  0.49309212  0.16020572  0.16676926  1
  Te  Te118  1  0.49997439  0.16504399  0.49681733  1
  Te  Te119  1  0.50532164  0.16643632  0.83362719  1
  Te  Te120  1  0.50111605  0.50069883  0.16614052  1
  Te  Te121  1  0.50681064  0.50489312  0.50204653  1
  Te  Te122  1  0.49567046  0.50383860  0.83337188  1
  Te  Te123  1  0.50220210  0.83324540  0.16644569  1
  Te  Te124  1  0.50354947  0.82944314  0.50186371  1
  Te  Te125  1  0.49939024  0.82733524  0.82892961  1
  Te  Te126  1  0.83558624  0.16682117  0.16944152  1
  Te  Te127  1  0.83603936  0.17480818  0.50887329  1
  Te  Te128  1  0.83403399  0.16579753  0.82649361  1
  Te  Te129  1  0.82573630  0.49931759  0.17167296  1
  Te  Te130  1  0.82996760  0.49646283  0.50165550  1
  Te  Te131  1  0.83434809  0.50374010  0.82758473  1
  Te  Te132  1  0.82168343  0.83358099  0.16895538  1
  Te  Te133  1  0.82531816  0.83449954  0.49941560  1
  Te  Te134  1  0.83499730  0.82423234  0.83232404  1
  Te  Te135  1  0.16679820  -0.00304915  0.00727433  1
  Te  Te136  1  0.16707656  -0.00734124  0.32938859  1
  Te  Te137  1  0.16855545  0.00192391  0.66454410  1
  Te  Te138  1  0.16365499  0.34027373  -0.00183994  1
  Te  Te139  1  0.16906434  0.33588162  0.33146064  1
  Te  Te140  1  0.16575735  0.33646751  0.66436512  1
  Te  Te141  1  0.16818376  0.66260667  0.00185051  1
  Te  Te142  1  0.16807297  0.66550801  0.33488285  1
  Te  Te143  1  0.17290068  0.65868351  0.66610027  1
  Te  Te144  1  0.50294831  -0.00121465  0.00208238  1
  Te  Te145  1  0.49731212  -0.00739886  0.32812821  1
  Te  Te146  1  0.50321187  -0.00155220  0.66719592  1
  Te  Te147  1  0.50366486  0.33854579  0.00295885  1
  Te  Te148  1  0.49326913  0.33229984  0.32828833  1
  Te  Te149  1  0.50077821  0.33720230  0.66697288  1
  Te  Te150  1  0.49807251  0.66444658  0.00017878  1
  Te  Te151  1  0.49615982  0.67094353  0.33630924  1
  Te  Te152  1  0.49810373  0.66561804  0.66854074  1
  Te  Te153  1  0.82496507  -0.00041370  -0.00135409  1
  Te  Te154  1  0.83521751  0.00249517  0.33479000  1
  Te  Te155  1  0.82332507  0.00271068  0.66690027  1
  Te  Te156  1  0.82951238  0.33339931  -0.00119026  1
  Te  Te157  1  0.83381351  0.33978634  0.34029677  1
  Te  Te158  1  0.83341432  0.33385027  0.66451172  1
  Te  Te159  1  0.83778872  0.66665129  -0.00511731  1
  Te  Te160  1  0.83876984  0.65881897  0.33430127  1
  Te  Te161  1  0.83521909  0.66208779  0.67129178  1
  Te  Te162  1  -0.00094881  0.16862995  -0.00694552  1
  Te  Te163  1  0.00775569  0.17205323  0.33208595  1
  Te  Te164  1  0.00339473  0.16469015  0.67012148  1
  Te  Te165  1  -0.00119741  0.50080529  0.00350040  1
  Te  Te166  1  0.00255417  0.49965871  0.33223096  1
  Te  Te167  1  0.00029565  0.49993511  0.66643174  1
  Te  Te168  1  -0.00058569  0.82779083  0.00144115  1
  Te  Te169  1  0.00319189  0.83081242  0.33826906  1
  Te  Te170  1  0.00120535  0.83704051  0.66188221  1
  Te  Te171  1  0.33297909  0.16523905  0.00733019  1
  Te  Te172  1  0.32681331  0.16861100  0.32838789  1
  Te  Te173  1  0.32799930  0.16800119  0.66781004  1
  Te  Te174  1  0.33368175  0.50194037  0.00247064  1
  Te  Te175  1  0.33064880  0.50109641  0.33213338  1
  Te  Te176  1  0.33476699  0.49921334  0.66422592  1
  Te  Te177  1  0.34098775  0.82505318  -0.00154041  1
  Te  Te178  1  0.33247320  0.82836752  0.33441934  1
  Te  Te179  1  0.33312693  0.83503253  0.66695365  1
  Te  Te180  1  0.66683470  0.16806843  -0.00544760  1
  Te  Te181  1  0.67041859  0.16699625  0.33326493  1
  Te  Te182  1  0.66303245  0.16957664  0.66983644  1
  Te  Te183  1  0.66648673  0.50119726  -0.00003193  1
  Te  Te184  1  0.66631726  0.50011934  0.33151345  1
  Te  Te185  1  0.66735631  0.49842079  0.66671172  1
  Te  Te186  1  0.66167105  0.83175874  0.00095491  1
  Te  Te187  1  0.66411551  0.83212061  0.33354704  1
  Te  Te188  1  0.66421454  0.83320045  0.66417158  1
  Te  Te189  1  0.00208904  -0.00008510  0.16508190  1
  Te  Te190  1  0.00427098  -0.00470453  0.50553372  1
  Te  Te191  1  0.00351524  0.00430708  0.82932285  1
  Te  Te192  1  -0.00262792  0.33971497  0.16492159  1
  Te  Te193  1  0.00315276  0.33328520  0.49486959  1
  Te  Te194  1  0.00378208  0.32968518  0.83806068  1
  Te  Te195  1  0.00369288  0.66237204  0.16676239  1
  Te  Te196  1  -0.00238933  0.67243910  0.49715886  1
  Te  Te197  1  0.00183716  0.66622159  0.83781540  1
  Te  Te198  1  0.33387000  -0.00264453  0.16612981  1
  Te  Te199  1  0.32704142  0.00123970  0.50663399  1
  Te  Te200  1  0.32890409  0.00360475  0.83005499  1
  Te  Te201  1  0.33780170  0.33727408  0.16683968  1
  Te  Te202  1  0.32948079  0.33353591  0.50028019  1
  Te  Te203  1  0.32930278  0.33809801  0.82888343  1
  Te  Te204  1  0.32832695  0.66283159  0.16768755  1
  Te  Te205  1  0.33997620  0.66644251  0.50363202  1
  Te  Te206  1  0.33660502  0.66041651  0.83251042  1
  Te  Te207  1  0.66340576  0.00057524  0.16341253  1
  Te  Te208  1  0.66625781  -0.00141512  0.50407821  1
  Te  Te209  1  0.66641256  0.00311166  0.83373366  1
  Te  Te210  1  0.66099314  0.33618956  0.16314020  1
  Te  Te211  1  0.66580184  0.33760624  0.50409228  1
  Te  Te212  1  0.66673462  0.33059579  0.83242080  1
  Te  Te213  1  0.66914150  0.66515767  0.16218487  1
  Te  Te214  1  0.66281268  0.66516294  0.49897378  1
  Te  Te215  1  0.66415742  0.66646968  0.83959789  1
