# generated using pymatgen
data_AgSbTe2
_symmetry_space_group_name_H-M   'P 1'
_cell_length_a   18.30672276
_cell_length_b   18.31244521
_cell_length_c   18.31055382
_cell_angle_alpha   90.00105294
_cell_angle_beta   90.00101680
_cell_angle_gamma   89.99821192
_symmetry_Int_Tables_number   1
_chemical_formula_structural   AgSbTe2
_chemical_formula_sum   'Ag54 Sb54 Te108'
_cell_volume   6138.44576170
_cell_formula_units_Z   54
loop_
 _symmetry_equiv_pos_site_id
 _symmetry_equiv_pos_as_xyz
  1  'x, y, z'
loop_
 _atom_site_type_symbol
 _atom_site_label
 _atom_site_symmetry_multiplicity
 _atom_site_fract_x
 _atom_site_fract_y
 _atom_site_fract_z
 _atom_site_occupancy
  Ag  Ag0  1  0.50545781  0.66313899  0.83595955  1
  Ag  Ag1  1  0.33431511  -0.00012721  0.01006035  1
  Ag  Ag2  1  0.17143200  0.00332571  0.17424933  1
  Ag  Ag3  1  0.16663420  0.65828057  0.83723309  1
  Ag  Ag4  1  0.16829021  0.17214924  0.65719667  1
  Ag  Ag5  1  0.82657123  0.16623822  0.65724351  1
  Ag  Ag6  1  0.83339217  0.83307127  -0.00021150  1
  Ag  Ag7  1  0.16490097  0.49377524  0.33590574  1
  Ag  Ag8  1  0.17168985  0.33992589  0.82956055  1
  Ag  Ag9  1  0.50064366  0.17141695  -0.00116052  1
  Ag  Ag10  1  0.49787007  0.00334027  0.17191071  1
  Ag  Ag11  1  0.50191194  0.33567890  0.83810409  1
  Ag  Ag12  1  0.16519611  0.33167150  0.49888102  1
  Ag  Ag13  1  0.32978597  0.49987476  0.16992201  1
  Ag  Ag14  1  0.66135237  0.82588909  0.82470940  1
  Ag  Ag15  1  0.17056096  0.34006297  0.17095165  1
  Ag  Ag16  1  0.82283161  0.66604432  0.82810814  1
  Ag  Ag17  1  0.66646906  0.33429424  0.66267126  1
  Ag  Ag18  1  0.67021308  0.49878402  0.50419453  1
  Ag  Ag19  1  0.83105946  0.00428523  0.49498879  1
  Ag  Ag20  1  0.83595969  0.49623122  0.33838141  1
  Ag  Ag21  1  0.34097179  0.83230789  0.82907630  1
  Ag  Ag22  1  0.00044440  0.50077310  0.49780027  1
  Ag  Ag23  1  0.49673993  0.66267277  0.16017000  1
  Ag  Ag24  1  0.66267701  0.50279138  0.82573042  1
  Ag  Ag25  1  0.50592114  0.16449547  0.66820313  1
  Ag  Ag26  1  0.66237420  0.16501616  0.17053522  1
  Ag  Ag27  1  0.83206185  0.16742848  0.34066606  1
  Ag  Ag28  1  0.00020693  0.66277310  0.32931257  1
  Ag  Ag29  1  0.00084707  0.00137841  0.66103123  1
  Ag  Ag30  1  0.66958723  0.32892316  0.33987515  1
  Ag  Ag31  1  0.83048727  0.00113812  0.17518071  1
  Ag  Ag32  1  0.66593800  0.00617040  0.33464183  1
  Ag  Ag33  1  0.33886634  0.84201663  0.50339021  1
  Ag  Ag34  1  0.00129893  0.83247739  0.16632272  1
  Ag  Ag35  1  0.32824491  0.16073081  0.49967717  1
  Ag  Ag36  1  0.66300644  0.17012509  0.82875278  1
  Ag  Ag37  1  0.49670274  0.00101543  0.49536978  1
  Ag  Ag38  1  0.83016194  0.65923442  0.50192853  1
  Ag  Ag39  1  0.16969105  0.49806263  0.00326234  1
  Ag  Ag40  1  0.16708491  0.65814509  0.16396771  1
  Ag  Ag41  1  0.83266423  0.33548239  0.49774453  1
  Ag  Ag42  1  0.49570508  0.49571972  -0.00023149  1
  Ag  Ag43  1  0.33499617  0.00179916  0.33444400  1
  Ag  Ag44  1  0.32699622  0.49749269  0.49482300  1
  Ag  Ag45  1  0.16754542  0.49299931  0.66142455  1
  Ag  Ag46  1  0.66707742  0.66168087  0.66955037  1
  Ag  Ag47  1  0.66419260  0.83452850  0.50534030  1
  Ag  Ag48  1  0.50311454  0.83827927  0.66704557  1
  Ag  Ag49  1  0.00498063  0.34148764  0.00082288  1
  Ag  Ag50  1  0.49801829  0.33117444  0.16044777  1
  Ag  Ag51  1  0.16365251  0.17072117  0.33878012  1
  Ag  Ag52  1  0.17450919  0.01044427  0.49410608  1
  Ag  Ag53  1  0.00292532  0.66237820  0.00366463  1
  Sb  Sb54  1  0.16630885  0.83482407  0.33371787  1
  Sb  Sb55  1  0.17160606  0.83262655  0.66565853  1
  Sb  Sb56  1  0.66864846  0.66656456  -0.00652127  1
  Sb  Sb57  1  0.82794608  0.16401729  0.00104282  1
  Sb  Sb58  1  0.50089027  0.00040449  0.83205189  1
  Sb  Sb59  1  0.33295223  0.33121482  0.00152366  1
  Sb  Sb60  1  -0.00112504  0.83051258  0.49650045  1
  Sb  Sb61  1  -0.00301313  0.16835750  0.83124963  1
  Sb  Sb62  1  0.83289507  0.32892804  0.17257415  1
  Sb  Sb63  1  0.82747639  0.83632695  0.66782664  1
  Sb  Sb64  1  0.00336324  -0.00125526  0.00107594  1
  Sb  Sb65  1  0.33786956  0.66612020  0.66685930  1
  Sb  Sb66  1  0.33054333  0.66833137  -0.00019900  1
  Sb  Sb67  1  -0.00014676  0.33138312  0.66678118  1
  Sb  Sb68  1  0.00024420  -0.00214456  0.33684262  1
  Sb  Sb69  1  0.00768143  0.50444618  0.17099729  1
  Sb  Sb70  1  0.33457068  0.50334510  0.83511994  1
  Sb  Sb71  1  0.83281900  0.83627616  0.33289245  1
  Sb  Sb72  1  0.50009704  0.49762506  0.66971520  1
  Sb  Sb73  1  0.50446919  0.66936101  0.50253814  1
  Sb  Sb74  1  0.17271045  0.17216094  0.00110210  1
  Sb  Sb75  1  0.49776637  0.49856192  0.33050869  1
  Sb  Sb76  1  0.66719569  0.16675495  0.50005617  1
  Sb  Sb77  1  -0.00170169  0.83055450  0.83614660  1
  Sb  Sb78  1  0.82884806  0.33750960  0.82844259  1
  Sb  Sb79  1  0.83592993  0.66981345  0.16847031  1
  Sb  Sb80  1  0.50330883  0.16521011  0.33472132  1
  Sb  Sb81  1  0.83286245  0.49653215  0.65877179  1
  Sb  Sb82  1  0.16286139  0.66072081  0.49915969  1
  Sb  Sb83  1  0.33178187  0.00083536  0.65930612  1
  Sb  Sb84  1  0.83452055  0.50319631  0.00339070  1
  Sb  Sb85  1  0.16493317  0.82811868  0.00101080  1
  Sb  Sb86  1  0.33481250  0.33359588  0.66527354  1
  Sb  Sb87  1  0.50228974  0.83272191  -0.00483475  1
  Sb  Sb88  1  0.00199364  0.17069853  0.50020185  1
  Sb  Sb89  1  0.66795298  0.83692639  0.16835316  1
  Sb  Sb90  1  0.00022379  0.50040557  0.83006224  1
  Sb  Sb91  1  0.66627865  0.33381808  -0.00163259  1
  Sb  Sb92  1  0.33123155  0.83375390  0.16791096  1
  Sb  Sb93  1  0.66207087  0.00069210  0.00599534  1
  Sb  Sb94  1  0.50078171  0.32959326  0.50067500  1
  Sb  Sb95  1  0.32934140  0.66805311  0.33364649  1
  Sb  Sb96  1  0.33360942  0.32882992  0.33413979  1
  Sb  Sb97  1  0.66109348  0.49591011  0.16911542  1
  Sb  Sb98  1  0.66734840  0.00231027  0.65923091  1
  Sb  Sb99  1  -0.00050938  0.16424897  0.16710699  1
  Sb  Sb100  1  0.83032847  -0.00288230  0.83136778  1
  Sb  Sb101  1  0.16990593  0.00151120  0.83134497  1
  Sb  Sb102  1  -0.00387606  0.66836146  0.66664442  1
  Sb  Sb103  1  0.33797538  0.16370032  0.82875394  1
  Sb  Sb104  1  0.00005174  0.33850450  0.33216764  1
  Sb  Sb105  1  0.67015636  0.66450224  0.33810717  1
  Sb  Sb106  1  0.50045104  0.83564574  0.33830768  1
  Sb  Sb107  1  0.33682711  0.16708222  0.17223259  1
  Te  Te108  1  0.16826589  0.16599664  0.16982739  1
  Te  Te109  1  0.16579851  0.16891482  0.49940567  1
  Te  Te110  1  0.16783266  0.17249657  0.83100418  1
  Te  Te111  1  0.16842484  0.49919839  0.16683989  1
  Te  Te112  1  0.16770249  0.49951369  0.49766819  1
  Te  Te113  1  0.16746447  0.49900278  0.83524496  1
  Te  Te114  1  0.16395986  0.83415398  0.16661763  1
  Te  Te115  1  0.17039570  0.83695024  0.50096699  1
  Te  Te116  1  0.17021643  0.82865634  0.83272134  1
  Te  Te117  1  0.50191006  0.16632444  0.16761930  1
  Te  Te118  1  0.49443170  0.16323766  0.50258143  1
  Te  Te119  1  0.50257094  0.16853013  0.83041428  1
  Te  Te120  1  0.49578195  0.49825208  0.16335479  1
  Te  Te121  1  0.49973350  0.49989579  0.50004800  1
  Te  Te122  1  0.50081925  0.49923616  0.83581675  1
  Te  Te123  1  0.49980466  0.83570431  0.16485666  1
  Te  Te124  1  0.50120611  0.83562049  0.50439952  1
  Te  Te125  1  0.50144590  0.83218272  0.82957518  1
  Te  Te126  1  0.82816303  0.16094845  0.16853023  1
  Te  Te127  1  0.83469073  0.16631840  0.49968078  1
  Te  Te128  1  0.82606706  0.16789147  0.83171714  1
  Te  Te129  1  0.83180413  0.49939525  0.17403687  1
  Te  Te130  1  0.83026737  0.49850513  0.49874950  1
  Te  Te131  1  0.82796712  0.50566512  0.83410677  1
  Te  Te132  1  0.83473527  0.83823377  0.16347206  1
  Te  Te133  1  0.83012061  0.83556147  0.50071720  1
  Te  Te134  1  0.82928088  0.82848094  0.83592531  1
  Te  Te135  1  0.17132554  0.00207317  0.00426718  1
  Te  Te136  1  0.16584822  0.00178066  0.33454708  1
  Te  Te137  1  0.16410744  0.00368461  0.66287555  1
  Te  Te138  1  0.16697573  0.33672638  0.00204111  1
  Te  Te139  1  0.16676566  0.33310517  0.33399255  1
  Te  Te140  1  0.16636250  0.33305460  0.66442801  1
  Te  Te141  1  0.16447191  0.66222945  0.00143664  1
  Te  Te142  1  0.16263727  0.66263497  0.33015217  1
  Te  Te143  1  0.16502451  0.66305854  0.67045143  1
  Te  Te144  1  0.49632934  0.00211474  0.00431285  1
  Te  Te145  1  0.50050887  0.00079107  0.33371183  1
  Te  Te146  1  0.50009879  0.00260758  0.66151355  1
  Te  Te147  1  0.49989044  0.33351391  -0.00004551  1
  Te  Te148  1  0.50663502  0.33215906  0.32817357  1
  Te  Te149  1  0.50478201  0.32966432  0.66988068  1
  Te  Te150  1  0.49936630  0.66353287  -0.00052653  1
  Te  Te151  1  0.50048673  0.66739134  0.32476110  1
  Te  Te152  1  0.50582796  0.66776515  0.67111699  1
  Te  Te153  1  0.83453271  -0.00421292  0.00395906  1
  Te  Te154  1  0.83342463  0.00294891  0.33388546  1
  Te  Te155  1  0.83600612  0.00534720  0.66388839  1
  Te  Te156  1  0.84083391  0.33345962  -0.00046466  1
  Te  Te157  1  0.83160557  0.33123987  0.33717830  1
  Te  Te158  1  0.83010593  0.32769463  0.66193490  1
  Te  Te159  1  0.83917852  0.66930594  -0.00057295  1
  Te  Te160  1  0.83644168  0.66367042  0.33689506  1
  Te  Te161  1  0.82886568  0.66618513  0.66626083  1
  Te  Te162  1  -0.00072698  0.17028627  -0.00101977  1
  Te  Te163  1  -0.00043445  0.16695588  0.33251732  1
  Te  Te164  1  0.00100117  0.16314481  0.66739069  1
  Te  Te165  1  0.00271829  0.50136508  -0.00059561  1
  Te  Te166  1  0.00061743  0.50313099  0.33686093  1
  Te  Te167  1  0.00611898  0.50042589  0.66002666  1
  Te  Te168  1  -0.00359217  0.83049107  0.00351078  1
  Te  Te169  1  -0.00045645  0.82381267  0.32778032  1
  Te  Te170  1  -0.00015850  0.83883607  0.66632008  1
  Te  Te171  1  0.34099418  0.16061287  -0.00096760  1
  Te  Te172  1  0.32726400  0.16276624  0.33913725  1
  Te  Te173  1  0.33184723  0.16729201  0.66089627  1
  Te  Te174  1  0.33340379  0.50056840  0.00415602  1
  Te  Te175  1  0.32948979  0.50022783  0.33310423  1
  Te  Te176  1  0.32755238  0.50033089  0.66026925  1
  Te  Te177  1  0.33363218  0.83944615  -0.00316165  1
  Te  Te178  1  0.33328813  0.83970354  0.33998658  1
  Te  Te179  1  0.33959239  0.83329697  0.66557270  1
  Te  Te180  1  0.66031327  0.16718778  -0.00118663  1
  Te  Te181  1  0.66958530  0.16726896  0.33309772  1
  Te  Te182  1  0.66592176  0.16805207  0.66671491  1
  Te  Te183  1  0.66258391  0.49955341  -0.00338296  1
  Te  Te184  1  0.66905575  0.49667569  0.33762739  1
  Te  Te185  1  0.66681364  0.49863254  0.66582754  1
  Te  Te186  1  0.67196061  0.83372226  -0.00413770  1
  Te  Te187  1  0.66762201  0.83780204  0.34036812  1
  Te  Te188  1  0.66285851  0.83442438  0.66551412  1
  Te  Te189  1  0.00238297  -0.00420109  0.16670325  1
  Te  Te190  1  -0.00350753  -0.00291062  0.50201908  1
  Te  Te191  1  -0.00001613  -0.00050656  0.82774071  1
  Te  Te192  1  0.00411682  0.33273561  0.16209140  1
  Te  Te193  1  -0.00013072  0.34040359  0.49937284  1
  Te  Te194  1  0.00455116  0.33411278  0.83831985  1
  Te  Te195  1  0.00196974  0.66991129  0.16514889  1
  Te  Te196  1  -0.00598922  0.66295104  0.49881046  1
  Te  Te197  1  0.00382261  0.66675475  0.83648082  1
  Te  Te198  1  0.33357108  -0.00030166  0.17157359  1
  Te  Te199  1  0.33351752  0.00030566  0.49717667  1
  Te  Te200  1  0.33318750  -0.00674543  0.83746082  1
  Te  Te201  1  0.33338129  0.33688259  0.16806509  1
  Te  Te202  1  0.33009316  0.33644652  0.49866223  1
  Te  Te203  1  0.33452782  0.33346263  0.83347902  1
  Te  Te204  1  0.33310016  0.66510397  0.16678933  1
  Te  Te205  1  0.33505325  0.66685977  0.49930074  1
  Te  Te206  1  0.33438484  0.67132940  0.83316811  1
  Te  Te207  1  0.66481849  0.00246581  0.17259907  1
  Te  Te208  1  0.66741453  -0.00083460  0.49551452  1
  Te  Te209  1  0.66642604  0.00097805  0.83426913  1
  Te  Te210  1  0.66424626  0.32843557  0.16874207  1
  Te  Te211  1  0.66702544  0.33470247  0.50070712  1
  Te  Te212  1  0.66395613  0.33385982  0.83100319  1
  Te  Te213  1  0.66129318  0.66719460  0.16704840  1
  Te  Te214  1  0.66986232  0.66602595  0.50333494  1
  Te  Te215  1  0.66509376  0.66573929  0.83101797  1
