# generated using pymatgen
data_AgSbTe2
_symmetry_space_group_name_H-M   'P 1'
_cell_length_a   18.32921209
_cell_length_b   18.33733693
_cell_length_c   18.33519158
_cell_angle_alpha   89.99965526
_cell_angle_beta   90.00131460
_cell_angle_gamma   89.99551781
_symmetry_Int_Tables_number   1
_chemical_formula_structural   AgSbTe2
_chemical_formula_sum   'Ag54 Sb54 Te108'
_cell_volume   6162.62174663
_cell_formula_units_Z   54
loop_
 _symmetry_equiv_pos_site_id
 _symmetry_equiv_pos_as_xyz
  1  'x, y, z'
loop_
 _atom_site_type_symbol
 _atom_site_label
 _atom_site_symmetry_multiplicity
 _atom_site_fract_x
 _atom_site_fract_y
 _atom_site_fract_z
 _atom_site_occupancy
  Ag  Ag0  1  0.33336543  0.49913667  0.16983879  1
  Ag  Ag1  1  0.33856454  0.17171450  0.51429418  1
  Ag  Ag2  1  0.16443462  0.00125508  0.83204161  1
  Ag  Ag3  1  -0.00077335  0.16108344  0.15063336  1
  Ag  Ag4  1  0.65954059  -0.00127498  0.00100823  1
  Ag  Ag5  1  0.00605908  0.15988057  0.83347770  1
  Ag  Ag6  1  0.82793370  0.32981952  0.83276791  1
  Ag  Ag7  1  0.18064455  0.17246824  0.66952959  1
  Ag  Ag8  1  0.33778460  0.49209401  0.82599175  1
  Ag  Ag9  1  0.34324907  0.00734278  -0.00700535  1
  Ag  Ag10  1  -0.00083495  0.67009786  0.67744384  1
  Ag  Ag11  1  0.49810456  0.33661572  0.82962882  1
  Ag  Ag12  1  0.50085998  0.83484006  0.32885483  1
  Ag  Ag13  1  -0.00105799  0.00420326  -0.00502478  1
  Ag  Ag14  1  0.50377337  0.66168031  0.83347402  1
  Ag  Ag15  1  -0.00032265  0.83461011  0.15251944  1
  Ag  Ag16  1  0.33275491  0.32966139  -0.01206876  1
  Ag  Ag17  1  0.65732119  0.16839866  0.50702853  1
  Ag  Ag18  1  0.33296559  0.17328080  0.82711687  1
  Ag  Ag19  1  0.33741709  0.32755063  0.66920283  1
  Ag  Ag20  1  0.33697717  0.83639622  0.50137718  1
  Ag  Ag21  1  0.50013878  0.16102910  -0.00780874  1
  Ag  Ag22  1  -0.00278724  0.67071471  -0.00505416  1
  Ag  Ag23  1  0.49345591  0.17173896  0.67328594  1
  Ag  Ag24  1  0.00483543  0.32007633  -0.00238755  1
  Ag  Ag25  1  0.65743356  0.50708824  0.82816244  1
  Ag  Ag26  1  0.66799697  0.82765980  0.83371298  1
  Ag  Ag27  1  0.33665455  0.65893137  0.33348343  1
  Ag  Ag28  1  0.16469534  0.66203189  0.16027414  1
  Ag  Ag29  1  0.33269788  0.01275453  0.67543318  1
  Ag  Ag30  1  0.65574544  0.33890991  0.66994601  1
  Ag  Ag31  1  0.17303166  0.33590258  0.50456375  1
  Ag  Ag32  1  0.82664851  0.00102119  0.16051384  1
  Ag  Ag33  1  0.00632265  0.50363693  0.16242679  1
  Ag  Ag34  1  0.33326417  0.34131420  0.34854924  1
  Ag  Ag35  1  0.83378872  0.83936726  0.67018653  1
  Ag  Ag36  1  0.16754615  0.66686884  0.83384268  1
  Ag  Ag37  1  0.66691978  0.66947145  -0.00809933  1
  Ag  Ag38  1  0.17883338  0.49568247  0.66638972  1
  Ag  Ag39  1  0.65839522  0.66673347  0.33280458  1
  Ag  Ag40  1  0.83713148  0.16394754  -0.00708469  1
  Ag  Ag41  1  0.17569447  0.50090927  0.33543190  1
  Ag  Ag42  1  0.66020981  -0.00465427  0.32617800  1
  Ag  Ag43  1  0.50299160  -0.00027536  0.15953494  1
  Ag  Ag44  1  0.33675947  0.49501286  0.50798602  1
  Ag  Ag45  1  0.00395774  0.00067827  0.67707781  1
  Ag  Ag46  1  0.50271203  0.84093371  -0.00069438  1
  Ag  Ag47  1  -0.00371097  0.84166526  0.83555183  1
  Ag  Ag48  1  0.65778620  0.49824058  0.51354007  1
  Ag  Ag49  1  0.66672595  0.65860307  0.67494510  1
  Ag  Ag50  1  0.49537200  0.49208839  0.67065859  1
  Ag  Ag51  1  0.49878281  0.00150265  0.50264522  1
  Ag  Ag52  1  0.65950893  0.50335843  0.16467213  1
  Ag  Ag53  1  0.83168500  0.16393704  0.67489038  1
  Sb  Sb54  1  0.66444005  0.33301454  -0.00737037  1
  Sb  Sb55  1  0.00307177  0.16571195  0.51107457  1
  Sb  Sb56  1  0.00350686  0.66621919  0.32900221  1
  Sb  Sb57  1  0.49901831  0.66818549  0.16292453  1
  Sb  Sb58  1  0.32923227  0.17006389  0.16157781  1
  Sb  Sb59  1  0.17013031  0.66116878  0.50391609  1
  Sb  Sb60  1  0.33445187  0.66360787  0.66620785  1
  Sb  Sb61  1  0.83291549  0.50061227  0.33089726  1
  Sb  Sb62  1  0.50288507  0.83470722  0.67080994  1
  Sb  Sb63  1  0.00614263  0.33451575  0.32552439  1
  Sb  Sb64  1  0.82626539  0.00194098  0.50033289  1
  Sb  Sb65  1  0.83389562  0.33113305  0.50974810  1
  Sb  Sb66  1  0.83189231  0.66346519  0.83344174  1
  Sb  Sb67  1  0.00686652  0.83465581  0.50689375  1
  Sb  Sb68  1  0.66495964  0.00184058  0.67121329  1
  Sb  Sb69  1  0.33276423  0.83054104  0.16736661  1
  Sb  Sb70  1  0.66125302  0.83336628  0.50447765  1
  Sb  Sb71  1  0.16686260  -0.00261970  0.15939551  1
  Sb  Sb72  1  0.17180517  0.33332956  0.82963132  1
  Sb  Sb73  1  0.83358955  0.49552047  -0.00167271  1
  Sb  Sb74  1  0.65766389  0.33663711  0.34055397  1
  Sb  Sb75  1  0.49979730  0.49995078  -0.00758253  1
  Sb  Sb76  1  0.33474510  0.83463648  0.83092039  1
  Sb  Sb77  1  0.16849700  0.33937478  0.16881890  1
  Sb  Sb78  1  0.82924029  0.49849781  0.66971742  1
  Sb  Sb79  1  0.17259100  0.82777335  0.33188842  1
  Sb  Sb80  1  0.17616870  0.00589601  0.50997403  1
  Sb  Sb81  1  0.82641786  0.83401927  0.33522439  1
  Sb  Sb82  1  0.00344263  0.49912970  0.50010500  1
  Sb  Sb83  1  0.66892164  0.83204992  0.16037456  1
  Sb  Sb84  1  0.49861868  0.16269490  0.33602147  1
  Sb  Sb85  1  0.66427947  0.16659480  0.83028374  1
  Sb  Sb86  1  0.00293067  0.33169188  0.67450823  1
  Sb  Sb87  1  0.49427738  0.50471172  0.33912722  1
  Sb  Sb88  1  0.83456918  0.32919391  0.15901654  1
  Sb  Sb89  1  0.16522232  0.83312049  0.66966554  1
  Sb  Sb90  1  0.33542436  0.66586295  0.00022824  1
  Sb  Sb91  1  0.33866115  -0.00039358  0.33435017  1
  Sb  Sb92  1  0.49646009  0.00164173  0.83454518  1
  Sb  Sb93  1  0.16704810  0.83238845  -0.00191883  1
  Sb  Sb94  1  0.16679833  0.16574104  -0.00821277  1
  Sb  Sb95  1  0.49878356  0.33080279  0.15838162  1
  Sb  Sb96  1  -0.00467495  -0.00095123  0.32700915  1
  Sb  Sb97  1  0.83284156  0.84008336  -0.00608686  1
  Sb  Sb98  1  0.16767461  0.50066148  -0.00194481  1
  Sb  Sb99  1  0.83713811  0.00556721  0.83688488  1
  Sb  Sb100  1  0.66777357  0.16678482  0.16610117  1
  Sb  Sb101  1  0.49341842  0.32885674  0.50796988  1
  Sb  Sb102  1  0.83013912  0.66665622  0.50361726  1
  Sb  Sb103  1  0.16938820  0.17112793  0.33978034  1
  Sb  Sb104  1  0.00351539  0.50003830  0.83606173  1
  Sb  Sb105  1  0.49891507  0.66891747  0.50515403  1
  Sb  Sb106  1  0.83560677  0.67092478  0.16430552  1
  Sb  Sb107  1  0.83117929  0.16596804  0.33154545  1
  Te  Te108  1  0.15902431  0.16602139  0.17056105  1
  Te  Te109  1  0.17152337  0.17222367  0.50728938  1
  Te  Te110  1  0.16794160  0.16566960  0.82750493  1
  Te  Te111  1  0.16909939  0.50322949  0.16667816  1
  Te  Te112  1  0.16912867  0.49670216  0.50206817  1
  Te  Te113  1  0.17057117  0.50427348  0.82886394  1
  Te  Te114  1  0.16055442  0.82616808  0.16695075  1
  Te  Te115  1  0.17623232  0.83361075  0.49886837  1
  Te  Te116  1  0.16112917  0.82951732  0.83292609  1
  Te  Te117  1  0.49933882  0.16131783  0.16207698  1
  Te  Te118  1  0.49900873  0.16280471  0.50168982  1
  Te  Te119  1  0.49774644  0.16684738  0.83275237  1
  Te  Te120  1  0.49880232  0.49944606  0.16590878  1
  Te  Te121  1  0.49923729  0.50170143  0.50553163  1
  Te  Te122  1  0.49851998  0.50077009  0.83185334  1
  Te  Te123  1  0.50071079  0.83699640  0.16437967  1
  Te  Te124  1  0.49605514  0.83745661  0.49906415  1
  Te  Te125  1  0.50224082  0.82852162  0.83720084  1
  Te  Te126  1  0.83764274  0.16193304  0.16392278  1
  Te  Te127  1  0.83036674  0.16659608  0.50364481  1
  Te  Te128  1  0.83038408  0.16992840  0.83441962  1
  Te  Te129  1  0.83564389  0.49876441  0.16658136  1
  Te  Te130  1  0.82609493  0.49854032  0.49857847  1
  Te  Te131  1  0.82654562  0.49027465  0.83416412  1
  Te  Te132  1  0.83936786  0.84000319  0.16744959  1
  Te  Te133  1  0.83473666  0.83453022  0.50838433  1
  Te  Te134  1  0.83508875  0.83214586  0.82866832  1
  Te  Te135  1  0.16251436  -0.00174125  -0.00633780  1
  Te  Te136  1  0.16624604  -0.00116796  0.33417576  1
  Te  Te137  1  0.16653918  0.00186776  0.67180696  1
  Te  Te138  1  0.16759713  0.33346208  0.00015173  1
  Te  Te139  1  0.17307971  0.33872457  0.33867619  1
  Te  Te140  1  0.16804315  0.33486219  0.66496383  1
  Te  Te141  1  0.16416613  0.66720700  -0.00182328  1
  Te  Te142  1  0.17075638  0.66115875  0.33224791  1
  Te  Te143  1  0.16328971  0.66273150  0.67033074  1
  Te  Te144  1  0.50018180  0.00048866  -0.00247194  1
  Te  Te145  1  0.50247684  -0.00333311  0.33096352  1
  Te  Te146  1  0.49708193  0.00307116  0.66542721  1
  Te  Te147  1  0.49651791  0.32725409  -0.00800535  1
  Te  Te148  1  0.49217117  0.33256586  0.32918467  1
  Te  Te149  1  0.49894819  0.33230935  0.66948220  1
  Te  Te150  1  0.50373702  0.66975146  -0.00444930  1
  Te  Te151  1  0.49898213  0.67110221  0.33217197  1
  Te  Te152  1  0.50519535  0.66618042  0.67215993  1
  Te  Te153  1  0.83775240  0.00447246  0.00259163  1
  Te  Te154  1  0.82440324  -0.00053423  0.32743945  1
  Te  Te155  1  0.83531466  0.00127919  0.66588031  1
  Te  Te156  1  0.83556055  0.32566132  -0.00569141  1
  Te  Te157  1  0.83297443  0.33323995  0.33421094  1
  Te  Te158  1  0.83462410  0.32761319  0.67280028  1
  Te  Te159  1  0.83205327  0.66754644  0.00052336  1
  Te  Te160  1  0.82439007  0.66776920  0.33368711  1
  Te  Te161  1  0.83325476  0.66923164  0.66700545  1
  Te  Te162  1  0.00233531  0.16458406  -0.00528061  1
  Te  Te163  1  -0.00009904  0.16692682  0.33207309  1
  Te  Te164  1  -0.00685034  0.16411130  0.67337345  1
  Te  Te165  1  0.00005159  0.50834803  0.00351948  1
  Te  Te166  1  0.00555778  0.50016444  0.32767086  1
  Te  Te167  1  0.00002994  0.50367286  0.66644087  1
  Te  Te168  1  -0.00081316  0.83139646  -0.00390717  1
  Te  Te169  1  -0.00191358  0.83248260  0.33372020  1
  Te  Te170  1  -0.00166785  0.83308549  0.67080909  1
  Te  Te171  1  0.33451780  0.16688083  -0.00211095  1
  Te  Te172  1  0.33295753  0.17233300  0.33272078  1
  Te  Te173  1  0.33615722  0.16765020  0.66948284  1
  Te  Te174  1  0.33457857  0.49692190  -0.00053636  1
  Te  Te175  1  0.33323520  0.49960213  0.33272283  1
  Te  Te176  1  0.33560575  0.50267470  0.66695105  1
  Te  Te177  1  0.33921661  0.83825669  0.00023506  1
  Te  Te178  1  0.33967954  0.83154908  0.33562773  1
  Te  Te179  1  0.33394264  0.83420129  0.66164392  1
  Te  Te180  1  0.66493166  0.16428197  0.00093152  1
  Te  Te181  1  0.66606599  0.16493040  0.33900417  1
  Te  Te182  1  0.66848537  0.16598653  0.66548945  1
  Te  Te183  1  0.66642383  0.50203966  0.00205082  1
  Te  Te184  1  0.66488920  0.50348852  0.32887043  1
  Te  Te185  1  0.66711685  0.49955639  0.66889320  1
  Te  Te186  1  0.66641585  0.83300951  -0.00347615  1
  Te  Te187  1  0.66163742  0.83316610  0.33496980  1
  Te  Te188  1  0.66992980  0.83140613  0.67121358  1
  Te  Te189  1  0.00124404  -0.00094275  0.16251925  1
  Te  Te190  1  0.00074111  0.00015971  0.50168753  1
  Te  Te191  1  0.00057364  0.00057674  0.83362923  1
  Te  Te192  1  0.00081671  0.33512777  0.15810833  1
  Te  Te193  1  0.00567547  0.33278523  0.49751377  1
  Te  Te194  1  -0.00048785  0.33216680  0.83893133  1
  Te  Te195  1  0.00247028  0.66633211  0.16516486  1
  Te  Te196  1  0.00023584  0.66715359  0.50414252  1
  Te  Te197  1  -0.00022901  0.66392617  0.83447604  1
  Te  Te198  1  0.33573268  -0.00016579  0.16143012  1
  Te  Te199  1  0.33851969  0.00407862  0.50071489  1
  Te  Te200  1  0.32960976  -0.00105137  0.83354047  1
  Te  Te201  1  0.33348592  0.33871033  0.16028641  1
  Te  Te202  1  0.33308665  0.33374946  0.50564572  1
  Te  Te203  1  0.33372543  0.33334688  0.83014265  1
  Te  Te204  1  0.32968698  0.66250762  0.16826685  1
  Te  Te205  1  0.33360367  0.66143427  0.49493237  1
  Te  Te206  1  0.33027306  0.66642478  0.83475581  1
  Te  Te207  1  0.66509385  -0.00012661  0.16376434  1
  Te  Te208  1  0.66089484  0.00175886  0.49919754  1
  Te  Te209  1  0.66679783  -0.00639183  0.83919342  1
  Te  Te210  1  0.66720336  0.33987459  0.16892222  1
  Te  Te211  1  0.66676078  0.33444161  0.50604626  1
  Te  Te212  1  0.66206770  0.33358099  0.82972069  1
  Te  Te213  1  0.66732601  0.66464852  0.16752452  1
  Te  Te214  1  0.66465177  0.66316559  0.49788275  1
  Te  Te215  1  0.66802761  0.66588577  0.83420314  1
