# generated using pymatgen
data_AgSbTe2
_symmetry_space_group_name_H-M   'P 1'
_cell_length_a   18.33190742
_cell_length_b   18.33370061
_cell_length_c   18.33865584
_cell_angle_alpha   90.00174719
_cell_angle_beta   90.00302049
_cell_angle_gamma   90.00009162
_symmetry_Int_Tables_number   1
_chemical_formula_structural   AgSbTe2
_chemical_formula_sum   'Ag54 Sb54 Te108'
_cell_volume   6163.47004645
_cell_formula_units_Z   54
loop_
 _symmetry_equiv_pos_site_id
 _symmetry_equiv_pos_as_xyz
  1  'x, y, z'
loop_
 _atom_site_type_symbol
 _atom_site_label
 _atom_site_symmetry_multiplicity
 _atom_site_fract_x
 _atom_site_fract_y
 _atom_site_fract_z
 _atom_site_occupancy
  Ag  Ag0  1  0.83186947  0.82416275  0.32922731  1
  Ag  Ag1  1  0.82800374  0.83454350  0.00810958  1
  Ag  Ag2  1  -0.00078251  0.00110832  0.33339078  1
  Ag  Ag3  1  0.67298663  0.82673524  0.16788704  1
  Ag  Ag4  1  0.49662433  0.16680044  -0.00208720  1
  Ag  Ag5  1  -0.01234133  0.67000157  0.33930402  1
  Ag  Ag6  1  0.33694053  -0.00029733  0.66818177  1
  Ag  Ag7  1  0.16913256  0.32727769  0.83540710  1
  Ag  Ag8  1  0.15983684  0.33385985  0.49804592  1
  Ag  Ag9  1  0.33204268  0.66829590  0.33578344  1
  Ag  Ag10  1  0.16200239  0.32969619  0.17152297  1
  Ag  Ag11  1  0.82573379  0.50622987  0.01104855  1
  Ag  Ag12  1  0.51093380  0.50726977  0.67468384  1
  Ag  Ag13  1  0.16369846  0.00660919  0.83261948  1
  Ag  Ag14  1  0.33863170  0.83543818  0.49963744  1
  Ag  Ag15  1  0.83882766  0.34000244  0.50052684  1
  Ag  Ag16  1  0.83995959  0.34679733  0.16983577  1
  Ag  Ag17  1  0.50515802  0.66068575  0.83022340  1
  Ag  Ag18  1  0.32695891  0.00167839  0.33500702  1
  Ag  Ag19  1  -0.01313413  0.49088231  0.16752383  1
  Ag  Ag20  1  0.49797034  -0.00231818  0.50395250  1
  Ag  Ag21  1  0.33627614  0.16649039  0.84071852  1
  Ag  Ag22  1  0.50695398  0.49801867  -0.00593997  1
  Ag  Ag23  1  0.83368628  0.51285696  0.32158380  1
  Ag  Ag24  1  0.83476271  0.66464519  0.49213979  1
  Ag  Ag25  1  -0.01057011  0.00211642  0.66716110  1
  Ag  Ag26  1  0.83313938  0.00154012  0.83369833  1
  Ag  Ag27  1  0.00034054  0.16867962  0.17134590  1
  Ag  Ag28  1  -0.01298276  0.66467187  0.66011061  1
  Ag  Ag29  1  0.83482088  -0.00291113  0.15942630  1
  Ag  Ag30  1  0.83048995  0.51008229  0.66756893  1
  Ag  Ag31  1  0.67021858  0.67291810  0.66682368  1
  Ag  Ag32  1  0.66845868  0.83216490  0.50688176  1
  Ag  Ag33  1  0.33251540  0.32420076  0.00244604  1
  Ag  Ag34  1  0.34344398  0.49477210  0.83428746  1
  Ag  Ag35  1  0.16535367  0.16805718  0.33221326  1
  Ag  Ag36  1  -0.00375456  0.33130851  0.66268926  1
  Ag  Ag37  1  0.66922431  0.66564029  -0.00108132  1
  Ag  Ag38  1  0.82947475  0.83084624  0.66389324  1
  Ag  Ag39  1  0.67298702  -0.00831558  0.67303355  1
  Ag  Ag40  1  0.51156013  0.83358934  0.66483969  1
  Ag  Ag41  1  0.15521030  0.66405954  0.49822490  1
  Ag  Ag42  1  0.67613614  0.50831460  0.15540987  1
  Ag  Ag43  1  0.83103035  0.65964043  0.18057895  1
  Ag  Ag44  1  0.32734567  0.32854187  0.32713492  1
  Ag  Ag45  1  0.33628411  0.00582957  -0.00286604  1
  Ag  Ag46  1  0.32719862  0.16810780  0.15988350  1
  Ag  Ag47  1  0.66494900  0.16575509  0.83441987  1
  Ag  Ag48  1  0.67658612  0.66940076  0.33048908  1
  Ag  Ag49  1  0.66528095  0.50203489  0.83659833  1
  Ag  Ag50  1  -0.00110471  0.16685980  0.49885620  1
  Ag  Ag51  1  0.83579792  0.15736375  0.66691780  1
  Ag  Ag52  1  0.67270846  -0.00458587  -0.00753135  1
  Ag  Ag53  1  -0.01186253  0.00109957  0.00019756  1
  Sb  Sb54  1  0.50585838  0.83375955  0.34018569  1
  Sb  Sb55  1  0.83684953  0.33022842  0.83271822  1
  Sb  Sb56  1  0.16233328  0.83643285  0.33529398  1
  Sb  Sb57  1  0.34072323  0.66700030  0.00387100  1
  Sb  Sb58  1  0.83270954  -0.00558668  0.50307506  1
  Sb  Sb59  1  0.16707254  -0.00024105  0.50267405  1
  Sb  Sb60  1  0.50493427  0.50328206  0.33253700  1
  Sb  Sb61  1  0.49990374  0.33313751  0.16472582  1
  Sb  Sb62  1  0.82739573  0.66928803  0.82971077  1
  Sb  Sb63  1  0.67065213  0.50744722  0.50338710  1
  Sb  Sb64  1  0.49492933  0.33787664  0.83361941  1
  Sb  Sb65  1  0.00130069  0.16413447  0.83346046  1
  Sb  Sb66  1  0.67209467  -0.00579667  0.33394418  1
  Sb  Sb67  1  0.00274975  0.32891449  0.00154530  1
  Sb  Sb68  1  0.66896223  0.33930871  0.33202143  1
  Sb  Sb69  1  0.33690747  0.67057608  0.66327088  1
  Sb  Sb70  1  0.17119314  0.66527350  0.82744903  1
  Sb  Sb71  1  0.67500461  0.33608469  0.66753721  1
  Sb  Sb72  1  0.50409200  0.16400824  0.67166388  1
  Sb  Sb73  1  -0.01051974  0.67019260  0.00173150  1
  Sb  Sb74  1  0.00261982  0.33121283  0.33538881  1
  Sb  Sb75  1  -0.00582710  0.49884987  0.83605890  1
  Sb  Sb76  1  0.49158183  0.16468014  0.32897303  1
  Sb  Sb77  1  0.16085096  0.83813112  0.00023432  1
  Sb  Sb78  1  0.16158456  0.00589366  0.16432333  1
  Sb  Sb79  1  0.16072378  0.16542691  0.66432658  1
  Sb  Sb80  1  0.66555805  0.33625067  -0.00055668  1
  Sb  Sb81  1  0.16214115  0.49876734  0.66717532  1
  Sb  Sb82  1  -0.00404316  0.49810749  0.49557708  1
  Sb  Sb83  1  0.34029604  0.83906364  0.17202818  1
  Sb  Sb84  1  0.49907674  0.32770831  0.50178780  1
  Sb  Sb85  1  0.16348609  0.83515294  0.66380655  1
  Sb  Sb86  1  0.50371715  0.00044659  0.16745690  1
  Sb  Sb87  1  -0.00908376  0.83718307  0.16881273  1
  Sb  Sb88  1  0.16159685  0.49624192  0.33350657  1
  Sb  Sb89  1  0.15716774  0.65942771  0.17394088  1
  Sb  Sb90  1  0.16648888  0.49875433  -0.00073938  1
  Sb  Sb91  1  0.50742872  0.83437206  -0.00633983  1
  Sb  Sb92  1  0.83799250  0.16612236  0.33597396  1
  Sb  Sb93  1  0.32759342  0.33034441  0.66876007  1
  Sb  Sb94  1  -0.00411008  0.83568087  0.83103146  1
  Sb  Sb95  1  0.82994625  0.16421763  -0.00221801  1
  Sb  Sb96  1  0.33537472  0.49559996  0.16372322  1
  Sb  Sb97  1  0.67513669  0.16009372  0.50651235  1
  Sb  Sb98  1  0.50326639  -0.00146642  0.83034887  1
  Sb  Sb99  1  -0.00446051  0.83351852  0.50023032  1
  Sb  Sb100  1  0.33482665  0.50302813  0.50348410  1
  Sb  Sb101  1  0.17108839  0.16654293  0.00287895  1
  Sb  Sb102  1  0.51032468  0.66550089  0.16385470  1
  Sb  Sb103  1  0.66806820  0.83230144  0.83043345  1
  Sb  Sb104  1  0.32757313  0.16256880  0.50024114  1
  Sb  Sb105  1  0.50514088  0.67162928  0.50418787  1
  Sb  Sb106  1  0.67098744  0.16617627  0.16187191  1
  Sb  Sb107  1  0.33581982  0.83888310  0.82904939  1
  Te  Te108  1  0.16638132  0.17015402  0.17072508  1
  Te  Te109  1  0.16048930  0.16999085  0.49554940  1
  Te  Te110  1  0.17111252  0.16652880  0.83132603  1
  Te  Te111  1  0.16427050  0.49093832  0.16588968  1
  Te  Te112  1  0.16744606  0.49983337  0.49976166  1
  Te  Te113  1  0.16993816  0.49576751  0.83381410  1
  Te  Te114  1  0.16920931  0.83036100  0.16677944  1
  Te  Te115  1  0.17424440  0.82660072  0.49879278  1
  Te  Te116  1  0.16760587  0.84015305  0.83296113  1
  Te  Te117  1  0.49491730  0.16657970  0.15997299  1
  Te  Te118  1  0.50148402  0.15975293  0.50085036  1
  Te  Te119  1  0.49939712  0.16723245  0.83689380  1
  Te  Te120  1  0.50558439  0.49969349  0.16080135  1
  Te  Te121  1  0.50212606  0.49779491  0.50588713  1
  Te  Te122  1  0.50272838  0.49978606  0.83377898  1
  Te  Te123  1  0.51034726  0.83356323  0.16626638  1
  Te  Te124  1  0.50086789  0.83704274  0.50538295  1
  Te  Te125  1  0.49933867  0.82411596  0.82556613  1
  Te  Te126  1  0.83721862  0.15911562  0.16747311  1
  Te  Te127  1  0.83906410  0.17166099  0.50366242  1
  Te  Te128  1  0.83122454  0.16293230  0.82936863  1
  Te  Te129  1  0.83156781  0.50223433  0.16633422  1
  Te  Te130  1  0.83325811  0.50038747  0.50800137  1
  Te  Te131  1  0.82892863  0.49701892  0.82724322  1
  Te  Te132  1  0.83101111  0.83701948  0.16667833  1
  Te  Te133  1  0.83074152  0.82859532  0.50163706  1
  Te  Te134  1  0.83330165  0.84235995  0.83139932  1
  Te  Te135  1  0.17196102  -0.00040182  -0.00571843  1
  Te  Te136  1  0.16488913  0.00340396  0.33274368  1
  Te  Te137  1  0.16910632  0.00027781  0.67102829  1
  Te  Te138  1  0.17128672  0.33391689  -0.00151278  1
  Te  Te139  1  0.16901110  0.33104976  0.33378951  1
  Te  Te140  1  0.15963491  0.33238018  0.66111568  1
  Te  Te141  1  0.16454610  0.66863531  -0.00123504  1
  Te  Te142  1  0.17041988  0.66637557  0.33828074  1
  Te  Te143  1  0.16416644  0.66697628  0.65953618  1
  Te  Te144  1  0.49790901  0.00142141  -0.00045984  1
  Te  Te145  1  0.49413719  -0.00052073  0.33712743  1
  Te  Te146  1  0.49951135  -0.00110544  0.66534323  1
  Te  Te147  1  0.49383764  0.33306128  -0.00026951  1
  Te  Te148  1  0.49088449  0.33405400  0.33431683  1
  Te  Te149  1  0.50051828  0.33879628  0.66456774  1
  Te  Te150  1  0.50711078  0.66370447  -0.00386020  1
  Te  Te151  1  0.49328994  0.66670893  0.33346753  1
  Te  Te152  1  0.50293109  0.66692938  0.66858166  1
  Te  Te153  1  0.83094960  0.00187057  -0.00210988  1
  Te  Te154  1  0.83837279  -0.00136781  0.33402397  1
  Te  Te155  1  0.83218436  -0.00148124  0.66352518  1
  Te  Te156  1  0.83477385  0.33743380  0.00457705  1
  Te  Te157  1  0.83371534  0.33408009  0.33400097  1
  Te  Te158  1  0.83845846  0.33254234  0.66575978  1
  Te  Te159  1  0.82866320  0.66831531  -0.00446367  1
  Te  Te160  1  0.83220078  0.66804350  0.33665991  1
  Te  Te161  1  0.83087891  0.67008419  0.67072584  1
  Te  Te162  1  -0.00026767  0.16086959  0.00489784  1
  Te  Te163  1  0.00280273  0.16405616  0.33332413  1
  Te  Te164  1  -0.00380421  0.16425190  0.66671165  1
  Te  Te165  1  -0.00603604  0.50053751  0.00459143  1
  Te  Te166  1  -0.00474115  0.50522697  0.32825263  1
  Te  Te167  1  -0.00486102  0.50145024  0.66805451  1
  Te  Te168  1  -0.00784915  0.84084538  0.00002398  1
  Te  Te169  1  -0.00524848  0.83373789  0.33445728  1
  Te  Te170  1  -0.00561129  0.83600258  0.66520010  1
  Te  Te171  1  0.33405640  0.16616278  0.00006843  1
  Te  Te172  1  0.32813873  0.16544699  0.33307844  1
  Te  Te173  1  0.33524007  0.16177018  0.66927929  1
  Te  Te174  1  0.33697589  0.50099149  -0.00436669  1
  Te  Te175  1  0.33493407  0.50055048  0.33353614  1
  Te  Te176  1  0.33436802  0.49994636  0.67239771  1
  Te  Te177  1  0.33517485  0.83819196  0.00183721  1
  Te  Te178  1  0.33411682  0.83730278  0.33682752  1
  Te  Te179  1  0.33316545  0.83851759  0.66235757  1
  Te  Te180  1  0.66151775  0.16334800  -0.00325660  1
  Te  Te181  1  0.66261653  0.16651911  0.33280228  1
  Te  Te182  1  0.67188127  0.16330836  0.67231318  1
  Te  Te183  1  0.66709100  0.49852205  -0.00320776  1
  Te  Te184  1  0.67109064  0.50659477  0.33192464  1
  Te  Te185  1  0.66804939  0.50210239  0.66943448  1
  Te  Te186  1  0.66971660  0.83508929  0.00108504  1
  Te  Te187  1  0.67140177  0.82975137  0.33228576  1
  Te  Te188  1  0.66781346  0.83332349  0.66673557  1
  Te  Te189  1  -0.00231882  0.00303113  0.16794553  1
  Te  Te190  1  0.00138128  0.00303664  0.50091733  1
  Te  Te191  1  -0.00085864  0.00125781  0.83094349  1
  Te  Te192  1  -0.00014533  0.33083244  0.16647416  1
  Te  Te193  1  -0.00072899  0.33183474  0.50121337  1
  Te  Te194  1  0.00791156  0.33195855  0.83048292  1
  Te  Te195  1  -0.00696934  0.66446034  0.16975122  1
  Te  Te196  1  -0.00263909  0.66712969  0.50019239  1
  Te  Te197  1  0.00565282  0.66637459  0.82651319  1
  Te  Te198  1  0.33252342  0.00448115  0.16730352  1
  Te  Te199  1  0.33277196  -0.00244705  0.49999504  1
  Te  Te200  1  0.33620802  0.00293190  0.83349798  1
  Te  Te201  1  0.33254800  0.33072865  0.16564355  1
  Te  Te202  1  0.32989401  0.33315787  0.49819246  1
  Te  Te203  1  0.32881209  0.33131427  0.83381338  1
  Te  Te204  1  0.33052861  0.66681341  0.17235191  1
  Te  Te205  1  0.33620858  0.67053172  0.49685477  1
  Te  Te206  1  0.33664103  0.66290371  0.83385263  1
  Te  Te207  1  0.67174462  -0.00100122  0.16518930  1
  Te  Te208  1  0.66266889  -0.00585688  0.50181367  1
  Te  Te209  1  0.66742237  0.00167111  0.83268271  1
  Te  Te210  1  0.67424286  0.33596821  0.16771421  1
  Te  Te211  1  0.67258260  0.33085227  0.49855754  1
  Te  Te212  1  0.66797834  0.32843664  0.83323270  1
  Te  Te213  1  0.67113490  0.66707247  0.16533940  1
  Te  Te214  1  0.67086707  0.67167224  0.50154725  1
  Te  Te215  1  0.66495913  0.66305149  0.83246798  1
