# generated using pymatgen
data_AgSbTe2
_symmetry_space_group_name_H-M   'P 1'
_cell_length_a   18.32640370
_cell_length_b   18.32818254
_cell_length_c   18.32600450
_cell_angle_alpha   89.99811162
_cell_angle_beta   90.00117071
_cell_angle_gamma   90.00174861
_symmetry_Int_Tables_number   1
_chemical_formula_structural   AgSbTe2
_chemical_formula_sum   'Ag54 Sb54 Te108'
_cell_volume   6155.51563786
_cell_formula_units_Z   54
loop_
 _symmetry_equiv_pos_site_id
 _symmetry_equiv_pos_as_xyz
  1  'x, y, z'
loop_
 _atom_site_type_symbol
 _atom_site_label
 _atom_site_symmetry_multiplicity
 _atom_site_fract_x
 _atom_site_fract_y
 _atom_site_fract_z
 _atom_site_occupancy
  Ag  Ag0  1  0.66629573  0.16519404  0.49884641  1
  Ag  Ag1  1  0.32900057  0.17731415  0.83496455  1
  Ag  Ag2  1  0.17051675  0.66381032  0.82605007  1
  Ag  Ag3  1  0.49114361  0.83655183  0.00190867  1
  Ag  Ag4  1  0.32147739  0.33580865  0.67754820  1
  Ag  Ag5  1  0.00875488  0.66663597  0.66345959  1
  Ag  Ag6  1  0.49752531  0.33235406  0.51029870  1
  Ag  Ag7  1  0.16313181  0.67514661  0.16331163  1
  Ag  Ag8  1  0.16075497  0.81700176  0.67325839  1
  Ag  Ag9  1  0.32964989  0.67660075  -0.00736493  1
  Ag  Ag10  1  0.17024493  0.33411289  0.51319532  1
  Ag  Ag11  1  0.50147699  -0.00169159  0.50209273  1
  Ag  Ag12  1  0.16368709  0.49998190  0.66961087  1
  Ag  Ag13  1  0.67049632  0.16099419  0.16904751  1
  Ag  Ag14  1  0.16059609  0.18263823  0.66877434  1
  Ag  Ag15  1  0.00887159  -0.00276314  0.00589887  1
  Ag  Ag16  1  0.65714507  0.33083671  -0.00670124  1
  Ag  Ag17  1  0.16836297  0.15789074  -0.00276565  1
  Ag  Ag18  1  0.15936271  0.16585291  0.32912769  1
  Ag  Ag19  1  0.83898154  0.16201581  0.33345093  1
  Ag  Ag20  1  0.16728463  0.66570590  0.51399446  1
  Ag  Ag21  1  0.49738708  -0.00410083  0.16003058  1
  Ag  Ag22  1  0.83562805  0.83511244  0.00634013  1
  Ag  Ag23  1  -0.00061255  0.67132459  0.33481192  1
  Ag  Ag24  1  0.17749386  0.33790147  0.82494117  1
  Ag  Ag25  1  0.66489291  0.49516048  0.83191956  1
  Ag  Ag26  1  0.33540384  0.33078941  -0.01147758  1
  Ag  Ag27  1  0.00005581  0.15724643  0.17029072  1
  Ag  Ag28  1  0.49687604  0.00207490  0.83740832  1
  Ag  Ag29  1  0.49482161  0.66913090  0.49945945  1
  Ag  Ag30  1  0.84173728  0.83770942  0.66844882  1
  Ag  Ag31  1  0.84157732  0.67478457  0.16872326  1
  Ag  Ag32  1  0.32068843  0.66381492  0.67706470  1
  Ag  Ag33  1  0.00254034  -0.00109237  0.66831322  1
  Ag  Ag34  1  0.15994116  -0.00340205  0.16021282  1
  Ag  Ag35  1  0.48934576  0.33063620  0.83220187  1
  Ag  Ag36  1  0.00916813  0.50030999  0.82688925  1
  Ag  Ag37  1  0.50172522  0.32715689  0.15581121  1
  Ag  Ag38  1  -0.00007257  -0.00242661  0.32405075  1
  Ag  Ag39  1  0.83671134  0.83514751  0.32476442  1
  Ag  Ag40  1  -0.00388081  0.83808982  0.16449218  1
  Ag  Ag41  1  0.66410941  0.33152638  0.67066673  1
  Ag  Ag42  1  0.66610626  0.83668568  0.49917520  1
  Ag  Ag43  1  0.84035323  0.16315684  0.66529799  1
  Ag  Ag44  1  0.49823102  0.67494074  0.16604641  1
  Ag  Ag45  1  0.33088310  0.83229697  0.83757180  1
  Ag  Ag46  1  0.00254664  0.50242779  0.50876176  1
  Ag  Ag47  1  0.67417847  0.83720725  0.16516924  1
  Ag  Ag48  1  0.83735381  0.50831237  0.33320122  1
  Ag  Ag49  1  0.17028017  0.83834188  -0.00354494  1
  Ag  Ag50  1  0.83664465  -0.00247645  0.83124986  1
  Ag  Ag51  1  0.01028131  0.33298735  0.66707842  1
  Ag  Ag52  1  0.32789437  0.49144538  0.83125290  1
  Ag  Ag53  1  0.32685533  -0.00396312  -0.00335086  1
  Sb  Sb54  1  0.49379585  0.49780673  0.66820730  1
  Sb  Sb55  1  0.00099532  0.50390487  0.16593262  1
  Sb  Sb56  1  0.00067337  0.33199686  0.33798394  1
  Sb  Sb57  1  0.49447529  0.16379815  0.00031709  1
  Sb  Sb58  1  0.16045607  0.49920063  0.34022084  1
  Sb  Sb59  1  0.66526843  0.00235595  0.00196621  1
  Sb  Sb60  1  0.50538059  0.83382302  0.32742195  1
  Sb  Sb61  1  0.83438378  0.32997459  0.83113103  1
  Sb  Sb62  1  0.83476222  0.33165674  0.50207462  1
  Sb  Sb63  1  0.84189462  0.49966444  0.66556785  1
  Sb  Sb64  1  0.33047079  0.16591568  0.15926657  1
  Sb  Sb65  1  0.49810303  0.83384166  0.67080406  1
  Sb  Sb66  1  0.33521029  0.16748883  0.50715627  1
  Sb  Sb67  1  0.49017342  0.66589093  0.83428398  1
  Sb  Sb68  1  0.66810984  0.66422125  0.66616552  1
  Sb  Sb69  1  0.32848381  0.00018961  0.32678075  1
  Sb  Sb70  1  0.00650196  0.16686532  0.83201989  1
  Sb  Sb71  1  0.00762802  0.67442531  -0.00022263  1
  Sb  Sb72  1  -0.00113290  0.16872056  0.49915234  1
  Sb  Sb73  1  0.66433845  0.83084815  0.83509283  1
  Sb  Sb74  1  0.50004654  0.16517160  0.33207826  1
  Sb  Sb75  1  0.66617760  0.50038138  0.16306460  1
  Sb  Sb76  1  0.83772489  -0.00534618  0.16245909  1
  Sb  Sb77  1  0.00518351  0.32711506  -0.00584164  1
  Sb  Sb78  1  0.67005169  0.49863666  0.50512330  1
  Sb  Sb79  1  0.17052980  0.32999897  0.16196935  1
  Sb  Sb80  1  0.16954755  -0.00013519  0.50023700  1
  Sb  Sb81  1  0.49835563  0.50021369  -0.00246389  1
  Sb  Sb82  1  -0.00214605  0.83008000  0.50020616  1
  Sb  Sb83  1  0.66634204  0.33116153  0.33525435  1
  Sb  Sb84  1  0.66147492  0.66669766  0.00069334  1
  Sb  Sb85  1  0.33247414  0.33165790  0.33534079  1
  Sb  Sb86  1  0.33266542  0.50127994  0.15774367  1
  Sb  Sb87  1  0.83757764  0.16082734  -0.00058861  1
  Sb  Sb88  1  0.32775573  0.49994974  0.50791608  1
  Sb  Sb89  1  0.16899168  -0.00033889  0.83749330  1
  Sb  Sb90  1  0.32665109  0.66799898  0.33274297  1
  Sb  Sb91  1  0.00627819  0.83303950  0.83463988  1
  Sb  Sb92  1  0.67325780  0.66840043  0.33227526  1
  Sb  Sb93  1  0.67070960  0.00363575  0.66576435  1
  Sb  Sb94  1  0.15883368  0.83573416  0.32976618  1
  Sb  Sb95  1  0.33112948  0.83327928  0.15922433  1
  Sb  Sb96  1  0.67368052  -0.00006035  0.33282796  1
  Sb  Sb97  1  0.16745134  0.50378484  -0.00875882  1
  Sb  Sb98  1  0.83353831  0.50572806  0.00211162  1
  Sb  Sb99  1  0.84008974  0.67169882  0.83627241  1
  Sb  Sb100  1  0.32781012  0.00156595  0.67531712  1
  Sb  Sb101  1  0.50412878  0.50155627  0.33452686  1
  Sb  Sb102  1  0.83248801  -0.00087594  0.50341120  1
  Sb  Sb103  1  0.82963987  0.33348750  0.16636054  1
  Sb  Sb104  1  0.66368698  0.16965499  0.83364942  1
  Sb  Sb105  1  0.49919706  0.16898755  0.66713796  1
  Sb  Sb106  1  0.83799821  0.66892934  0.49715713  1
  Sb  Sb107  1  0.33704604  0.83220011  0.50917287  1
  Te  Te108  1  0.16385873  0.16563904  0.16570407  1
  Te  Te109  1  0.16718443  0.16919585  0.50509454  1
  Te  Te110  1  0.16852434  0.16723540  0.83259516  1
  Te  Te111  1  0.16633753  0.50397329  0.16852889  1
  Te  Te112  1  0.16231815  0.50051728  0.50344115  1
  Te  Te113  1  0.16793500  0.50016401  0.83167146  1
  Te  Te114  1  0.16347465  0.83557094  0.16454286  1
  Te  Te115  1  0.16797280  0.82854582  0.50388940  1
  Te  Te116  1  0.16917217  0.83194810  0.83380597  1
  Te  Te117  1  0.50383393  0.16723077  0.16755957  1
  Te  Te118  1  0.50451889  0.16849215  0.49929870  1
  Te  Te119  1  0.49568177  0.16675973  0.83344578  1
  Te  Te120  1  0.50075843  0.50155309  0.16775020  1
  Te  Te121  1  0.50076734  0.49867293  0.49957827  1
  Te  Te122  1  0.50161104  0.49493081  0.83250839  1
  Te  Te123  1  0.50077382  0.83438501  0.16296482  1
  Te  Te124  1  0.50442444  0.83254177  0.49926607  1
  Te  Te125  1  0.49732524  0.83548658  0.83871412  1
  Te  Te126  1  0.83340389  0.16566925  0.16774554  1
  Te  Te127  1  0.82757115  0.16566546  0.50079241  1
  Te  Te128  1  0.83281048  0.15968007  0.82932501  1
  Te  Te129  1  0.83314117  0.50665623  0.17202110  1
  Te  Te130  1  0.83880652  0.50033819  0.49442091  1
  Te  Te131  1  0.83252442  0.50236872  0.83404749  1
  Te  Te132  1  0.83361706  0.83308329  0.16614511  1
  Te  Te133  1  0.82655181  0.83330876  0.50455593  1
  Te  Te134  1  0.83180127  0.83716048  0.83003165  1
  Te  Te135  1  0.16685911  -0.00128701  0.00004798  1
  Te  Te136  1  0.16119873  0.00439166  0.33032302  1
  Te  Te137  1  0.16228767  0.00004706  0.66634446  1
  Te  Te138  1  0.17158020  0.33073047  -0.00395452  1
  Te  Te139  1  0.16689562  0.32771718  0.33389299  1
  Te  Te140  1  0.16569377  0.33797745  0.66803716  1
  Te  Te141  1  0.17105340  0.66968816  0.00445245  1
  Te  Te142  1  0.15957430  0.66697917  0.32563212  1
  Te  Te143  1  0.16524300  0.66156750  0.66913612  1
  Te  Te144  1  0.49967427  -0.00202331  -0.00016097  1
  Te  Te145  1  0.49760475  0.00026219  0.33290252  1
  Te  Te146  1  0.49855190  0.00064395  0.66627391  1
  Te  Te147  1  0.49829003  0.33255456  -0.00271686  1
  Te  Te148  1  0.49916008  0.33377555  0.33470312  1
  Te  Te149  1  0.50310812  0.33329462  0.66895835  1
  Te  Te150  1  0.49421204  0.67045476  0.00252189  1
  Te  Te151  1  0.49786847  0.66648109  0.33352499  1
  Te  Te152  1  0.49891521  0.66677177  0.66135927  1
  Te  Te153  1  0.83532228  -0.00473157  -0.00671190  1
  Te  Te154  1  0.84005991  0.00031868  0.33451022  1
  Te  Te155  1  0.83644610  0.00035147  0.66891209  1
  Te  Te156  1  0.83083191  0.33408002  -0.00002829  1
  Te  Te157  1  0.83371347  0.32470290  0.33337435  1
  Te  Te158  1  0.82969495  0.32893341  0.66634238  1
  Te  Te159  1  0.83262152  0.67359528  0.00536189  1
  Te  Te160  1  0.83875090  0.67151245  0.33045762  1
  Te  Te161  1  0.83720571  0.67206014  0.66674442  1
  Te  Te162  1  0.00539748  0.16021937  0.00441269  1
  Te  Te163  1  -0.00039131  0.16559540  0.33224010  1
  Te  Te164  1  -0.00027500  0.16740352  0.66610136  1
  Te  Te165  1  -0.00119658  0.49799734  -0.00660302  1
  Te  Te166  1  -0.00466445  0.50275895  0.33349756  1
  Te  Te167  1  0.00072794  0.50092080  0.66753496  1
  Te  Te168  1  0.00053728  0.83753932  0.00205662  1
  Te  Te169  1  -0.00415129  0.83408225  0.33196530  1
  Te  Te170  1  0.00160668  0.83309115  0.66715585  1
  Te  Te171  1  0.32831671  0.16612036  -0.00443922  1
  Te  Te172  1  0.32392870  0.16547569  0.33390732  1
  Te  Te173  1  0.32820219  0.17023923  0.67326029  1
  Te  Te174  1  0.33348339  0.49550117  -0.00847587  1
  Te  Te175  1  0.33335569  0.50004004  0.33257811  1
  Te  Te176  1  0.32816575  0.50042974  0.67125724  1
  Te  Te177  1  0.33188621  0.83451929  -0.00132048  1
  Te  Te178  1  0.33297617  0.83396718  0.33642731  1
  Te  Te179  1  0.32969248  0.82997333  0.67418951  1
  Te  Te180  1  0.66922870  0.17148886  0.00577159  1
  Te  Te181  1  0.67027597  0.16577627  0.33226257  1
  Te  Te182  1  0.66950301  0.17010491  0.66421633  1
  Te  Te183  1  0.66691426  0.49353620  -0.00533898  1
  Te  Te184  1  0.67711109  0.49967159  0.33462616  1
  Te  Te185  1  0.67036571  0.49534480  0.67060084  1
  Te  Te186  1  0.67010446  0.83355706  0.00361132  1
  Te  Te187  1  0.67394820  0.83398424  0.33233732  1
  Te  Te188  1  0.66981455  0.83316144  0.66395912  1
  Te  Te189  1  0.00001660  -0.00095482  0.16599645  1
  Te  Te190  1  0.00110046  -0.00029497  0.50473013  1
  Te  Te191  1  -0.00352743  0.00005959  0.82928638  1
  Te  Te192  1  -0.00021804  0.32978932  0.16506509  1
  Te  Te193  1  0.00492575  0.33705320  0.50518668  1
  Te  Te194  1  0.00176026  0.33651258  0.82805643  1
  Te  Te195  1  0.00029952  0.66867897  0.16694279  1
  Te  Te196  1  0.00420180  0.66461917  0.50099496  1
  Te  Te197  1  0.00617374  0.66267121  0.83074133  1
  Te  Te198  1  0.33670171  0.00041930  0.16003377  1
  Te  Te199  1  0.34134853  0.00012152  0.49930621  1
  Te  Te200  1  0.33686933  -0.00538451  0.83742350  1
  Te  Te201  1  0.34115378  0.33406486  0.16437182  1
  Te  Te202  1  0.33421943  0.33348755  0.50365499  1
  Te  Te203  1  0.33381395  0.33368497  0.83281006  1
  Te  Te204  1  0.33494375  0.66609003  0.16481351  1
  Te  Te205  1  0.33228844  0.66558348  0.50144618  1
  Te  Te206  1  0.33123329  0.66880591  0.83379624  1
  Te  Te207  1  0.66138000  -0.00082083  0.16750076  1
  Te  Te208  1  0.66082639  0.00044156  0.49903441  1
  Te  Te209  1  0.65964303  0.00042775  0.83360206  1
  Te  Te210  1  0.66165892  0.33201556  0.16440308  1
  Te  Te211  1  0.66244051  0.33107172  0.50376136  1
  Te  Te212  1  0.66811698  0.33411004  0.83352210  1
  Te  Te213  1  0.66039479  0.67018986  0.16623010  1
  Te  Te214  1  0.65983057  0.66879934  0.49946077  1
  Te  Te215  1  0.66617536  0.65969995  0.83346452  1
