# generated using pymatgen
data_AgSbTe2
_symmetry_space_group_name_H-M   'P 1'
_cell_length_a   18.32438112
_cell_length_b   18.32142501
_cell_length_c   18.32362068
_cell_angle_alpha   89.99966832
_cell_angle_beta   90.00019341
_cell_angle_gamma   90.00480411
_symmetry_Int_Tables_number   1
_chemical_formula_structural   AgSbTe2
_chemical_formula_sum   'Ag54 Sb54 Te108'
_cell_volume   6151.76669287
_cell_formula_units_Z   54
loop_
 _symmetry_equiv_pos_site_id
 _symmetry_equiv_pos_as_xyz
  1  'x, y, z'
loop_
 _atom_site_type_symbol
 _atom_site_label
 _atom_site_symmetry_multiplicity
 _atom_site_fract_x
 _atom_site_fract_y
 _atom_site_fract_z
 _atom_site_occupancy
  Ag  Ag0  1  0.66223329  0.83922305  0.15592536  1
  Ag  Ag1  1  -0.00134371  -0.00020179  0.67008758  1
  Ag  Ag2  1  -0.00787877  0.17384893  0.15993793  1
  Ag  Ag3  1  0.16126811  0.50262708  0.33175306  1
  Ag  Ag4  1  0.32910916  0.33792746  0.32942733  1
  Ag  Ag5  1  -0.00318141  0.66695402  0.00282082  1
  Ag  Ag6  1  0.67455601  0.16411957  0.83389662  1
  Ag  Ag7  1  0.33821097  0.83243278  0.49965304  1
  Ag  Ag8  1  0.83928445  0.66583153  0.15514770  1
  Ag  Ag9  1  0.83488995  0.33076117  0.84050428  1
  Ag  Ag10  1  0.00464213  0.66146664  0.32225015  1
  Ag  Ag11  1  0.50745784  0.16520008  0.66840892  1
  Ag  Ag12  1  0.50205532  0.50444345  0.66771397  1
  Ag  Ag13  1  0.66493920  0.66889658  0.67460500  1
  Ag  Ag14  1  0.32614777  0.67211994  0.00333988  1
  Ag  Ag15  1  0.33501442  0.83030329  0.84163395  1
  Ag  Ag16  1  -0.00973446  0.16461002  0.83396314  1
  Ag  Ag17  1  0.66749115  -0.00246393  0.00152813  1
  Ag  Ag18  1  0.50708366  0.32651731  0.16587599  1
  Ag  Ag19  1  0.50445295  0.83111052  0.00200881  1
  Ag  Ag20  1  0.50257329  -0.00704244  0.49882746  1
  Ag  Ag21  1  0.50503697  -0.00248284  0.16951046  1
  Ag  Ag22  1  0.34248419  0.83187192  0.16044045  1
  Ag  Ag23  1  -0.00852581  0.33863142  0.00417286  1
  Ag  Ag24  1  0.15862071  0.16511074  0.67107607  1
  Ag  Ag25  1  0.83206204  0.67808419  0.83819065  1
  Ag  Ag26  1  0.49836428  0.83382101  0.32558469  1
  Ag  Ag27  1  0.83481095  0.33317426  0.50094509  1
  Ag  Ag28  1  0.16311647  0.66926219  0.84049184  1
  Ag  Ag29  1  -0.01112510  0.83350549  0.83438874  1
  Ag  Ag30  1  0.66387441  -0.00058239  0.32356700  1
  Ag  Ag31  1  0.66655748  0.16532435  0.50932823  1
  Ag  Ag32  1  0.50983013  0.67125272  0.83147868  1
  Ag  Ag33  1  0.83404748  0.50446455  -0.00230225  1
  Ag  Ag34  1  0.33980557  0.16265512  0.16736438  1
  Ag  Ag35  1  0.15707174  0.33544999  0.83472153  1
  Ag  Ag36  1  0.16769963  0.82755324  -0.00275573  1
  Ag  Ag37  1  0.67013852  0.51316510  0.83491913  1
  Ag  Ag38  1  0.83187868  -0.00747193  0.83266399  1
  Ag  Ag39  1  0.83657709  0.33364148  0.15715123  1
  Ag  Ag40  1  0.67419894  0.83159419  0.83815330  1
  Ag  Ag41  1  -0.00233207  0.50473147  0.49144606  1
  Ag  Ag42  1  0.66607233  0.16013209  0.16192693  1
  Ag  Ag43  1  -0.00037094  0.82949670  0.50552680  1
  Ag  Ag44  1  0.83505961  0.83716148  0.67813620  1
  Ag  Ag45  1  0.00026491  0.34235731  0.32409199  1
  Ag  Ag46  1  0.49977716  0.67514727  0.50559322  1
  Ag  Ag47  1  0.67601640  0.32716335  -0.00015395  1
  Ag  Ag48  1  0.83094727  0.16313381  0.67379576  1
  Ag  Ag49  1  0.83173317  0.82609726  -0.00647231  1
  Ag  Ag50  1  0.33450601  -0.00156770  0.66781230  1
  Ag  Ag51  1  0.32927708  0.66883706  0.32603809  1
  Ag  Ag52  1  -0.00210503  0.49942402  0.16859047  1
  Ag  Ag53  1  0.15823430  0.66807849  0.15887805  1
  Sb  Sb54  1  0.66613248  0.83757691  0.50303305  1
  Sb  Sb55  1  0.15875834  0.50688575  0.00333175  1
  Sb  Sb56  1  0.33982804  -0.00536724  0.33404384  1
  Sb  Sb57  1  0.66837857  0.33227245  0.67478067  1
  Sb  Sb58  1  0.50478343  0.33201460  0.49540383  1
  Sb  Sb59  1  -0.00577104  0.16650691  0.50450969  1
  Sb  Sb60  1  0.50799454  0.50715536  -0.00292663  1
  Sb  Sb61  1  0.33157811  0.33693450  0.00447069  1
  Sb  Sb62  1  0.16100671  0.33727722  0.16263149  1
  Sb  Sb63  1  0.17069922  -0.00150708  0.50259382  1
  Sb  Sb64  1  0.83950558  0.49925991  0.32628348  1
  Sb  Sb65  1  0.83040624  0.83189736  0.33003111  1
  Sb  Sb66  1  0.67204824  0.67226800  -0.00496509  1
  Sb  Sb67  1  -0.00257353  0.83107936  0.16181141  1
  Sb  Sb68  1  0.50361356  0.83448243  0.66881307  1
  Sb  Sb69  1  0.82666318  0.00085373  0.15824063  1
  Sb  Sb70  1  0.83236053  0.16811616  0.33377758  1
  Sb  Sb71  1  0.33934544  0.16192310  0.49711055  1
  Sb  Sb72  1  0.66934565  0.32935196  0.32540951  1
  Sb  Sb73  1  0.32912734  0.50462750  0.16754551  1
  Sb  Sb74  1  0.33405245  0.32664346  0.66343323  1
  Sb  Sb75  1  0.67059273  0.49595353  0.50609565  1
  Sb  Sb76  1  0.66520480  0.67176359  0.33441977  1
  Sb  Sb77  1  0.82827214  0.00210305  0.50759879  1
  Sb  Sb78  1  0.33119084  0.50511786  0.49926521  1
  Sb  Sb79  1  0.16311213  0.83572086  0.67350378  1
  Sb  Sb80  1  0.83054918  0.50101046  0.67381906  1
  Sb  Sb81  1  0.49544205  0.50509211  0.33461342  1
  Sb  Sb82  1  -0.00566725  0.50159015  0.83628503  1
  Sb  Sb83  1  0.66766849  -0.00103874  0.67097978  1
  Sb  Sb84  1  -0.00803714  -0.00249440  -0.00490133  1
  Sb  Sb85  1  0.50110412  0.16193616  0.33162080  1
  Sb  Sb86  1  0.33334621  0.16139610  0.83537809  1
  Sb  Sb87  1  0.16109706  -0.00395525  0.83274420  1
  Sb  Sb88  1  0.16644831  0.17247641  0.33483747  1
  Sb  Sb89  1  0.67306220  0.50068982  0.15898937  1
  Sb  Sb90  1  0.33849272  0.67470413  0.66902710  1
  Sb  Sb91  1  0.17094862  0.82653069  0.32788430  1
  Sb  Sb92  1  0.16825968  0.66840718  0.50031703  1
  Sb  Sb93  1  -0.00457619  0.67145119  0.67133449  1
  Sb  Sb94  1  0.16742477  0.49766357  0.66689892  1
  Sb  Sb95  1  0.16410847  0.16433787  -0.00275303  1
  Sb  Sb96  1  0.33731435  0.50790418  0.83425562  1
  Sb  Sb97  1  0.15992781  0.33391389  0.50162043  1
  Sb  Sb98  1  0.50436544  0.33628692  0.83838356  1
  Sb  Sb99  1  -0.00642976  -0.00127659  0.33550440  1
  Sb  Sb100  1  0.50368070  0.16200291  -0.00085762  1
  Sb  Sb101  1  0.50630122  -0.00607890  0.83385868  1
  Sb  Sb102  1  0.83177513  0.16905804  -0.00699339  1
  Sb  Sb103  1  0.83171695  0.66410475  0.50224540  1
  Sb  Sb104  1  0.50130168  0.67168236  0.16317029  1
  Sb  Sb105  1  0.17057859  -0.00481767  0.16505506  1
  Sb  Sb106  1  -0.00307356  0.32932235  0.67176695  1
  Sb  Sb107  1  0.33947415  -0.00872051  -0.00233664  1
  Te  Te108  1  0.16780310  0.16512291  0.16633057  1
  Te  Te109  1  0.16805398  0.16698784  0.50879898  1
  Te  Te110  1  0.16598399  0.16798717  0.82981420  1
  Te  Te111  1  0.16141869  0.50636173  0.17013161  1
  Te  Te112  1  0.15981623  0.50053343  0.49642774  1
  Te  Te113  1  0.16711565  0.50039844  0.83314125  1
  Te  Te114  1  0.16986830  0.82797739  0.16107934  1
  Te  Te115  1  0.16487236  0.83341841  0.49986563  1
  Te  Te116  1  0.17107817  0.82981921  0.83726727  1
  Te  Te117  1  0.50259792  0.16550297  0.16547307  1
  Te  Te118  1  0.50550527  0.16458785  0.50270894  1
  Te  Te119  1  0.50199689  0.16632173  0.82987998  1
  Te  Te120  1  0.50198281  0.49441249  0.16658781  1
  Te  Te121  1  0.50101636  0.50243618  0.50480379  1
  Te  Te122  1  0.50564979  0.50439618  0.82909239  1
  Te  Te123  1  0.50193446  0.83274518  0.16605402  1
  Te  Te124  1  0.50065940  0.83355234  0.50244063  1
  Te  Te125  1  0.49707980  0.83040900  0.83494784  1
  Te  Te126  1  0.83263745  0.16901263  0.16715802  1
  Te  Te127  1  0.82806572  0.16991796  0.50515743  1
  Te  Te128  1  0.83468889  0.17224114  0.83225105  1
  Te  Te129  1  0.83796986  0.50007617  0.16108600  1
  Te  Te130  1  0.83797351  0.49560831  0.50226061  1
  Te  Te131  1  0.82924240  0.49173101  0.83696664  1
  Te  Te132  1  0.82836471  0.83216393  0.16335731  1
  Te  Te133  1  0.83737899  0.83295178  0.50093383  1
  Te  Te134  1  0.83335291  0.83373206  0.83331751  1
  Te  Te135  1  0.16631198  -0.00877657  -0.00033553  1
  Te  Te136  1  0.16531442  0.00155052  0.33412454  1
  Te  Te137  1  0.16498914  0.00528579  0.66708648  1
  Te  Te138  1  0.16381892  0.33349128  -0.00596876  1
  Te  Te139  1  0.16495654  0.33893142  0.33370024  1
  Te  Te140  1  0.16741767  0.32849271  0.67324893  1
  Te  Te141  1  0.16413942  0.66758660  -0.00009251  1
  Te  Te142  1  0.16559496  0.66296489  0.33387051  1
  Te  Te143  1  0.16783655  0.66504363  0.67467367  1
  Te  Te144  1  0.50601946  -0.00616746  0.00439927  1
  Te  Te145  1  0.50337392  -0.00433428  0.33183100  1
  Te  Te146  1  0.49904571  0.00316117  0.66468069  1
  Te  Te147  1  0.49906591  0.33555115  0.00723242  1
  Te  Te148  1  0.49656069  0.33540358  0.32705053  1
  Te  Te149  1  0.50008863  0.33008249  0.66543326  1
  Te  Te150  1  0.49500981  0.67054523  -0.00445484  1
  Te  Te151  1  0.49668214  0.67150660  0.33656876  1
  Te  Te152  1  0.50263697  0.66684929  0.66835737  1
  Te  Te153  1  0.82758029  -0.00956777  -0.00695604  1
  Te  Te154  1  0.82496681  -0.00017001  0.33445332  1
  Te  Te155  1  0.83491173  0.00047173  0.67147398  1
  Te  Te156  1  0.83554890  0.33177751  0.00103979  1
  Te  Te157  1  0.83844646  0.33357777  0.33382841  1
  Te  Te158  1  0.83251003  0.33014023  0.66530122  1
  Te  Te159  1  0.83495008  0.66641390  -0.00170475  1
  Te  Te160  1  0.83894644  0.66641988  0.33220662  1
  Te  Te161  1  0.82786640  0.66903347  0.67087486  1
  Te  Te162  1  0.00072052  0.16787522  -0.00137508  1
  Te  Te163  1  0.00075053  0.16846074  0.33127461  1
  Te  Te164  1  -0.00280743  0.16321238  0.67037446  1
  Te  Te165  1  -0.00467869  0.50135055  0.00313386  1
  Te  Te166  1  0.00054901  0.50160933  0.33079273  1
  Te  Te167  1  0.00067614  0.49959150  0.65886538  1
  Te  Te168  1  -0.00258392  0.83146615  -0.00373378  1
  Te  Te169  1  0.00094650  0.83067231  0.33562150  1
  Te  Te170  1  -0.00303951  0.83673085  0.66969307  1
  Te  Te171  1  0.33294882  0.16675536  0.00678694  1
  Te  Te172  1  0.33300428  0.16951019  0.32769185  1
  Te  Te173  1  0.33741708  0.16002363  0.66608594  1
  Te  Te174  1  0.33465729  0.50878051  0.00057188  1
  Te  Te175  1  0.32760461  0.50253885  0.33437429  1
  Te  Te176  1  0.34033161  0.49791685  0.66576274  1
  Te  Te177  1  0.33551518  0.83098411  0.00101557  1
  Te  Te178  1  0.33640783  0.82969757  0.33381846  1
  Te  Te179  1  0.33164099  0.83880896  0.66220611  1
  Te  Te180  1  0.66578833  0.16593949  0.00087661  1
  Te  Te181  1  0.66583736  0.16205623  0.32608108  1
  Te  Te182  1  0.66815258  0.16594168  0.66994151  1
  Te  Te183  1  0.67232110  0.49213206  -0.00648886  1
  Te  Te184  1  0.66571615  0.50029962  0.33566781  1
  Te  Te185  1  0.66273525  0.50328739  0.67299244  1
  Te  Te186  1  0.66617399  0.83238925  -0.00229584  1
  Te  Te187  1  0.66177787  0.83765714  0.33299671  1
  Te  Te188  1  0.67173273  0.83143144  0.67072903  1
  Te  Te189  1  0.00021701  0.00684903  0.16764473  1
  Te  Te190  1  -0.00103349  -0.00453280  0.50417151  1
  Te  Te191  1  -0.00453250  0.00134730  0.83042654  1
  Te  Te192  1  -0.00053707  0.33304520  0.16513348  1
  Te  Te193  1  -0.00426542  0.33397515  0.49688311  1
  Te  Te194  1  -0.00133506  0.33402692  0.83665496  1
  Te  Te195  1  -0.00119731  0.66992963  0.16463799  1
  Te  Te196  1  -0.00004590  0.66896070  0.50078954  1
  Te  Te197  1  -0.00299426  0.66862705  0.83592985  1
  Te  Te198  1  0.33857277  -0.00209483  0.16609849  1
  Te  Te199  1  0.33995918  -0.00552139  0.50203874  1
  Te  Te200  1  0.33339878  -0.00610697  0.82934744  1
  Te  Te201  1  0.33081729  0.33333013  0.16954469  1
  Te  Te202  1  0.33347531  0.33336195  0.49215386  1
  Te  Te203  1  0.33211421  0.33268073  0.83413921  1
  Te  Te204  1  0.33463625  0.67040346  0.16675524  1
  Te  Te205  1  0.33694163  0.67186733  0.49872195  1
  Te  Te206  1  0.33068770  0.67109446  0.83531824  1
  Te  Te207  1  0.66501983  -0.00051631  0.16398518  1
  Te  Te208  1  0.66197801  0.00461279  0.49905264  1
  Te  Te209  1  0.67043853  0.00121906  0.83663213  1
  Te  Te210  1  0.67026116  0.33336859  0.16187877  1
  Te  Te211  1  0.67192960  0.32743402  0.49682566  1
  Te  Te212  1  0.66763930  0.32403163  0.83949208  1
  Te  Te213  1  0.67208374  0.66922704  0.16839116  1
  Te  Te214  1  0.66208561  0.66534896  0.50409644  1
  Te  Te215  1  0.66955571  0.67024852  0.83393551  1
