# generated using pymatgen
data_AgSbTe2
_symmetry_space_group_name_H-M   'P 1'
_cell_length_a   18.33569306
_cell_length_b   18.33538592
_cell_length_c   18.33194918
_cell_angle_alpha   89.99980962
_cell_angle_beta   90.00200324
_cell_angle_gamma   90.00067349
_symmetry_Int_Tables_number   1
_chemical_formula_structural   AgSbTe2
_chemical_formula_sum   'Ag54 Sb54 Te108'
_cell_volume   6163.05481093
_cell_formula_units_Z   54
loop_
 _symmetry_equiv_pos_site_id
 _symmetry_equiv_pos_as_xyz
  1  'x, y, z'
loop_
 _atom_site_type_symbol
 _atom_site_label
 _atom_site_symmetry_multiplicity
 _atom_site_fract_x
 _atom_site_fract_y
 _atom_site_fract_z
 _atom_site_occupancy
  Ag  Ag0  1  0.17128374  0.49967391  0.00600599  1
  Ag  Ag1  1  0.82834132  0.00440213  0.82035079  1
  Ag  Ag2  1  0.33709718  0.50201275  0.50392369  1
  Ag  Ag3  1  0.33394496  0.83052340  0.49886134  1
  Ag  Ag4  1  0.66417996  0.50200629  0.50402878  1
  Ag  Ag5  1  0.33074950  0.33412399  0.33345579  1
  Ag  Ag6  1  0.66497351  0.82561772  0.82632860  1
  Ag  Ag7  1  0.34308301  0.66147187  0.00225850  1
  Ag  Ag8  1  0.50454147  0.66168436  0.50240077  1
  Ag  Ag9  1  0.50443952  0.34102275  0.50166613  1
  Ag  Ag10  1  0.82657175  0.33430766  0.50362291  1
  Ag  Ag11  1  0.16511716  0.84106822  0.66329060  1
  Ag  Ag12  1  0.17042894  0.16708052  0.33657772  1
  Ag  Ag13  1  0.17480453  0.83386522  0.34102352  1
  Ag  Ag14  1  0.16774730  0.00181741  0.82483507  1
  Ag  Ag15  1  0.33723759  0.49850989  0.82455469  1
  Ag  Ag16  1  0.17552617  0.65619109  0.16936264  1
  Ag  Ag17  1  0.49669007  0.83192316  0.33532760  1
  Ag  Ag18  1  0.66853816  0.34247941  0.66298701  1
  Ag  Ag19  1  0.66528410  0.16580769  0.82351102  1
  Ag  Ag20  1  0.50767949  0.50290007  0.66300924  1
  Ag  Ag21  1  0.82849664  0.00507681  0.50872170  1
  Ag  Ag22  1  0.65629479  0.50404063  0.17017893  1
  Ag  Ag23  1  0.16890044  0.50086575  0.66290471  1
  Ag  Ag24  1  0.82954157  0.16750870  -0.01074073  1
  Ag  Ag25  1  0.67640233  0.00226148  0.66320200  1
  Ag  Ag26  1  -0.00700848  0.17112650  0.50312120  1
  Ag  Ag27  1  0.33703113  0.16784495  0.83311470  1
  Ag  Ag28  1  -0.00394375  0.49664610  0.50360827  1
  Ag  Ag29  1  0.66019326  -0.00328542  0.34267445  1
  Ag  Ag30  1  0.33101714  0.00272799  0.66237132  1
  Ag  Ag31  1  0.16986194  0.33769666  0.16959535  1
  Ag  Ag32  1  0.66148629  0.66744186  0.34543465  1
  Ag  Ag33  1  -0.01073837  0.00042821  0.66543722  1
  Ag  Ag34  1  0.16384897  0.15839594  0.66342439  1
  Ag  Ag35  1  0.82098442  0.50266204  0.66296504  1
  Ag  Ag36  1  0.82861944  0.84276186  0.66440401  1
  Ag  Ag37  1  0.49798505  0.66519070  0.16800775  1
  Ag  Ag38  1  0.33017982  0.17216077  0.16718490  1
  Ag  Ag39  1  0.66985035  0.65620967  0.66362254  1
  Ag  Ag40  1  0.50336575  0.66355207  0.82795066  1
  Ag  Ag41  1  0.33566250  0.00115576  0.33933938  1
  Ag  Ag42  1  0.33171747  0.50052536  0.17080123  1
  Ag  Ag43  1  0.67164570  0.17209844  0.50683304  1
  Ag  Ag44  1  0.50134729  0.16638526  -0.00111403  1
  Ag  Ag45  1  0.00091630  0.33196844  0.00375615  1
  Ag  Ag46  1  0.82629636  0.15669898  0.66514052  1
  Ag  Ag47  1  0.00937806  0.16844500  0.17100939  1
  Ag  Ag48  1  0.66084408  0.66227589  -0.00951278  1
  Ag  Ag49  1  0.49875580  -0.00254421  0.17186535  1
  Ag  Ag50  1  -0.00859292  0.66619976  0.66375156  1
  Ag  Ag51  1  0.65922868  0.50641995  0.81776820  1
  Ag  Ag52  1  0.82438105  0.66010808  0.50586316  1
  Ag  Ag53  1  0.17263166  0.49997875  0.33374119  1
  Sb  Sb54  1  0.33557576  0.66507939  0.66708742  1
  Sb  Sb55  1  -0.00411591  0.83421291  0.82831256  1
  Sb  Sb56  1  0.66275312  0.82964888  0.50597834  1
  Sb  Sb57  1  0.83106844  0.32900117  0.82417649  1
  Sb  Sb58  1  -0.00057059  0.16617925  0.82733738  1
  Sb  Sb59  1  0.50068049  0.33717241  0.82880670  1
  Sb  Sb60  1  0.83001331  0.83390288  0.34402100  1
  Sb  Sb61  1  0.16942489  0.66363907  0.49794585  1
  Sb  Sb62  1  0.33388495  -0.00064810  -0.00030668  1
  Sb  Sb63  1  0.16784401  0.33558498  0.49667315  1
  Sb  Sb64  1  0.33503678  0.83077730  0.17391819  1
  Sb  Sb65  1  0.83308678  0.50017730  0.34348783  1
  Sb  Sb66  1  0.66329700  0.17106450  0.16857639  1
  Sb  Sb67  1  0.16907777  0.82734877  -0.00287716  1
  Sb  Sb68  1  0.83632205  0.33273746  0.17055231  1
  Sb  Sb69  1  0.00154694  0.49978419  0.82350163  1
  Sb  Sb70  1  0.82790333  0.66393150  0.17149958  1
  Sb  Sb71  1  0.82333165  0.66989188  0.82336239  1
  Sb  Sb72  1  0.00652730  0.33246488  0.33361242  1
  Sb  Sb73  1  -0.00019220  0.00795264  -0.00608543  1
  Sb  Sb74  1  0.82979899  0.83726975  -0.01037404  1
  Sb  Sb75  1  0.00285188  0.00238900  0.34140029  1
  Sb  Sb76  1  0.83358994  0.49606866  -0.00796735  1
  Sb  Sb77  1  0.50209277  0.82894490  0.66194685  1
  Sb  Sb78  1  0.16528651  0.00120512  0.50646084  1
  Sb  Sb79  1  0.50360488  -0.00075451  0.49850847  1
  Sb  Sb80  1  0.50454293  0.16938135  0.66782115  1
  Sb  Sb81  1  0.16725371  0.17117926  -0.00106576  1
  Sb  Sb82  1  0.83552940  0.16566932  0.34231233  1
  Sb  Sb83  1  0.33439641  0.16782367  0.50018987  1
  Sb  Sb84  1  0.50192141  -0.00161668  0.83309848  1
  Sb  Sb85  1  0.33629915  0.33280213  0.66186479  1
  Sb  Sb86  1  0.33110263  0.33769096  0.00468229  1
  Sb  Sb87  1  0.82837289  0.00403859  0.16881798  1
  Sb  Sb88  1  0.65962407  0.33517836  0.34227365  1
  Sb  Sb89  1  -0.00018918  0.65913710  -0.00398716  1
  Sb  Sb90  1  -0.00091175  0.66499446  0.34044747  1
  Sb  Sb91  1  0.49588443  0.50634927  0.34123607  1
  Sb  Sb92  1  0.66889148  0.33659781  -0.00532763  1
  Sb  Sb93  1  0.17213353  0.00308692  0.16752729  1
  Sb  Sb94  1  0.49651617  0.49920986  -0.00292089  1
  Sb  Sb95  1  0.33751632  0.83307432  0.82590910  1
  Sb  Sb96  1  0.00658296  0.49666786  0.17240348  1
  Sb  Sb97  1  0.16806505  0.33178266  0.83397011  1
  Sb  Sb98  1  -0.00340731  0.33224900  0.66517223  1
  Sb  Sb99  1  0.17321604  0.66733158  0.83190503  1
  Sb  Sb100  1  0.66524146  0.82791299  0.16628468  1
  Sb  Sb101  1  0.00387893  0.83814759  0.16945299  1
  Sb  Sb102  1  0.66514390  -0.00031208  -0.00332102  1
  Sb  Sb103  1  0.49481131  0.16157446  0.33153878  1
  Sb  Sb104  1  0.49494537  0.33742962  0.17199366  1
  Sb  Sb105  1  0.50028441  0.83187146  0.00288709  1
  Sb  Sb106  1  0.33762640  0.66586331  0.33160026  1
  Sb  Sb107  1  0.00351788  0.83264062  0.50409290  1
  Te  Te108  1  0.16961430  0.16737671  0.16630965  1
  Te  Te109  1  0.16598255  0.16799550  0.50131767  1
  Te  Te110  1  0.17055331  0.16431945  0.83038923  1
  Te  Te111  1  0.16807253  0.49859083  0.16968373  1
  Te  Te112  1  0.17153589  0.49980497  0.49871416  1
  Te  Te113  1  0.17093127  0.49973222  0.82916336  1
  Te  Te114  1  0.16709613  0.83099594  0.16839652  1
  Te  Te115  1  0.17180385  0.83178858  0.50140185  1
  Te  Te116  1  0.16826601  0.83708805  0.82726331  1
  Te  Te117  1  0.49568981  0.16828002  0.16346454  1
  Te  Te118  1  0.50613693  0.17070715  0.49964689  1
  Te  Te119  1  0.49882487  0.16660375  0.83577570  1
  Te  Te120  1  0.49635525  0.50337671  0.16511970  1
  Te  Te121  1  0.50004846  0.50178009  0.50120951  1
  Te  Te122  1  0.49891540  0.50258968  0.83091396  1
  Te  Te123  1  0.50084178  0.83166266  0.17159018  1
  Te  Te124  1  0.49439474  0.82878900  0.49538391  1
  Te  Te125  1  0.50555796  0.82765627  0.83472471  1
  Te  Te126  1  0.83551139  0.16752554  0.16566021  1
  Te  Te127  1  0.83205167  0.16612339  0.50370881  1
  Te  Te128  1  0.83248125  0.16455046  0.82873051  1
  Te  Te129  1  0.83468999  0.49908040  0.16599340  1
  Te  Te130  1  0.83167165  0.50061172  0.50296590  1
  Te  Te131  1  0.82906186  0.49843073  0.82593196  1
  Te  Te132  1  0.83499402  0.83420254  0.16684039  1
  Te  Te133  1  0.83626788  0.83300342  0.50622799  1
  Te  Te134  1  0.82733481  0.84130586  0.82535430  1
  Te  Te135  1  0.16628011  -0.00213732  -0.00739287  1
  Te  Te136  1  0.17055151  0.00036169  0.33349548  1
  Te  Te137  1  0.17303513  0.00068732  0.66663652  1
  Te  Te138  1  0.16420086  0.33871408  0.00400569  1
  Te  Te139  1  0.17157396  0.33110581  0.33060079  1
  Te  Te140  1  0.16598883  0.33432988  0.66566044  1
  Te  Te141  1  0.16676021  0.66015198  0.00357758  1
  Te  Te142  1  0.16548543  0.66720018  0.33056841  1
  Te  Te143  1  0.16606845  0.66509585  0.66603707  1
  Te  Te144  1  0.49920485  0.00359527  0.00711612  1
  Te  Te145  1  0.49915707  -0.00415278  0.33198813  1
  Te  Te146  1  0.49053814  -0.00217226  0.66678886  1
  Te  Te147  1  0.50123142  0.32676776  0.00107213  1
  Te  Te148  1  0.49235924  0.33181950  0.33941507  1
  Te  Te149  1  0.50473665  0.33881074  0.66238265  1
  Te  Te150  1  0.50225443  0.66576667  0.00515733  1
  Te  Te151  1  0.50380039  0.67042250  0.33129995  1
  Te  Te152  1  0.50246000  0.66420858  0.66604841  1
  Te  Te153  1  0.83300124  0.00650655  -0.00250648  1
  Te  Te154  1  0.82832079  -0.00211395  0.33741751  1
  Te  Te155  1  0.83408760  0.00012810  0.66499628  1
  Te  Te156  1  0.83662449  0.32764565  0.00177258  1
  Te  Te157  1  0.83311016  0.33280978  0.34168808  1
  Te  Te158  1  0.83053565  0.33747043  0.66156317  1
  Te  Te159  1  0.82961197  0.66677865  -0.00021732  1
  Te  Te160  1  0.82634777  0.66806409  0.34058967  1
  Te  Te161  1  0.83214510  0.66276103  0.66507432  1
  Te  Te162  1  -0.00206351  0.17038779  0.00217966  1
  Te  Te163  1  0.00661378  0.16583374  0.33507400  1
  Te  Te164  1  0.00359564  0.16557263  0.66326523  1
  Te  Te165  1  0.00343634  0.49511128  -0.00025721  1
  Te  Te166  1  0.00681903  0.50017151  0.34211134  1
  Te  Te167  1  0.00845911  0.49994063  0.66199094  1
  Te  Te168  1  -0.00127214  0.83219045  -0.00014095  1
  Te  Te169  1  0.01044474  0.83374224  0.33527684  1
  Te  Te170  1  0.00454914  0.83418843  0.66679688  1
  Te  Te171  1  0.33519523  0.16699970  -0.00108518  1
  Te  Te172  1  0.33014805  0.16241341  0.33280292  1
  Te  Te173  1  0.33252264  0.16624824  0.66911139  1
  Te  Te174  1  0.33084409  0.50202798  0.00176025  1
  Te  Te175  1  0.33112784  0.49967527  0.33186628  1
  Te  Te176  1  0.33044122  0.49874881  0.66619816  1
  Te  Te177  1  0.33333877  0.82405360  -0.00185101  1
  Te  Te178  1  0.33339265  0.83660392  0.33724954  1
  Te  Te179  1  0.33067465  0.83494010  0.66173679  1
  Te  Te180  1  0.66735391  0.16814995  -0.00012304  1
  Te  Te181  1  0.66672079  0.16279859  0.33674308  1
  Te  Te182  1  0.66591186  0.16049800  0.66584862  1
  Te  Te183  1  0.66700558  0.50274449  0.00381527  1
  Te  Te184  1  0.66608197  0.50241310  0.33294974  1
  Te  Te185  1  0.66383755  0.49913218  0.66346328  1
  Te  Te186  1  0.66714985  0.82632237  -0.00759745  1
  Te  Te187  1  0.66384662  0.83392267  0.33322360  1
  Te  Te188  1  0.66741191  0.84189941  0.66904105  1
  Te  Te189  1  -0.00100695  0.00749156  0.16750026  1
  Te  Te190  1  -0.00536678  0.00378564  0.50527488  1
  Te  Te191  1  0.00200390  0.00051337  0.82673276  1
  Te  Te192  1  0.00421721  0.32858041  0.16590783  1
  Te  Te193  1  -0.00424857  0.33283677  0.50009735  1
  Te  Te194  1  -0.00017200  0.33392015  0.84288061  1
  Te  Te195  1  0.00171987  0.66766981  0.16699306  1
  Te  Te196  1  -0.00297839  0.66233249  0.50520474  1
  Te  Te197  1  -0.00011105  0.66634985  0.82626095  1
  Te  Te198  1  0.33760405  0.00226569  0.16773680  1
  Te  Te199  1  0.33448468  -0.00029647  0.49940939  1
  Te  Te200  1  0.33302516  0.00157939  0.83201945  1
  Te  Te201  1  0.33054607  0.33419970  0.17087641  1
  Te  Te202  1  0.33692779  0.33728415  0.49494679  1
  Te  Te203  1  0.33397804  0.33388128  0.83424454  1
  Te  Te204  1  0.33387143  0.66474498  0.16521405  1
  Te  Te205  1  0.33862421  0.66340417  0.49988603  1
  Te  Te206  1  0.33960249  0.66305411  0.83717943  1
  Te  Te207  1  0.66061362  0.00011749  0.16855476  1
  Te  Te208  1  0.66740617  -0.00292720  0.50104095  1
  Te  Te209  1  0.66723973  0.00645271  0.83203388  1
  Te  Te210  1  0.66656300  0.34142905  0.16837975  1
  Te  Te211  1  0.66573985  0.33450255  0.50183201  1
  Te  Te212  1  0.66600516  0.32893392  0.82714334  1
  Te  Te213  1  0.66404806  0.66277378  0.16718911  1
  Te  Te214  1  0.66487501  0.66684189  0.50322450  1
  Te  Te215  1  0.66369285  0.66465065  0.82984623  1
