# generated using pymatgen
data_AgSbTe2
_symmetry_space_group_name_H-M   'P 1'
_cell_length_a   18.32061918
_cell_length_b   18.32217299
_cell_length_c   18.32642034
_cell_angle_alpha   89.99751393
_cell_angle_beta   90.00103850
_cell_angle_gamma   90.00432478
_symmetry_Int_Tables_number   1
_chemical_formula_structural   AgSbTe2
_chemical_formula_sum   'Ag54 Sb54 Te108'
_cell_volume   6151.69462267
_cell_formula_units_Z   54
loop_
 _symmetry_equiv_pos_site_id
 _symmetry_equiv_pos_as_xyz
  1  'x, y, z'
loop_
 _atom_site_type_symbol
 _atom_site_label
 _atom_site_symmetry_multiplicity
 _atom_site_fract_x
 _atom_site_fract_y
 _atom_site_fract_z
 _atom_site_occupancy
  Ag  Ag0  1  0.67314834  0.49888447  0.81967200  1
  Ag  Ag1  1  0.32694958  0.16581645  0.83194172  1
  Ag  Ag2  1  0.82972878  0.49946358  0.33456780  1
  Ag  Ag3  1  -0.00178974  0.16538869  0.50423879  1
  Ag  Ag4  1  -0.00232798  0.48883074  0.16775388  1
  Ag  Ag5  1  0.33277329  -0.00019995  -0.00080092  1
  Ag  Ag6  1  -0.00065591  0.83821414  0.50058606  1
  Ag  Ag7  1  0.33695377  0.83162434  0.16280381  1
  Ag  Ag8  1  0.50473389  0.50468302  -0.00036979  1
  Ag  Ag9  1  0.67110196  0.33892969  0.66128594  1
  Ag  Ag10  1  0.15765295  0.00332120  0.16229155  1
  Ag  Ag11  1  0.66544815  0.65152426  0.66012161  1
  Ag  Ag12  1  0.67250944  0.16445323  0.17317485  1
  Ag  Ag13  1  0.67133594  0.49671505  0.50686063  1
  Ag  Ag14  1  0.51379850  0.49505926  0.66629537  1
  Ag  Ag15  1  0.84095252  0.00616366  0.16618669  1
  Ag  Ag16  1  0.50391585  0.66352855  0.49550586  1
  Ag  Ag17  1  -0.00231217  0.16993581  0.16992031  1
  Ag  Ag18  1  0.16632950  0.66549429  0.50351612  1
  Ag  Ag19  1  0.49804339  0.83125662  0.00325461  1
  Ag  Ag20  1  0.16905846  0.66638843  0.16643114  1
  Ag  Ag21  1  0.00111645  0.01128647  0.66186094  1
  Ag  Ag22  1  0.33462614  0.66661316  0.00223997  1
  Ag  Ag23  1  0.15777691  0.49359321  0.66689552  1
  Ag  Ag24  1  0.33402190  0.33383457  -0.00386732  1
  Ag  Ag25  1  0.16698508  0.66489582  0.82869613  1
  Ag  Ag26  1  -0.00557290  0.49094794  0.82466081  1
  Ag  Ag27  1  0.66609282  0.00037300  0.00291565  1
  Ag  Ag28  1  0.66843012  0.17332322  0.49630564  1
  Ag  Ag29  1  0.00338076  0.00161018  0.00627059  1
  Ag  Ag30  1  0.16359058  0.00281142  0.83525053  1
  Ag  Ag31  1  0.49901198  0.66496113  0.16766286  1
  Ag  Ag32  1  0.33085615  0.33266896  0.67254405  1
  Ag  Ag33  1  0.83722330  0.33394441  0.16630694  1
  Ag  Ag34  1  -0.00691045  0.33195989  0.32954202  1
  Ag  Ag35  1  0.51122222  0.49960338  0.33566282  1
  Ag  Ag36  1  0.83020077  0.49843146  0.66691936  1
  Ag  Ag37  1  0.49891462  0.17641454  0.66425453  1
  Ag  Ag38  1  0.83524891  0.82887168  0.66204130  1
  Ag  Ag39  1  -0.00145642  0.33437294  0.66382902  1
  Ag  Ag40  1  -0.00591985  0.49640073  0.50517543  1
  Ag  Ag41  1  0.83378062  0.82957000  0.33341870  1
  Ag  Ag42  1  0.49506259  0.00365787  0.83632916  1
  Ag  Ag43  1  0.66453980  0.65294288  0.33727058  1
  Ag  Ag44  1  -0.00085538  0.01053997  0.33177378  1
  Ag  Ag45  1  0.15878387  0.17265897  0.66687754  1
  Ag  Ag46  1  0.50637284  0.17066263  0.33729933  1
  Ag  Ag47  1  0.83120792  0.49884802  0.00032935  1
  Ag  Ag48  1  0.00416867  0.16932259  0.82221098  1
  Ag  Ag49  1  0.67405721  0.33896666  0.33698520  1
  Ag  Ag50  1  0.83617391  0.33794911  0.83280354  1
  Ag  Ag51  1  0.15894341  -0.00079172  0.50528800  1
  Ag  Ag52  1  0.66567258  0.83645833  0.16739851  1
  Ag  Ag53  1  0.15557284  0.33089634  0.16673968  1
  Sb  Sb54  1  0.16118350  0.33431437  0.50117431  1
  Sb  Sb55  1  0.16503770  0.16541854  -0.00514709  1
  Sb  Sb56  1  0.66876175  0.17120460  0.83206123  1
  Sb  Sb57  1  0.16426198  0.16660300  0.33705070  1
  Sb  Sb58  1  0.67314072  0.00420445  0.32802051  1
  Sb  Sb59  1  0.33159619  0.16644659  0.50651402  1
  Sb  Sb60  1  0.00208884  0.33090239  0.00146192  1
  Sb  Sb61  1  0.66717240  0.82910331  0.83670891  1
  Sb  Sb62  1  -0.00214940  0.83741918  0.17182581  1
  Sb  Sb63  1  0.50122959  -0.00249510  0.16126114  1
  Sb  Sb64  1  0.33834081  0.66559487  0.32826311  1
  Sb  Sb65  1  0.33347092  0.33332337  0.33238777  1
  Sb  Sb66  1  0.16476982  0.49969797  -0.00291258  1
  Sb  Sb67  1  0.33069276  0.16410823  0.16127150  1
  Sb  Sb68  1  0.49977561  0.16650931  -0.00091203  1
  Sb  Sb69  1  0.33237736  0.49445316  0.83363039  1
  Sb  Sb70  1  0.16270263  0.33141898  0.83360450  1
  Sb  Sb71  1  0.32918689  0.50259607  0.16433110  1
  Sb  Sb72  1  0.67183665  0.83045327  0.49574785  1
  Sb  Sb73  1  0.67242522  0.00459920  0.67014386  1
  Sb  Sb74  1  0.16097984  0.83394634  0.66578075  1
  Sb  Sb75  1  0.83480423  0.17159375  0.00320043  1
  Sb  Sb76  1  0.83842514  0.00597007  0.83756580  1
  Sb  Sb77  1  0.32584300  0.00691563  0.67412920  1
  Sb  Sb78  1  0.50280981  0.33123295  0.83053255  1
  Sb  Sb79  1  0.83283160  0.66339379  0.50030845  1
  Sb  Sb80  1  -0.00044167  0.83582398  0.82757201  1
  Sb  Sb81  1  0.82977639  0.83181624  0.00252968  1
  Sb  Sb82  1  -0.00438261  0.66302320  0.33509440  1
  Sb  Sb83  1  0.32811539  0.00155137  0.32604481  1
  Sb  Sb84  1  0.50272925  0.33719462  0.16696263  1
  Sb  Sb85  1  0.49658390  0.66538161  0.83541068  1
  Sb  Sb86  1  0.83659398  0.17257614  0.66647537  1
  Sb  Sb87  1  0.16127186  0.50004584  0.33600654  1
  Sb  Sb88  1  0.00523512  0.66850235  0.00088388  1
  Sb  Sb89  1  0.83213474  0.17279719  0.33161827  1
  Sb  Sb90  1  0.50679657  0.83085344  0.67045610  1
  Sb  Sb91  1  0.66513255  0.33272277  0.00137468  1
  Sb  Sb92  1  0.49687991  -0.00081798  0.50472551  1
  Sb  Sb93  1  0.33557768  0.66038625  0.67121306  1
  Sb  Sb94  1  0.83760823  0.65778652  0.83170700  1
  Sb  Sb95  1  0.15950027  0.83340467  0.33227647  1
  Sb  Sb96  1  0.83234672  0.66380161  0.16831322  1
  Sb  Sb97  1  0.66100458  0.66652846  0.00247894  1
  Sb  Sb98  1  0.84046744  -0.00119505  0.49402464  1
  Sb  Sb99  1  0.83360573  0.33539922  0.49969163  1
  Sb  Sb100  1  0.50803054  0.83118341  0.32682268  1
  Sb  Sb101  1  0.33340696  0.83826347  0.83818979  1
  Sb  Sb102  1  0.32796260  0.83283548  0.49516555  1
  Sb  Sb103  1  0.33522658  0.50059336  0.50186297  1
  Sb  Sb104  1  -0.00227163  0.65930643  0.66507533  1
  Sb  Sb105  1  0.17123448  0.83538053  0.00249883  1
  Sb  Sb106  1  0.67124418  0.49833554  0.17063382  1
  Sb  Sb107  1  0.50315870  0.33922498  0.50150424  1
  Te  Te108  1  0.16376722  0.16486402  0.16907080  1
  Te  Te109  1  0.16308905  0.16321659  0.50458001  1
  Te  Te110  1  0.16372740  0.16533259  0.82851192  1
  Te  Te111  1  0.16118664  0.50139307  0.16768961  1
  Te  Te112  1  0.16462174  0.50296183  0.50342688  1
  Te  Te113  1  0.16221429  0.50063580  0.82961112  1
  Te  Te114  1  0.16857970  0.83184093  0.16742358  1
  Te  Te115  1  0.16041664  0.83297370  0.49898469  1
  Te  Te116  1  0.16671401  0.83343422  0.83327220  1
  Te  Te117  1  0.50119523  0.16721467  0.16965612  1
  Te  Te118  1  0.50150350  0.16348314  0.50299057  1
  Te  Te119  1  0.50105233  0.16310398  0.82940356  1
  Te  Te120  1  0.50003574  0.50413110  0.16497885  1
  Te  Te121  1  0.50213720  0.50490455  0.50217437  1
  Te  Te122  1  0.50244068  0.49984437  0.83142481  1
  Te  Te123  1  0.50204317  0.83042934  0.16341038  1
  Te  Te124  1  0.49961051  0.82667798  0.49996918  1
  Te  Te125  1  0.50072796  0.84012667  0.83956833  1
  Te  Te126  1  0.83451226  0.16639074  0.16644154  1
  Te  Te127  1  0.83255089  0.16536056  0.49918755  1
  Te  Te128  1  0.84018827  0.17480448  0.83544799  1
  Te  Te129  1  0.83717891  0.49805446  0.16796828  1
  Te  Te130  1  0.83302849  0.50031936  0.49972349  1
  Te  Te131  1  0.83436653  0.49785665  0.83056947  1
  Te  Te132  1  0.82915791  0.83420821  0.16860708  1
  Te  Te133  1  0.83885065  0.83245818  0.49973851  1
  Te  Te134  1  0.83297110  0.83179722  0.82859048  1
  Te  Te135  1  0.16570145  0.00044684  -0.00054400  1
  Te  Te136  1  0.16018020  0.00013972  0.33003730  1
  Te  Te137  1  0.16113017  0.00055394  0.66869101  1
  Te  Te138  1  0.17312531  0.33369837  0.00654658  1
  Te  Te139  1  0.16371449  0.33402068  0.32625255  1
  Te  Te140  1  0.16167996  0.33268795  0.66708897  1
  Te  Te141  1  0.17239459  0.66687134  0.00402087  1
  Te  Te142  1  0.16895771  0.66604181  0.33124272  1
  Te  Te143  1  0.16785070  0.66504122  0.66670187  1
  Te  Te144  1  0.49887426  -0.00042893  -0.00291088  1
  Te  Te145  1  0.49822356  0.00367786  0.33523551  1
  Te  Te146  1  0.49974825  0.00020373  0.67310440  1
  Te  Te147  1  0.49539760  0.33863208  -0.00129239  1
  Te  Te148  1  0.50194446  0.33401910  0.33434190  1
  Te  Te149  1  0.50255186  0.33475597  0.66712251  1
  Te  Te150  1  0.49597669  0.66571432  0.00216458  1
  Te  Te151  1  0.50450641  0.66496535  0.33201486  1
  Te  Te152  1  0.50334492  0.66284926  0.66580437  1
  Te  Te153  1  0.83134134  -0.00158578  0.00505999  1
  Te  Te154  1  0.83965212  -0.00360374  0.32747173  1
  Te  Te155  1  0.84045692  -0.00171072  0.66866163  1
  Te  Te156  1  0.83247842  0.33998326  0.00340844  1
  Te  Te157  1  0.83405065  0.33835550  0.32823271  1
  Te  Te158  1  0.83537253  0.33725283  0.66815506  1
  Te  Te159  1  0.83318485  0.65881526  -0.00034583  1
  Te  Te160  1  0.82697011  0.66422956  0.33372526  1
  Te  Te161  1  0.82766683  0.66455957  0.66677085  1
  Te  Te162  1  -0.00015142  0.16069065  0.00664066  1
  Te  Te163  1  -0.00012269  0.16998282  0.33200471  1
  Te  Te164  1  -0.00071670  0.17033175  0.66481863  1
  Te  Te165  1  -0.00367431  0.50114625  0.00198603  1
  Te  Te166  1  -0.00303978  0.49575089  0.33339262  1
  Te  Te167  1  -0.00103786  0.49778287  0.66593643  1
  Te  Te168  1  -0.00183656  0.84009703  -0.00169485  1
  Te  Te169  1  -0.00690978  0.83285425  0.33952770  1
  Te  Te170  1  -0.00494160  0.83279863  0.66071926  1
  Te  Te171  1  0.33368574  0.16606566  -0.00617845  1
  Te  Te172  1  0.34323564  0.16815809  0.33391111  1
  Te  Te173  1  0.33687386  0.17137809  0.67168973  1
  Te  Te174  1  0.33723459  0.49954063  -0.00147159  1
  Te  Te175  1  0.34546459  0.49792389  0.33356518  1
  Te  Te176  1  0.32799994  0.49328009  0.66818788  1
  Te  Te177  1  0.33789319  0.83477613  0.00330236  1
  Te  Te178  1  0.33469888  0.83404882  0.32428365  1
  Te  Te179  1  0.33573052  0.83237247  0.66535705  1
  Te  Te180  1  0.66634693  0.16232293  0.00369805  1
  Te  Te181  1  0.66538997  0.16924466  0.33471182  1
  Te  Te182  1  0.66458775  0.17092706  0.66317240  1
  Te  Te183  1  0.66575693  0.49952652  0.00153931  1
  Te  Te184  1  0.66797328  0.49732115  0.33241782  1
  Te  Te185  1  0.66956051  0.49597208  0.66393823  1
  Te  Te186  1  0.66192215  0.83577046  0.00407672  1
  Te  Te187  1  0.67369645  0.83516337  0.32861447  1
  Te  Te188  1  0.67428418  0.83516344  0.66595222  1
  Te  Te189  1  -0.00015500  -0.00085521  0.16806030  1
  Te  Te190  1  0.00172136  0.00452527  0.49988610  1
  Te  Te191  1  0.00244871  0.00309726  0.83273422  1
  Te  Te192  1  -0.00135896  0.33141356  0.16388912  1
  Te  Te193  1  0.00022497  0.33369462  0.50008892  1
  Te  Te194  1  -0.00230893  0.33213666  0.83558300  1
  Te  Te195  1  0.00538380  0.66644377  0.16702757  1
  Te  Te196  1  0.00625918  0.66239181  0.49954125  1
  Te  Te197  1  0.00811171  0.66418974  0.83378299  1
  Te  Te198  1  0.32839266  -0.00358097  0.16033630  1
  Te  Te199  1  0.32272080  -0.00165233  0.49946128  1
  Te  Te200  1  0.32958307  0.00408277  0.83845850  1
  Te  Te201  1  0.33042209  0.33254078  0.16303513  1
  Te  Te202  1  0.33119729  0.33246599  0.50738838  1
  Te  Te203  1  0.33175114  0.32749082  0.83281679  1
  Te  Te204  1  0.33349471  0.66901367  0.16285220  1
  Te  Te205  1  0.32887727  0.66837047  0.50003476  1
  Te  Te206  1  0.32763419  0.66749943  0.83933807  1
  Te  Te207  1  0.66704040  0.00249925  0.16391223  1
  Te  Te208  1  0.66559175  0.00438674  0.50035377  1
  Te  Te209  1  0.66848829  0.00109560  0.83916581  1
  Te  Te210  1  0.67008057  0.32737586  0.16946684  1
  Te  Te211  1  0.66702539  0.33354291  0.49906983  1
  Te  Te212  1  0.67207635  0.33750069  0.83165543  1
  Te  Te213  1  0.66388319  0.66953409  0.16973547  1
  Te  Te214  1  0.66395725  0.66573531  0.49917645  1
  Te  Te215  1  0.66541549  0.66095681  0.83012009  1
