# generated using pymatgen
data_AgSbTe2
_symmetry_space_group_name_H-M   'P 1'
_cell_length_a   18.34295888
_cell_length_b   18.33862738
_cell_length_c   18.34889065
_cell_angle_alpha   90.00640958
_cell_angle_beta   89.99612769
_cell_angle_gamma   89.99723646
_symmetry_Int_Tables_number   1
_chemical_formula_structural   AgSbTe2
_chemical_formula_sum   'Ag54 Sb54 Te108'
_cell_volume   6172.28579517
_cell_formula_units_Z   54
loop_
 _symmetry_equiv_pos_site_id
 _symmetry_equiv_pos_as_xyz
  1  'x, y, z'
loop_
 _atom_site_type_symbol
 _atom_site_label
 _atom_site_symmetry_multiplicity
 _atom_site_fract_x
 _atom_site_fract_y
 _atom_site_fract_z
 _atom_site_occupancy
  Ag  Ag0  1  0.49932943  0.66959377  0.82949564  1
  Ag  Ag1  1  0.49292654  0.32702121  0.83010876  1
  Ag  Ag2  1  0.83473016  0.01002791  0.17254545  1
  Ag  Ag3  1  -0.00323208  0.17287068  0.16317816  1
  Ag  Ag4  1  0.00081087  0.16962080  0.83954188  1
  Ag  Ag5  1  0.32326009  0.49208890  0.17186114  1
  Ag  Ag6  1  0.66019283  -0.00284179  0.66448713  1
  Ag  Ag7  1  0.83513548  0.16841448  0.01063938  1
  Ag  Ag8  1  0.00626837  0.50116926  0.16598541  1
  Ag  Ag9  1  0.16527959  0.49941586  0.66877259  1
  Ag  Ag10  1  0.33429201  0.33005725  0.65391284  1
  Ag  Ag11  1  0.66422197  0.17073917  0.49544909  1
  Ag  Ag12  1  0.83233712  0.00511270  0.49465456  1
  Ag  Ag13  1  -0.00231745  0.81654427  0.17472443  1
  Ag  Ag14  1  0.49632132  0.66768153  0.49720817  1
  Ag  Ag15  1  0.33681602  0.84847675  0.82469802  1
  Ag  Ag16  1  0.67921173  0.16881027  0.17252483  1
  Ag  Ag17  1  0.83436801  0.66452376  0.83286757  1
  Ag  Ag18  1  0.49744462  0.66802672  0.18022123  1
  Ag  Ag19  1  0.34173749  0.66299022  0.33234057  1
  Ag  Ag20  1  0.15800564  0.65329934  0.16749766  1
  Ag  Ag21  1  0.33967949  0.17785127  0.49951700  1
  Ag  Ag22  1  0.33377992  0.33569273  0.34043689  1
  Ag  Ag23  1  0.83806540  0.50211901  0.66628600  1
  Ag  Ag24  1  -0.00143338  0.65984655  0.01349350  1
  Ag  Ag25  1  0.83333124  0.32945370  0.49578592  1
  Ag  Ag26  1  0.49313287  0.00225851  0.83125099  1
  Ag  Ag27  1  0.83344478  0.33271416  0.83149005  1
  Ag  Ag28  1  0.49678948  0.83057529  0.66278910  1
  Ag  Ag29  1  0.17755200  0.33504514  0.49307774  1
  Ag  Ag30  1  0.32906968  0.33008123  0.00345815  1
  Ag  Ag31  1  0.16535025  0.49776946  0.00631151  1
  Ag  Ag32  1  0.33733353  0.83313858  0.50230869  1
  Ag  Ag33  1  0.48943351  0.16869087  0.00039941  1
  Ag  Ag34  1  0.33416684  0.16277388  0.84070140  1
  Ag  Ag35  1  0.66918098  0.33001719  0.33628334  1
  Ag  Ag36  1  0.50071318  0.82673349  0.34135530  1
  Ag  Ag37  1  0.48893659  0.33380676  0.50117118  1
  Ag  Ag38  1  0.33206531  0.17437019  0.16024898  1
  Ag  Ag39  1  0.16738955  0.33626668  0.16914511  1
  Ag  Ag40  1  0.66156659  0.66484741  0.33556921  1
  Ag  Ag41  1  0.00543216  0.33330401  0.01030835  1
  Ag  Ag42  1  0.83184444  0.16835389  0.32962466  1
  Ag  Ag43  1  -0.00317418  0.66516740  0.32657676  1
  Ag  Ag44  1  -0.00683794  0.66491653  0.66436955  1
  Ag  Ag45  1  0.33209117  0.48937796  0.49584106  1
  Ag  Ag46  1  0.33756021  0.00660848  0.67358938  1
  Ag  Ag47  1  0.00024399  0.33566812  0.32848238  1
  Ag  Ag48  1  0.66577110  0.66868029  0.66089217  1
  Ag  Ag49  1  0.84582346  0.66912239  0.17231614  1
  Ag  Ag50  1  0.83399892  0.83017613  0.33339690  1
  Ag  Ag51  1  0.33366128  0.01250443  -0.01411946  1
  Ag  Ag52  1  0.00046448  0.82833428  0.49301606  1
  Ag  Ag53  1  0.18084650  0.00164635  0.83336688  1
  Sb  Sb54  1  0.66292112  0.00432149  -0.00346431  1
  Sb  Sb55  1  0.17029227  0.17166543  0.66791378  1
  Sb  Sb56  1  0.00479160  0.50171829  0.49631809  1
  Sb  Sb57  1  0.17234523  0.82855671  0.66556732  1
  Sb  Sb58  1  0.49648841  0.83413203  -0.00189435  1
  Sb  Sb59  1  0.67161353  0.83540014  0.17150106  1
  Sb  Sb60  1  0.16775407  0.49871764  0.32951162  1
  Sb  Sb61  1  0.17168842  0.66067869  0.49504717  1
  Sb  Sb62  1  0.84129281  0.33330984  0.16888241  1
  Sb  Sb63  1  0.66887187  0.00188663  0.33724857  1
  Sb  Sb64  1  0.33296856  0.49589751  0.83164707  1
  Sb  Sb65  1  0.33578357  0.66459006  0.66212342  1
  Sb  Sb66  1  0.49633562  0.50399992  0.33389825  1
  Sb  Sb67  1  0.16791226  0.17304345  -0.00004835  1
  Sb  Sb68  1  0.67083987  0.66642368  0.00307185  1
  Sb  Sb69  1  0.84011440  0.49545149  -0.00144486  1
  Sb  Sb70  1  0.49835104  0.50337062  0.66495790  1
  Sb  Sb71  1  -0.00150594  0.16725780  0.49814817  1
  Sb  Sb72  1  0.16478033  0.82943161  0.33388763  1
  Sb  Sb73  1  0.83720051  0.83646674  0.00669110  1
  Sb  Sb74  1  0.66796951  0.50017031  0.83018143  1
  Sb  Sb75  1  0.49233974  0.33532094  0.17118795  1
  Sb  Sb76  1  0.00438258  0.00545231  0.00041327  1
  Sb  Sb77  1  0.00268416  0.33730568  0.66451232  1
  Sb  Sb78  1  0.66022592  0.83237449  0.82983026  1
  Sb  Sb79  1  0.66289446  0.49695435  0.49999704  1
  Sb  Sb80  1  0.00081856  0.49677063  0.83715847  1
  Sb  Sb81  1  0.83264418  0.17095045  0.66437377  1
  Sb  Sb82  1  0.66673292  0.32948116  0.00595875  1
  Sb  Sb83  1  0.16351582  0.17086546  0.33213833  1
  Sb  Sb84  1  0.83078127  0.66568044  0.49727117  1
  Sb  Sb85  1  0.50203963  0.00056949  0.50560501  1
  Sb  Sb86  1  0.16739568  0.82831255  0.00102269  1
  Sb  Sb87  1  0.66585746  0.83482047  0.49832504  1
  Sb  Sb88  1  0.50235578  0.16615433  0.33024130  1
  Sb  Sb89  1  0.16642064  0.66835397  0.83577939  1
  Sb  Sb90  1  0.82994489  0.82919632  0.66134158  1
  Sb  Sb91  1  0.16907512  0.33009247  0.83538922  1
  Sb  Sb92  1  0.66814511  0.49727282  0.16983259  1
  Sb  Sb93  1  0.83038210  0.00139683  0.83270122  1
  Sb  Sb94  1  0.33659495  0.00204645  0.33598287  1
  Sb  Sb95  1  0.66401202  0.16818161  0.83218891  1
  Sb  Sb96  1  0.16702770  0.00412397  0.50476610  1
  Sb  Sb97  1  0.00333813  0.83365118  0.83414308  1
  Sb  Sb98  1  0.16342511  0.00351211  0.16093726  1
  Sb  Sb99  1  -0.00308883  -0.00095002  0.33167812  1
  Sb  Sb100  1  0.32985335  0.83241501  0.16969639  1
  Sb  Sb101  1  0.66338680  0.33370643  0.66117422  1
  Sb  Sb102  1  0.50245528  -0.00098221  0.16263860  1
  Sb  Sb103  1  0.00015289  -0.00405032  0.66616778  1
  Sb  Sb104  1  0.83565188  0.49873191  0.33647874  1
  Sb  Sb105  1  0.49166052  0.49506559  0.00049789  1
  Sb  Sb106  1  0.33122635  0.66329106  0.00586107  1
  Sb  Sb107  1  0.49782694  0.16363578  0.67035577  1
  Te  Te108  1  0.16922252  0.17122743  0.16676241  1
  Te  Te109  1  0.17075876  0.17273404  0.50032380  1
  Te  Te110  1  0.16818400  0.16283531  0.83324409  1
  Te  Te111  1  0.16743746  0.49700770  0.16599025  1
  Te  Te112  1  0.17130770  0.49510093  0.50586142  1
  Te  Te113  1  0.16702038  0.50024754  0.82987320  1
  Te  Te114  1  0.15812653  0.83487129  0.16715572  1
  Te  Te115  1  0.16435918  0.83498237  0.50004332  1
  Te  Te116  1  0.17372250  0.83789054  0.83328513  1
  Te  Te117  1  0.49167135  0.16590883  0.16244411  1
  Te  Te118  1  0.50027133  0.16928486  0.49824347  1
  Te  Te119  1  0.49876073  0.16827880  0.83690691  1
  Te  Te120  1  0.49779772  0.50708633  0.16497108  1
  Te  Te121  1  0.49375030  0.49915910  0.50067893  1
  Te  Te122  1  0.50057317  0.50123638  0.83314341  1
  Te  Te123  1  0.50002032  0.82993710  0.16701987  1
  Te  Te124  1  0.49993812  0.83365348  0.50165717  1
  Te  Te125  1  0.49556754  0.83183457  0.83165268  1
  Te  Te126  1  0.83559034  0.17076353  0.16891470  1
  Te  Te127  1  0.83383857  0.16675258  0.49786259  1
  Te  Te128  1  0.83268687  0.16830395  0.83221744  1
  Te  Te129  1  0.83526713  0.50781898  0.16563423  1
  Te  Te130  1  0.83416490  0.49491717  0.50452423  1
  Te  Te131  1  0.83440592  0.50161597  0.82980281  1
  Te  Te132  1  0.83781277  0.82997395  0.17202979  1
  Te  Te133  1  0.83577138  0.83489731  0.49437582  1
  Te  Te134  1  0.83376531  0.82923622  0.83392403  1
  Te  Te135  1  0.17231325  -0.00246155  -0.00558348  1
  Te  Te136  1  0.16668117  0.00050177  0.33388375  1
  Te  Te137  1  0.17151086  -0.00061528  0.67157685  1
  Te  Te138  1  0.16428997  0.33813872  0.00108582  1
  Te  Te139  1  0.16723267  0.33331059  0.33243328  1
  Te  Te140  1  0.17058908  0.33843931  0.66536613  1
  Te  Te141  1  0.16225842  0.66067895  0.00361666  1
  Te  Te142  1  0.16050912  0.66616922  0.32770556  1
  Te  Te143  1  0.16458944  0.66118001  0.66645361  1
  Te  Te144  1  0.49539432  0.00457884  -0.00500893  1
  Te  Te145  1  0.50212492  -0.01165226  0.33236182  1
  Te  Te146  1  0.49817572  -0.00363500  0.66966990  1
  Te  Te147  1  0.49904437  0.32920169  -0.00302965  1
  Te  Te148  1  0.49873623  0.33184076  0.33875605  1
  Te  Te149  1  0.49683416  0.33511512  0.66646037  1
  Te  Te150  1  0.50144869  0.66512193  -0.01036549  1
  Te  Te151  1  0.49986152  0.66780705  0.33788020  1
  Te  Te152  1  0.50218914  0.66870637  0.66772798  1
  Te  Te153  1  0.83373429  0.00600397  0.00250211  1
  Te  Te154  1  0.83214403  0.00059796  0.33283892  1
  Te  Te155  1  0.83061136  -0.00146581  0.66283666  1
  Te  Te156  1  0.83426185  0.32986940  -0.00443483  1
  Te  Te157  1  0.83280959  0.33218017  0.33342833  1
  Te  Te158  1  0.83223119  0.33756910  0.67103351  1
  Te  Te159  1  0.83778196  0.66620792  -0.00253206  1
  Te  Te160  1  0.83647086  0.66633363  0.33288863  1
  Te  Te161  1  0.83062204  0.66480458  0.66514543  1
  Te  Te162  1  -0.00190629  0.17000047  -0.00021353  1
  Te  Te163  1  -0.00567368  0.17035615  0.33130288  1
  Te  Te164  1  0.00121962  0.16538049  0.67250840  1
  Te  Te165  1  0.00407176  0.49761623  0.00296561  1
  Te  Te166  1  0.00032745  0.49870042  0.32905346  1
  Te  Te167  1  0.00030204  0.50367764  0.66636413  1
  Te  Te168  1  0.00043907  0.82691744  0.00356391  1
  Te  Te169  1  -0.00260664  0.83267811  0.33330134  1
  Te  Te170  1  -0.00003869  0.82733224  0.66469748  1
  Te  Te171  1  0.33160783  0.16924455  -0.00028767  1
  Te  Te172  1  0.33410760  0.16981995  0.33702351  1
  Te  Te173  1  0.33406549  0.16870928  0.66289925  1
  Te  Te174  1  0.32669658  0.49563178  0.00550381  1
  Te  Te175  1  0.33305945  0.49997529  0.33322589  1
  Te  Te176  1  0.33127139  0.49559629  0.66279699  1
  Te  Te177  1  0.33293362  0.83482212  -0.00238975  1
  Te  Te178  1  0.33587665  0.83116332  0.33652017  1
  Te  Te179  1  0.33668796  0.83114147  0.66597746  1
  Te  Te180  1  0.67240002  0.16618406  0.00564896  1
  Te  Te181  1  0.66879675  0.16786345  0.33421988  1
  Te  Te182  1  0.66521512  0.16408025  0.65990855  1
  Te  Te183  1  0.66652956  0.49852267  0.00082172  1
  Te  Te184  1  0.66783189  0.50166499  0.33374387  1
  Te  Te185  1  0.67369680  0.50661023  0.66517976  1
  Te  Te186  1  0.66708265  0.83550985  0.00090168  1
  Te  Te187  1  0.66844529  0.82673952  0.33346976  1
  Te  Te188  1  0.66066338  0.83135197  0.66475525  1
  Te  Te189  1  -0.00425145  0.01203040  0.16510100  1
  Te  Te190  1  -0.00284523  -0.00443373  0.50064352  1
  Te  Te191  1  -0.00066851  0.00452177  0.83297499  1
  Te  Te192  1  0.00118170  0.33254607  0.16812448  1
  Te  Te193  1  -0.00628219  0.33343314  0.49635975  1
  Te  Te194  1  -0.00184519  0.32945496  0.83222618  1
  Te  Te195  1  0.00179677  0.66171820  0.16890077  1
  Te  Te196  1  0.00141172  0.66844156  0.50072799  1
  Te  Te197  1  -0.00160856  0.66752560  0.82622508  1
  Te  Te198  1  0.33246924  0.00287345  0.16622688  1
  Te  Te199  1  0.33289956  -0.00586171  0.50450499  1
  Te  Te200  1  0.33719136  0.00414789  0.83019301  1
  Te  Te201  1  0.33212891  0.33375533  0.16441260  1
  Te  Te202  1  0.33347693  0.33355095  0.49768933  1
  Te  Te203  1  0.33428370  0.33102340  0.84131195  1
  Te  Te204  1  0.33698690  0.66802786  0.17079895  1
  Te  Te205  1  0.33551146  0.67369764  0.49523122  1
  Te  Te206  1  0.33578069  0.66414622  0.83502318  1
  Te  Te207  1  0.67189771  0.00626410  0.16627705  1
  Te  Te208  1  0.67062493  0.00484919  0.50419975  1
  Te  Te209  1  0.66125394  0.00030389  0.82558376  1
  Te  Te210  1  0.66253370  0.32910839  0.17439389  1
  Te  Te211  1  0.67336751  0.33082381  0.49674081  1
  Te  Te212  1  0.66692390  0.33270610  0.83283571  1
  Te  Te213  1  0.65976034  0.66598018  0.17050451  1
  Te  Te214  1  0.66204993  0.66530056  0.49793626  1
  Te  Te215  1  0.66924320  0.66694195  0.83130394  1
