# generated using pymatgen
data_AgSbTe2
_symmetry_space_group_name_H-M   'P 1'
_cell_length_a   18.34461053
_cell_length_b   18.34377728
_cell_length_c   18.34188036
_cell_angle_alpha   90.00226074
_cell_angle_beta   89.99977834
_cell_angle_gamma   89.99959885
_symmetry_Int_Tables_number   1
_chemical_formula_structural   AgSbTe2
_chemical_formula_sum   'Ag54 Sb54 Te108'
_cell_volume   6172.21606638
_cell_formula_units_Z   54
loop_
 _symmetry_equiv_pos_site_id
 _symmetry_equiv_pos_as_xyz
  1  'x, y, z'
loop_
 _atom_site_type_symbol
 _atom_site_label
 _atom_site_symmetry_multiplicity
 _atom_site_fract_x
 _atom_site_fract_y
 _atom_site_fract_z
 _atom_site_occupancy
  Ag  Ag0  1  0.49665115  0.82600220  0.33620592  1
  Ag  Ag1  1  0.33179772  0.16883166  0.49287997  1
  Ag  Ag2  1  0.66865020  0.66292239  0.32940631  1
  Ag  Ag3  1  0.17000432  0.51081000  0.00548305  1
  Ag  Ag4  1  0.31953933  0.66186888  -0.00123779  1
  Ag  Ag5  1  0.49870736  0.66886280  0.49841281  1
  Ag  Ag6  1  0.66955690  0.66581970  -0.00327823  1
  Ag  Ag7  1  0.82961613  0.16403749  0.00242082  1
  Ag  Ag8  1  0.16746147  -0.01321980  0.16147219  1
  Ag  Ag9  1  0.16671638  -0.00785279  0.84206484  1
  Ag  Ag10  1  -0.00098635  0.00090937  0.66902873  1
  Ag  Ag11  1  0.33339935  0.50681756  0.84019714  1
  Ag  Ag12  1  0.33434070  0.66561915  0.67155289  1
  Ag  Ag13  1  0.17213492  0.66922721  0.85256135  1
  Ag  Ag14  1  0.16802371  0.82194046  0.32711317  1
  Ag  Ag15  1  0.15779010  0.51014659  0.32825013  1
  Ag  Ag16  1  -0.00153809  0.50540648  0.17624667  1
  Ag  Ag17  1  0.67380148  0.34251017  0.33535826  1
  Ag  Ag18  1  0.33596877  0.34294470  -0.00308642  1
  Ag  Ag19  1  0.66462619  0.16370633  0.83688858  1
  Ag  Ag20  1  0.32072113  0.66759023  0.33080917  1
  Ag  Ag21  1  0.00232599  -0.01287182  -0.00189774  1
  Ag  Ag22  1  0.83765203  0.17780814  0.32972111  1
  Ag  Ag23  1  0.67045209  -0.00713899  0.67532105  1
  Ag  Ag24  1  0.67210979  0.50480230  0.16698356  1
  Ag  Ag25  1  0.50170640  0.34151500  0.83642870  1
  Ag  Ag26  1  0.32802562  0.16428418  0.16504108  1
  Ag  Ag27  1  0.84593642  0.49996923  0.33213546  1
  Ag  Ag28  1  0.81933729  0.66689732  0.84534451  1
  Ag  Ag29  1  -0.00586464  0.34676534  0.33994767  1
  Ag  Ag30  1  0.66893879  0.82874124  0.50202311  1
  Ag  Ag31  1  0.66298445  0.66797408  0.67236681  1
  Ag  Ag32  1  0.00695378  0.66885272  0.00607552  1
  Ag  Ag33  1  0.50234769  -0.01391365  0.49988389  1
  Ag  Ag34  1  0.16556149  0.66779554  0.16742108  1
  Ag  Ag35  1  0.16508149  0.16950616  0.33280363  1
  Ag  Ag36  1  0.84060635  0.33385278  0.49372542  1
  Ag  Ag37  1  0.66650289  0.82531599  0.83478000  1
  Ag  Ag38  1  0.15627849  0.34534843  0.49565579  1
  Ag  Ag39  1  0.49258618  0.50356893  -0.00188138  1
  Ag  Ag40  1  0.16293508  0.82375769  0.00589264  1
  Ag  Ag41  1  0.67035293  0.33747037  0.66922125  1
  Ag  Ag42  1  0.67170079  -0.00846639  -0.00514547  1
  Ag  Ag43  1  0.16810407  0.66448863  0.48272413  1
  Ag  Ag44  1  0.66335374  0.33994914  -0.00318134  1
  Ag  Ag45  1  0.00004704  0.82472850  0.49879114  1
  Ag  Ag46  1  0.33640597  0.17177929  0.83741348  1
  Ag  Ag47  1  -0.00437361  0.33333914  0.65834417  1
  Ag  Ag48  1  0.00893629  0.65788363  0.32370832  1
  Ag  Ag49  1  0.84174398  0.66507123  0.16297818  1
  Ag  Ag50  1  0.49991915  0.66381200  0.83520102  1
  Ag  Ag51  1  0.83759479  0.82377199  -0.00005764  1
  Ag  Ag52  1  0.00221067  0.50383021  0.49031682  1
  Ag  Ag53  1  0.32699861  0.82744864  0.16746374  1
  Sb  Sb54  1  0.50256906  0.17088610  -0.00217976  1
  Sb  Sb55  1  0.16863299  -0.00474623  0.49835577  1
  Sb  Sb56  1  0.49662451  -0.00248776  0.16756788  1
  Sb  Sb57  1  0.50100802  0.50360315  0.67289317  1
  Sb  Sb58  1  0.16518511  0.83009740  0.66720382  1
  Sb  Sb59  1  0.66186775  0.50377114  0.84052984  1
  Sb  Sb60  1  0.16702121  0.16642359  0.66385825  1
  Sb  Sb61  1  0.50087678  0.16655989  0.66711523  1
  Sb  Sb62  1  0.32995664  0.50342393  0.16185581  1
  Sb  Sb63  1  0.83149923  0.00339662  0.49963488  1
  Sb  Sb64  1  0.00636795  0.82567918  0.16777430  1
  Sb  Sb65  1  0.16598319  0.50243172  0.66483705  1
  Sb  Sb66  1  0.33344137  0.83003610  0.49460420  1
  Sb  Sb67  1  0.33220121  0.33693203  0.32973575  1
  Sb  Sb68  1  0.17080568  0.33550029  0.83044704  1
  Sb  Sb69  1  0.50285496  0.83000607  0.66121341  1
  Sb  Sb70  1  0.16540629  0.16621469  0.00327266  1
  Sb  Sb71  1  0.00418916  0.16868590  0.49780538  1
  Sb  Sb72  1  0.66773656  -0.00264116  0.33171016  1
  Sb  Sb73  1  0.50065532  -0.00334159  0.83005274  1
  Sb  Sb74  1  0.00436267  0.50304996  0.83468745  1
  Sb  Sb75  1  0.83174121  0.83107048  0.67021540  1
  Sb  Sb76  1  0.67035639  0.50557122  0.49403409  1
  Sb  Sb77  1  0.49867920  0.50636188  0.32763848  1
  Sb  Sb78  1  0.66509388  0.17027484  0.16253549  1
  Sb  Sb79  1  0.83239931  0.33992936  0.17231671  1
  Sb  Sb80  1  0.49725880  0.66622495  0.16573625  1
  Sb  Sb81  1  -0.00221482  0.83157991  0.83408780  1
  Sb  Sb82  1  0.16657214  0.33828621  0.17187835  1
  Sb  Sb83  1  0.50191086  0.33908499  0.50409788  1
  Sb  Sb84  1  0.33479465  0.82736992  0.83923089  1
  Sb  Sb85  1  0.33182082  -0.00537172  0.33295936  1
  Sb  Sb86  1  0.83540217  0.82649746  0.32896568  1
  Sb  Sb87  1  0.83348783  -0.00357502  0.83657098  1
  Sb  Sb88  1  0.83402234  0.50419857  0.00553098  1
  Sb  Sb89  1  0.00295832  -0.00381793  0.33155030  1
  Sb  Sb90  1  0.33357506  -0.00420086  0.66717968  1
  Sb  Sb91  1  0.00170717  0.17067329  0.16797396  1
  Sb  Sb92  1  0.33215765  -0.00233325  -0.00074624  1
  Sb  Sb93  1  0.32776381  0.50118252  0.50097161  1
  Sb  Sb94  1  0.83139111  0.16814595  0.66755061  1
  Sb  Sb95  1  -0.00132886  0.33894567  0.00153703  1
  Sb  Sb96  1  -0.00000393  0.66627130  0.66529324  1
  Sb  Sb97  1  0.49968758  0.33563358  0.16119015  1
  Sb  Sb98  1  0.66299291  0.82671723  0.16493635  1
  Sb  Sb99  1  0.49942252  0.82557306  0.00295573  1
  Sb  Sb100  1  0.82693513  0.33853797  0.83158672  1
  Sb  Sb101  1  -0.00055300  0.16541819  0.83484322  1
  Sb  Sb102  1  0.83257322  0.50090103  0.66096457  1
  Sb  Sb103  1  0.83451049  0.66387443  0.49563631  1
  Sb  Sb104  1  0.83942502  -0.00518928  0.16263621  1
  Sb  Sb105  1  0.66331983  0.16452116  0.50277127  1
  Sb  Sb106  1  0.33426374  0.33724324  0.67129679  1
  Sb  Sb107  1  0.49937733  0.16501962  0.33450913  1
  Te  Te108  1  0.16911293  0.17037265  0.17057770  1
  Te  Te109  1  0.17161691  0.16355148  0.49629135  1
  Te  Te110  1  0.16888442  0.16613100  0.83355129  1
  Te  Te111  1  0.16517817  0.50301485  0.16748664  1
  Te  Te112  1  0.16385415  0.50331393  0.49707906  1
  Te  Te113  1  0.17173763  0.50318910  0.83742708  1
  Te  Te114  1  0.16741141  0.83129059  0.16706580  1
  Te  Te115  1  0.16482427  0.82921947  0.49632681  1
  Te  Te116  1  0.16711448  0.83285822  0.83756152  1
  Te  Te117  1  0.48992863  0.16505392  0.16745987  1
  Te  Te118  1  0.49344195  0.16805092  0.49950525  1
  Te  Te119  1  0.50158444  0.16588033  0.83330373  1
  Te  Te120  1  0.50802465  0.49964216  0.15882139  1
  Te  Te121  1  0.49799357  0.50784381  0.49987077  1
  Te  Te122  1  0.49568170  0.50197327  0.83837729  1
  Te  Te123  1  0.49133623  0.83455752  0.17501716  1
  Te  Te124  1  0.50032990  0.82864155  0.49536539  1
  Te  Te125  1  0.50537320  0.82872399  0.83458667  1
  Te  Te126  1  0.83343803  0.16407405  0.16646384  1
  Te  Te127  1  0.83164692  0.17174723  0.49478422  1
  Te  Te128  1  0.82749455  0.16850843  0.83816771  1
  Te  Te129  1  0.83383035  0.50507862  0.17112260  1
  Te  Te130  1  0.83856813  0.49598035  0.49334578  1
  Te  Te131  1  0.83555981  0.50738097  0.83293331  1
  Te  Te132  1  0.83143361  0.82745709  0.16042668  1
  Te  Te133  1  0.83132098  0.83489743  0.49767045  1
  Te  Te134  1  0.82845432  0.82815359  0.83946918  1
  Te  Te135  1  0.16471617  0.00109168  0.00100955  1
  Te  Te136  1  0.16628756  0.00755597  0.32944798  1
  Te  Te137  1  0.16293704  -0.00145246  0.67062583  1
  Te  Te138  1  0.16868861  0.33508913  -0.00149523  1
  Te  Te139  1  0.16833452  0.32944511  0.33779413  1
  Te  Te140  1  0.16440583  0.33390205  0.65858093  1
  Te  Te141  1  0.16397593  0.66737598  0.00722209  1
  Te  Te142  1  0.16459377  0.66660035  0.32805128  1
  Te  Te143  1  0.16976363  0.66679530  0.66640557  1
  Te  Te144  1  0.50739342  -0.00222386  -0.00089776  1
  Te  Te145  1  0.50075706  -0.00540060  0.33901422  1
  Te  Te146  1  0.50629897  -0.00104041  0.66132207  1
  Te  Te147  1  0.50020214  0.33702279  -0.00436798  1
  Te  Te148  1  0.50561121  0.33436466  0.33448631  1
  Te  Te149  1  0.50544169  0.33428161  0.67306435  1
  Te  Te150  1  0.50960637  0.66356185  -0.00220883  1
  Te  Te151  1  0.50983060  0.66864841  0.33471423  1
  Te  Te152  1  0.50071120  0.66694897  0.66692622  1
  Te  Te153  1  0.83405394  0.00084037  -0.00025852  1
  Te  Te154  1  0.83463336  0.00681897  0.33111255  1
  Te  Te155  1  0.83227394  0.00036460  0.66724329  1
  Te  Te156  1  0.83048416  0.33090019  -0.00030864  1
  Te  Te157  1  0.83336498  0.33600316  0.33383072  1
  Te  Te158  1  0.83204244  0.33390049  0.66175385  1
  Te  Te159  1  0.82990491  0.66530537  0.00183269  1
  Te  Te160  1  0.82836109  0.66352781  0.33025568  1
  Te  Te161  1  0.82871883  0.66654358  0.67205220  1
  Te  Te162  1  -0.00729986  0.16961888  0.00003898  1
  Te  Te163  1  -0.00094342  0.16553678  0.33256831  1
  Te  Te164  1  -0.00114875  0.16435898  0.66704601  1
  Te  Te165  1  0.00523904  0.50392496  0.00220939  1
  Te  Te166  1  0.00191399  0.50230908  0.33442441  1
  Te  Te167  1  -0.00065316  0.49446083  0.66314699  1
  Te  Te168  1  -0.00003714  0.83042926  -0.00017848  1
  Te  Te169  1  0.00301785  0.82968581  0.33839413  1
  Te  Te170  1  -0.00164796  0.83820715  0.66051880  1
  Te  Te171  1  0.33371810  0.16531156  -0.00124729  1
  Te  Te172  1  0.33188440  0.16828354  0.33202865  1
  Te  Te173  1  0.33328814  0.16731434  0.67371616  1
  Te  Te174  1  0.33211784  0.50160732  0.00067946  1
  Te  Te175  1  0.33008654  0.50587631  0.33207402  1
  Te  Te176  1  0.33348488  0.50614948  0.67391746  1
  Te  Te177  1  0.32958883  0.82992848  0.00546913  1
  Te  Te178  1  0.32955568  0.82860377  0.32992825  1
  Te  Te179  1  0.33307223  0.82562020  0.66673695  1
  Te  Te180  1  0.66839630  0.17117334  -0.00201481  1
  Te  Te181  1  0.66871917  0.16944346  0.33187529  1
  Te  Te182  1  0.66758238  0.16803270  0.67180979  1
  Te  Te183  1  0.66904294  0.50000006  0.00411524  1
  Te  Te184  1  0.66349967  0.50003867  0.32961856  1
  Te  Te185  1  0.66725734  0.49955591  0.66512154  1
  Te  Te186  1  0.66613227  0.83139511  -0.00141687  1
  Te  Te187  1  0.66769399  0.83082562  0.33600773  1
  Te  Te188  1  0.66779708  0.83271627  0.66732361  1
  Te  Te189  1  0.00701563  0.00169889  0.16001863  1
  Te  Te190  1  -0.00071296  -0.00332671  0.50347091  1
  Te  Te191  1  0.00395135  -0.00078984  0.83516287  1
  Te  Te192  1  -0.00048438  0.34177222  0.17205458  1
  Te  Te193  1  0.00073616  0.33120926  0.49835957  1
  Te  Te194  1  -0.00060880  0.33358939  0.82647813  1
  Te  Te195  1  -0.00052283  0.66543253  0.16630371  1
  Te  Te196  1  0.00161381  0.66527266  0.50241015  1
  Te  Te197  1  0.01071329  0.66721084  0.83390661  1
  Te  Te198  1  0.32882971  0.00199679  0.16609963  1
  Te  Te199  1  0.33859885  0.00536193  0.50235241  1
  Te  Te200  1  0.33041515  0.00383272  0.83145328  1
  Te  Te201  1  0.33404399  0.32920927  0.15999177  1
  Te  Te202  1  0.33357536  0.33035735  0.50174306  1
  Te  Te203  1  0.33646770  0.33218388  0.83581515  1
  Te  Te204  1  0.33098819  0.66634407  0.16551788  1
  Te  Te205  1  0.33124698  0.66619907  0.49567067  1
  Te  Te206  1  0.33326567  0.66736702  0.83796275  1
  Te  Te207  1  0.66600937  0.00035953  0.15906286  1
  Te  Te208  1  0.66365404  -0.00439854  0.50144339  1
  Te  Te209  1  0.66643027  0.00192709  0.83372258  1
  Te  Te210  1  0.66607944  0.33727502  0.16508169  1
  Te  Te211  1  0.66662006  0.33328247  0.50073845  1
  Te  Te212  1  0.66430630  0.33554828  0.83362149  1
  Te  Te213  1  0.66420257  0.66555668  0.16736526  1
  Te  Te214  1  0.66732586  0.66919288  0.50248690  1
  Te  Te215  1  0.66313166  0.66563097  0.83281761  1
