# generated using pymatgen
data_AgSbTe2
_symmetry_space_group_name_H-M   'P 1'
_cell_length_a   18.32620377
_cell_length_b   18.33530396
_cell_length_c   18.32868357
_cell_angle_alpha   89.99888110
_cell_angle_beta   89.99880135
_cell_angle_gamma   90.00238451
_symmetry_Int_Tables_number   1
_chemical_formula_structural   AgSbTe2
_chemical_formula_sum   'Ag54 Sb54 Te108'
_cell_volume   6158.74039555
_cell_formula_units_Z   54
loop_
 _symmetry_equiv_pos_site_id
 _symmetry_equiv_pos_as_xyz
  1  'x, y, z'
loop_
 _atom_site_type_symbol
 _atom_site_label
 _atom_site_symmetry_multiplicity
 _atom_site_fract_x
 _atom_site_fract_y
 _atom_site_fract_z
 _atom_site_occupancy
  Ag  Ag0  1  0.83417602  0.83474841  -0.01000724  1
  Ag  Ag1  1  0.66485102  0.33791208  0.66123877  1
  Ag  Ag2  1  0.17320785  0.66954157  0.16968041  1
  Ag  Ag3  1  0.50605165  0.16437538  0.33784664  1
  Ag  Ag4  1  -0.00114873  0.15760077  0.83607714  1
  Ag  Ag5  1  0.49225595  0.67442986  0.17679096  1
  Ag  Ag6  1  0.66801015  -0.00011884  0.33591466  1
  Ag  Ag7  1  0.83502694  0.83515128  0.66818233  1
  Ag  Ag8  1  0.49454004  -0.00147535  0.49897672  1
  Ag  Ag9  1  -0.00429653  0.32542944  0.32950916  1
  Ag  Ag10  1  0.16492323  -0.00359973  0.17099979  1
  Ag  Ag11  1  0.83314997  0.50381286  0.66847498  1
  Ag  Ag12  1  0.50043644  0.83511581  0.00714738  1
  Ag  Ag13  1  0.33885144  0.83102973  0.17355424  1
  Ag  Ag14  1  0.49985531  0.50233164  0.33302151  1
  Ag  Ag15  1  -0.00638555  0.83905988  0.83098658  1
  Ag  Ag16  1  0.16390644  0.49894666  0.66806703  1
  Ag  Ag17  1  0.33013775  -0.00505853  0.66149240  1
  Ag  Ag18  1  0.83394356  0.15733958  0.66024979  1
  Ag  Ag19  1  0.67043759  0.50618607  0.82752977  1
  Ag  Ag20  1  0.33363393  0.51322785  0.16845677  1
  Ag  Ag21  1  0.17204546  -0.00120753  0.49723202  1
  Ag  Ag22  1  -0.00508542  -0.00321689  0.33510446  1
  Ag  Ag23  1  0.66623462  0.66570382  0.66501009  1
  Ag  Ag24  1  0.16261902  0.33530117  0.83251500  1
  Ag  Ag25  1  -0.00020733  -0.00352362  0.67046885  1
  Ag  Ag26  1  0.50239835  0.83272973  0.33214402  1
  Ag  Ag27  1  0.16824689  0.33399895  0.16660605  1
  Ag  Ag28  1  0.00276562  -0.00296720  -0.00629545  1
  Ag  Ag29  1  0.00101183  0.16385656  0.16839472  1
  Ag  Ag30  1  0.50100202  0.32406798  0.49429875  1
  Ag  Ag31  1  -0.00179026  0.83554646  0.49807588  1
  Ag  Ag32  1  -0.00358536  0.50061893  0.83091577  1
  Ag  Ag33  1  0.49493542  0.33672477  0.17671022  1
  Ag  Ag34  1  0.33599284  0.33313933  0.66392647  1
  Ag  Ag35  1  0.34187991  0.67110587  0.33280233  1
  Ag  Ag36  1  0.83152915  0.83705851  0.33630489  1
  Ag  Ag37  1  0.33809408  0.67599517  0.65826903  1
  Ag  Ag38  1  0.66230816  0.16608335  0.49681352  1
  Ag  Ag39  1  0.00124802  0.32950465  0.00099055  1
  Ag  Ag40  1  0.65986447  0.83313625  0.17250074  1
  Ag  Ag41  1  0.32978529  -0.00531557  -0.00328970  1
  Ag  Ag42  1  0.83904405  -0.00379151  0.82932570  1
  Ag  Ag43  1  0.67191463  0.83487390  0.83292622  1
  Ag  Ag44  1  -0.00025680  0.67996922  0.00348382  1
  Ag  Ag45  1  0.00139065  0.67458453  0.33081132  1
  Ag  Ag46  1  0.65927619  0.32572474  0.33899152  1
  Ag  Ag47  1  0.83039969  0.15608714  0.33959116  1
  Ag  Ag48  1  0.82566332  0.67235946  0.50221744  1
  Ag  Ag49  1  0.50156797  -0.00456126  0.82823583  1
  Ag  Ag50  1  0.49875590  0.67340322  0.49526064  1
  Ag  Ag51  1  0.33759772  0.83558175  0.50168959  1
  Ag  Ag52  1  0.34264146  0.15338414  0.50077701  1
  Ag  Ag53  1  0.33689056  0.83644731  0.83040388  1
  Sb  Sb54  1  0.83383498  -0.00513541  0.50115352  1
  Sb  Sb55  1  0.16576430  0.83447591  0.00093798  1
  Sb  Sb56  1  0.83384558  0.67513950  0.82594640  1
  Sb  Sb57  1  0.67052301  0.33522527  0.00026401  1
  Sb  Sb58  1  0.49958167  0.50745989  0.00536735  1
  Sb  Sb59  1  0.83778976  0.15979845  -0.00093231  1
  Sb  Sb60  1  0.67099317  0.16204695  0.82476835  1
  Sb  Sb61  1  0.33461118  -0.00578453  0.33782147  1
  Sb  Sb62  1  0.33833535  0.33565677  0.33621048  1
  Sb  Sb63  1  0.50047251  0.67400240  0.83189404  1
  Sb  Sb64  1  -0.00102253  0.33082098  0.66553947  1
  Sb  Sb65  1  0.16431202  0.16501085  0.00027456  1
  Sb  Sb66  1  0.83912071  -0.00273930  0.16823390  1
  Sb  Sb67  1  0.49732466  0.32789830  0.83113505  1
  Sb  Sb68  1  0.67089289  0.67159867  -0.00312912  1
  Sb  Sb69  1  0.16433716  0.16504149  0.33364560  1
  Sb  Sb70  1  0.66922050  0.16212823  0.17580795  1
  Sb  Sb71  1  0.50174508  0.83408618  0.66413914  1
  Sb  Sb72  1  0.49525397  -0.00432361  0.17207339  1
  Sb  Sb73  1  0.16668657  0.83426919  0.33282947  1
  Sb  Sb74  1  0.16385630  0.00163684  0.83202107  1
  Sb  Sb75  1  0.16427132  0.66465260  0.83520788  1
  Sb  Sb76  1  0.49977268  0.15893299  0.00748039  1
  Sb  Sb77  1  0.82913146  0.50275049  0.33892127  1
  Sb  Sb78  1  0.16582628  0.83166822  0.66617309  1
  Sb  Sb79  1  0.66783981  -0.00210613  0.66217543  1
  Sb  Sb80  1  0.66581094  0.83668665  0.50043812  1
  Sb  Sb81  1  0.50137671  0.50079753  0.66189616  1
  Sb  Sb82  1  0.33563778  0.50484039  0.49792225  1
  Sb  Sb83  1  0.50377763  0.16552685  0.65861160  1
  Sb  Sb84  1  0.33008138  0.67545786  0.00388743  1
  Sb  Sb85  1  0.83883773  0.32902307  0.83144967  1
  Sb  Sb86  1  0.83812363  0.50809091  -0.00847617  1
  Sb  Sb87  1  0.32911212  0.32631573  -0.00085663  1
  Sb  Sb88  1  0.32951059  0.15968354  0.82569711  1
  Sb  Sb89  1  -0.00037408  0.67171017  0.66542397  1
  Sb  Sb90  1  0.16643798  0.49985067  -0.00177328  1
  Sb  Sb91  1  0.83373569  0.67057516  0.17262250  1
  Sb  Sb92  1  0.83526442  0.33170318  0.16954138  1
  Sb  Sb93  1  0.17145811  0.32741827  0.49851204  1
  Sb  Sb94  1  0.00165470  0.83699658  0.16776340  1
  Sb  Sb95  1  -0.00250350  0.15967275  0.49803632  1
  Sb  Sb96  1  0.66015421  0.50444245  0.16711762  1
  Sb  Sb97  1  0.16244191  0.16727953  0.66603663  1
  Sb  Sb98  1  0.17023402  0.67257987  0.49701974  1
  Sb  Sb99  1  0.33415561  0.50471914  0.83311978  1
  Sb  Sb100  1  0.66774008  -0.00360351  0.00396089  1
  Sb  Sb101  1  0.82921667  0.33355221  0.50144521  1
  Sb  Sb102  1  0.66502823  0.49779310  0.50366390  1
  Sb  Sb103  1  -0.00034733  0.50611161  0.50240893  1
  Sb  Sb104  1  0.16959552  0.50032119  0.33557094  1
  Sb  Sb105  1  0.33028710  0.16154141  0.17343248  1
  Sb  Sb106  1  0.00547289  0.49789513  0.16360713  1
  Sb  Sb107  1  0.66300883  0.67056097  0.33820799  1
  Te  Te108  1  0.16257969  0.16884244  0.16708539  1
  Te  Te109  1  0.17408880  0.15972179  0.50034214  1
  Te  Te110  1  0.15973706  0.17422534  0.83271461  1
  Te  Te111  1  0.17192376  0.49834689  0.16792175  1
  Te  Te112  1  0.16694958  0.49807973  0.50777452  1
  Te  Te113  1  0.16499011  0.49624114  0.82966117  1
  Te  Te114  1  0.17298879  0.83248089  0.16658134  1
  Te  Te115  1  0.16440094  0.83934016  0.49998930  1
  Te  Te116  1  0.16685820  0.83312412  0.83357419  1
  Te  Te117  1  0.50002948  0.17066306  0.17494209  1
  Te  Te118  1  0.50114946  0.16564286  0.49752547  1
  Te  Te119  1  0.50048498  0.15814513  0.83679454  1
  Te  Te120  1  0.49571575  0.49876868  0.17019972  1
  Te  Te121  1  0.49956880  0.50418101  0.49365276  1
  Te  Te122  1  0.50501234  0.49892062  0.83597267  1
  Te  Te123  1  0.49916644  0.83432299  0.16878393  1
  Te  Te124  1  0.49949927  0.83421124  0.49782282  1
  Te  Te125  1  0.49780856  0.83715320  0.83214087  1
  Te  Te126  1  0.83927805  0.16534736  0.17328356  1
  Te  Te127  1  0.83013687  0.16735516  0.49919532  1
  Te  Te128  1  0.83849185  0.15936657  0.83004650  1
  Te  Te129  1  0.83127279  0.50122798  0.16524388  1
  Te  Te130  1  0.83334934  0.50867179  0.50727801  1
  Te  Te131  1  0.83322261  0.49983663  0.82771654  1
  Te  Te132  1  0.82703795  0.83281848  0.17535147  1
  Te  Te133  1  0.83365930  0.83113548  0.49856223  1
  Te  Te134  1  0.83411785  0.83622510  0.83089152  1
  Te  Te135  1  0.16407294  -0.00013140  0.00461256  1
  Te  Te136  1  0.16040242  0.00079967  0.33239752  1
  Te  Te137  1  0.16562745  0.00003196  0.66311836  1
  Te  Te138  1  0.16163480  0.33319500  0.00324056  1
  Te  Te139  1  0.16223990  0.33323376  0.32907557  1
  Te  Te140  1  0.16865748  0.33558365  0.66662284  1
  Te  Te141  1  0.15961572  0.66576393  0.00695832  1
  Te  Te142  1  0.16350158  0.66506039  0.32947751  1
  Te  Te143  1  0.17137935  0.66105304  0.66599431  1
  Te  Te144  1  0.49776110  -0.00558072  -0.00105143  1
  Te  Te145  1  0.50076260  -0.00245414  0.33649394  1
  Te  Te146  1  0.49722852  0.00105019  0.66584474  1
  Te  Te147  1  0.50013544  0.33243162  0.00326986  1
  Te  Te148  1  0.49939587  0.33299732  0.33459608  1
  Te  Te149  1  0.50021671  0.33295664  0.66412004  1
  Te  Te150  1  0.49964108  0.67485802  0.00361110  1
  Te  Te151  1  0.50162536  0.66990429  0.33385443  1
  Te  Te152  1  0.49886844  0.66608505  0.66360877  1
  Te  Te153  1  0.83713985  -0.00581228  -0.00414665  1
  Te  Te154  1  0.83362661  -0.00152638  0.33409560  1
  Te  Te155  1  0.83404726  -0.00259010  0.66769918  1
  Te  Te156  1  0.84020984  0.33307136  0.00069197  1
  Te  Te157  1  0.83527656  0.33472479  0.33478645  1
  Te  Te158  1  0.82894185  0.33657236  0.66624881  1
  Te  Te159  1  0.84004438  0.67500145  0.00243273  1
  Te  Te160  1  0.83440385  0.66904015  0.34005712  1
  Te  Te161  1  0.83308227  0.66985074  0.66171879  1
  Te  Te162  1  -0.00130561  0.16463863  -0.00000735  1
  Te  Te163  1  -0.00249117  0.16442449  0.33297770  1
  Te  Te164  1  -0.00558361  0.16257329  0.66715555  1
  Te  Te165  1  -0.00028658  0.49358344  -0.00647738  1
  Te  Te166  1  -0.00132339  0.50249946  0.33350054  1
  Te  Te167  1  -0.00138788  0.50048900  0.66969537  1
  Te  Te168  1  -0.00230760  0.83674240  0.00116783  1
  Te  Te169  1  -0.00195764  0.83462748  0.33318091  1
  Te  Te170  1  -0.00154897  0.83568037  0.66751962  1
  Te  Te171  1  0.33435923  0.15549602  -0.00090103  1
  Te  Te172  1  0.33871936  0.16690671  0.34015215  1
  Te  Te173  1  0.33340400  0.16557939  0.66103140  1
  Te  Te174  1  0.33462293  0.49887532  0.00628235  1
  Te  Te175  1  0.33685841  0.50545953  0.32905718  1
  Te  Te176  1  0.33277802  0.49793768  0.66890355  1
  Te  Te177  1  0.33497198  0.83686205  -0.00414178  1
  Te  Te178  1  0.33487701  0.83015489  0.33509050  1
  Te  Te179  1  0.33274357  0.83454372  0.66435469  1
  Te  Te180  1  0.66910359  0.16721672  0.00103139  1
  Te  Te181  1  0.66844841  0.16548280  0.33575504  1
  Te  Te182  1  0.67307956  0.16997768  0.66076345  1
  Te  Te183  1  0.66861559  0.50171885  -0.01014585  1
  Te  Te184  1  0.66166463  0.49276730  0.33250722  1
  Te  Te185  1  0.66783865  0.50009031  0.66937315  1
  Te  Te186  1  0.66786880  0.83393612  -0.00568036  1
  Te  Te187  1  0.66708182  0.83517266  0.33414157  1
  Te  Te188  1  0.67171621  0.83093483  0.66969244  1
  Te  Te189  1  0.00415788  0.00186875  0.16925848  1
  Te  Te190  1  0.00094399  -0.00399651  0.49866380  1
  Te  Te191  1  0.00161369  -0.00109204  0.83239845  1
  Te  Te192  1  0.00221844  0.33187669  0.16785129  1
  Te  Te193  1  0.00165604  0.33312714  0.49303408  1
  Te  Te194  1  0.00280388  0.33569380  0.83244512  1
  Te  Te195  1  0.00125047  0.66625613  0.16843300  1
  Te  Te196  1  0.00236121  0.67343093  0.49536710  1
  Te  Te197  1  0.00037284  0.66697694  0.83706109  1
  Te  Te198  1  0.32745152  -0.00406180  0.16600167  1
  Te  Te199  1  0.33361739  -0.00369014  0.49988125  1
  Te  Te200  1  0.33060066  -0.00299933  0.83052528  1
  Te  Te201  1  0.33224399  0.32908936  0.16520816  1
  Te  Te202  1  0.33838764  0.33631672  0.50391391  1
  Te  Te203  1  0.32869450  0.33217665  0.82971029  1
  Te  Te204  1  0.33329303  0.67062317  0.16650375  1
  Te  Te205  1  0.33590011  0.67141927  0.49790915  1
  Te  Te206  1  0.33241094  0.67313309  0.82967065  1
  Te  Te207  1  0.66667271  -0.00573181  0.17261346  1
  Te  Te208  1  0.65997358  0.00357910  0.49644734  1
  Te  Te209  1  0.66508492  -0.00432385  0.83339707  1
  Te  Te210  1  0.66224924  0.33447598  0.16901848  1
  Te  Te211  1  0.66313533  0.33183277  0.49973242  1
  Te  Te212  1  0.66624393  0.33198823  0.83003494  1
  Te  Te213  1  0.66138026  0.67195954  0.16613670  1
  Te  Te214  1  0.66373579  0.66675595  0.50523291  1
  Te  Te215  1  0.66693628  0.66923460  0.82744391  1
