# generated using pymatgen
data_AgSbTe2
_symmetry_space_group_name_H-M   'P 1'
_cell_length_a   18.33513082
_cell_length_b   18.33517845
_cell_length_c   18.33782430
_cell_angle_alpha   90.00446131
_cell_angle_beta   89.99961975
_cell_angle_gamma   89.99852571
_symmetry_Int_Tables_number   1
_chemical_formula_structural   AgSbTe2
_chemical_formula_sum   'Ag54 Sb54 Te108'
_cell_volume   6164.77116200
_cell_formula_units_Z   54
loop_
 _symmetry_equiv_pos_site_id
 _symmetry_equiv_pos_as_xyz
  1  'x, y, z'
loop_
 _atom_site_type_symbol
 _atom_site_label
 _atom_site_symmetry_multiplicity
 _atom_site_fract_x
 _atom_site_fract_y
 _atom_site_fract_z
 _atom_site_occupancy
  Ag  Ag0  1  0.32828897  0.16156736  0.49733883  1
  Ag  Ag1  1  0.83458588  0.34230862  0.17182979  1
  Ag  Ag2  1  0.33579845  0.83017216  0.17062441  1
  Ag  Ag3  1  0.01178682  0.83752284  0.49898383  1
  Ag  Ag4  1  0.17125621  0.67317480  0.17211742  1
  Ag  Ag5  1  0.33153292  -0.01022514  0.33489613  1
  Ag  Ag6  1  0.48767385  -0.01015265  0.49044206  1
  Ag  Ag7  1  0.66266622  0.66677649  0.66254637  1
  Ag  Ag8  1  0.49684991  0.83436560  0.32944107  1
  Ag  Ag9  1  0.49412894  0.50247879  0.66366932  1
  Ag  Ag10  1  0.66200080  0.67072654  0.00943046  1
  Ag  Ag11  1  0.17028901  0.33528094  0.17116888  1
  Ag  Ag12  1  0.66015596  -0.01129557  0.33238636  1
  Ag  Ag13  1  0.83386382  0.17194103  0.33376449  1
  Ag  Ag14  1  0.32804327  0.33576663  0.33335943  1
  Ag  Ag15  1  0.00976001  -0.00339085  0.33464777  1
  Ag  Ag16  1  0.82782734  0.83003972  0.32882927  1
  Ag  Ag17  1  0.82479174  0.66823354  0.16817272  1
  Ag  Ag18  1  0.65891231  0.82999687  0.17021873  1
  Ag  Ag19  1  0.01180863  0.16312133  0.49912975  1
  Ag  Ag20  1  0.17147534  -0.00986071  0.17566739  1
  Ag  Ag21  1  0.83748171  0.50140020  0.33138367  1
  Ag  Ag22  1  0.16980543  -0.00680661  0.49527938  1
  Ag  Ag23  1  0.83728331  0.82865686  0.00893662  1
  Ag  Ag24  1  0.33566933  0.67283050  0.00643498  1
  Ag  Ag25  1  0.32811945  0.50782113  0.49641876  1
  Ag  Ag26  1  0.50060051  0.66843539  0.82921059  1
  Ag  Ag27  1  0.33449704  0.67216158  0.33465459  1
  Ag  Ag28  1  0.00816212  0.83038035  0.83328336  1
  Ag  Ag29  1  0.32973026  0.83018585  0.48823938  1
  Ag  Ag30  1  0.84399492  0.33976702  0.83466360  1
  Ag  Ag31  1  0.16658375  -0.01339569  0.83129996  1
  Ag  Ag32  1  0.16454593  0.33489623  0.82119636  1
  Ag  Ag33  1  0.49061027  0.67139290  0.49850457  1
  Ag  Ag34  1  0.16937991  0.83371000  -0.00226688  1
  Ag  Ag35  1  0.83032129  0.66577609  0.84151498  1
  Ag  Ag36  1  0.00575278  -0.00564757  0.00822159  1
  Ag  Ag37  1  0.48773599  0.33131214  0.16867225  1
  Ag  Ag38  1  0.84302706  0.33418269  0.48884463  1
  Ag  Ag39  1  0.16783139  0.49989324  0.33830514  1
  Ag  Ag40  1  0.48771324  0.83033729  0.01259840  1
  Ag  Ag41  1  0.00506692  0.33477319  0.66495723  1
  Ag  Ag42  1  0.17256739  0.67278289  0.49483316  1
  Ag  Ag43  1  0.66625891  0.51278949  0.16981218  1
  Ag  Ag44  1  0.16967935  0.49934649  0.65712227  1
  Ag  Ag45  1  0.32622959  0.83032910  0.83829749  1
  Ag  Ag46  1  0.49230837  -0.01059667  0.17399599  1
  Ag  Ag47  1  0.00189925  0.50509761  0.83091034  1
  Ag  Ag48  1  0.16619581  0.33282136  0.50194636  1
  Ag  Ag49  1  0.16767556  0.83189652  0.66046767  1
  Ag  Ag50  1  0.32965249  0.33875419  0.01182619  1
  Ag  Ag51  1  0.16935793  0.17067828  0.66030942  1
  Ag  Ag52  1  0.49384868  0.17122143  0.66322003  1
  Ag  Ag53  1  0.66376479  0.67047367  0.32797889  1
  Sb  Sb54  1  0.00415260  0.83364066  0.16835576  1
  Sb  Sb55  1  0.83720668  0.17113701  0.65956458  1
  Sb  Sb56  1  0.49583282  0.16072108  -0.00186681  1
  Sb  Sb57  1  0.00563080  0.32884066  -0.00355469  1
  Sb  Sb58  1  0.16911979  0.66898113  0.83207997  1
  Sb  Sb59  1  -0.00084952  0.50014018  0.16466800  1
  Sb  Sb60  1  0.66591583  0.33708837  0.33147689  1
  Sb  Sb61  1  0.33521977  0.50412603  0.17344748  1
  Sb  Sb62  1  0.66668784  0.82997071  0.83895006  1
  Sb  Sb63  1  0.33040037  0.16280880  0.82699807  1
  Sb  Sb64  1  0.32737500  -0.00738876  0.00857497  1
  Sb  Sb65  1  0.66117065  -0.00783787  0.65922431  1
  Sb  Sb66  1  0.67010083  0.33900339  0.66588613  1
  Sb  Sb67  1  0.66416742  0.34119636  0.00437803  1
  Sb  Sb68  1  0.83855342  0.00245008  0.49382170  1
  Sb  Sb69  1  0.49952843  0.67048788  0.16984413  1
  Sb  Sb70  1  0.49682086  0.50596827  0.33424826  1
  Sb  Sb71  1  0.49234643  0.33478722  0.49592709  1
  Sb  Sb72  1  0.00059743  0.66392698  0.66711382  1
  Sb  Sb73  1  0.66643891  0.16271329  0.16900335  1
  Sb  Sb74  1  0.66426170  0.16581836  0.49772746  1
  Sb  Sb75  1  0.00354127  0.16515793  0.82633027  1
  Sb  Sb76  1  0.66258932  0.83152461  0.49089293  1
  Sb  Sb77  1  0.84207351  -0.00514305  0.83687251  1
  Sb  Sb78  1  0.16624022  0.16755838  0.34137062  1
  Sb  Sb79  1  0.16794651  0.16243400  -0.00382355  1
  Sb  Sb80  1  0.67072864  0.50514729  0.83546920  1
  Sb  Sb81  1  0.16788879  0.50439151  0.00202154  1
  Sb  Sb82  1  0.32523336  0.33410927  0.66168527  1
  Sb  Sb83  1  0.00836826  0.49983351  0.50156310  1
  Sb  Sb84  1  0.32967266  -0.00194106  0.65520650  1
  Sb  Sb85  1  0.50050698  0.15927101  0.33740160  1
  Sb  Sb86  1  0.49318712  0.82909422  0.66208244  1
  Sb  Sb87  1  0.83524906  0.50118924  0.66283238  1
  Sb  Sb88  1  0.00198808  0.16572712  0.17457192  1
  Sb  Sb89  1  0.66241449  0.50219242  0.49511107  1
  Sb  Sb90  1  0.66939816  -0.01101425  0.00792220  1
  Sb  Sb91  1  0.83525484  -0.00575403  0.17175622  1
  Sb  Sb92  1  0.32811823  0.50578224  0.82850495  1
  Sb  Sb93  1  0.17068280  0.83052682  0.33437085  1
  Sb  Sb94  1  0.83469052  0.66471756  0.49473945  1
  Sb  Sb95  1  0.83554941  0.16465614  0.00543283  1
  Sb  Sb96  1  0.49812875  0.51017867  -0.00023986  1
  Sb  Sb97  1  0.00204380  0.67362232  -0.00126515  1
  Sb  Sb98  1  0.49044730  -0.00928951  0.83331849  1
  Sb  Sb99  1  0.00317033  0.32992678  0.33860691  1
  Sb  Sb100  1  0.00324060  0.67258656  0.33385309  1
  Sb  Sb101  1  0.83897903  0.83111154  0.66529305  1
  Sb  Sb102  1  0.00481986  0.00129525  0.66205739  1
  Sb  Sb103  1  0.83375154  0.50679777  0.00447544  1
  Sb  Sb104  1  0.33475856  0.66778461  0.65999881  1
  Sb  Sb105  1  0.33126813  0.16537581  0.17325894  1
  Sb  Sb106  1  0.49394613  0.33915080  0.83525775  1
  Sb  Sb107  1  0.66754432  0.16773031  0.83092554  1
  Te  Te108  1  0.16618350  0.17177320  0.16498332  1
  Te  Te109  1  0.16785784  0.16796726  0.50181442  1
  Te  Te110  1  0.16736096  0.17338858  0.82520027  1
  Te  Te111  1  0.16661052  0.49821439  0.17085301  1
  Te  Te112  1  0.16769904  0.49918678  0.49883579  1
  Te  Te113  1  0.16282525  0.49850114  0.83213783  1
  Te  Te114  1  0.16975841  0.83325638  0.16610000  1
  Te  Te115  1  0.16925901  0.83333879  0.49828462  1
  Te  Te116  1  0.16604204  0.82995019  0.83506712  1
  Te  Te117  1  0.49971952  0.17056266  0.16496485  1
  Te  Te118  1  0.49639438  0.16669900  0.50405368  1
  Te  Te119  1  0.49910298  0.16666399  0.82583753  1
  Te  Te120  1  0.50514937  0.49080821  0.16663909  1
  Te  Te121  1  0.49501387  0.50337695  0.50302722  1
  Te  Te122  1  0.49960107  0.50601475  0.82787703  1
  Te  Te123  1  0.49824856  0.83351594  0.16858850  1
  Te  Te124  1  0.49604984  0.83217569  0.49772588  1
  Te  Te125  1  0.49716322  0.82764023  0.83172260  1
  Te  Te126  1  0.83426782  0.17032095  0.17234362  1
  Te  Te127  1  0.83435896  0.17146444  0.49523814  1
  Te  Te128  1  0.83464045  0.17076338  0.83440865  1
  Te  Te129  1  0.83265675  0.50427423  0.17008747  1
  Te  Te130  1  0.83447282  0.49611049  0.49477058  1
  Te  Te131  1  0.83754363  0.50122606  0.83256599  1
  Te  Te132  1  0.83579210  0.82976694  0.16766292  1
  Te  Te133  1  0.83601188  0.83369681  0.49641245  1
  Te  Te134  1  0.83779233  0.82873512  0.83400369  1
  Te  Te135  1  0.16462352  -0.00311187  -0.00049118  1
  Te  Te136  1  0.16933130  0.00283592  0.33404374  1
  Te  Te137  1  0.16601879  -0.00252468  0.66661668  1
  Te  Te138  1  0.16958539  0.33322747  0.00675296  1
  Te  Te139  1  0.16700575  0.33406487  0.33400784  1
  Te  Te140  1  0.16483415  0.33552502  0.66364155  1
  Te  Te141  1  0.17056622  0.67067766  0.00475452  1
  Te  Te142  1  0.16882616  0.66311177  0.33323502  1
  Te  Te143  1  0.16676578  0.66539820  0.66218059  1
  Te  Te144  1  0.50031432  -0.00743451  0.00344334  1
  Te  Te145  1  0.49706872  -0.00142720  0.33305497  1
  Te  Te146  1  0.49972614  0.00446070  0.66442692  1
  Te  Te147  1  0.49559280  0.33244573  0.00292965  1
  Te  Te148  1  0.49828398  0.33278114  0.32902961  1
  Te  Te149  1  0.50177305  0.33601745  0.66731444  1
  Te  Te150  1  0.49782627  0.67203937  -0.00199759  1
  Te  Te151  1  0.49854595  0.66939471  0.33736759  1
  Te  Te152  1  0.50148700  0.66512110  0.66504534  1
  Te  Te153  1  0.83882067  -0.00660449  0.00255203  1
  Te  Te154  1  0.83203017  -0.00608163  0.33299156  1
  Te  Te155  1  0.83078784  0.00184265  0.66738381  1
  Te  Te156  1  0.83420721  0.33347321  -0.00099131  1
  Te  Te157  1  0.83321018  0.33644180  0.33169360  1
  Te  Te158  1  0.83761820  0.33438621  0.67342545  1
  Te  Te159  1  0.83412003  0.67042381  0.00225805  1
  Te  Te160  1  0.83414006  0.66637267  0.33049319  1
  Te  Te161  1  0.82740416  0.66622748  0.66953020  1
  Te  Te162  1  -0.00011014  0.15531991  -0.00067918  1
  Te  Te163  1  -0.00657535  0.16115194  0.34040755  1
  Te  Te164  1  0.00456937  0.17168979  0.65936652  1
  Te  Te165  1  0.00060502  0.49816901  -0.01003940  1
  Te  Te166  1  0.00081938  0.50035677  0.33326980  1
  Te  Te167  1  0.00346163  0.49601226  0.67050483  1
  Te  Te168  1  0.00215548  0.83648765  -0.00116102  1
  Te  Te169  1  -0.00550591  0.83740674  0.33646341  1
  Te  Te170  1  0.00606786  0.83345901  0.66648072  1
  Te  Te171  1  0.33322878  0.17676780  -0.00110805  1
  Te  Te172  1  0.33510827  0.17367707  0.33946002  1
  Te  Te173  1  0.33174900  0.16642006  0.66004028  1
  Te  Te174  1  0.33363337  0.49952265  -0.00082028  1
  Te  Te175  1  0.33046088  0.49885766  0.33697805  1
  Te  Te176  1  0.33150211  0.50030872  0.66108247  1
  Te  Te177  1  0.33052440  0.83257575  0.00367369  1
  Te  Te178  1  0.33428524  0.83196577  0.33166531  1
  Te  Te179  1  0.32683896  0.83332486  0.67495052  1
  Te  Te180  1  0.66595157  0.16514148  -0.00057360  1
  Te  Te181  1  0.67378931  0.16260886  0.33305580  1
  Te  Te182  1  0.66189272  0.16597281  0.66589673  1
  Te  Te183  1  0.66596709  0.50913194  0.00750595  1
  Te  Te184  1  0.66918723  0.50459673  0.32885674  1
  Te  Te185  1  0.66197112  0.50615364  0.66657279  1
  Te  Te186  1  0.67174905  0.82792733  0.00513038  1
  Te  Te187  1  0.66582406  0.83081078  0.33039648  1
  Te  Te188  1  0.66698359  0.82624982  0.66659902  1
  Te  Te189  1  0.00644251  0.00026429  0.17062757  1
  Te  Te190  1  0.00440174  -0.00074165  0.49639944  1
  Te  Te191  1  0.00602834  -0.00501338  0.83265961  1
  Te  Te192  1  -0.00108941  0.33312432  0.16552358  1
  Te  Te193  1  0.00205489  0.33381271  0.50293674  1
  Te  Te194  1  0.00282575  0.33164207  0.83117850  1
  Te  Te195  1  0.00451075  0.66552496  0.16619400  1
  Te  Te196  1  0.00421457  0.67401627  0.50146999  1
  Te  Te197  1  -0.00397818  0.66856147  0.83312142  1
  Te  Te198  1  0.33190144  -0.00075999  0.17295023  1
  Te  Te199  1  0.33093575  -0.00287763  0.49514803  1
  Te  Te200  1  0.32602839  -0.00503771  0.83740547  1
  Te  Te201  1  0.33081223  0.33407597  0.17049412  1
  Te  Te202  1  0.32939596  0.33385228  0.49556920  1
  Te  Te203  1  0.32795051  0.33389667  0.83534840  1
  Te  Te204  1  0.33224660  0.66751995  0.16824169  1
  Te  Te205  1  0.33189540  0.66906756  0.49766261  1
  Te  Te206  1  0.33597167  0.66991021  0.83984169  1
  Te  Te207  1  0.66280782  -0.00576299  0.17257887  1
  Te  Te208  1  0.66177230  -0.00065240  0.49291977  1
  Te  Te209  1  0.66628731  -0.00066645  0.83283197  1
  Te  Te210  1  0.67618837  0.33247864  0.16585909  1
  Te  Te211  1  0.67568257  0.33385255  0.50039057  1
  Te  Te212  1  0.67077468  0.33601173  0.83515682  1
  Te  Te213  1  0.66446367  0.67008417  0.16942108  1
  Te  Te214  1  0.66620349  0.66570225  0.49879796  1
  Te  Te215  1  0.66810111  0.66705310  0.83593630  1
