# generated using pymatgen
data_AgSbTe2
_symmetry_space_group_name_H-M   'P 1'
_cell_length_a   18.35441031
_cell_length_b   18.35065386
_cell_length_c   18.33718864
_cell_angle_alpha   90.00583098
_cell_angle_beta   89.99883222
_cell_angle_gamma   90.00090125
_symmetry_Int_Tables_number   1
_chemical_formula_structural   AgSbTe2
_chemical_formula_sum   'Ag54 Sb54 Te108'
_cell_volume   6176.24804943
_cell_formula_units_Z   54
loop_
 _symmetry_equiv_pos_site_id
 _symmetry_equiv_pos_as_xyz
  1  'x, y, z'
loop_
 _atom_site_type_symbol
 _atom_site_label
 _atom_site_symmetry_multiplicity
 _atom_site_fract_x
 _atom_site_fract_y
 _atom_site_fract_z
 _atom_site_occupancy
  Ag  Ag0  1  0.33837328  0.66464752  0.33117701  1
  Ag  Ag1  1  0.82540107  0.16830882  0.33822303  1
  Ag  Ag2  1  0.16492513  0.17519291  -0.00553919  1
  Ag  Ag3  1  0.50303042  0.67109952  0.49492581  1
  Ag  Ag4  1  0.83059793  0.50844664  0.32912051  1
  Ag  Ag5  1  0.82989271  0.66897325  0.84392150  1
  Ag  Ag6  1  0.00374502  0.34055949  -0.00410402  1
  Ag  Ag7  1  0.67101548  0.16784938  0.83482745  1
  Ag  Ag8  1  0.67461893  0.66400189  -0.00602908  1
  Ag  Ag9  1  0.34301516  -0.00175997  0.33173974  1
  Ag  Ag10  1  0.50374854  0.33425329  0.84040148  1
  Ag  Ag11  1  0.66175952  -0.00214558  0.67089378  1
  Ag  Ag12  1  0.82814699  0.50818589  -0.00124051  1
  Ag  Ag13  1  0.50000312  0.00216644  0.16931428  1
  Ag  Ag14  1  0.49916537  0.33106003  0.15812304  1
  Ag  Ag15  1  0.33706805  0.33907941  -0.00089062  1
  Ag  Ag16  1  0.83187366  0.66933650  0.49906149  1
  Ag  Ag17  1  0.33603068  0.83103395  0.83735930  1
  Ag  Ag18  1  0.67056409  0.66629489  0.33199645  1
  Ag  Ag19  1  0.50236521  -0.00071501  0.83566660  1
  Ag  Ag20  1  0.50040541  0.66883883  0.84543396  1
  Ag  Ag21  1  0.50235869  -0.00951897  0.49046816  1
  Ag  Ag22  1  0.50442221  0.50531545  -0.00055920  1
  Ag  Ag23  1  0.65742895  0.34513231  -0.00514368  1
  Ag  Ag24  1  0.49789155  0.82148803  -0.00471937  1
  Ag  Ag25  1  0.00469636  -0.01047616  -0.00254971  1
  Ag  Ag26  1  0.83502450  0.66729594  0.15672514  1
  Ag  Ag27  1  -0.01162684  0.66482374  0.32965323  1
  Ag  Ag28  1  0.16826936  0.33324956  0.83987074  1
  Ag  Ag29  1  0.33625252  0.67365111  0.68200194  1
  Ag  Ag30  1  0.17164703  0.50438720  0.32939895  1
  Ag  Ag31  1  0.33500305  0.67104144  -0.00180680  1
  Ag  Ag32  1  -0.00773246  0.82807307  0.49632386  1
  Ag  Ag33  1  0.50352523  0.15473860  0.33396079  1
  Ag  Ag34  1  -0.00587024  0.16812977  0.83677325  1
  Ag  Ag35  1  0.83440039  0.82175956  -0.00536904  1
  Ag  Ag36  1  -0.00321009  0.83006480  0.15730063  1
  Ag  Ag37  1  -0.00209150  0.51074032  0.49303052  1
  Ag  Ag38  1  0.16318810  0.16460529  0.67789636  1
  Ag  Ag39  1  0.33642815  -0.00879620  -0.00374622  1
  Ag  Ag40  1  0.16604562  0.82331253  -0.00321125  1
  Ag  Ag41  1  0.16616454  0.50425449  -0.00182241  1
  Ag  Ag42  1  0.66821070  0.83231858  0.49851641  1
  Ag  Ag43  1  0.83259994  0.83478665  0.67684078  1
  Ag  Ag44  1  0.82724994  0.00184598  0.83398829  1
  Ag  Ag45  1  -0.01309509  0.66879018  0.00094826  1
  Ag  Ag46  1  0.83430650  0.15829878  0.67668692  1
  Ag  Ag47  1  0.66102521  -0.00424635  0.33825843  1
  Ag  Ag48  1  0.82713146  0.32820932  0.83818064  1
  Ag  Ag49  1  0.66730017  0.49939873  0.83806278  1
  Ag  Ag50  1  0.34112622  -0.00562175  0.67897359  1
  Ag  Ag51  1  0.33878919  0.34271301  0.32644424  1
  Ag  Ag52  1  0.17510727  0.66386626  0.83977467  1
  Ag  Ag53  1  0.50082664  0.50360373  0.32739839  1
  Sb  Sb54  1  0.50103343  0.16156505  0.66646053  1
  Sb  Sb55  1  0.00095457  0.66808799  0.67042103  1
  Sb  Sb56  1  0.33932885  0.50679671  0.83795524  1
  Sb  Sb57  1  -0.00073232  0.33272445  0.67548407  1
  Sb  Sb58  1  0.82793019  -0.00792601  0.50476760  1
  Sb  Sb59  1  0.16590870  0.33607947  0.50349338  1
  Sb  Sb60  1  0.33330899  0.33186844  0.67404782  1
  Sb  Sb61  1  -0.00437298  0.49841441  0.83707342  1
  Sb  Sb62  1  0.50061725  0.50432131  0.67094912  1
  Sb  Sb63  1  -0.00192421  0.50562088  0.16526712  1
  Sb  Sb64  1  0.16712206  0.66697973  0.50274490  1
  Sb  Sb65  1  0.33335449  0.16243646  0.83587231  1
  Sb  Sb66  1  0.33313784  0.83267349  0.15815882  1
  Sb  Sb67  1  0.50401260  0.66730895  0.16420697  1
  Sb  Sb68  1  0.16634302  0.49915585  0.67302374  1
  Sb  Sb69  1  0.66228093  -0.00373259  -0.00388794  1
  Sb  Sb70  1  0.83640567  0.16771461  -0.00468377  1
  Sb  Sb71  1  0.16756181  0.82558533  0.32722138  1
  Sb  Sb72  1  0.66875140  0.83188704  0.16720626  1
  Sb  Sb73  1  -0.00162327  0.83446609  0.83768899  1
  Sb  Sb74  1  0.83340330  0.33882121  0.50280742  1
  Sb  Sb75  1  0.66686862  0.16056493  0.50300341  1
  Sb  Sb76  1  0.83209264  0.82775181  0.33196890  1
  Sb  Sb77  1  0.49958834  0.83214418  0.32803050  1
  Sb  Sb78  1  0.66610367  0.50257956  0.15932257  1
  Sb  Sb79  1  0.17259273  0.33531451  0.15712102  1
  Sb  Sb80  1  0.33666366  0.16602161  0.16433873  1
  Sb  Sb81  1  -0.00335120  0.16263676  0.50472877  1
  Sb  Sb82  1  0.66538933  0.83291746  0.83254543  1
  Sb  Sb83  1  0.82983766  0.33776874  0.15900462  1
  Sb  Sb84  1  0.17309300  -0.00121804  0.16208804  1
  Sb  Sb85  1  0.33507005  0.16461541  0.50044666  1
  Sb  Sb86  1  0.50488983  0.83415992  0.67161951  1
  Sb  Sb87  1  0.66629623  0.16502612  0.16130274  1
  Sb  Sb88  1  0.66457805  0.67248449  0.66992616  1
  Sb  Sb89  1  0.49613479  0.16933980  -0.00008143  1
  Sb  Sb90  1  0.66717751  0.32559497  0.67692024  1
  Sb  Sb91  1  -0.00299487  -0.00530298  0.32804194  1
  Sb  Sb92  1  0.33657991  0.83211770  0.50472031  1
  Sb  Sb93  1  0.50060262  0.33688358  0.49773734  1
  Sb  Sb94  1  0.33184587  0.50362376  0.49523799  1
  Sb  Sb95  1  -0.00372890  0.16133077  0.15825558  1
  Sb  Sb96  1  0.16157250  0.66634966  0.15712636  1
  Sb  Sb97  1  0.33529037  0.50262394  0.16357288  1
  Sb  Sb98  1  0.66212719  0.33661230  0.32617231  1
  Sb  Sb99  1  0.16815510  0.00086959  0.83765124  1
  Sb  Sb100  1  -0.00241290  -0.00166818  0.67375331  1
  Sb  Sb101  1  0.16393082  0.83543297  0.67359870  1
  Sb  Sb102  1  0.82819009  -0.00479474  0.16200636  1
  Sb  Sb103  1  0.17036486  0.17151671  0.33121211  1
  Sb  Sb104  1  0.83320786  0.50357169  0.67201685  1
  Sb  Sb105  1  0.00247088  0.34129076  0.32492126  1
  Sb  Sb106  1  0.17298198  -0.00154857  0.50147149  1
  Sb  Sb107  1  0.66898609  0.50939872  0.50133600  1
  Te  Te108  1  0.16474372  0.16692455  0.15975355  1
  Te  Te109  1  0.16489898  0.16734428  0.50559051  1
  Te  Te110  1  0.16719926  0.16721351  0.83623786  1
  Te  Te111  1  0.16559202  0.49990275  0.17003602  1
  Te  Te112  1  0.16017440  0.49980055  0.49607538  1
  Te  Te113  1  0.16438456  0.50044118  0.83711154  1
  Te  Te114  1  0.15859225  0.83304248  0.15821531  1
  Te  Te115  1  0.16078190  0.83347948  0.50080084  1
  Te  Te116  1  0.16937278  0.82826352  0.83758415  1
  Te  Te117  1  0.50163467  0.16684051  0.17524043  1
  Te  Te118  1  0.50078747  0.16449756  0.49456521  1
  Te  Te119  1  0.50408718  0.16659287  0.83139747  1
  Te  Te120  1  0.50054641  0.49529580  0.16571575  1
  Te  Te121  1  0.50119219  0.50594628  0.49676439  1
  Te  Te122  1  0.50465399  0.50186449  0.83684453  1
  Te  Te123  1  0.50024934  0.83956480  0.15699705  1
  Te  Te124  1  0.50243671  0.83231629  0.50067080  1
  Te  Te125  1  0.49868554  0.83123228  0.83640024  1
  Te  Te126  1  0.83234749  0.16676549  0.17819604  1
  Te  Te127  1  0.83366652  0.16817756  0.49826269  1
  Te  Te128  1  0.83333792  0.16639026  0.83379311  1
  Te  Te129  1  0.83212948  0.50477478  0.16633349  1
  Te  Te130  1  0.83581660  0.50542890  0.49970854  1
  Te  Te131  1  0.83020945  0.50330299  0.83640736  1
  Te  Te132  1  0.83585083  0.82911768  0.15954889  1
  Te  Te133  1  0.83159948  0.82959222  0.49781992  1
  Te  Te134  1  0.83319807  0.83215453  0.83428207  1
  Te  Te135  1  0.16804948  -0.00490780  0.00021502  1
  Te  Te136  1  0.17034130  0.00158628  0.33189164  1
  Te  Te137  1  0.17060287  0.00398320  0.66785581  1
  Te  Te138  1  0.16788063  0.33830550  -0.00307958  1
  Te  Te139  1  0.17266409  0.33791938  0.33264810  1
  Te  Te140  1  0.16771388  0.32775401  0.67519812  1
  Te  Te141  1  0.17741689  0.66410350  -0.00302757  1
  Te  Te142  1  0.16900817  0.66256576  0.33424357  1
  Te  Te143  1  0.17327659  0.66734945  0.67440465  1
  Te  Te144  1  0.49791725  0.00498974  -0.00458557  1
  Te  Te145  1  0.50063630  -0.00391121  0.33316072  1
  Te  Te146  1  0.49990506  -0.00041122  0.67357216  1
  Te  Te147  1  0.49824030  0.33059621  -0.00212964  1
  Te  Te148  1  0.49742346  0.34137958  0.33430089  1
  Te  Te149  1  0.49855910  0.33291655  0.67173562  1
  Te  Te150  1  0.49549249  0.66374988  0.00331689  1
  Te  Te151  1  0.50353734  0.66638259  0.32967021  1
  Te  Te152  1  0.49514456  0.66784666  0.66180837  1
  Te  Te153  1  0.83181416  -0.00043230  -0.00343277  1
  Te  Te154  1  0.83061342  0.00301642  0.33311946  1
  Te  Te155  1  0.83194505  -0.00138532  0.67045872  1
  Te  Te156  1  0.83470347  0.33499693  -0.00318182  1
  Te  Te157  1  0.83233530  0.33655456  0.33203332  1
  Te  Te158  1  0.83355958  0.32977208  0.67429540  1
  Te  Te159  1  0.83089940  0.66466455  -0.00080796  1
  Te  Te160  1  0.83200854  0.66644919  0.33968318  1
  Te  Te161  1  0.83296494  0.67101641  0.66138421  1
  Te  Te162  1  0.00359307  0.16566639  -0.00398374  1
  Te  Te163  1  0.00075484  0.16686067  0.33347736  1
  Te  Te164  1  -0.00214575  0.16562170  0.67238355  1
  Te  Te165  1  0.00156947  0.50446369  -0.00086161  1
  Te  Te166  1  -0.00457502  0.50438729  0.33240326  1
  Te  Te167  1  0.00083426  0.50000401  0.65482312  1
  Te  Te168  1  -0.00162948  0.82997647  -0.00273149  1
  Te  Te169  1  0.00091234  0.82714864  0.33471993  1
  Te  Te170  1  -0.00524783  0.83363046  0.66002944  1
  Te  Te171  1  0.32633301  0.16791473  0.00021813  1
  Te  Te172  1  0.33581940  0.16141243  0.33309197  1
  Te  Te173  1  0.32944151  0.16183694  0.66746188  1
  Te  Te174  1  0.33307165  0.49772230  -0.00073190  1
  Te  Te175  1  0.33566716  0.50071699  0.33114335  1
  Te  Te176  1  0.33185166  0.50674446  0.66390440  1
  Te  Te177  1  0.33527574  0.83268739  -0.00228821  1
  Te  Te178  1  0.33170965  0.83619263  0.33358423  1
  Te  Te179  1  0.33139245  0.83472628  0.67147545  1
  Te  Te180  1  0.66720463  0.16665388  -0.00541234  1
  Te  Te181  1  0.66475843  0.16872480  0.33394533  1
  Te  Te182  1  0.67119881  0.15910748  0.67076595  1
  Te  Te183  1  0.66560757  0.50334692  -0.00287284  1
  Te  Te184  1  0.66763967  0.50409516  0.33492151  1
  Te  Te185  1  0.66719665  0.49827308  0.67404589  1
  Te  Te186  1  0.66667171  0.82821678  0.00064131  1
  Te  Te187  1  0.66574961  0.83176898  0.33707407  1
  Te  Te188  1  0.67213540  0.83894362  0.66005626  1
  Te  Te189  1  -0.00187112  -0.00713232  0.15920821  1
  Te  Te190  1  0.00076801  -0.00586923  0.49877209  1
  Te  Te191  1  -0.00350216  0.00358321  0.83891504  1
  Te  Te192  1  -0.00056355  0.33090235  0.15599992  1
  Te  Te193  1  -0.00029263  0.33492760  0.49753365  1
  Te  Te194  1  0.00066298  0.33132719  0.83867507  1
  Te  Te195  1  -0.00389128  0.67048366  0.16691974  1
  Te  Te196  1  0.00152009  0.66877001  0.50249478  1
  Te  Te197  1  -0.00570107  0.66667767  0.83734238  1
  Te  Te198  1  0.33994067  -0.00087409  0.16581461  1
  Te  Te199  1  0.34033290  -0.00184948  0.49601425  1
  Te  Te200  1  0.33455396  -0.00360770  0.83590990  1
  Te  Te201  1  0.33915480  0.33256890  0.16662347  1
  Te  Te202  1  0.33332880  0.33335225  0.49511152  1
  Te  Te203  1  0.33509974  0.33337802  0.83683804  1
  Te  Te204  1  0.33352422  0.66906900  0.17317206  1
  Te  Te205  1  0.33778532  0.66825167  0.48938432  1
  Te  Te206  1  0.33745670  0.66800962  0.83813102  1
  Te  Te207  1  0.66039824  -0.00100532  0.17514208  1
  Te  Te208  1  0.66231922  -0.00401057  0.49808086  1
  Te  Te209  1  0.66643274  -0.00011265  0.83230914  1
  Te  Te210  1  0.66052293  0.33225348  0.15730852  1
  Te  Te211  1  0.66651850  0.33456692  0.50215376  1
  Te  Te212  1  0.66632940  0.33189454  0.83749006  1
  Te  Te213  1  0.67232990  0.66801043  0.17143638  1
  Te  Te214  1  0.66447642  0.67106995  0.50184956  1
  Te  Te215  1  0.66521708  0.66660069  0.83465344  1
