# generated using pymatgen
data_AgSbTe2
_symmetry_space_group_name_H-M   'P 1'
_cell_length_a   18.34607635
_cell_length_b   18.34953790
_cell_length_c   18.34800488
_cell_angle_alpha   90.00009294
_cell_angle_beta   90.00154847
_cell_angle_gamma   89.99946731
_symmetry_Int_Tables_number   1
_chemical_formula_structural   AgSbTe2
_chemical_formula_sum   'Ag54 Sb54 Te108'
_cell_volume   6176.70948446
_cell_formula_units_Z   54
loop_
 _symmetry_equiv_pos_site_id
 _symmetry_equiv_pos_as_xyz
  1  'x, y, z'
loop_
 _atom_site_type_symbol
 _atom_site_label
 _atom_site_symmetry_multiplicity
 _atom_site_fract_x
 _atom_site_fract_y
 _atom_site_fract_z
 _atom_site_occupancy
  Ag  Ag0  1  0.66866434  0.33888768  0.00528156  1
  Ag  Ag1  1  0.16230252  0.16235738  0.67652593  1
  Ag  Ag2  1  0.16671061  -0.00899732  0.16329201  1
  Ag  Ag3  1  0.49433828  -0.00495699  0.82755316  1
  Ag  Ag4  1  0.84692602  0.49625219  0.32439762  1
  Ag  Ag5  1  0.84853892  -0.00173526  0.16349715  1
  Ag  Ag6  1  0.84355338  0.16445490  0.66767933  1
  Ag  Ag7  1  0.32751885  0.50713362  0.48457547  1
  Ag  Ag8  1  0.00403411  0.67408275  0.65745108  1
  Ag  Ag9  1  0.00866305  0.00873817  0.00669379  1
  Ag  Ag10  1  0.84192305  0.16735151  0.00395639  1
  Ag  Ag11  1  0.48753166  0.83353139  0.33186366  1
  Ag  Ag12  1  0.16552201  0.83743338  0.00717646  1
  Ag  Ag13  1  0.49038721  0.66590761  0.16574043  1
  Ag  Ag14  1  0.00755830  0.00484451  0.66519368  1
  Ag  Ag15  1  0.16323660  0.17016243  -0.00127793  1
  Ag  Ag16  1  0.00840778  0.50160477  0.17028621  1
  Ag  Ag17  1  0.32861359  0.51101170  0.84624489  1
  Ag  Ag18  1  0.00140616  0.00022528  0.32557835  1
  Ag  Ag19  1  0.66343111  0.66221525  0.32616758  1
  Ag  Ag20  1  0.00382534  0.16441451  0.83596860  1
  Ag  Ag21  1  0.33179994  0.83028393  0.84133841  1
  Ag  Ag22  1  0.32916418  0.83161590  0.48973062  1
  Ag  Ag23  1  0.00955309  0.65756775  0.33476872  1
  Ag  Ag24  1  0.32850378  0.66399852  0.32817938  1
  Ag  Ag25  1  0.66751493  0.66065291  0.00768380  1
  Ag  Ag26  1  0.66609605  0.34154766  0.32536735  1
  Ag  Ag27  1  0.49646910  0.34441222  0.16752171  1
  Ag  Ag28  1  0.16393140  0.49897842  0.00653788  1
  Ag  Ag29  1  0.49363876  -0.00586600  0.16585466  1
  Ag  Ag30  1  0.48961531  0.67358500  0.84242839  1
  Ag  Ag31  1  0.32678907  -0.00021086  0.00261981  1
  Ag  Ag32  1  0.33213808  -0.00260447  0.67385622  1
  Ag  Ag33  1  0.84374403  0.49669535  0.00696187  1
  Ag  Ag34  1  0.00223238  0.34323126  0.32749345  1
  Ag  Ag35  1  0.32823433  0.50808892  0.16634946  1
  Ag  Ag36  1  0.00051327  0.16074819  0.50037979  1
  Ag  Ag37  1  0.84405321  0.83962587  0.00240703  1
  Ag  Ag38  1  0.16114316  0.50673242  0.32367562  1
  Ag  Ag39  1  0.33152247  0.82643831  0.16913645  1
  Ag  Ag40  1  0.00837317  0.83552776  0.49559602  1
  Ag  Ag41  1  0.16762257  0.33605319  0.84096995  1
  Ag  Ag42  1  0.66786330  0.50138639  0.16625944  1
  Ag  Ag43  1  0.16860546  0.82340869  0.32695015  1
  Ag  Ag44  1  0.49396757  -0.00299184  0.50751987  1
  Ag  Ag45  1  0.32332842  0.33383444  0.00297202  1
  Ag  Ag46  1  0.49083941  0.15678898  0.66782639  1
  Ag  Ag47  1  0.83930894  0.17388275  0.32580825  1
  Ag  Ag48  1  0.17152704  0.66768226  0.16409137  1
  Ag  Ag49  1  0.16999445  0.66295227  0.84383150  1
  Ag  Ag50  1  0.49353392  0.83710026  0.66092201  1
  Ag  Ag51  1  0.32576556  0.34494511  0.32184277  1
  Ag  Ag52  1  0.00693163  0.50164607  0.48754082  1
  Ag  Ag53  1  0.00478291  0.32658724  0.00462867  1
  Sb  Sb54  1  0.00628641  0.49775315  0.83805383  1
  Sb  Sb55  1  0.16613718  -0.00036926  0.49646485  1
  Sb  Sb56  1  0.66712640  -0.00047359  0.00339127  1
  Sb  Sb57  1  0.33203380  0.66739524  0.00518451  1
  Sb  Sb58  1  0.49341258  0.50500063  0.32993414  1
  Sb  Sb59  1  0.49830483  0.16606550  -0.00217532  1
  Sb  Sb60  1  0.66982718  0.16682290  0.83526560  1
  Sb  Sb61  1  0.65967829  0.50181676  0.84347090  1
  Sb  Sb62  1  0.66500936  0.33202455  0.66881952  1
  Sb  Sb63  1  0.16539147  0.33333293  0.49921077  1
  Sb  Sb64  1  0.17038565  -0.00103133  0.84085448  1
  Sb  Sb65  1  0.00670556  0.83531880  0.83353602  1
  Sb  Sb66  1  0.83755251  0.66652577  0.83680792  1
  Sb  Sb67  1  -0.00004003  0.16905039  0.16547195  1
  Sb  Sb68  1  0.66658781  0.66698019  0.66788749  1
  Sb  Sb69  1  0.00911224  0.83217366  0.17079733  1
  Sb  Sb70  1  0.83831362  0.66626741  0.49611338  1
  Sb  Sb71  1  0.50143916  0.16189813  0.33403023  1
  Sb  Sb72  1  0.17038029  0.33828580  0.16166090  1
  Sb  Sb73  1  0.49253322  0.33321157  0.84023520  1
  Sb  Sb74  1  0.66731731  0.50002550  0.48836493  1
  Sb  Sb75  1  0.66968697  -0.00141353  0.32970373  1
  Sb  Sb76  1  0.49686236  0.50263084  0.66813567  1
  Sb  Sb77  1  0.83716556  0.33172357  0.49496607  1
  Sb  Sb78  1  0.17156556  0.83568511  0.66655142  1
  Sb  Sb79  1  0.49208315  0.83267575  0.00358198  1
  Sb  Sb80  1  0.00232430  0.66653954  0.00366916  1
  Sb  Sb81  1  0.83412918  0.00065150  0.83859940  1
  Sb  Sb82  1  0.83655719  0.00160651  0.49579151  1
  Sb  Sb83  1  0.33145892  0.32982653  0.66833662  1
  Sb  Sb84  1  0.83901588  0.49676516  0.66569002  1
  Sb  Sb85  1  0.66312457  0.00025274  0.66660529  1
  Sb  Sb86  1  0.16743764  0.49996711  0.66715735  1
  Sb  Sb87  1  0.16595859  0.66619958  0.49533249  1
  Sb  Sb88  1  0.49337118  0.50034631  0.00545253  1
  Sb  Sb89  1  0.83544048  0.66687641  0.16632341  1
  Sb  Sb90  1  0.83210872  0.33602998  0.16663445  1
  Sb  Sb91  1  0.66800333  0.17237980  0.16598800  1
  Sb  Sb92  1  0.83588759  0.83734665  0.67075023  1
  Sb  Sb93  1  0.32829291  0.16385715  0.83409161  1
  Sb  Sb94  1  0.32876664  0.67203794  0.66553197  1
  Sb  Sb95  1  0.84020919  0.33199075  0.83934423  1
  Sb  Sb96  1  0.66002050  0.82687123  0.16536121  1
  Sb  Sb97  1  0.32945618  0.16367285  0.50011835  1
  Sb  Sb98  1  0.16237945  0.16762998  0.32831215  1
  Sb  Sb99  1  0.49590891  0.32957996  0.49161599  1
  Sb  Sb100  1  0.67009280  0.16657470  0.49883684  1
  Sb  Sb101  1  0.33148954  0.16637150  0.16636696  1
  Sb  Sb102  1  0.65870369  0.83268467  0.83756795  1
  Sb  Sb103  1  0.49652926  0.67103942  0.49495826  1
  Sb  Sb104  1  0.33045244  -0.00360724  0.32951873  1
  Sb  Sb105  1  0.00249710  0.32843558  0.66662991  1
  Sb  Sb106  1  0.66341662  0.83391301  0.49740474  1
  Sb  Sb107  1  0.83958048  0.83196934  0.32868605  1
  Te  Te108  1  0.16614443  0.15529265  0.15934325  1
  Te  Te109  1  0.16059741  0.16643070  0.50430678  1
  Te  Te110  1  0.16382499  0.16580618  0.83691188  1
  Te  Te111  1  0.16707805  0.50004440  0.16628710  1
  Te  Te112  1  0.16778481  0.49894092  0.49912467  1
  Te  Te113  1  0.17062017  0.50040142  0.83357565  1
  Te  Te114  1  0.16934011  0.82948353  0.16720440  1
  Te  Te115  1  0.16723023  0.83424696  0.49705397  1
  Te  Te116  1  0.17244789  0.82794352  0.83601315  1
  Te  Te117  1  0.50165189  0.15954433  0.16717541  1
  Te  Te118  1  0.50011345  0.16074069  0.50480533  1
  Te  Te119  1  0.50152634  0.16406183  0.82863799  1
  Te  Te120  1  0.49590180  0.50285343  0.16763649  1
  Te  Te121  1  0.49467767  0.49831143  0.50124988  1
  Te  Te122  1  0.49092434  0.50344135  0.83355335  1
  Te  Te123  1  0.49417119  0.82859721  0.16949711  1
  Te  Te124  1  0.49869901  0.83734362  0.49824685  1
  Te  Te125  1  0.49304969  0.83312075  0.83606653  1
  Te  Te126  1  0.83201069  0.16143099  0.16650740  1
  Te  Te127  1  0.83952104  0.16614539  0.50048921  1
  Te  Te128  1  0.83869813  0.16681081  0.83497701  1
  Te  Te129  1  0.83374671  0.50132773  0.16626201  1
  Te  Te130  1  0.83767585  0.49900098  0.49675436  1
  Te  Te131  1  0.83143395  0.49997158  0.83584719  1
  Te  Te132  1  0.82977567  0.83777290  0.16096862  1
  Te  Te133  1  0.83669913  0.83445520  0.50213923  1
  Te  Te134  1  0.83123115  0.83243566  0.84121811  1
  Te  Te135  1  0.16683697  -0.00282245  -0.00073491  1
  Te  Te136  1  0.16189542  0.00166336  0.32879345  1
  Te  Te137  1  0.16803034  0.00260994  0.66542632  1
  Te  Te138  1  0.16609306  0.33418180  0.00244938  1
  Te  Te139  1  0.16566819  0.33571810  0.33334277  1
  Te  Te140  1  0.16803348  0.32731365  0.67413991  1
  Te  Te141  1  0.16678739  0.66342808  0.00346304  1
  Te  Te142  1  0.16705823  0.66656116  0.33307563  1
  Te  Te143  1  0.16061822  0.66806243  0.67214460  1
  Te  Te144  1  0.49752866  0.00027304  0.00331485  1
  Te  Te145  1  0.49998792  -0.00439499  0.32957675  1
  Te  Te146  1  0.49932937  -0.00174494  0.66716626  1
  Te  Te147  1  0.50230738  0.33192051  0.00633762  1
  Te  Te148  1  0.50206246  0.32916419  0.32687984  1
  Te  Te149  1  0.50018605  0.32923672  0.66612502  1
  Te  Te150  1  0.50530430  0.66678646  0.00099870  1
  Te  Te151  1  0.49882298  0.67238682  0.33078712  1
  Te  Te152  1  0.50136148  0.67328276  0.66921001  1
  Te  Te153  1  0.83378312  0.00186150  0.00403383  1
  Te  Te154  1  0.83691241  0.00015413  0.32775292  1
  Te  Te155  1  0.83346170  0.00490966  0.66720633  1
  Te  Te156  1  0.83593686  0.33428569  -0.00009508  1
  Te  Te157  1  0.83877786  0.33449024  0.33263514  1
  Te  Te158  1  0.83112825  0.32706235  0.66742598  1
  Te  Te159  1  0.83061294  0.66072808  -0.00087409  1
  Te  Te160  1  0.83232616  0.66220191  0.33326558  1
  Te  Te161  1  0.84064155  0.66748713  0.66781554  1
  Te  Te162  1  0.00105982  0.16677725  0.00159252  1
  Te  Te163  1  -0.00132765  0.16044667  0.33412771  1
  Te  Te164  1  0.00209200  0.16662269  0.66644707  1
  Te  Te165  1  0.00205876  0.50025204  0.00301661  1
  Te  Te166  1  0.00206075  0.50000009  0.33252987  1
  Te  Te167  1  -0.00039584  0.50124002  0.66333780  1
  Te  Te168  1  0.00291514  0.83471026  -0.00097856  1
  Te  Te169  1  0.00288684  0.84002310  0.33677131  1
  Te  Te170  1  -0.00075449  0.83551975  0.66409512  1
  Te  Te171  1  0.33008357  0.16644387  -0.00124279  1
  Te  Te172  1  0.33305527  0.17756054  0.33563873  1
  Te  Te173  1  0.33291759  0.16071336  0.66575219  1
  Te  Te174  1  0.32813179  0.49812410  0.00361063  1
  Te  Te175  1  0.33195072  0.50136751  0.32915709  1
  Te  Te176  1  0.33430965  0.49914474  0.66516174  1
  Te  Te177  1  0.32845465  0.83577226  0.00279700  1
  Te  Te178  1  0.33018040  0.83534183  0.33119061  1
  Te  Te179  1  0.33573467  0.83744941  0.66385821  1
  Te  Te180  1  0.67230372  0.17070211  -0.00059988  1
  Te  Te181  1  0.67401988  0.16922453  0.33337652  1
  Te  Te182  1  0.67176248  0.16850114  0.66729084  1
  Te  Te183  1  0.66650070  0.49980017  0.00502029  1
  Te  Te184  1  0.66414068  0.50037164  0.32804980  1
  Te  Te185  1  0.66851728  0.49997608  0.66435181  1
  Te  Te186  1  0.67474485  0.83120902  0.00005857  1
  Te  Te187  1  0.66865731  0.82778579  0.33317062  1
  Te  Te188  1  0.66213124  0.83176956  0.66749846  1
  Te  Te189  1  0.00355451  -0.00287460  0.16367103  1
  Te  Te190  1  -0.00068700  -0.00071359  0.50343358  1
  Te  Te191  1  -0.00186395  0.00348935  0.83176681  1
  Te  Te192  1  0.00020293  0.33785866  0.16631330  1
  Te  Te193  1  0.00038616  0.33626432  0.49597143  1
  Te  Te194  1  0.00670655  0.32990363  0.83661249  1
  Te  Te195  1  0.00350967  0.66338454  0.17280589  1
  Te  Te196  1  0.00052772  0.66860626  0.49809310  1
  Te  Te197  1  0.00694721  0.66670057  0.83041741  1
  Te  Te198  1  0.33066185  0.00041982  0.16339607  1
  Te  Te199  1  0.33546465  -0.00420101  0.49806878  1
  Te  Te200  1  0.33576746  -0.00166336  0.83424833  1
  Te  Te201  1  0.33634342  0.33192496  0.16458503  1
  Te  Te202  1  0.33265860  0.33788996  0.49886818  1
  Te  Te203  1  0.32863917  0.33505970  0.83815581  1
  Te  Te204  1  0.33258397  0.66726095  0.16699302  1
  Te  Te205  1  0.33301562  0.66829235  0.49702368  1
  Te  Te206  1  0.33237805  0.66759961  0.83173418  1
  Te  Te207  1  0.65536954  -0.00160442  0.16717956  1
  Te  Te208  1  0.65885433  0.00052912  0.49835382  1
  Te  Te209  1  0.65696087  -0.00006104  0.83473940  1
  Te  Te210  1  0.66316981  0.33745429  0.16642757  1
  Te  Te211  1  0.66511505  0.33364589  0.49331418  1
  Te  Te212  1  0.66451930  0.33479757  0.84067440  1
  Te  Te213  1  0.66838214  0.66204022  0.16633563  1
  Te  Te214  1  0.66611693  0.66588685  0.49603246  1
  Te  Te215  1  0.66278966  0.66606690  0.83630009  1
