# generated using pymatgen
data_AgSbTe2
_symmetry_space_group_name_H-M   'P 1'
_cell_length_a   18.36207808
_cell_length_b   18.36195510
_cell_length_c   18.35831388
_cell_angle_alpha   89.99681799
_cell_angle_beta   90.00028128
_cell_angle_gamma   90.00168475
_symmetry_Int_Tables_number   1
_chemical_formula_structural   AgSbTe2
_chemical_formula_sum   'Ag54 Sb54 Te108'
_cell_volume   6189.75616015
_cell_formula_units_Z   54
loop_
 _symmetry_equiv_pos_site_id
 _symmetry_equiv_pos_as_xyz
  1  'x, y, z'
loop_
 _atom_site_type_symbol
 _atom_site_label
 _atom_site_symmetry_multiplicity
 _atom_site_fract_x
 _atom_site_fract_y
 _atom_site_fract_z
 _atom_site_occupancy
  Ag  Ag0  1  0.83076276  0.33308787  0.49504606  1
  Ag  Ag1  1  0.34290354  0.00145318  0.33175674  1
  Ag  Ag2  1  0.34011777  0.00202643  0.01716564  1
  Ag  Ag3  1  0.50107032  0.00325783  0.84229075  1
  Ag  Ag4  1  0.84278275  0.66924036  0.49522491  1
  Ag  Ag5  1  0.16452857  0.00272024  0.49352108  1
  Ag  Ag6  1  0.00074345  0.16791511  0.17470670  1
  Ag  Ag7  1  0.66309338  0.33535329  0.64870145  1
  Ag  Ag8  1  0.65854113  0.16649138  0.17219956  1
  Ag  Ag9  1  0.50250631  0.48984306  0.65273457  1
  Ag  Ag10  1  0.16376054  0.66923743  0.17816658  1
  Ag  Ag11  1  0.33738599  0.49607301  0.49710897  1
  Ag  Ag12  1  0.00323654  0.16698288  0.82400826  1
  Ag  Ag13  1  0.49600525  0.00660374  0.17043413  1
  Ag  Ag14  1  0.33185360  0.84735022  0.17983269  1
  Ag  Ag15  1  0.50004754  0.33743066  0.49222379  1
  Ag  Ag16  1  0.15794617  0.66932157  0.49622745  1
  Ag  Ag17  1  0.66805763  0.83017042  0.49702746  1
  Ag  Ag18  1  0.66611521  0.83653383  0.82296076  1
  Ag  Ag19  1  0.00372833  0.50914497  0.49179184  1
  Ag  Ag20  1  0.34018999  0.16133045  0.17735227  1
  Ag  Ag21  1  -0.00143545  0.66533501  0.33459865  1
  Ag  Ag22  1  0.00219997  0.65793120  0.01101130  1
  Ag  Ag23  1  0.66900696  0.48945165  0.17159026  1
  Ag  Ag24  1  0.50420372  0.48432518  0.33600598  1
  Ag  Ag25  1  0.00875710  0.16753726  0.49589511  1
  Ag  Ag26  1  0.16495987  0.49916024  0.00582098  1
  Ag  Ag27  1  0.66923739  0.32864624  0.01428894  1
  Ag  Ag28  1  0.33008169  0.16850793  0.49651087  1
  Ag  Ag29  1  0.17255872  0.83544449  0.33602916  1
  Ag  Ag30  1  -0.00022905  0.49597425  0.17562828  1
  Ag  Ag31  1  0.33327226  0.16510413  0.82849522  1
  Ag  Ag32  1  0.82614924  0.16192727  0.33287113  1
  Ag  Ag33  1  -0.00250366  0.66352345  0.65030125  1
  Ag  Ag34  1  0.83774497  -0.00153337  0.49421827  1
  Ag  Ag35  1  0.82620900  0.49545068  0.33590118  1
  Ag  Ag36  1  0.82549378  0.00359316  0.17635133  1
  Ag  Ag37  1  -0.00415601  0.33485660  0.00631232  1
  Ag  Ag38  1  -0.00068417  0.82346471  0.49577581  1
  Ag  Ag39  1  0.49782924  0.16888532  0.65304403  1
  Ag  Ag40  1  0.83158016  0.84476926  0.33734505  1
  Ag  Ag41  1  0.34416342  0.31948262  0.33641938  1
  Ag  Ag42  1  0.66332434  0.00676877  0.33348936  1
  Ag  Ag43  1  0.49364006  0.84061982  0.33506075  1
  Ag  Ag44  1  0.33110278  0.83841387  0.49567019  1
  Ag  Ag45  1  0.50032058  0.16743252  0.33534747  1
  Ag  Ag46  1  0.49979113  0.65579038  0.49687375  1
  Ag  Ag47  1  0.17963950  0.00078824  0.17427764  1
  Ag  Ag48  1  0.17292526  0.16703294  0.65700402  1
  Ag  Ag49  1  0.65992296  0.32571794  0.33253208  1
  Ag  Ag50  1  0.66690295  0.66012327  0.65717239  1
  Ag  Ag51  1  0.66236364  0.00449813  0.01658353  1
  Ag  Ag52  1  0.16833149  0.32361397  0.49847069  1
  Ag  Ag53  1  0.50517121  0.32516138  0.17813051  1
  Sb  Sb54  1  0.49671073  0.66674131  0.17629607  1
  Sb  Sb55  1  0.82792372  0.00088687  0.83508644  1
  Sb  Sb56  1  0.16784548  0.49665635  0.66092391  1
  Sb  Sb57  1  0.50176484  0.67271419  0.82256503  1
  Sb  Sb58  1  0.83246151  0.33077669  0.82930558  1
  Sb  Sb59  1  0.66424486  0.50064438  0.49215519  1
  Sb  Sb60  1  0.16635201  0.83158262  0.00917288  1
  Sb  Sb61  1  0.83354280  0.16746859  0.00800429  1
  Sb  Sb62  1  0.33541594  0.49211850  0.82859946  1
  Sb  Sb63  1  0.00081907  0.00018384  0.66068746  1
  Sb  Sb64  1  0.32915585  0.67047899  0.00334192  1
  Sb  Sb65  1  0.66400422  0.16746045  0.49094217  1
  Sb  Sb66  1  0.83847058  0.66902667  0.17624175  1
  Sb  Sb67  1  -0.00010117  0.49638738  0.83470767  1
  Sb  Sb68  1  0.16576307  0.83654304  0.65462134  1
  Sb  Sb69  1  -0.00363376  0.83731669  0.82719891  1
  Sb  Sb70  1  0.83180439  0.83219720  0.65521584  1
  Sb  Sb71  1  -0.00129144  -0.00178044  0.33564947  1
  Sb  Sb72  1  0.82858239  0.50045721  0.65537821  1
  Sb  Sb73  1  0.83095346  0.16804146  0.65582031  1
  Sb  Sb74  1  0.00413608  0.83470217  0.17647766  1
  Sb  Sb75  1  0.33305741  0.66531789  0.65882491  1
  Sb  Sb76  1  0.66437552  0.16333705  0.83744005  1
  Sb  Sb77  1  0.66978518  0.66715280  0.33892955  1
  Sb  Sb78  1  0.33962804  0.84225234  0.83205488  1
  Sb  Sb79  1  0.50143194  0.83729840  0.65576179  1
  Sb  Sb80  1  -0.00345978  0.33586629  0.66129145  1
  Sb  Sb81  1  0.49936993  0.16478598  0.00704299  1
  Sb  Sb82  1  0.00023513  0.00309269  0.00453564  1
  Sb  Sb83  1  0.49994309  0.32608688  0.83026220  1
  Sb  Sb84  1  0.49916149  0.00434470  0.49033670  1
  Sb  Sb85  1  0.32897159  0.67162064  0.33676015  1
  Sb  Sb86  1  0.33457089  0.00415813  0.65630571  1
  Sb  Sb87  1  0.16974570  0.16101979  0.33816738  1
  Sb  Sb88  1  0.83275047  0.83340470  0.00867737  1
  Sb  Sb89  1  0.66484621  0.50074998  0.83460873  1
  Sb  Sb90  1  0.33188704  0.49678979  0.17603838  1
  Sb  Sb91  1  0.16681841  0.16903064  0.00149852  1
  Sb  Sb92  1  0.17160243  0.00357521  0.83410826  1
  Sb  Sb93  1  0.50082758  0.83621981  0.00655491  1
  Sb  Sb94  1  0.49784522  0.49728144  0.00862013  1
  Sb  Sb95  1  0.33439789  0.32771896  0.00835450  1
  Sb  Sb96  1  0.16773325  0.50393015  0.33449388  1
  Sb  Sb97  1  0.67083805  0.66643315  -0.00060855  1
  Sb  Sb98  1  0.83779544  0.49858811  0.01009803  1
  Sb  Sb99  1  0.16480100  0.66741357  0.83020393  1
  Sb  Sb100  1  0.66344663  0.00280192  0.65899348  1
  Sb  Sb101  1  0.33907632  0.32951788  0.65363621  1
  Sb  Sb102  1  0.66205979  0.83890344  0.17623437  1
  Sb  Sb103  1  0.83357728  0.66842949  0.82579597  1
  Sb  Sb104  1  0.16515753  0.33034761  0.82963689  1
  Sb  Sb105  1  0.16715234  0.33122865  0.17296110  1
  Sb  Sb106  1  -0.00173853  0.33561783  0.33405778  1
  Sb  Sb107  1  0.82820163  0.32784440  0.17618974  1
  Te  Te108  1  0.16231182  0.16312885  0.16579251  1
  Te  Te109  1  0.16912538  0.16504732  0.49896345  1
  Te  Te110  1  0.16531154  0.16609577  0.82714151  1
  Te  Te111  1  0.16282185  0.50040270  0.16533294  1
  Te  Te112  1  0.16378301  0.50584296  0.50210257  1
  Te  Te113  1  0.16828376  0.49893997  0.83623555  1
  Te  Te114  1  0.17059984  0.83479409  0.17162064  1
  Te  Te115  1  0.16683430  0.83236620  0.49679962  1
  Te  Te116  1  0.16766484  0.83525420  0.83182768  1
  Te  Te117  1  0.49938473  0.16756094  0.16879197  1
  Te  Te118  1  0.49852468  0.16986616  0.49678170  1
  Te  Te119  1  0.49791320  0.16178366  0.83379559  1
  Te  Te120  1  0.50222093  0.49883947  0.17368247  1
  Te  Te121  1  0.50130736  0.49694361  0.49656775  1
  Te  Te122  1  0.49841081  0.50211363  0.83143394  1
  Te  Te123  1  0.49315129  0.83262286  0.17356141  1
  Te  Te124  1  0.49883744  0.83836331  0.49496708  1
  Te  Te125  1  0.50503445  0.84000725  0.83374333  1
  Te  Te126  1  0.83840603  0.16313763  0.17193048  1
  Te  Te127  1  0.83059856  0.16746768  0.49416526  1
  Te  Te128  1  0.83926762  0.16491243  0.83189188  1
  Te  Te129  1  0.83707454  0.50094995  0.17471013  1
  Te  Te130  1  0.83825683  0.49846653  0.49551503  1
  Te  Te131  1  0.83273863  0.50024233  0.83380283  1
  Te  Te132  1  0.83323518  0.83869380  0.17473770  1
  Te  Te133  1  0.83541526  0.83338449  0.49581022  1
  Te  Te134  1  0.82697956  0.83500469  0.83506445  1
  Te  Te135  1  0.17031996  -0.00062234  0.00453643  1
  Te  Te136  1  0.16439490  -0.00395905  0.33313741  1
  Te  Te137  1  0.16721406  0.00731784  0.66312517  1
  Te  Te138  1  0.16427894  0.33685346  0.00044544  1
  Te  Te139  1  0.17090561  0.33615019  0.33959766  1
  Te  Te140  1  0.16557924  0.32855646  0.66037688  1
  Te  Te141  1  0.16193650  0.66372002  -0.00233462  1
  Te  Te142  1  0.16275881  0.66924446  0.33520847  1
  Te  Te143  1  0.16151108  0.66593388  0.65992553  1
  Te  Te144  1  0.50133356  -0.00083476  0.00519646  1
  Te  Te145  1  0.50242599  0.00197314  0.33117294  1
  Te  Te146  1  0.50011555  0.00709336  0.67021991  1
  Te  Te147  1  0.50507496  0.33529887  0.00134586  1
  Te  Te148  1  0.49927867  0.32975301  0.33296653  1
  Te  Te149  1  0.50448056  0.33060155  0.66669831  1
  Te  Te150  1  0.50095009  0.66643334  -0.00268628  1
  Te  Te151  1  0.49976625  0.67412718  0.33815761  1
  Te  Te152  1  0.50431684  0.66739016  0.65889694  1
  Te  Te153  1  0.82598707  -0.00062464  0.00356574  1
  Te  Te154  1  0.83492744  0.00244790  0.33562472  1
  Te  Te155  1  0.83239192  0.00083286  0.66041771  1
  Te  Te156  1  0.83292370  0.33441941  -0.00157196  1
  Te  Te157  1  0.83247952  0.33573001  0.33775743  1
  Te  Te158  1  0.82452590  0.33446098  0.66036053  1
  Te  Te159  1  0.84082347  0.66600115  -0.00230572  1
  Te  Te160  1  0.83687764  0.66239272  0.33752840  1
  Te  Te161  1  0.83075195  0.66607223  0.65851003  1
  Te  Te162  1  0.00015147  0.17093604  0.00539536  1
  Te  Te163  1  -0.00323474  0.16981768  0.33468244  1
  Te  Te164  1  -0.00009681  0.16806280  0.66274100  1
  Te  Te165  1  0.00271376  0.49773498  -0.00057572  1
  Te  Te166  1  0.00225735  0.50112279  0.33387681  1
  Te  Te167  1  -0.00093238  0.50397321  0.66628998  1
  Te  Te168  1  -0.00078603  0.82980879  -0.00406594  1
  Te  Te169  1  -0.00252327  0.82955958  0.33812938  1
  Te  Te170  1  -0.00073717  0.82664855  0.66091490  1
  Te  Te171  1  0.33237187  0.16200133  -0.00019855  1
  Te  Te172  1  0.33196745  0.16257218  0.33466358  1
  Te  Te173  1  0.33471157  0.16761331  0.66456229  1
  Te  Te174  1  0.32795376  0.49967846  -0.00198929  1
  Te  Te175  1  0.33789841  0.50105396  0.33843812  1
  Te  Te176  1  0.34030878  0.49832748  0.66135111  1
  Te  Te177  1  0.33342046  0.84085322  0.00050494  1
  Te  Te178  1  0.33202010  0.83418534  0.33675339  1
  Te  Te179  1  0.33329469  0.83382413  0.66106764  1
  Te  Te180  1  0.66749944  0.16540012  0.00571817  1
  Te  Te181  1  0.66572920  0.16710953  0.33043285  1
  Te  Te182  1  0.66260665  0.17210914  0.66999079  1
  Te  Te183  1  0.66708091  0.49670406  0.00787979  1
  Te  Te184  1  0.66527371  0.50216344  0.32840901  1
  Te  Te185  1  0.66143587  0.49954176  0.67063179  1
  Te  Te186  1  0.66765828  0.83644777  0.00186625  1
  Te  Te187  1  0.66981953  0.83292767  0.33844181  1
  Te  Te188  1  0.66590726  0.83314613  0.66177158  1
  Te  Te189  1  -0.00430354  0.00311649  0.16383984  1
  Te  Te190  1  0.00186846  0.00769472  0.50127204  1
  Te  Te191  1  -0.00071396  0.00572641  0.83317750  1
  Te  Te192  1  0.00050589  0.33449207  0.16496589  1
  Te  Te193  1  0.00076784  0.32762506  0.50113706  1
  Te  Te194  1  -0.00078907  0.32719828  0.83658802  1
  Te  Te195  1  0.00385457  0.66781089  0.16843201  1
  Te  Te196  1  -0.00071817  0.66572722  0.49555892  1
  Te  Te197  1  -0.00055316  0.66784815  0.83406947  1
  Te  Te198  1  0.33472026  0.00297016  0.17212654  1
  Te  Te199  1  0.32999780  0.00111409  0.49418030  1
  Te  Te200  1  0.33844809  0.00475516  0.83076369  1
  Te  Te201  1  0.33756665  0.32949963  0.17314620  1
  Te  Te202  1  0.33393926  0.33251300  0.49585657  1
  Te  Te203  1  0.33237151  0.32457713  0.83740073  1
  Te  Te204  1  0.32496789  0.66574582  0.16413316  1
  Te  Te205  1  0.34025357  0.66413541  0.50162154  1
  Te  Te206  1  0.33379268  0.66724627  0.83295420  1
  Te  Te207  1  0.66599290  0.00017148  0.17209534  1
  Te  Te208  1  0.67068796  -0.00454813  0.49438726  1
  Te  Te209  1  0.66336970  -0.00380274  0.82985214  1
  Te  Te210  1  0.66778499  0.33121252  0.17151907  1
  Te  Te211  1  0.66472807  0.33447242  0.49323271  1
  Te  Te212  1  0.66771993  0.33284841  0.84169000  1
  Te  Te213  1  0.66677061  0.66415366  0.16373751  1
  Te  Te214  1  0.66052426  0.66759187  0.50132589  1
  Te  Te215  1  0.66678276  0.67365425  0.82884251  1
