# generated using pymatgen
data_AgSbTe2
_symmetry_space_group_name_H-M   'P 1'
_cell_length_a   18.37252569
_cell_length_b   18.35703256
_cell_length_c   18.36039834
_cell_angle_alpha   89.99963360
_cell_angle_beta   89.99977519
_cell_angle_gamma   90.00196458
_symmetry_Int_Tables_number   1
_chemical_formula_structural   AgSbTe2
_chemical_formula_sum   'Ag54 Sb54 Te108'
_cell_volume   6192.32070131
_cell_formula_units_Z   54
loop_
 _symmetry_equiv_pos_site_id
 _symmetry_equiv_pos_as_xyz
  1  'x, y, z'
loop_
 _atom_site_type_symbol
 _atom_site_label
 _atom_site_symmetry_multiplicity
 _atom_site_fract_x
 _atom_site_fract_y
 _atom_site_fract_z
 _atom_site_occupancy
  Ag  Ag0  1  0.49318558  0.33394510  0.51046880  1
  Ag  Ag1  1  0.00185720  0.33737718  -0.00654559  1
  Ag  Ag2  1  0.32497487  -0.00161649  0.67502974  1
  Ag  Ag3  1  0.16144311  0.00003188  0.83213634  1
  Ag  Ag4  1  0.32439942  0.49517953  0.83624299  1
  Ag  Ag5  1  0.16635753  0.82139278  -0.00476321  1
  Ag  Ag6  1  0.00124377  0.49042296  0.49307014  1
  Ag  Ag7  1  0.32350850  0.33714869  0.32977256  1
  Ag  Ag8  1  0.16640692  0.33893689  0.83252696  1
  Ag  Ag9  1  0.51020973  0.65790037  0.83433400  1
  Ag  Ag10  1  0.83795943  0.50368314  0.32297600  1
  Ag  Ag11  1  0.67443187  0.34222529  -0.01139391  1
  Ag  Ag12  1  0.33254491  0.83157168  0.83425540  1
  Ag  Ag13  1  -0.00872792  0.16814822  0.82819353  1
  Ag  Ag14  1  0.82291032  0.34073735  0.83195116  1
  Ag  Ag15  1  0.67709547  0.83297211  0.50276423  1
  Ag  Ag16  1  0.68132289  0.50806721  0.15186580  1
  Ag  Ag17  1  -0.00111244  -0.00051913  0.33898590  1
  Ag  Ag18  1  -0.00045002  0.50515060  0.16961517  1
  Ag  Ag19  1  0.15852353  0.49820730  0.32521284  1
  Ag  Ag20  1  0.50715264  -0.00674973  0.17024262  1
  Ag  Ag21  1  0.50821326  0.16855143  0.67107119  1
  Ag  Ag22  1  0.67914016  0.49616699  0.83680183  1
  Ag  Ag23  1  0.67581060  0.18263719  0.82955525  1
  Ag  Ag24  1  0.32514843  0.50543139  0.15505180  1
  Ag  Ag25  1  0.50986090  0.33875480  0.83228795  1
  Ag  Ag26  1  0.83449709  0.82995683  0.32543061  1
  Ag  Ag27  1  0.83547392  0.00190732  0.83261412  1
  Ag  Ag28  1  0.15777330  0.49822678  0.68073291  1
  Ag  Ag29  1  0.83238363  0.49981268  0.00095522  1
  Ag  Ag30  1  0.16131471  0.50124048  0.00118053  1
  Ag  Ag31  1  0.83478954  0.16890461  0.67441377  1
  Ag  Ag32  1  0.83759035  0.49674582  0.67932831  1
  Ag  Ag33  1  -0.00022106  0.17401875  0.50672262  1
  Ag  Ag34  1  -0.00353121  0.83593546  0.49371195  1
  Ag  Ag35  1  -0.00963156  0.82605144  0.16939509  1
  Ag  Ag36  1  0.15683116  0.66241212  0.15922626  1
  Ag  Ag37  1  0.16515503  0.66097685  0.83740758  1
  Ag  Ag38  1  0.33254594  0.17854727  0.83101555  1
  Ag  Ag39  1  0.66828064  0.33291242  0.67554181  1
  Ag  Ag40  1  0.67378272  0.82847964  0.83565620  1
  Ag  Ag41  1  0.16455685  0.33895213  0.50879059  1
  Ag  Ag42  1  0.67113777  0.66165628  -0.00377565  1
  Ag  Ag43  1  0.83741212  0.66609884  0.16200366  1
  Ag  Ag44  1  0.83422922  -0.01231622  0.16037727  1
  Ag  Ag45  1  0.33089323  0.83483650  0.50099428  1
  Ag  Ag46  1  0.33016166  0.33854759  -0.00775849  1
  Ag  Ag47  1  0.82953131  0.65975293  0.83682290  1
  Ag  Ag48  1  0.00234563  0.34236645  0.33250410  1
  Ag  Ag49  1  0.33335389  0.82852839  0.16533555  1
  Ag  Ag50  1  0.50984091  0.83402738  0.33084387  1
  Ag  Ag51  1  0.83420334  0.83322895  0.67460437  1
  Ag  Ag52  1  0.67363657  0.82783811  0.16232495  1
  Ag  Ag53  1  -0.00088616  0.00071233  0.66788067  1
  Sb  Sb54  1  0.16451651  0.17423600  0.33443318  1
  Sb  Sb55  1  0.33576935  0.33118680  0.67263162  1
  Sb  Sb56  1  0.50250982  0.83816161  0.66639225  1
  Sb  Sb57  1  0.16211377  -0.01317828  0.16097892  1
  Sb  Sb58  1  0.16669853  0.17299508  -0.00502997  1
  Sb  Sb59  1  -0.00147348  0.16708778  0.16626896  1
  Sb  Sb60  1  0.83708867  0.82819438  -0.00044899  1
  Sb  Sb61  1  0.33337847  0.66297932  -0.00219629  1
  Sb  Sb62  1  0.66918117  0.66365582  0.67579491  1
  Sb  Sb63  1  -0.00369163  0.33100431  0.66916957  1
  Sb  Sb64  1  0.50081465  0.00155857  0.83414551  1
  Sb  Sb65  1  0.16308320  0.00304903  0.50472175  1
  Sb  Sb66  1  0.32786997  -0.00065493  0.33473754  1
  Sb  Sb67  1  0.49874873  0.00105347  0.49892005  1
  Sb  Sb68  1  0.66876759  0.16708163  0.15811456  1
  Sb  Sb69  1  0.83627674  0.16527577  0.33848298  1
  Sb  Sb70  1  0.66796536  -0.00105758  -0.00176037  1
  Sb  Sb71  1  0.33175632  0.67073044  0.67253713  1
  Sb  Sb72  1  0.16246569  0.17120222  0.67127353  1
  Sb  Sb73  1  0.32929900  0.16704886  0.50695119  1
  Sb  Sb74  1  0.16125700  0.82829539  0.32984602  1
  Sb  Sb75  1  0.16560783  0.34208746  0.16283971  1
  Sb  Sb76  1  0.66835374  0.66918118  0.32710505  1
  Sb  Sb77  1  0.67046548  0.33639980  0.33259469  1
  Sb  Sb78  1  0.67326423  0.50237630  0.50490471  1
  Sb  Sb79  1  -0.00156760  0.66351119  0.33129596  1
  Sb  Sb80  1  0.16431717  0.66161463  0.50037580  1
  Sb  Sb81  1  0.83704906  -0.00312449  0.50465527  1
  Sb  Sb82  1  0.00023833  0.49341686  0.83744646  1
  Sb  Sb83  1  -0.00060706  0.83737582  0.83581627  1
  Sb  Sb84  1  0.83374119  0.66798923  0.50058426  1
  Sb  Sb85  1  0.67036327  0.16469347  0.50806130  1
  Sb  Sb86  1  0.50149751  0.49998818  -0.00279539  1
  Sb  Sb87  1  0.67197823  0.00128998  0.67044834  1
  Sb  Sb88  1  0.83531200  0.33810143  0.16046789  1
  Sb  Sb89  1  -0.00136360  0.00296748  -0.00306459  1
  Sb  Sb90  1  0.32708146  0.50025417  0.50395048  1
  Sb  Sb91  1  0.50202459  0.49457578  0.67163128  1
  Sb  Sb92  1  -0.00155724  0.66735726  0.66922873  1
  Sb  Sb93  1  0.49779313  0.83313944  0.00152835  1
  Sb  Sb94  1  0.50313922  0.66888731  0.16065633  1
  Sb  Sb95  1  0.83327857  0.17306572  -0.00744047  1
  Sb  Sb96  1  0.33294337  0.66336930  0.33099135  1
  Sb  Sb97  1  0.49926875  0.33260549  0.16284993  1
  Sb  Sb98  1  -0.00108980  0.66209439  0.00075292  1
  Sb  Sb99  1  0.33374467  0.16783331  0.16158228  1
  Sb  Sb100  1  0.16307864  0.83086523  0.67097374  1
  Sb  Sb101  1  0.50124683  0.50256734  0.33229290  1
  Sb  Sb102  1  0.50021547  0.66476464  0.50536048  1
  Sb  Sb103  1  0.50004926  0.16864642  -0.00869389  1
  Sb  Sb104  1  0.67409538  -0.00416359  0.33169506  1
  Sb  Sb105  1  0.83729059  0.33567521  0.50453847  1
  Sb  Sb106  1  0.33218513  0.00064438  -0.00617494  1
  Sb  Sb107  1  0.49830277  0.16362327  0.33832303  1
  Te  Te108  1  0.16691016  0.16017988  0.16562223  1
  Te  Te109  1  0.16105862  0.17395342  0.50094412  1
  Te  Te110  1  0.17311819  0.15997089  0.83326665  1
  Te  Te111  1  0.16662657  0.50269465  0.16469571  1
  Te  Te112  1  0.16292903  0.49728599  0.49260175  1
  Te  Te113  1  0.16440612  0.50106928  0.83838820  1
  Te  Te114  1  0.17342232  0.82502486  0.16374033  1
  Te  Te115  1  0.16773632  0.83281415  0.50097225  1
  Te  Te116  1  0.16734031  0.83549091  0.83473644  1
  Te  Te117  1  0.50177523  0.15855673  0.16926657  1
  Te  Te118  1  0.49987636  0.17248031  0.50572123  1
  Te  Te119  1  0.49519185  0.16764036  0.82775564  1
  Te  Te120  1  0.49191164  0.50121085  0.16950072  1
  Te  Te121  1  0.50120530  0.49483609  0.50203423  1
  Te  Te122  1  0.49429919  0.49868395  0.83160415  1
  Te  Te123  1  0.49514270  0.83311184  0.16853332  1
  Te  Te124  1  0.49501279  0.83286210  0.49582623  1
  Te  Te125  1  0.49525666  0.83264957  0.83359650  1
  Te  Te126  1  0.83192921  0.15870300  0.16881257  1
  Te  Te127  1  0.83825010  0.16700836  0.50735832  1
  Te  Te128  1  0.83293775  0.16417050  0.83087234  1
  Te  Te129  1  0.83615779  0.50100986  0.16451168  1
  Te  Te130  1  0.83961908  0.50220586  0.49416598  1
  Te  Te131  1  0.83610122  0.49977406  0.83586095  1
  Te  Te132  1  0.83314387  0.82994258  0.16334621  1
  Te  Te133  1  0.83383493  0.83250958  0.49799666  1
  Te  Te134  1  0.83468870  0.83516363  0.83390628  1
  Te  Te135  1  0.16639953  -0.00069410  -0.00658382  1
  Te  Te136  1  0.15955453  0.00046300  0.33225390  1
  Te  Te137  1  0.16375039  -0.00185415  0.67060974  1
  Te  Te138  1  0.16701967  0.33777004  -0.00272620  1
  Te  Te139  1  0.16370679  0.33829445  0.33003607  1
  Te  Te140  1  0.16824946  0.33856660  0.66613650  1
  Te  Te141  1  0.16849882  0.66351975  0.00053718  1
  Te  Te142  1  0.16799107  0.65929592  0.33095703  1
  Te  Te143  1  0.16497368  0.65895540  0.67042970  1
  Te  Te144  1  0.50037149  0.00115924  0.01083222  1
  Te  Te145  1  0.49583078  -0.00513022  0.33080464  1
  Te  Te146  1  0.49857473  0.00666207  0.66603619  1
  Te  Te147  1  0.49399085  0.33240330  -0.00577283  1
  Te  Te148  1  0.50091723  0.33217588  0.33343619  1
  Te  Te149  1  0.50167052  0.32960383  0.67043471  1
  Te  Te150  1  0.50829507  0.66848937  -0.00719362  1
  Te  Te151  1  0.50041116  0.67561030  0.33654876  1
  Te  Te152  1  0.49979511  0.66762647  0.67425090  1
  Te  Te153  1  0.83275764  0.00204996  -0.00113931  1
  Te  Te154  1  0.83936386  -0.00350160  0.33303403  1
  Te  Te155  1  0.83679524  -0.00452663  0.67030124  1
  Te  Te156  1  0.83474988  0.33782243  -0.00530040  1
  Te  Te157  1  0.83883909  0.33540587  0.33269319  1
  Te  Te158  1  0.83055195  0.33552481  0.67052685  1
  Te  Te159  1  0.83241181  0.66358346  -0.00053492  1
  Te  Te160  1  0.83228312  0.66726682  0.32962813  1
  Te  Te161  1  0.83305211  0.66840284  0.67183460  1
  Te  Te162  1  0.00066710  0.17457759  -0.00316888  1
  Te  Te163  1  -0.00012350  0.16313246  0.33786268  1
  Te  Te164  1  -0.00272488  0.16371284  0.66755249  1
  Te  Te165  1  0.00042946  0.49609868  0.00332336  1
  Te  Te166  1  -0.00150875  0.50086917  0.33244278  1
  Te  Te167  1  -0.00181743  0.50054385  0.66208572  1
  Te  Te168  1  0.00701760  0.83626431  0.00794397  1
  Te  Te169  1  -0.00264420  0.83463110  0.33028955  1
  Te  Te170  1  -0.00392388  0.83708377  0.66666504  1
  Te  Te171  1  0.33357014  0.17321853  -0.00649795  1
  Te  Te172  1  0.33273229  0.17419843  0.33418609  1
  Te  Te173  1  0.33032009  0.16011348  0.67036627  1
  Te  Te174  1  0.33402294  0.49770674  -0.00211773  1
  Te  Te175  1  0.33483970  0.49601822  0.33681507  1
  Te  Te176  1  0.33049068  0.50095027  0.67209384  1
  Te  Te177  1  0.32837842  0.83422350  0.00009653  1
  Te  Te178  1  0.33061274  0.83456942  0.33111631  1
  Te  Te179  1  0.33279920  0.83769402  0.66735914  1
  Te  Te180  1  0.66574860  0.17415707  -0.00970089  1
  Te  Te181  1  0.66601088  0.16516056  0.33378439  1
  Te  Te182  1  0.67064021  0.16736856  0.67017327  1
  Te  Te183  1  0.66514679  0.49934686  -0.00315736  1
  Te  Te184  1  0.67132140  0.50094851  0.33439516  1
  Te  Te185  1  0.67137445  0.49482499  0.67034592  1
  Te  Te186  1  0.66651642  0.83049356  0.00186293  1
  Te  Te187  1  0.66963454  0.83530919  0.32843793  1
  Te  Te188  1  0.67028309  0.83358038  0.66736396  1
  Te  Te189  1  -0.00574339  -0.00042092  0.16780278  1
  Te  Te190  1  0.00079431  -0.00478653  0.50196911  1
  Te  Te191  1  -0.00102717  0.00492170  0.83114992  1
  Te  Te192  1  -0.00048788  0.33425420  0.17180446  1
  Te  Te193  1  0.00210326  0.33329381  0.49952346  1
  Te  Te194  1  0.00867964  0.32851064  0.83393937  1
  Te  Te195  1  -0.00088132  0.66616409  0.16605743  1
  Te  Te196  1  0.00044093  0.67745690  0.50112414  1
  Te  Te197  1  0.00222006  0.66816360  0.83517966  1
  Te  Te198  1  0.33252542  -0.00148937  0.16644568  1
  Te  Te199  1  0.33111706  -0.00397459  0.50341076  1
  Te  Te200  1  0.33587041  -0.00885483  0.83159428  1
  Te  Te201  1  0.33406305  0.33453662  0.16880678  1
  Te  Te202  1  0.33124925  0.33336067  0.49733058  1
  Te  Te203  1  0.32576998  0.33520051  0.83183734  1
  Te  Te204  1  0.33489583  0.66471331  0.16559740  1
  Te  Te205  1  0.33336926  0.67464293  0.50035977  1
  Te  Te206  1  0.32595383  0.67087634  0.83430079  1
  Te  Te207  1  0.67002710  -0.00327334  0.16570146  1
  Te  Te208  1  0.66498463  -0.00803744  0.49992514  1
  Te  Te209  1  0.66921277  -0.01184853  0.83487411  1
  Te  Te210  1  0.66623640  0.33731339  0.16198242  1
  Te  Te211  1  0.66342584  0.33290222  0.50234793  1
  Te  Te212  1  0.66654989  0.33649661  0.83223069  1
  Te  Te213  1  0.66778521  0.66585162  0.16192074  1
  Te  Te214  1  0.66447805  0.67461200  0.50066206  1
  Te  Te215  1  0.66888867  0.66697782  0.83575832  1
