# generated using pymatgen
data_AgSbTe2
_symmetry_space_group_name_H-M   'P 1'
_cell_length_a   18.34527598
_cell_length_b   18.34322677
_cell_length_c   18.34658107
_cell_angle_alpha   90.00554821
_cell_angle_beta   89.99914834
_cell_angle_gamma   90.00084284
_symmetry_Int_Tables_number   1
_chemical_formula_structural   AgSbTe2
_chemical_formula_sum   'Ag54 Sb54 Te108'
_cell_volume   6173.83653942
_cell_formula_units_Z   54
loop_
 _symmetry_equiv_pos_site_id
 _symmetry_equiv_pos_as_xyz
  1  'x, y, z'
loop_
 _atom_site_type_symbol
 _atom_site_label
 _atom_site_symmetry_multiplicity
 _atom_site_fract_x
 _atom_site_fract_y
 _atom_site_fract_z
 _atom_site_occupancy
  Ag  Ag0  1  0.16979225  0.83028723  0.34379251  1
  Ag  Ag1  1  0.48592213  0.67315850  0.83920467  1
  Ag  Ag2  1  0.84590836  0.15890355  0.33246456  1
  Ag  Ag3  1  0.83791040  -0.00446692  0.83395514  1
  Ag  Ag4  1  0.48575896  0.83262359  0.33318864  1
  Ag  Ag5  1  0.00085113  0.33866205  0.67358774  1
  Ag  Ag6  1  0.00561401  0.50334335  0.16384030  1
  Ag  Ag7  1  0.00180992  0.66286928  0.00384895  1
  Ag  Ag8  1  0.00819568  0.82845966  0.50542215  1
  Ag  Ag9  1  0.00412211  0.15752892  0.83097835  1
  Ag  Ag10  1  0.00275311  0.66760112  0.33387440  1
  Ag  Ag11  1  0.33171919  -0.00447748  0.00211067  1
  Ag  Ag12  1  0.67035072  0.50130484  0.49950637  1
  Ag  Ag13  1  0.16360024  0.51210508  0.32654592  1
  Ag  Ag14  1  0.17013381  -0.00088286  0.17386978  1
  Ag  Ag15  1  0.33072705  0.83409172  0.17134344  1
  Ag  Ag16  1  0.00290632  0.66926571  0.66409587  1
  Ag  Ag17  1  0.67239868  0.33510495  -0.00237275  1
  Ag  Ag18  1  0.32054553  0.84190316  0.48511656  1
  Ag  Ag19  1  0.16485478  0.50589548  0.00702684  1
  Ag  Ag20  1  0.65889031  0.00057593  -0.00180702  1
  Ag  Ag21  1  0.84515195  0.66666062  0.49140383  1
  Ag  Ag22  1  0.16700225  0.66832299  0.83235326  1
  Ag  Ag23  1  0.32370685  -0.00307091  0.65603802  1
  Ag  Ag24  1  0.00707538  -0.00843117  0.66973256  1
  Ag  Ag25  1  0.16663000  0.82797996  -0.00164135  1
  Ag  Ag26  1  0.32954967  0.51361278  0.84353152  1
  Ag  Ag27  1  0.48809893  0.50367126  -0.00018183  1
  Ag  Ag28  1  0.16469131  0.34005331  0.83878932  1
  Ag  Ag29  1  0.83680997  0.66495350  0.17381398  1
  Ag  Ag30  1  0.32429600  0.50809852  0.16279351  1
  Ag  Ag31  1  0.32831268  0.15565214  0.48884803  1
  Ag  Ag32  1  0.49613152  -0.00667310  0.83304937  1
  Ag  Ag33  1  0.32147706  0.67621196  0.33104654  1
  Ag  Ag34  1  0.49637709  0.66671862  0.15951532  1
  Ag  Ag35  1  0.00965929  0.83223663  0.82801823  1
  Ag  Ag36  1  0.84143128  0.50828409  0.33027364  1
  Ag  Ag37  1  0.67413027  0.33497542  0.67588551  1
  Ag  Ag38  1  0.16763312  0.34116734  0.16291515  1
  Ag  Ag39  1  0.84440659  0.50191480  0.00110035  1
  Ag  Ag40  1  0.16429673  0.15431851  0.66294154  1
  Ag  Ag41  1  0.16334909  0.67235968  0.49257840  1
  Ag  Ag42  1  0.16542624  0.83697493  0.65968373  1
  Ag  Ag43  1  0.66208669  0.83528266  0.83500007  1
  Ag  Ag44  1  0.16503974  0.15714837  0.33416580  1
  Ag  Ag45  1  0.65979082  0.16586190  0.16669338  1
  Ag  Ag46  1  0.17239795  -0.01223788  0.49778939  1
  Ag  Ag47  1  0.48810238  -0.00347119  0.50659083  1
  Ag  Ag48  1  0.32798394  0.15196710  0.16954817  1
  Ag  Ag49  1  0.83782416  0.50087868  0.67023970  1
  Ag  Ag50  1  0.32825598  0.83259768  0.83408625  1
  Ag  Ag51  1  0.00240577  0.34170903  -0.00484961  1
  Ag  Ag52  1  0.32912930  -0.01020302  0.34217228  1
  Ag  Ag53  1  0.84071016  0.82744529  0.33296762  1
  Sb  Sb54  1  0.50026983  0.16688970  0.00054990  1
  Sb  Sb55  1  0.50325034  0.50204573  0.67081339  1
  Sb  Sb56  1  0.00604769  0.16026588  0.50261190  1
  Sb  Sb57  1  0.16879452  -0.00830218  0.82940931  1
  Sb  Sb58  1  0.49216191  0.83037215  -0.00058301  1
  Sb  Sb59  1  0.32518969  0.67212080  0.66650979  1
  Sb  Sb60  1  0.83800983  0.33831382  0.16568881  1
  Sb  Sb61  1  0.83771580  -0.00527348  0.50179838  1
  Sb  Sb62  1  0.49376949  0.16482222  0.66706024  1
  Sb  Sb63  1  0.00442552  -0.00290215  -0.00406056  1
  Sb  Sb64  1  0.00798546  -0.00731716  0.33626262  1
  Sb  Sb65  1  0.84066186  0.33220983  0.83383257  1
  Sb  Sb66  1  0.49224799  0.16000731  0.33254135  1
  Sb  Sb67  1  0.16709198  0.66718627  0.16811723  1
  Sb  Sb68  1  0.49982311  0.33074219  0.50113243  1
  Sb  Sb69  1  0.49618152  0.33779340  0.16449532  1
  Sb  Sb70  1  0.32928901  0.33247447  0.33139603  1
  Sb  Sb71  1  0.66884892  0.49833676  0.16726397  1
  Sb  Sb72  1  0.66506709  0.16937570  0.49664547  1
  Sb  Sb73  1  0.83422640  0.16832131  0.00288672  1
  Sb  Sb74  1  0.49636587  0.33488161  0.83573822  1
  Sb  Sb75  1  0.32532994  0.66869457  0.00452518  1
  Sb  Sb76  1  0.00291769  0.33869334  0.33374287  1
  Sb  Sb77  1  0.66310899  0.83638726  0.16350629  1
  Sb  Sb78  1  0.49663653  0.50949382  0.32753715  1
  Sb  Sb79  1  0.32903127  0.33445023  0.00117184  1
  Sb  Sb80  1  0.33207293  0.50548903  0.49632402  1
  Sb  Sb81  1  0.32573734  0.15930967  0.83570337  1
  Sb  Sb82  1  0.66963344  0.66766037  -0.00126702  1
  Sb  Sb83  1  0.84249713  0.83003242  0.66636733  1
  Sb  Sb84  1  0.48935343  -0.00444829  0.16523294  1
  Sb  Sb85  1  0.32673125  0.32848548  0.66966216  1
  Sb  Sb86  1  0.16299468  0.50336445  0.66817258  1
  Sb  Sb87  1  0.49515866  0.67106094  0.50011523  1
  Sb  Sb88  1  0.66311283  -0.00077947  0.32834885  1
  Sb  Sb89  1  0.00566630  0.50403284  0.83889287  1
  Sb  Sb90  1  0.67077583  0.33427720  0.32968200  1
  Sb  Sb91  1  0.49098048  0.83461026  0.66793533  1
  Sb  Sb92  1  0.66616967  0.83024198  0.50311243  1
  Sb  Sb93  1  0.66650769  0.00131719  0.67161371  1
  Sb  Sb94  1  0.83833350  0.82992660  0.00079330  1
  Sb  Sb95  1  0.00542213  0.17201406  0.16470450  1
  Sb  Sb96  1  -0.00194174  0.50811954  0.49822406  1
  Sb  Sb97  1  0.83670574  -0.00334930  0.16508021  1
  Sb  Sb98  1  0.16516667  0.33388747  0.49960742  1
  Sb  Sb99  1  0.67396419  0.66499889  0.66762272  1
  Sb  Sb100  1  0.67126717  0.66711235  0.33434374  1
  Sb  Sb101  1  0.67166782  0.16311488  0.83601180  1
  Sb  Sb102  1  0.16643376  0.16602812  0.00015341  1
  Sb  Sb103  1  0.84099838  0.16846884  0.66427968  1
  Sb  Sb104  1  0.00793140  0.82811261  0.16733348  1
  Sb  Sb105  1  0.84074534  0.66908071  0.83407144  1
  Sb  Sb106  1  0.83426726  0.34149627  0.50093951  1
  Sb  Sb107  1  0.66398938  0.50336428  0.83378233  1
  Te  Te108  1  0.16929773  0.16329825  0.16860087  1
  Te  Te109  1  0.17058144  0.16900537  0.49902501  1
  Te  Te110  1  0.16241708  0.17133283  0.83235949  1
  Te  Te111  1  0.16649163  0.50204525  0.16707141  1
  Te  Te112  1  0.16914903  0.50323368  0.49354316  1
  Te  Te113  1  0.17086297  0.50177793  0.83216329  1
  Te  Te114  1  0.17072713  0.83569215  0.16001585  1
  Te  Te115  1  0.16591079  0.83070887  0.50258208  1
  Te  Te116  1  0.16597352  0.83276116  0.83894099  1
  Te  Te117  1  0.49810793  0.16879223  0.16753286  1
  Te  Te118  1  0.49386969  0.16022321  0.49943476  1
  Te  Te119  1  0.49995245  0.16188833  0.83331032  1
  Te  Te120  1  0.49895916  0.50490537  0.16141617  1
  Te  Te121  1  0.50419999  0.49966553  0.49877153  1
  Te  Te122  1  0.49375953  0.50135192  0.83855312  1
  Te  Te123  1  0.49633168  0.82892616  0.16797941  1
  Te  Te124  1  0.49947777  0.83785911  0.49861366  1
  Te  Te125  1  0.49760006  0.83261904  0.83433299  1
  Te  Te126  1  0.83601706  0.16534807  0.17273688  1
  Te  Te127  1  0.83285516  0.16469589  0.49213283  1
  Te  Te128  1  0.84073067  0.16065614  0.83178375  1
  Te  Te129  1  0.83413097  0.50379154  0.16659556  1
  Te  Te130  1  0.83193913  0.50521988  0.49656859  1
  Te  Te131  1  0.83189125  0.49969076  0.83476949  1
  Te  Te132  1  0.83132484  0.82853410  0.17050630  1
  Te  Te133  1  0.83252324  0.82784244  0.49569464  1
  Te  Te134  1  0.83517510  0.83664031  0.83363680  1
  Te  Te135  1  0.16961332  -0.00234126  0.00296434  1
  Te  Te136  1  0.16807792  -0.00386151  0.33599864  1
  Te  Te137  1  0.16681005  -0.00195695  0.66635772  1
  Te  Te138  1  0.16391853  0.33367613  0.00010722  1
  Te  Te139  1  0.16623152  0.33252634  0.32875902  1
  Te  Te140  1  0.16053722  0.33558591  0.66935065  1
  Te  Te141  1  0.16356166  0.66491822  -0.00296176  1
  Te  Te142  1  0.16521998  0.66913043  0.33205503  1
  Te  Te143  1  0.16155824  0.66942655  0.67004619  1
  Te  Te144  1  0.50007443  -0.00048294  -0.00405436  1
  Te  Te145  1  0.49506970  -0.00588292  0.33289434  1
  Te  Te146  1  0.49908462  0.00094550  0.66860357  1
  Te  Te147  1  0.50534286  0.33965904  -0.00076717  1
  Te  Te148  1  0.50205229  0.33488319  0.33350097  1
  Te  Te149  1  0.50582540  0.33274702  0.66747276  1
  Te  Te150  1  0.50263331  0.66271775  -0.00264532  1
  Te  Te151  1  0.49894078  0.67303004  0.33338771  1
  Te  Te152  1  0.50130468  0.66672990  0.67166998  1
  Te  Te153  1  0.83481527  -0.00038070  -0.00423857  1
  Te  Te154  1  0.83412606  0.00067869  0.33269485  1
  Te  Te155  1  0.83626036  0.00016408  0.67143054  1
  Te  Te156  1  0.83504108  0.33694591  0.00033464  1
  Te  Te157  1  0.83430578  0.33370933  0.33284474  1
  Te  Te158  1  0.83472969  0.33674702  0.66747627  1
  Te  Te159  1  0.83876157  0.66225266  0.00220207  1
  Te  Te160  1  0.83462590  0.66665138  0.33247754  1
  Te  Te161  1  0.84027881  0.66115338  0.66588617  1
  Te  Te162  1  -0.00171594  0.17158079  -0.00591764  1
  Te  Te163  1  0.00403891  0.16765562  0.33365058  1
  Te  Te164  1  0.00410458  0.16562359  0.66926912  1
  Te  Te165  1  0.00366320  0.50070021  0.00048913  1
  Te  Te166  1  0.00149882  0.50234885  0.33061292  1
  Te  Te167  1  -0.00375286  0.50131521  0.66582587  1
  Te  Te168  1  0.00557954  0.82886837  -0.00170280  1
  Te  Te169  1  0.00166704  0.82920329  0.33359926  1
  Te  Te170  1  0.00242901  0.83185246  0.66672240  1
  Te  Te171  1  0.33422210  0.16341176  0.00667662  1
  Te  Te172  1  0.32696877  0.16660279  0.33052169  1
  Te  Te173  1  0.32599568  0.16098574  0.66763606  1
  Te  Te174  1  0.32927378  0.49980642  0.00070512  1
  Te  Te175  1  0.32846850  0.50157385  0.32929286  1
  Te  Te176  1  0.33436865  0.49871411  0.66701569  1
  Te  Te177  1  0.33014427  0.83394556  -0.00463885  1
  Te  Te178  1  0.33040562  0.83313237  0.32990413  1
  Te  Te179  1  0.32784891  0.83818901  0.67412381  1
  Te  Te180  1  0.66708453  0.16633616  0.00433463  1
  Te  Te181  1  0.66411319  0.16663210  0.32763877  1
  Te  Te182  1  0.66773668  0.17381630  0.66607560  1
  Te  Te183  1  0.67118764  0.49770731  0.00056982  1
  Te  Te184  1  0.66939171  0.49938939  0.33728697  1
  Te  Te185  1  0.67021457  0.49681354  0.66511634  1
  Te  Te186  1  0.66910646  0.83757912  -0.00474607  1
  Te  Te187  1  0.67350397  0.83481916  0.33317901  1
  Te  Te188  1  0.66799856  0.83398459  0.67425706  1
  Te  Te189  1  0.00703070  -0.00004421  0.16571381  1
  Te  Te190  1  0.00361703  -0.00830000  0.50504593  1
  Te  Te191  1  0.00021254  -0.00249334  0.83174078  1
  Te  Te192  1  0.00577009  0.33966081  0.16455252  1
  Te  Te193  1  -0.00087334  0.33013302  0.50760393  1
  Te  Te194  1  0.00323569  0.33678627  0.83387368  1
  Te  Te195  1  -0.00376461  0.66484351  0.16646569  1
  Te  Te196  1  0.00145966  0.66792428  0.49844835  1
  Te  Te197  1  0.00383887  0.67111011  0.83344903  1
  Te  Te198  1  0.33107281  -0.00484741  0.16349388  1
  Te  Te199  1  0.33233659  -0.00045828  0.49933988  1
  Te  Te200  1  0.33615806  -0.00329626  0.84128045  1
  Te  Te201  1  0.32829614  0.33704386  0.16558565  1
  Te  Te202  1  0.33447399  0.33046048  0.50273210  1
  Te  Te203  1  0.32782857  0.33327931  0.83342709  1
  Te  Te204  1  0.33569096  0.66799873  0.16819528  1
  Te  Te205  1  0.32833213  0.67302182  0.49679509  1
  Te  Te206  1  0.33066833  0.66834445  0.83180122  1
  Te  Te207  1  0.66921521  0.00459392  0.16023504  1
  Te  Te208  1  0.66529773  0.00095713  0.49893809  1
  Te  Te209  1  0.66329031  -0.00151505  0.83744394  1
  Te  Te210  1  0.66577387  0.32814260  0.16145108  1
  Te  Te211  1  0.66628171  0.33797165  0.50148723  1
  Te  Te212  1  0.66618728  0.33268672  0.83538584  1
  Te  Te213  1  0.66341194  0.66757267  0.16668574  1
  Te  Te214  1  0.66519868  0.66141979  0.50237415  1
  Te  Te215  1  0.66442936  0.67259783  0.83251441  1
