# generated using pymatgen
data_AgSbTe2
_symmetry_space_group_name_H-M   'P 1'
_cell_length_a   18.33413833
_cell_length_b   18.33449566
_cell_length_c   18.33060503
_cell_angle_alpha   89.99468831
_cell_angle_beta   90.00146848
_cell_angle_gamma   89.99838216
_symmetry_Int_Tables_number   1
_chemical_formula_structural   AgSbTe2
_chemical_formula_sum   'Ag54 Sb54 Te108'
_cell_volume   6161.78115172
_cell_formula_units_Z   54
loop_
 _symmetry_equiv_pos_site_id
 _symmetry_equiv_pos_as_xyz
  1  'x, y, z'
loop_
 _atom_site_type_symbol
 _atom_site_label
 _atom_site_symmetry_multiplicity
 _atom_site_fract_x
 _atom_site_fract_y
 _atom_site_fract_z
 _atom_site_occupancy
  Ag  Ag0  1  0.66670766  0.34129903  0.67274514  1
  Ag  Ag1  1  0.00678422  0.17084716  0.16615389  1
  Ag  Ag2  1  0.66806244  0.50830360  0.51338267  1
  Ag  Ag3  1  0.32429069  0.34113835  0.00332546  1
  Ag  Ag4  1  0.49592042  0.15635251  0.67067679  1
  Ag  Ag5  1  0.33690930  0.00252694  0.67804245  1
  Ag  Ag6  1  0.16257692  0.49980163  0.00016492  1
  Ag  Ag7  1  0.32639551  0.49140555  0.16106773  1
  Ag  Ag8  1  0.33404798  0.83741431  0.83655476  1
  Ag  Ag9  1  0.00295346  0.83005123  0.83749612  1
  Ag  Ag10  1  0.33043086  0.32638471  0.32101170  1
  Ag  Ag11  1  0.65659449  -0.00484943  0.67198068  1
  Ag  Ag12  1  0.83539650  0.33781029  0.83773615  1
  Ag  Ag13  1  0.66392363  0.83384733  0.15505664  1
  Ag  Ag14  1  0.66726321  0.66670488  0.67338516  1
  Ag  Ag15  1  0.83418439  0.82642286  -0.00274095  1
  Ag  Ag16  1  0.33356272  -0.00036183  -0.00454701  1
  Ag  Ag17  1  0.16578275  0.66553105  0.50751570  1
  Ag  Ag18  1  0.50108339  0.83282960  0.33424398  1
  Ag  Ag19  1  0.49435435  -0.00780168  0.83295258  1
  Ag  Ag20  1  -0.00588447  0.50528483  0.84204133  1
  Ag  Ag21  1  0.66797828  0.66594371  -0.00891483  1
  Ag  Ag22  1  0.00804006  0.48995204  0.15376020  1
  Ag  Ag23  1  0.84214711  0.16730677  0.32509462  1
  Ag  Ag24  1  0.84139917  0.33188235  0.15449202  1
  Ag  Ag25  1  0.16538363  0.82325845  -0.00464453  1
  Ag  Ag26  1  0.17082442  0.49202993  0.31817936  1
  Ag  Ag27  1  0.17184119  0.16381342  0.66874220  1
  Ag  Ag28  1  0.16451313  0.33483124  0.84286374  1
  Ag  Ag29  1  0.82997223  0.66533024  0.50141287  1
  Ag  Ag30  1  0.00280425  0.65434273  -0.00261206  1
  Ag  Ag31  1  0.32732318  0.17275706  0.16818611  1
  Ag  Ag32  1  0.00377167  0.00097009  0.67214676  1
  Ag  Ag33  1  0.00949997  0.00275296  0.33180856  1
  Ag  Ag34  1  0.00402858  0.34141115  0.00113691  1
  Ag  Ag35  1  0.32673259  0.66229244  -0.00298764  1
  Ag  Ag36  1  0.49356162  0.50477258  0.32477261  1
  Ag  Ag37  1  0.16858290  0.67160562  0.83633452  1
  Ag  Ag38  1  0.49587427  -0.00119147  0.16056249  1
  Ag  Ag39  1  0.83451178  0.17899603  0.00242053  1
  Ag  Ag40  1  0.16671339  0.33463605  0.16059256  1
  Ag  Ag41  1  0.66546003  0.82687404  0.51478060  1
  Ag  Ag42  1  0.33130127  0.16475728  0.49405049  1
  Ag  Ag43  1  0.50488683  0.83808924  0.67509820  1
  Ag  Ag44  1  0.33168708  0.00722332  0.32929770  1
  Ag  Ag45  1  0.50638713  0.67223797  0.83592989  1
  Ag  Ag46  1  0.66084565  0.82652569  0.83294230  1
  Ag  Ag47  1  0.84650893  0.49759768  -0.00302730  1
  Ag  Ag48  1  0.17071364  0.17022612  0.33141095  1
  Ag  Ag49  1  0.66655082  0.16671148  0.83042421  1
  Ag  Ag50  1  0.49609202  0.50174577  0.00135494  1
  Ag  Ag51  1  0.67136131  0.50485020  0.83268681  1
  Ag  Ag52  1  0.82825226  0.50055433  0.68083215  1
  Ag  Ag53  1  0.17285625  -0.00158440  0.83333526  1
  Sb  Sb54  1  0.49605071  0.33168535  0.16548560  1
  Sb  Sb55  1  0.33647691  0.83638938  0.50447225  1
  Sb  Sb56  1  0.17019945  0.83788066  0.67615388  1
  Sb  Sb57  1  0.83301451  0.66140660  0.16351304  1
  Sb  Sb58  1  -0.00383841  0.83230345  0.50690489  1
  Sb  Sb59  1  0.49982920  0.67034236  0.15889987  1
  Sb  Sb60  1  0.83229431  0.00196407  0.83458635  1
  Sb  Sb61  1  0.49978818  0.33481644  0.83541385  1
  Sb  Sb62  1  0.83192436  -0.00378512  0.50120590  1
  Sb  Sb63  1  0.50192207  0.16929149  -0.00392819  1
  Sb  Sb64  1  0.66570640  0.66686635  0.33431953  1
  Sb  Sb65  1  -0.00320520  0.83573418  0.15888752  1
  Sb  Sb66  1  0.67183268  0.34022369  -0.00665830  1
  Sb  Sb67  1  0.49958061  0.33426494  0.50076328  1
  Sb  Sb68  1  0.50046019  0.66755635  0.50555594  1
  Sb  Sb69  1  0.83271315  0.16938362  0.66993271  1
  Sb  Sb70  1  0.16239336  0.49602882  0.67432950  1
  Sb  Sb71  1  0.00611113  0.32904249  0.32238742  1
  Sb  Sb72  1  0.16884022  -0.00201959  0.50495709  1
  Sb  Sb73  1  0.66152958  -0.00604265  -0.00675992  1
  Sb  Sb74  1  0.66300149  0.33392034  0.33570913  1
  Sb  Sb75  1  0.17141707  0.83556179  0.32805784  1
  Sb  Sb76  1  0.33638763  0.67138647  0.67502941  1
  Sb  Sb77  1  0.00416938  0.16573732  0.49534147  1
  Sb  Sb78  1  0.83548364  0.49468424  0.32826305  1
  Sb  Sb79  1  0.16549548  0.17188103  0.00023834  1
  Sb  Sb80  1  0.66575688  0.50263281  0.15936555  1
  Sb  Sb81  1  0.33586070  0.32702506  0.67089548  1
  Sb  Sb82  1  0.00531930  0.00115019  -0.00161359  1
  Sb  Sb83  1  0.17258291  0.00644620  0.16118228  1
  Sb  Sb84  1  -0.00313584  0.33058827  0.67700458  1
  Sb  Sb85  1  0.33702265  0.49742852  0.49201674  1
  Sb  Sb86  1  0.33261413  0.66663573  0.32705010  1
  Sb  Sb87  1  -0.00363336  0.66974208  0.67675834  1
  Sb  Sb88  1  0.16754675  0.33622962  0.49799779  1
  Sb  Sb89  1  0.66655142  0.16368880  0.16083847  1
  Sb  Sb90  1  0.82650232  0.82866223  0.67550239  1
  Sb  Sb91  1  0.66296853  0.16516490  0.50756511  1
  Sb  Sb92  1  0.49394004  0.16457018  0.33559202  1
  Sb  Sb93  1  0.00306789  0.66888819  0.32772292  1
  Sb  Sb94  1  0.33723803  0.83613020  0.15889959  1
  Sb  Sb95  1  0.83151670  0.00488524  0.16450080  1
  Sb  Sb96  1  0.49842679  -0.00156059  0.50601801  1
  Sb  Sb97  1  0.82946825  0.83723961  0.32891418  1
  Sb  Sb98  1  0.33503332  0.16151779  0.83682346  1
  Sb  Sb99  1  -0.00298927  0.50349846  0.50089632  1
  Sb  Sb100  1  -0.00132488  0.16685002  0.83845381  1
  Sb  Sb101  1  0.33235468  0.50393883  0.84103096  1
  Sb  Sb102  1  0.66188112  -0.00047951  0.33586048  1
  Sb  Sb103  1  0.49931204  0.82886943  -0.00501781  1
  Sb  Sb104  1  0.83139511  0.33661482  0.50300544  1
  Sb  Sb105  1  0.50561077  0.50204666  0.67151533  1
  Sb  Sb106  1  0.83014518  0.66056222  0.83518147  1
  Sb  Sb107  1  0.16755719  0.65865534  0.15738658  1
  Te  Te108  1  0.16704669  0.17119945  0.16826336  1
  Te  Te109  1  0.17066152  0.16618801  0.49820419  1
  Te  Te110  1  0.16618276  0.16617469  0.83124954  1
  Te  Te111  1  0.16645350  0.49636535  0.16250772  1
  Te  Te112  1  0.16661727  0.50409359  0.50411646  1
  Te  Te113  1  0.16480318  0.49726453  0.83668622  1
  Te  Te114  1  0.16603701  0.83387429  0.15813290  1
  Te  Te115  1  0.16616367  0.82618089  0.49868539  1
  Te  Te116  1  0.16800105  0.83418430  0.83621092  1
  Te  Te117  1  0.49809379  0.16003642  0.16665289  1
  Te  Te118  1  0.49412427  0.16683826  0.50728145  1
  Te  Te119  1  0.50461906  0.16523700  0.82964222  1
  Te  Te120  1  0.49846884  0.50015657  0.16567965  1
  Te  Te121  1  0.50615602  0.50162164  0.49631875  1
  Te  Te122  1  0.50293648  0.50377323  0.83741348  1
  Te  Te123  1  0.50285101  0.83659634  0.16929441  1
  Te  Te124  1  0.50436011  0.83227681  0.49666050  1
  Te  Te125  1  0.50052662  0.83311109  0.83413769  1
  Te  Te126  1  0.83144303  0.17083997  0.16486494  1
  Te  Te127  1  0.83272869  0.16692609  0.49473397  1
  Te  Te128  1  0.83034292  0.17252525  0.83670080  1
  Te  Te129  1  0.83555753  0.49394744  0.16165443  1
  Te  Te130  1  0.82898054  0.50416902  0.49584157  1
  Te  Te131  1  0.83301124  0.49831249  0.83676314  1
  Te  Te132  1  0.82787012  0.83336538  0.16078504  1
  Te  Te133  1  0.82792423  0.82770098  0.49775862  1
  Te  Te134  1  0.83549475  0.83472161  0.83863822  1
  Te  Te135  1  0.17142819  -0.00015487  -0.00537560  1
  Te  Te136  1  0.16940125  0.00246415  0.33260981  1
  Te  Te137  1  0.16957640  0.00305185  0.67045493  1
  Te  Te138  1  0.16540277  0.33279274  0.00064561  1
  Te  Te139  1  0.17075948  0.33313937  0.33212657  1
  Te  Te140  1  0.16633404  0.32673670  0.66896882  1
  Te  Te141  1  0.16589101  0.66414617  -0.00396768  1
  Te  Te142  1  0.16670701  0.66582018  0.33621419  1
  Te  Te143  1  0.16674207  0.66599296  0.67185189  1
  Te  Te144  1  0.49513655  0.00180200  -0.00274771  1
  Te  Te145  1  0.49592520  -0.00230099  0.33248183  1
  Te  Te146  1  0.49783144  -0.00175434  0.66986346  1
  Te  Te147  1  0.49351573  0.33835534  0.00069988  1
  Te  Te148  1  0.49392111  0.33860724  0.33323967  1
  Te  Te149  1  0.50508531  0.33017483  0.66823369  1
  Te  Te150  1  0.50191714  0.66273062  -0.00472302  1
  Te  Te151  1  0.49849740  0.66606069  0.33301590  1
  Te  Te152  1  0.50401949  0.67115676  0.67305002  1
  Te  Te153  1  0.83313904  -0.00285769  0.00016222  1
  Te  Te154  1  0.83398767  0.00630795  0.33312584  1
  Te  Te155  1  0.83861694  0.00047848  0.66620886  1
  Te  Te156  1  0.83290505  0.33636487  -0.00221293  1
  Te  Te157  1  0.83346729  0.32722928  0.33336673  1
  Te  Te158  1  0.82877731  0.33757695  0.67149978  1
  Te  Te159  1  0.83274816  0.66558789  0.00123157  1
  Te  Te160  1  0.83511447  0.66704743  0.33841237  1
  Te  Te161  1  0.82979899  0.66226739  0.66144002  1
  Te  Te162  1  -0.00472084  0.16754137  0.00571955  1
  Te  Te163  1  0.00352915  0.16386359  0.32937654  1
  Te  Te164  1  0.00256744  0.16216403  0.66446935  1
  Te  Te165  1  0.00196249  0.49816178  -0.00159730  1
  Te  Te166  1  0.00664216  0.50074512  0.33121760  1
  Te  Te167  1  -0.00699989  0.49980276  0.67093185  1
  Te  Te168  1  0.00024264  0.83474328  -0.00377707  1
  Te  Te169  1  -0.00013338  0.83977263  0.33218883  1
  Te  Te170  1  -0.00063416  0.83886389  0.67429235  1
  Te  Te171  1  0.33401776  0.16375838  0.00522573  1
  Te  Te172  1  0.33269795  0.16717016  0.33075701  1
  Te  Te173  1  0.33292542  0.16326415  0.66840214  1
  Te  Te174  1  0.33219589  0.50075162  0.00103810  1
  Te  Te175  1  0.33139480  0.50025041  0.32829613  1
  Te  Te176  1  0.33489352  0.49761724  0.66312979  1
  Te  Te177  1  0.33102829  0.83365769  -0.00353112  1
  Te  Te178  1  0.33859152  0.83545809  0.33330351  1
  Te  Te179  1  0.33941414  0.83901763  0.67101369  1
  Te  Te180  1  0.67119183  0.16672197  -0.00636876  1
  Te  Te181  1  0.66705997  0.16704139  0.33610713  1
  Te  Te182  1  0.66660624  0.16120257  0.66949976  1
  Te  Te183  1  0.66003951  0.50520684  -0.00368094  1
  Te  Te184  1  0.66320784  0.49892575  0.33164398  1
  Te  Te185  1  0.66709215  0.50267874  0.67034674  1
  Te  Te186  1  0.66739723  0.82969740  -0.00438373  1
  Te  Te187  1  0.66259449  0.83434837  0.33129675  1
  Te  Te188  1  0.66554755  0.83225229  0.67118120  1
  Te  Te189  1  0.00033638  0.00416733  0.17086128  1
  Te  Te190  1  0.00026257  -0.00194605  0.49817923  1
  Te  Te191  1  0.00338916  -0.00139760  0.83122524  1
  Te  Te192  1  0.00124959  0.33172748  0.16285233  1
  Te  Te193  1  -0.00059198  0.33451923  0.50195978  1
  Te  Te194  1  0.00128509  0.33428587  0.83922866  1
  Te  Te195  1  -0.00037262  0.66452135  0.15939853  1
  Te  Te196  1  0.00177499  0.66835192  0.49999188  1
  Te  Te197  1  0.00330704  0.66755668  0.83830311  1
  Te  Te198  1  0.33614008  0.00153429  0.16751660  1
  Te  Te199  1  0.33257059  0.00370586  0.49315230  1
  Te  Te200  1  0.33390228  -0.00045907  0.83480226  1
  Te  Te201  1  0.33324094  0.33272643  0.16422354  1
  Te  Te202  1  0.33269409  0.32712424  0.49881473  1
  Te  Te203  1  0.32806938  0.33257116  0.83913717  1
  Te  Te204  1  0.33432446  0.66227602  0.15845454  1
  Te  Te205  1  0.32803808  0.66678038  0.50159776  1
  Te  Te206  1  0.33089250  0.67104707  0.83773600  1
  Te  Te207  1  0.65980235  -0.00449266  0.16664498  1
  Te  Te208  1  0.66621915  -0.00538843  0.50772529  1
  Te  Te209  1  0.66557245  0.00035979  0.82994823  1
  Te  Te210  1  0.67071112  0.33250477  0.16663920  1
  Te  Te211  1  0.66680129  0.33754784  0.50775106  1
  Te  Te212  1  0.66673461  0.33342819  0.83058272  1
  Te  Te213  1  0.66703446  0.67346488  0.16347485  1
  Te  Te214  1  0.66640663  0.66731469  0.50033492  1
  Te  Te215  1  0.66783668  0.66641419  0.83349246  1
