# generated using pymatgen
data_AgSbTe2
_symmetry_space_group_name_H-M   'P 1'
_cell_length_a   18.31290582
_cell_length_b   18.30859498
_cell_length_c   18.31142389
_cell_angle_alpha   89.99949747
_cell_angle_beta   90.00093424
_cell_angle_gamma   89.99995313
_symmetry_Int_Tables_number   1
_chemical_formula_structural   AgSbTe2
_chemical_formula_sum   'Ag54 Sb54 Te108'
_cell_volume   6139.51967255
_cell_formula_units_Z   54
loop_
 _symmetry_equiv_pos_site_id
 _symmetry_equiv_pos_as_xyz
  1  'x, y, z'
loop_
 _atom_site_type_symbol
 _atom_site_label
 _atom_site_symmetry_multiplicity
 _atom_site_fract_x
 _atom_site_fract_y
 _atom_site_fract_z
 _atom_site_occupancy
  Ag  Ag0  1  0.32327024  0.83491685  0.49925332  1
  Ag  Ag1  1  0.33393125  0.49353716  0.17000192  1
  Ag  Ag2  1  0.83655802  0.82465934  0.33239391  1
  Ag  Ag3  1  -0.00011000  0.66286429  0.33660474  1
  Ag  Ag4  1  0.66150594  0.49965229  0.17422432  1
  Ag  Ag5  1  0.00481240  0.83051936  0.49970208  1
  Ag  Ag6  1  0.66093673  0.33948337  0.66384982  1
  Ag  Ag7  1  0.50434450  0.49629367  0.66495307  1
  Ag  Ag8  1  0.82860056  0.50394345  0.33322614  1
  Ag  Ag9  1  0.66423428  0.49603546  0.50279349  1
  Ag  Ag10  1  0.66142369  0.17651715  0.49902698  1
  Ag  Ag11  1  0.83356420  0.83078786  -0.00167584  1
  Ag  Ag12  1  0.82905944  -0.00770818  0.83219245  1
  Ag  Ag13  1  0.50805153  0.49891483  0.33681825  1
  Ag  Ag14  1  0.00577389  0.66756681  -0.01029792  1
  Ag  Ag15  1  0.00792373  0.16894895  0.17525290  1
  Ag  Ag16  1  0.16165548  0.82387540  -0.00130806  1
  Ag  Ag17  1  0.33454191  0.17006250  0.82781734  1
  Ag  Ag18  1  0.00575038  0.33874684  0.33588712  1
  Ag  Ag19  1  0.66818533  -0.00021361  0.66959599  1
  Ag  Ag20  1  0.16797617  0.16594319  0.65599232  1
  Ag  Ag21  1  0.67345046  0.66066314  0.33838990  1
  Ag  Ag22  1  0.82550383  0.34049017  0.82686639  1
  Ag  Ag23  1  0.16376633  0.67134623  0.50094670  1
  Ag  Ag24  1  0.33377526  0.17375502  0.17110282  1
  Ag  Ag25  1  0.16365805  0.83029966  0.65935100  1
  Ag  Ag26  1  0.82480944  0.33401297  0.50231197  1
  Ag  Ag27  1  0.50002472  0.16674412  0.00278107  1
  Ag  Ag28  1  0.34024256  0.33139820  0.66091949  1
  Ag  Ag29  1  0.16618073  0.17559156  0.33756105  1
  Ag  Ag30  1  0.33203231  0.16930502  0.49873771  1
  Ag  Ag31  1  0.32334144  0.66606330  -0.00236756  1
  Ag  Ag32  1  0.00900671  0.16599791  0.49667126  1
  Ag  Ag33  1  0.66600745  -0.00207135  -0.00336832  1
  Ag  Ag34  1  0.16188696  0.82497648  0.34128970  1
  Ag  Ag35  1  0.16197709  0.66570033  0.83414844  1
  Ag  Ag36  1  0.66939727  0.66119656  0.66952880  1
  Ag  Ag37  1  -0.00260232  -0.00687442  0.66577580  1
  Ag  Ag38  1  0.66149202  0.16679348  0.17167928  1
  Ag  Ag39  1  0.66884699  0.50505897  0.82661381  1
  Ag  Ag40  1  0.66982390  0.82538323  0.83385880  1
  Ag  Ag41  1  0.16964383  0.33353958  0.17326421  1
  Ag  Ag42  1  0.50358641  0.00532156  0.17074129  1
  Ag  Ag43  1  0.83229759  0.66450427  0.83244807  1
  Ag  Ag44  1  0.00161733  0.66854824  0.66881318  1
  Ag  Ag45  1  0.50339441  0.00962359  0.49851208  1
  Ag  Ag46  1  0.16699671  0.50666870  0.00296510  1
  Ag  Ag47  1  0.66713819  0.83289055  0.16312096  1
  Ag  Ag48  1  0.50483821  0.33857870  0.82418972  1
  Ag  Ag49  1  0.32725492  0.33396615  0.33611392  1
  Ag  Ag50  1  0.51041876  0.65852887  0.83232924  1
  Ag  Ag51  1  -0.00627144  0.50487233  0.83161766  1
  Ag  Ag52  1  0.16485213  0.49652477  0.33117005  1
  Ag  Ag53  1  0.50457613  0.33113338  0.50465594  1
  Sb  Sb54  1  0.66891658  0.66973574  -0.00545496  1
  Sb  Sb55  1  0.66524283  0.33105067  -0.00430961  1
  Sb  Sb56  1  0.49779780  0.49718973  -0.00045141  1
  Sb  Sb57  1  0.83659542  0.66262621  0.50129534  1
  Sb  Sb58  1  0.33453428  0.83306230  0.17013039  1
  Sb  Sb59  1  -0.00182088  0.83635450  0.17148610  1
  Sb  Sb60  1  0.00362533  0.17088306  0.83006578  1
  Sb  Sb61  1  0.33467579  0.83341344  0.83035532  1
  Sb  Sb62  1  -0.00521412  -0.00587861  -0.00519297  1
  Sb  Sb63  1  0.00056567  0.33778974  0.00302387  1
  Sb  Sb64  1  0.49809980  0.66275653  0.50338381  1
  Sb  Sb65  1  0.66914383  0.83135077  0.50107218  1
  Sb  Sb66  1  0.17016258  0.50105192  0.66428129  1
  Sb  Sb67  1  0.16793447  0.33829030  0.83510821  1
  Sb  Sb68  1  0.82601639  0.50024828  0.66534779  1
  Sb  Sb69  1  0.50042719  0.82713288  0.33510246  1
  Sb  Sb70  1  0.83700980  0.83206348  0.66694785  1
  Sb  Sb71  1  0.16673222  0.66175752  0.16553570  1
  Sb  Sb72  1  0.33545308  0.00504376  0.66442606  1
  Sb  Sb73  1  0.50270377  0.66738908  0.16303777  1
  Sb  Sb74  1  0.17147779  0.16762537  0.00295477  1
  Sb  Sb75  1  0.49734981  0.33115058  0.17064457  1
  Sb  Sb76  1  0.33004207  0.66029517  0.33156227  1
  Sb  Sb77  1  0.16822063  0.33385902  0.49472667  1
  Sb  Sb78  1  0.66274864  0.16897702  0.82957640  1
  Sb  Sb79  1  0.83476390  0.16696861  0.66584808  1
  Sb  Sb80  1  0.83026099  0.00288838  0.50360846  1
  Sb  Sb81  1  0.33431232  0.33636693  0.00118379  1
  Sb  Sb82  1  0.50295143  0.83526560  -0.00072797  1
  Sb  Sb83  1  0.66726872  0.34016078  0.34023706  1
  Sb  Sb84  1  0.16919405  0.00493052  0.16698109  1
  Sb  Sb85  1  0.00294113  0.49803097  0.16882792  1
  Sb  Sb86  1  0.82775347  -0.00076474  0.16353648  1
  Sb  Sb87  1  0.33718777  0.49593790  0.49460960  1
  Sb  Sb88  1  0.66593822  -0.00224043  0.33353306  1
  Sb  Sb89  1  0.49823116  0.82948475  0.66568114  1
  Sb  Sb90  1  0.83157787  0.66641146  0.16603104  1
  Sb  Sb91  1  0.49679172  0.17343686  0.66633333  1
  Sb  Sb92  1  -0.00294418  0.50064823  0.49996958  1
  Sb  Sb93  1  0.33582775  0.49807706  0.83617536  1
  Sb  Sb94  1  0.16183127  -0.00518777  0.83024661  1
  Sb  Sb95  1  -0.00059751  0.33622013  0.66168351  1
  Sb  Sb96  1  0.49631422  0.17382371  0.33349908  1
  Sb  Sb97  1  0.33815655  -0.00270368  0.00100131  1
  Sb  Sb98  1  0.83630082  0.50574244  -0.00003780  1
  Sb  Sb99  1  0.82871520  0.16276400  -0.00066350  1
  Sb  Sb100  1  0.50634368  0.00208684  0.83094745  1
  Sb  Sb101  1  0.83438626  0.33458228  0.16948483  1
  Sb  Sb102  1  0.83709036  0.16975224  0.33532886  1
  Sb  Sb103  1  0.16881570  -0.00243011  0.50096727  1
  Sb  Sb104  1  0.00034420  -0.00107528  0.34012003  1
  Sb  Sb105  1  0.33251302  0.66269130  0.66891216  1
  Sb  Sb106  1  0.33400439  0.00566907  0.33496758  1
  Sb  Sb107  1  -0.00475211  0.82427705  0.82846920  1
  Te  Te108  1  0.16931396  0.17067357  0.16879083  1
  Te  Te109  1  0.16774646  0.16570092  0.49774298  1
  Te  Te110  1  0.17260015  0.16712948  0.83324241  1
  Te  Te111  1  0.16826416  0.49553703  0.16895625  1
  Te  Te112  1  0.16745616  0.50678062  0.49504341  1
  Te  Te113  1  0.16586930  0.50502502  0.83517266  1
  Te  Te114  1  0.16769304  0.83602386  0.16661345  1
  Te  Te115  1  0.16520944  0.83434123  0.50049519  1
  Te  Te116  1  0.16725313  0.82762557  0.83519372  1
  Te  Te117  1  0.50046297  0.16582366  0.16743865  1
  Te  Te118  1  0.50016982  0.16966083  0.49923895  1
  Te  Te119  1  0.49521700  0.16949194  0.83625171  1
  Te  Te120  1  0.50024157  0.49896715  0.16879816  1
  Te  Te121  1  0.50329620  0.49744909  0.49976946  1
  Te  Te122  1  0.50321129  0.49891801  0.83282450  1
  Te  Te123  1  0.50508397  0.83925582  0.16742782  1
  Te  Te124  1  0.49614046  0.83456391  0.49963263  1
  Te  Te125  1  0.50548806  0.82891495  0.83263596  1
  Te  Te126  1  0.82774106  0.16715267  0.16723865  1
  Te  Te127  1  0.82972600  0.17144411  0.49922262  1
  Te  Te128  1  0.83500831  0.17198826  0.83376765  1
  Te  Te129  1  0.82636559  0.49899201  0.17153155  1
  Te  Te130  1  0.82849869  0.49568544  0.49414049  1
  Te  Te131  1  0.83139623  0.50150683  0.83465309  1
  Te  Te132  1  0.82831267  0.83341567  0.16642128  1
  Te  Te133  1  0.83865814  0.83422614  0.49429412  1
  Te  Te134  1  0.83013217  0.83083804  0.83305386  1
  Te  Te135  1  0.16563820  -0.00732524  -0.00137783  1
  Te  Te136  1  0.16670628  -0.00223638  0.33266140  1
  Te  Te137  1  0.16329705  0.00002612  0.66752158  1
  Te  Te138  1  0.16629020  0.33938786  0.00600256  1
  Te  Te139  1  0.16604220  0.33357835  0.33357496  1
  Te  Te140  1  0.16981375  0.33023662  0.66633712  1
  Te  Te141  1  0.16389457  0.66573434  0.00148767  1
  Te  Te142  1  0.16489111  0.66691865  0.33392445  1
  Te  Te143  1  0.16546696  0.66694725  0.66607316  1
  Te  Te144  1  0.50510935  0.00367969  0.00124726  1
  Te  Te145  1  0.50035811  -0.00215873  0.33518322  1
  Te  Te146  1  0.50550076  -0.00144875  0.66193033  1
  Te  Te147  1  0.49926359  0.32729573  -0.00738954  1
  Te  Te148  1  0.49537583  0.34010720  0.33774705  1
  Te  Te149  1  0.50074070  0.33462237  0.66573897  1
  Te  Te150  1  0.49742042  0.66642887  -0.00684972  1
  Te  Te151  1  0.50276620  0.65869702  0.33315781  1
  Te  Te152  1  0.50190371  0.66124859  0.67141780  1
  Te  Te153  1  0.82736180  -0.00620796  -0.00604873  1
  Te  Te154  1  0.83325624  -0.00947928  0.33258560  1
  Te  Te155  1  0.83101573  -0.00007013  0.67132592  1
  Te  Te156  1  0.83416203  0.33322691  -0.00751164  1
  Te  Te157  1  0.83879878  0.33734262  0.33660178  1
  Te  Te158  1  0.83009272  0.33361262  0.66595485  1
  Te  Te159  1  0.83875966  0.67210989  -0.00489731  1
  Te  Te160  1  0.83393250  0.66515002  0.33474056  1
  Te  Te161  1  0.83397230  0.66651503  0.67074190  1
  Te  Te162  1  0.00039316  0.16498312  0.00355310  1
  Te  Te163  1  0.00283188  0.16609187  0.33521895  1
  Te  Te164  1  0.00647332  0.16765573  0.66318267  1
  Te  Te165  1  0.00394027  0.50563989  -0.00117047  1
  Te  Te166  1  0.00340242  0.50128978  0.33334165  1
  Te  Te167  1  0.00152685  0.50547413  0.67037540  1
  Te  Te168  1  -0.00065966  0.82900237  0.00271211  1
  Te  Te169  1  0.00082440  0.83227177  0.33661096  1
  Te  Te170  1  0.00319529  0.83088040  0.66309202  1
  Te  Te171  1  0.33728253  0.16575216  0.00601036  1
  Te  Te172  1  0.32976213  0.17156920  0.33416536  1
  Te  Te173  1  0.32942316  0.16956571  0.66248191  1
  Te  Te174  1  0.32942300  0.50366802  0.00478946  1
  Te  Te175  1  0.32827820  0.49584403  0.32920094  1
  Te  Te176  1  0.34031381  0.49351196  0.66630988  1
  Te  Te177  1  0.32976683  0.82875932  0.00044193  1
  Te  Te178  1  0.32880942  0.83253933  0.33815643  1
  Te  Te179  1  0.32627942  0.83394118  0.66171291  1
  Te  Te180  1  0.66269810  0.16312153  0.00306914  1
  Te  Te181  1  0.66732639  0.16705211  0.33465324  1
  Te  Te182  1  0.66720941  0.16597126  0.66131525  1
  Te  Te183  1  0.66702361  0.50062956  0.00197786  1
  Te  Te184  1  0.66741702  0.50074337  0.33389766  1
  Te  Te185  1  0.66496344  0.50038443  0.66677791  1
  Te  Te186  1  0.66889717  0.83602739  0.00002225  1
  Te  Te187  1  0.66855780  0.82654610  0.33199684  1
  Te  Te188  1  0.66697385  0.83132442  0.66991497  1
  Te  Te189  1  -0.00053289  0.00875613  0.16496930  1
  Te  Te190  1  -0.00209760  0.00375885  0.50741525  1
  Te  Te191  1  -0.00728807  0.00177502  0.82616168  1
  Te  Te192  1  0.00188437  0.32829612  0.17083151  1
  Te  Te193  1  -0.00280933  0.33003179  0.49576347  1
  Te  Te194  1  -0.00222631  0.34081231  0.83276112  1
  Te  Te195  1  -0.00115318  0.66728956  0.17430195  1
  Te  Te196  1  0.00220270  0.66787410  0.49903155  1
  Te  Te197  1  0.00049422  0.66511053  0.83120930  1
  Te  Te198  1  0.34091905  0.00506354  0.16655127  1
  Te  Te199  1  0.34126389  0.00311004  0.50036330  1
  Te  Te200  1  0.33402026  0.00731426  0.83326079  1
  Te  Te201  1  0.33193703  0.33384076  0.16841850  1
  Te  Te202  1  0.33438947  0.33048086  0.49954920  1
  Te  Te203  1  0.33574614  0.32995734  0.83134205  1
  Te  Te204  1  0.33548947  0.66361249  0.16105576  1
  Te  Te205  1  0.32810157  0.67065551  0.50038709  1
  Te  Te206  1  0.32892069  0.66769754  0.83686369  1
  Te  Te207  1  0.66313885  0.00130164  0.16635336  1
  Te  Te208  1  0.66297644  -0.00040337  0.50412177  1
  Te  Te209  1  0.66976784  0.00179070  0.83151825  1
  Te  Te210  1  0.66628998  0.33257871  0.16624491  1
  Te  Te211  1  0.66591871  0.33504814  0.50163468  1
  Te  Te212  1  0.66605373  0.33567568  0.82884406  1
  Te  Te213  1  0.66607876  0.66596661  0.16980919  1
  Te  Te214  1  0.66652006  0.66235917  0.50310775  1
  Te  Te215  1  0.66835694  0.66602280  0.83239119  1
