# generated using pymatgen
data_AgSbTe2
_symmetry_space_group_name_H-M   'P 1'
_cell_length_a   18.32780790
_cell_length_b   18.32812858
_cell_length_c   18.33573195
_cell_angle_alpha   89.99800541
_cell_angle_beta   89.99873358
_cell_angle_gamma   90.00121349
_symmetry_Int_Tables_number   1
_chemical_formula_structural   AgSbTe2
_chemical_formula_sum   'Ag54 Sb54 Te108'
_cell_volume   6159.23675042
_cell_formula_units_Z   54
loop_
 _symmetry_equiv_pos_site_id
 _symmetry_equiv_pos_as_xyz
  1  'x, y, z'
loop_
 _atom_site_type_symbol
 _atom_site_label
 _atom_site_symmetry_multiplicity
 _atom_site_fract_x
 _atom_site_fract_y
 _atom_site_fract_z
 _atom_site_occupancy
  Ag  Ag0  1  0.82893188  0.83471450  0.33211452  1
  Ag  Ag1  1  0.00438633  0.49970212  0.83413688  1
  Ag  Ag2  1  0.83255402  0.33110538  0.83855542  1
  Ag  Ag3  1  0.65793642  0.16807188  0.49695720  1
  Ag  Ag4  1  0.49908297  0.00171070  0.17371543  1
  Ag  Ag5  1  0.50070767  0.84342549  0.34095993  1
  Ag  Ag6  1  0.83257000  0.00177845  0.82816197  1
  Ag  Ag7  1  0.16978197  0.49917682  0.66835130  1
  Ag  Ag8  1  -0.00124808  0.17190324  0.16846949  1
  Ag  Ag9  1  0.49564791  0.66876577  0.50448955  1
  Ag  Ag10  1  0.33805920  0.83380757  0.50299318  1
  Ag  Ag11  1  0.17573933  0.17120334  0.33288461  1
  Ag  Ag12  1  0.33572509  0.32982757  0.34105458  1
  Ag  Ag13  1  0.34472761  0.01112550  0.33361957  1
  Ag  Ag14  1  0.17291621  0.33368414  0.49054959  1
  Ag  Ag15  1  0.16493069  0.33690460  0.16895875  1
  Ag  Ag16  1  0.83752400  0.82666970  0.00127525  1
  Ag  Ag17  1  0.66849491  0.00114922  0.66318649  1
  Ag  Ag18  1  0.33397166  0.33391612  0.66469428  1
  Ag  Ag19  1  -0.00273714  0.66598973  0.32000687  1
  Ag  Ag20  1  0.32863609  0.50743142  0.83620796  1
  Ag  Ag21  1  0.49728062  0.17015060  0.00191500  1
  Ag  Ag22  1  0.00645206  0.66370088  0.00292117  1
  Ag  Ag23  1  0.82839830  0.16302318  0.66245824  1
  Ag  Ag24  1  0.32448661  0.66103095  -0.01020540  1
  Ag  Ag25  1  0.67629839  0.33144460  0.00381601  1
  Ag  Ag26  1  0.33200392  0.33787258  -0.00069860  1
  Ag  Ag27  1  0.82911104  0.17293269  0.33854891  1
  Ag  Ag28  1  -0.00041588  0.49803799  0.50168131  1
  Ag  Ag29  1  -0.00280998  0.82581585  0.16466412  1
  Ag  Ag30  1  0.83695684  0.49693451  0.00487772  1
  Ag  Ag31  1  0.49831156  0.16321002  0.33684827  1
  Ag  Ag32  1  0.66700343  0.83448500  0.83077380  1
  Ag  Ag33  1  0.16295787  0.82556331  0.00110996  1
  Ag  Ag34  1  0.33048077  0.49719770  0.15918022  1
  Ag  Ag35  1  0.67222541  0.32578503  0.33339981  1
  Ag  Ag36  1  0.84230325  0.66219428  0.16648349  1
  Ag  Ag37  1  0.49845697  0.83743304  0.66133637  1
  Ag  Ag38  1  -0.01255446  0.00004035  0.66785610  1
  Ag  Ag39  1  0.66324101  0.00749184  0.33730695  1
  Ag  Ag40  1  -0.00551317  0.34032565  0.00214638  1
  Ag  Ag41  1  0.16200349  0.66246799  0.16052854  1
  Ag  Ag42  1  0.33579953  0.17119627  0.82677355  1
  Ag  Ag43  1  0.83350902  0.33112017  0.49064771  1
  Ag  Ag44  1  0.83562932  0.48988413  0.32422525  1
  Ag  Ag45  1  0.50035897  0.16203115  0.65608862  1
  Ag  Ag46  1  0.48687908  0.67043408  0.82856973  1
  Ag  Ag47  1  0.34075496  0.17300099  0.49782508  1
  Ag  Ag48  1  0.49287388  0.32787459  0.49740676  1
  Ag  Ag49  1  0.82759978  0.84091239  0.67199398  1
  Ag  Ag50  1  0.33869623  0.82152480  0.82909637  1
  Ag  Ag51  1  0.17405305  0.66532398  0.84297551  1
  Ag  Ag52  1  0.33390390  0.66257540  0.67711311  1
  Ag  Ag53  1  0.83893087  0.33668543  0.16776843  1
  Sb  Sb54  1  0.16823463  0.33857516  0.83644700  1
  Sb  Sb55  1  0.32973458  0.82909443  0.16582398  1
  Sb  Sb56  1  0.50039259  0.83547137  -0.00197672  1
  Sb  Sb57  1  0.49828892  0.49546073  -0.00111097  1
  Sb  Sb58  1  0.66684500  0.50229171  0.83436869  1
  Sb  Sb59  1  0.66406591  0.16415997  0.82902513  1
  Sb  Sb60  1  0.16295111  0.50461615  -0.00309516  1
  Sb  Sb61  1  0.66957197  0.16795713  0.17457352  1
  Sb  Sb62  1  0.17062432  0.82926505  0.66970944  1
  Sb  Sb63  1  0.49947032  0.33429156  0.83052583  1
  Sb  Sb64  1  0.83615917  0.66664112  0.83786137  1
  Sb  Sb65  1  -0.00034338  0.17304285  0.49638361  1
  Sb  Sb66  1  0.83072315  0.66275409  0.49559777  1
  Sb  Sb67  1  0.66735567  0.49721253  0.16638010  1
  Sb  Sb68  1  -0.00289238  -0.00125008  -0.00157064  1
  Sb  Sb69  1  0.16970854  0.17177308  0.66225254  1
  Sb  Sb70  1  0.67034537  0.66768118  0.33445888  1
  Sb  Sb71  1  0.50261127  0.49636199  0.33505871  1
  Sb  Sb72  1  0.16837131  0.83573549  0.32970448  1
  Sb  Sb73  1  0.66176397  0.83965246  0.50199305  1
  Sb  Sb74  1  0.16951669  0.00659129  0.49910969  1
  Sb  Sb75  1  0.33519709  0.00061056  0.00295537  1
  Sb  Sb76  1  0.00184920  0.50065859  0.16357711  1
  Sb  Sb77  1  0.17079716  0.16831436  0.00398672  1
  Sb  Sb78  1  0.66745553  0.00416719  -0.00010338  1
  Sb  Sb79  1  0.00213809  0.33100855  0.66920182  1
  Sb  Sb80  1  0.50215917  -0.00207339  0.83354778  1
  Sb  Sb81  1  0.49654563  0.67126947  0.16694508  1
  Sb  Sb82  1  0.00171799  0.17113253  0.83623007  1
  Sb  Sb83  1  0.66423744  0.32615964  0.66404000  1
  Sb  Sb84  1  0.49373627  0.50038821  0.66657848  1
  Sb  Sb85  1  0.33692927  0.00120919  0.66293887  1
  Sb  Sb86  1  0.33041909  0.66267265  0.33322929  1
  Sb  Sb87  1  0.65996797  0.67483460  0.66754630  1
  Sb  Sb88  1  0.33150648  0.17367294  0.17192237  1
  Sb  Sb89  1  0.83205220  0.00552712  0.50433132  1
  Sb  Sb90  1  0.66783089  0.66431028  -0.00082515  1
  Sb  Sb91  1  0.82963494  0.17132484  0.00092240  1
  Sb  Sb92  1  0.00372241  0.66821230  0.67080139  1
  Sb  Sb93  1  0.32992918  0.49552643  0.50182253  1
  Sb  Sb94  1  0.17017423  0.66147239  0.49953204  1
  Sb  Sb95  1  0.49809532  0.32868545  0.17036029  1
  Sb  Sb96  1  0.16162367  0.49516086  0.33413767  1
  Sb  Sb97  1  0.83108933  0.00136664  0.16608344  1
  Sb  Sb98  1  0.67187409  0.83412169  0.16509335  1
  Sb  Sb99  1  0.00102880  0.82780759  0.49752135  1
  Sb  Sb100  1  0.16876426  0.00181323  0.16823031  1
  Sb  Sb101  1  0.67054910  0.49171897  0.49857527  1
  Sb  Sb102  1  -0.00187939  0.33641290  0.32862218  1
  Sb  Sb103  1  -0.00098864  0.82893958  0.83745783  1
  Sb  Sb104  1  0.83922076  0.49714198  0.66844898  1
  Sb  Sb105  1  0.49927424  0.00464781  0.49513608  1
  Sb  Sb106  1  -0.00393145  -0.00080556  0.33615152  1
  Sb  Sb107  1  0.16502662  -0.00466579  0.83275978  1
  Te  Te108  1  0.16187634  0.16986991  0.17137801  1
  Te  Te109  1  0.16886894  0.17430696  0.49472566  1
  Te  Te110  1  0.17303094  0.16514335  0.83343905  1
  Te  Te111  1  0.17099855  0.49844456  0.16833352  1
  Te  Te112  1  0.16239771  0.49399582  0.50364023  1
  Te  Te113  1  0.16767321  0.50304678  0.83020152  1
  Te  Te114  1  0.16132627  0.83044908  0.16343890  1
  Te  Te115  1  0.17361186  0.83274631  0.49965277  1
  Te  Te116  1  0.17075792  0.82821374  0.83680778  1
  Te  Te117  1  0.49973446  0.16330738  0.17022951  1
  Te  Te118  1  0.49831675  0.16879040  0.49896548  1
  Te  Te119  1  0.49656334  0.16616576  0.83189898  1
  Te  Te120  1  0.49200039  0.50211141  0.16696685  1
  Te  Te121  1  0.50192666  0.49902470  0.50032567  1
  Te  Te122  1  0.49566092  0.50668403  0.83291238  1
  Te  Te123  1  0.50051402  0.83694908  0.17019207  1
  Te  Te124  1  0.49866577  0.83136120  0.50085467  1
  Te  Te125  1  0.49906391  0.83202963  0.83293050  1
  Te  Te126  1  0.83728435  0.16968321  0.16832267  1
  Te  Te127  1  0.83570304  0.17133470  0.50065016  1
  Te  Te128  1  0.83363381  0.16788179  0.83112854  1
  Te  Te129  1  0.83255549  0.49909348  0.16560997  1
  Te  Te130  1  0.83785613  0.49473502  0.50006736  1
  Te  Te131  1  0.83493585  0.49641354  0.83627407  1
  Te  Te132  1  0.83646293  0.83412711  0.16741205  1
  Te  Te133  1  0.83320950  0.83176093  0.49654089  1
  Te  Te134  1  0.83352157  0.83255637  0.83109320  1
  Te  Te135  1  0.16616385  -0.00980319  0.00069649  1
  Te  Te136  1  0.16834216  0.00758318  0.33337404  1
  Te  Te137  1  0.16217458  0.00012488  0.66693569  1
  Te  Te138  1  0.17027803  0.33211385  0.00418163  1
  Te  Te139  1  0.16631481  0.33107898  0.33079024  1
  Te  Te140  1  0.17117445  0.33663515  0.66743856  1
  Te  Te141  1  0.16648588  0.66760747  0.00283188  1
  Te  Te142  1  0.16034068  0.66648162  0.33014794  1
  Te  Te143  1  0.17173832  0.66270223  0.66677591  1
  Te  Te144  1  0.50139282  0.00707400  0.00597585  1
  Te  Te145  1  0.50131755  0.00083469  0.33322246  1
  Te  Te146  1  0.50382530  -0.00016414  0.66811058  1
  Te  Te147  1  0.49490689  0.32944585  0.00027777  1
  Te  Te148  1  0.49948126  0.33160375  0.33624605  1
  Te  Te149  1  0.49644825  0.32952662  0.66283756  1
  Te  Te150  1  0.49738954  0.66593583  -0.00129777  1
  Te  Te151  1  0.50080570  0.66815825  0.33517754  1
  Te  Te152  1  0.49455427  0.66942930  0.66685487  1
  Te  Te153  1  0.83170934  -0.00544985  -0.00574545  1
  Te  Te154  1  0.82900720  -0.00225363  0.33322902  1
  Te  Te155  1  0.82931832  0.00058488  0.66726499  1
  Te  Te156  1  0.83474838  0.33287243  0.00066328  1
  Te  Te157  1  0.83445379  0.33252868  0.33106291  1
  Te  Te158  1  0.83288397  0.32998836  0.66970100  1
  Te  Te159  1  0.83330388  0.66663719  0.00333006  1
  Te  Te160  1  0.83575832  0.67241661  0.33079940  1
  Te  Te161  1  0.83342229  0.67206109  0.66590654  1
  Te  Te162  1  0.00133124  0.16988920  0.00506619  1
  Te  Te163  1  -0.00697708  0.16530747  0.32980474  1
  Te  Te164  1  -0.00266493  0.16285858  0.66753416  1
  Te  Te165  1  -0.00289024  0.50097030  -0.00355880  1
  Te  Te166  1  -0.00500471  0.50492094  0.33746337  1
  Te  Te167  1  0.00564105  0.50008853  0.67080988  1
  Te  Te168  1  -0.00182050  0.83175395  0.00264897  1
  Te  Te169  1  -0.00197238  0.83085078  0.33024935  1
  Te  Te170  1  -0.00237270  0.83636277  0.66620810  1
  Te  Te171  1  0.33626123  0.16834904  -0.00010078  1
  Te  Te172  1  0.33563364  0.16976784  0.33421246  1
  Te  Te173  1  0.33532847  0.16854469  0.66314878  1
  Te  Te174  1  0.33371274  0.50034770  -0.00276769  1
  Te  Te175  1  0.33335234  0.49260266  0.33158832  1
  Te  Te176  1  0.33055666  0.49821088  0.66863080  1
  Te  Te177  1  0.33335987  0.83205407  -0.00346111  1
  Te  Te178  1  0.33627633  0.83194651  0.33514563  1
  Te  Te179  1  0.33609077  0.83421055  0.66699853  1
  Te  Te180  1  0.66102018  0.17247297  -0.00138105  1
  Te  Te181  1  0.66791690  0.16783361  0.33562491  1
  Te  Te182  1  0.66661273  0.16251680  0.66295123  1
  Te  Te183  1  0.67278775  0.49256652  -0.00055834  1
  Te  Te184  1  0.67459799  0.49430298  0.33281945  1
  Te  Te185  1  0.66770911  0.50076538  0.66748614  1
  Te  Te186  1  0.67049166  0.83406123  -0.00533282  1
  Te  Te187  1  0.66533130  0.83535542  0.33362746  1
  Te  Te188  1  0.66564108  0.83920693  0.66827506  1
  Te  Te189  1  0.00006451  -0.00020219  0.16702799  1
  Te  Te190  1  0.00175520  -0.00242292  0.50627842  1
  Te  Te191  1  -0.00428129  0.00118712  0.82972552  1
  Te  Te192  1  0.00097745  0.33398611  0.16301323  1
  Te  Te193  1  -0.00173332  0.33791703  0.50190369  1
  Te  Te194  1  -0.00171672  0.33701189  0.83854441  1
  Te  Te195  1  -0.00008066  0.66591995  0.16317109  1
  Te  Te196  1  0.00062336  0.65975357  0.50211427  1
  Te  Te197  1  0.00431185  0.66139786  0.83850600  1
  Te  Te198  1  0.33689991  -0.00133560  0.17254715  1
  Te  Te199  1  0.33195044  -0.00161442  0.49500681  1
  Te  Te200  1  0.33307540  0.00605251  0.83327558  1
  Te  Te201  1  0.33189500  0.33610180  0.16222694  1
  Te  Te202  1  0.33243744  0.33305236  0.50041803  1
  Te  Te203  1  0.33430922  0.33131035  0.83338958  1
  Te  Te204  1  0.32882242  0.66163174  0.16394768  1
  Te  Te205  1  0.33637727  0.66754386  0.50030385  1
  Te  Te206  1  0.33065169  0.66548827  0.83318660  1
  Te  Te207  1  0.66192869  0.00047880  0.17185543  1
  Te  Te208  1  0.66732037  0.00667713  0.49886123  1
  Te  Te209  1  0.67128965  -0.00378690  0.83170816  1
  Te  Te210  1  0.67061624  0.33331640  0.16679914  1
  Te  Te211  1  0.67069285  0.32766576  0.49723641  1
  Te  Te212  1  0.66996391  0.33388323  0.83604345  1
  Te  Te213  1  0.67385816  0.66554210  0.16680271  1
  Te  Te214  1  0.65802816  0.66510925  0.50047005  1
  Te  Te215  1  0.66287078  0.67234856  0.83366818  1
