# generated using pymatgen
data_AgSbTe2
_symmetry_space_group_name_H-M   'P 1'
_cell_length_a   18.34408202
_cell_length_b   18.33346181
_cell_length_c   18.34248657
_cell_angle_alpha   89.99783813
_cell_angle_beta   90.00046508
_cell_angle_gamma   89.99914298
_symmetry_Int_Tables_number   1
_chemical_formula_structural   AgSbTe2
_chemical_formula_sum   'Ag54 Sb54 Te108'
_cell_volume   6168.77132330
_cell_formula_units_Z   54
loop_
 _symmetry_equiv_pos_site_id
 _symmetry_equiv_pos_as_xyz
  1  'x, y, z'
loop_
 _atom_site_type_symbol
 _atom_site_label
 _atom_site_symmetry_multiplicity
 _atom_site_fract_x
 _atom_site_fract_y
 _atom_site_fract_z
 _atom_site_occupancy
  Ag  Ag0  1  0.33564859  0.00525932  0.00487509  1
  Ag  Ag1  1  0.83338013  0.49431326  0.32810044  1
  Ag  Ag2  1  0.33537198  0.01069427  0.33378089  1
  Ag  Ag3  1  0.49519293  0.49807771  0.32955567  1
  Ag  Ag4  1  0.00610170  0.17192364  0.49978841  1
  Ag  Ag5  1  0.17247869  0.50040922  0.33394850  1
  Ag  Ag6  1  0.49854036  0.01567622  0.83306936  1
  Ag  Ag7  1  0.00040515  0.17390138  0.83412743  1
  Ag  Ag8  1  0.00129269  0.00904990  0.65870854  1
  Ag  Ag9  1  0.33655196  0.33292905  0.33914942  1
  Ag  Ag10  1  0.00139942  0.49414423  0.83311761  1
  Ag  Ag11  1  0.83026693  0.83371118  0.00448547  1
  Ag  Ag12  1  0.50007424  0.65503693  0.16499673  1
  Ag  Ag13  1  0.65547769  0.49394013  0.83337900  1
  Ag  Ag14  1  0.00417567  0.49227838  0.49866244  1
  Ag  Ag15  1  0.49656998  0.65303836  0.49928283  1
  Ag  Ag16  1  0.49563230  0.33429485  0.49771261  1
  Ag  Ag17  1  0.34288189  0.49536998  0.16905942  1
  Ag  Ag18  1  0.33525280  0.17427364  0.16942890  1
  Ag  Ag19  1  0.66953097  0.16805863  0.16311415  1
  Ag  Ag20  1  0.83727531  0.17264339  0.32474340  1
  Ag  Ag21  1  0.33367939  0.17253128  0.50247738  1
  Ag  Ag22  1  0.49765032  0.65158246  0.83800966  1
  Ag  Ag23  1  0.33443721  0.49125559  0.50132455  1
  Ag  Ag24  1  0.33627755  0.33279041  0.65848365  1
  Ag  Ag25  1  0.16878796  0.49543277  0.66410202  1
  Ag  Ag26  1  0.34106014  0.17262210  0.82623495  1
  Ag  Ag27  1  0.17290113  0.17361353  0.66469974  1
  Ag  Ag28  1  0.16873483  0.65957145  0.16644626  1
  Ag  Ag29  1  0.83300551  0.65413935  0.16634394  1
  Ag  Ag30  1  -0.00799855  0.33360706  -0.00001621  1
  Ag  Ag31  1  0.66563772  0.83730542  0.16500509  1
  Ag  Ag32  1  0.49457902  0.00819402  0.49888291  1
  Ag  Ag33  1  0.50042561  0.33584579  0.16413324  1
  Ag  Ag34  1  0.00165175  0.00682422  0.33732201  1
  Ag  Ag35  1  0.17113950  0.82704045  0.00284493  1
  Ag  Ag36  1  -0.00791482  0.16877763  0.17033299  1
  Ag  Ag37  1  0.65181600  0.49735388  0.50303283  1
  Ag  Ag38  1  0.49115300  0.16692499  0.67130182  1
  Ag  Ag39  1  0.33559840  0.65167274  0.66569580  1
  Ag  Ag40  1  0.84206467  0.49902284  0.67094411  1
  Ag  Ag41  1  0.65703646  0.17260679  0.83919820  1
  Ag  Ag42  1  0.66904840  0.33321191  0.00154933  1
  Ag  Ag43  1  0.83412831  0.17511952  0.00466639  1
  Ag  Ag44  1  0.49689654  0.49943975  0.00182743  1
  Ag  Ag45  1  0.65850650  0.00634688  0.33295227  1
  Ag  Ag46  1  0.49932200  0.33268161  0.83646321  1
  Ag  Ag47  1  0.17390781  0.00468026  0.49786556  1
  Ag  Ag48  1  -0.00078964  0.65343520  0.33032772  1
  Ag  Ag49  1  0.83203041  0.49401499  0.00355641  1
  Ag  Ag50  1  0.82757005  0.33499943  0.16444400  1
  Ag  Ag51  1  0.17457594  0.50026590  0.00253874  1
  Ag  Ag52  1  0.33731842  0.49338659  0.82930175  1
  Ag  Ag53  1  0.50050897  0.82617271  0.00174331  1
  Sb  Sb54  1  0.50140617  0.17257724  -0.00186736  1
  Sb  Sb55  1  0.65896553  0.65934720  0.66637455  1
  Sb  Sb56  1  0.49917433  0.17157685  0.33389808  1
  Sb  Sb57  1  0.16917119  0.00406393  0.83168723  1
  Sb  Sb58  1  0.33561007  0.66343298  -0.00143266  1
  Sb  Sb59  1  0.17254670  0.33531139  0.83443439  1
  Sb  Sb60  1  0.83264881  0.00685289  0.16718960  1
  Sb  Sb61  1  0.16990829  0.66299532  0.49646328  1
  Sb  Sb62  1  0.16565394  0.17161801  -0.00243028  1
  Sb  Sb63  1  0.66095587  0.33639300  0.67173578  1
  Sb  Sb64  1  0.83068437  0.65920988  0.49514407  1
  Sb  Sb65  1  0.82819980  0.33477722  0.83947222  1
  Sb  Sb66  1  -0.00026319  0.65920461  0.00315800  1
  Sb  Sb67  1  0.17114467  0.65992081  0.83692188  1
  Sb  Sb68  1  0.66472148  0.65816693  0.00182485  1
  Sb  Sb69  1  0.16768454  0.83023043  0.33041079  1
  Sb  Sb70  1  0.17010565  0.33694331  0.16574214  1
  Sb  Sb71  1  0.83464151  0.82781795  0.67288416  1
  Sb  Sb72  1  0.83675878  0.17382969  0.66775056  1
  Sb  Sb73  1  0.66792545  0.00322623  0.66399335  1
  Sb  Sb74  1  0.66325052  0.49529398  0.16465363  1
  Sb  Sb75  1  0.00279134  0.00707414  0.00183649  1
  Sb  Sb76  1  0.00417124  0.66140568  0.66206162  1
  Sb  Sb77  1  0.83227721  0.83351430  0.32764037  1
  Sb  Sb78  1  0.66242026  0.17088660  0.49895059  1
  Sb  Sb79  1  -0.00327257  0.83411869  0.16571118  1
  Sb  Sb80  1  0.33174654  0.00793252  0.66497126  1
  Sb  Sb81  1  0.49205514  0.49281133  0.66801984  1
  Sb  Sb82  1  0.00005185  0.49520792  0.16597603  1
  Sb  Sb83  1  0.82836483  0.33676164  0.49509677  1
  Sb  Sb84  1  0.00538446  0.33165658  0.67014742  1
  Sb  Sb85  1  0.66265110  0.00545834  0.00253330  1
  Sb  Sb86  1  0.17226639  0.33274576  0.50012703  1
  Sb  Sb87  1  0.33523589  0.83386430  0.83563266  1
  Sb  Sb88  1  0.49899323  0.83740084  0.67121095  1
  Sb  Sb89  1  0.83330203  0.00365549  0.49659687  1
  Sb  Sb90  1  0.00065663  0.83389066  0.83655223  1
  Sb  Sb91  1  0.82840439  0.65835912  0.83931810  1
  Sb  Sb92  1  0.33611253  0.82963332  0.16472174  1
  Sb  Sb93  1  0.00292663  0.33394649  0.33148615  1
  Sb  Sb94  1  0.33305464  0.65811367  0.33406662  1
  Sb  Sb95  1  -0.00006940  0.83539065  0.49829761  1
  Sb  Sb96  1  0.16822944  -0.00034640  0.16943808  1
  Sb  Sb97  1  0.16630321  0.16953269  0.33604525  1
  Sb  Sb98  1  0.66788383  0.66303185  0.32953473  1
  Sb  Sb99  1  0.33510379  0.83476772  0.49954742  1
  Sb  Sb100  1  0.49923155  0.00447847  0.16588081  1
  Sb  Sb101  1  0.16909331  0.83390992  0.66951332  1
  Sb  Sb102  1  0.66348365  0.83039860  0.49337934  1
  Sb  Sb103  1  0.66309078  0.83341899  0.84211587  1
  Sb  Sb104  1  0.33756874  0.33278181  0.00089230  1
  Sb  Sb105  1  0.83056863  0.00427491  0.83462513  1
  Sb  Sb106  1  0.66117191  0.33140136  0.32719482  1
  Sb  Sb107  1  0.49895229  0.82958560  0.32787721  1
  Te  Te108  1  0.17328814  0.16756617  0.16633007  1
  Te  Te109  1  0.16686585  0.16521144  0.50083351  1
  Te  Te110  1  0.16215687  0.16734985  0.82918751  1
  Te  Te111  1  0.16533894  0.50133308  0.16557833  1
  Te  Te112  1  0.16715277  0.50059835  0.49880795  1
  Te  Te113  1  0.16472363  0.50030898  0.83544046  1
  Te  Te114  1  0.16764055  0.82725500  0.16121571  1
  Te  Te115  1  0.16695715  0.83920835  0.50080217  1
  Te  Te116  1  0.16729603  0.83261232  0.84234762  1
  Te  Te117  1  0.49670565  0.17311622  0.16714070  1
  Te  Te118  1  0.49802892  0.16743215  0.49996250  1
  Te  Te119  1  0.49923259  0.17116321  0.83460200  1
  Te  Te120  1  0.50232916  0.49763143  0.16594910  1
  Te  Te121  1  0.49610779  0.49639783  0.50493984  1
  Te  Te122  1  0.49824428  0.49596621  0.82933237  1
  Te  Te123  1  0.50289883  0.83012820  0.16179503  1
  Te  Te124  1  0.50178018  0.83939108  0.49905961  1
  Te  Te125  1  0.50070060  0.83216539  0.84115543  1
  Te  Te126  1  0.83334212  0.16922847  0.16578392  1
  Te  Te127  1  0.83534927  0.16855448  0.49846269  1
  Te  Te128  1  0.83898201  0.16729019  0.83650809  1
  Te  Te129  1  0.83169559  0.49602978  0.16632958  1
  Te  Te130  1  0.84423116  0.50057132  0.49178344  1
  Te  Te131  1  0.84029969  0.50038013  0.83805344  1
  Te  Te132  1  0.82943215  0.83119116  0.16311690  1
  Te  Te133  1  0.83096153  0.83084489  0.50233164  1
  Te  Te134  1  0.83156575  0.83126296  0.84119967  1
  Te  Te135  1  0.17284302  0.00027330  0.00056805  1
  Te  Te136  1  0.16576523  -0.00145145  0.33709240  1
  Te  Te137  1  0.16180652  -0.00040611  0.66404334  1
  Te  Te138  1  0.15666813  0.34095986  -0.00003163  1
  Te  Te139  1  0.17500895  0.34212696  0.33277571  1
  Te  Te140  1  0.17251319  0.33343204  0.66817077  1
  Te  Te141  1  0.16604144  0.66318213  0.00469190  1
  Te  Te142  1  0.16337261  0.66322439  0.32884051  1
  Te  Te143  1  0.17329732  0.66477238  0.66634258  1
  Te  Te144  1  0.49556377  0.00051612  -0.00123504  1
  Te  Te145  1  0.49824588  -0.00103356  0.33419403  1
  Te  Te146  1  0.50149455  0.00595142  0.66649242  1
  Te  Te147  1  0.50217764  0.33887311  0.00124453  1
  Te  Te148  1  0.49682623  0.33846071  0.33179813  1
  Te  Te149  1  0.49731597  0.32608478  0.66764022  1
  Te  Te150  1  0.50002444  0.66121217  0.00001239  1
  Te  Te151  1  0.50019110  0.66138464  0.33297077  1
  Te  Te152  1  0.49501230  0.67231212  0.66411812  1
  Te  Te153  1  0.83379555  -0.00203085  -0.00024437  1
  Te  Te154  1  0.83875841  0.00208038  0.33301063  1
  Te  Te155  1  0.83910510  -0.00347183  0.66682652  1
  Te  Te156  1  0.83146681  0.33249099  0.00187411  1
  Te  Te157  1  0.83171262  0.33172201  0.32710862  1
  Te  Te158  1  0.83272117  0.34237480  0.66293847  1
  Te  Te159  1  0.83348315  0.66513681  0.00664093  1
  Te  Te160  1  0.83637030  0.66448646  0.32759006  1
  Te  Te161  1  0.83561209  0.65831943  0.66683630  1
  Te  Te162  1  -0.00160539  0.17003125  -0.00091843  1
  Te  Te163  1  -0.00021577  0.16659025  0.33439729  1
  Te  Te164  1  -0.00010261  0.16617980  0.66480624  1
  Te  Te165  1  -0.00380466  0.49634885  -0.00111826  1
  Te  Te166  1  -0.00156835  0.49869412  0.33425134  1
  Te  Te167  1  0.00449431  0.50016352  0.66559762  1
  Te  Te168  1  -0.00001635  0.83456555  -0.00001827  1
  Te  Te169  1  0.00047044  0.84003577  0.33285882  1
  Te  Te170  1  -0.00013993  0.83858101  0.66753100  1
  Te  Te171  1  0.33204895  0.16475075  0.00009232  1
  Te  Te172  1  0.33281258  0.17051033  0.33455386  1
  Te  Te173  1  0.33170466  0.16808865  0.66620164  1
  Te  Te174  1  0.33472374  0.49859941  0.00123894  1
  Te  Te175  1  0.33553290  0.49951811  0.33251080  1
  Te  Te176  1  0.33130602  0.49469327  0.66667192  1
  Te  Te177  1  0.33404092  0.83886155  0.00138173  1
  Te  Te178  1  0.33253812  0.84673520  0.33146085  1
  Te  Te179  1  0.33374246  0.82575612  0.66759322  1
  Te  Te180  1  0.67027477  0.16875768  -0.00050625  1
  Te  Te181  1  0.67075855  0.16430410  0.33193967  1
  Te  Te182  1  0.66723569  0.16761831  0.67146044  1
  Te  Te183  1  0.66568987  0.49532881  -0.00368021  1
  Te  Te184  1  0.66770037  0.49883300  0.33910586  1
  Te  Te185  1  0.67764717  0.50120660  0.66698841  1
  Te  Te186  1  0.66479235  0.83700939  0.00588629  1
  Te  Te187  1  0.66621873  0.84187770  0.32630747  1
  Te  Te188  1  0.66882914  0.83308426  0.66726020  1
  Te  Te189  1  0.00121175  0.00742996  0.16926373  1
  Te  Te190  1  -0.00073571  0.00142741  0.49989047  1
  Te  Te191  1  -0.00021727  0.00227523  0.83239188  1
  Te  Te192  1  -0.00190271  0.32664675  0.16508221  1
  Te  Te193  1  -0.00224872  0.33169231  0.50101381  1
  Te  Te194  1  -0.00134409  0.33479212  0.83521036  1
  Te  Te195  1  -0.00174337  0.66866122  0.17021364  1
  Te  Te196  1  0.00071344  0.66608239  0.49352652  1
  Te  Te197  1  -0.00080251  0.66283103  0.83169382  1
  Te  Te198  1  0.33331442  0.00514733  0.16792662  1
  Te  Te199  1  0.33333168  0.00155626  0.49853145  1
  Te  Te200  1  0.33810356  0.00433204  0.83227065  1
  Te  Te201  1  0.33693653  0.33538464  0.16634462  1
  Te  Te202  1  0.33418058  0.33204364  0.49935231  1
  Te  Te203  1  0.33808613  0.33234046  0.83532501  1
  Te  Te204  1  0.33512157  0.66014245  0.16650217  1
  Te  Te205  1  0.33749171  0.66650373  0.50087044  1
  Te  Te206  1  0.33762695  0.66171708  0.83090420  1
  Te  Te207  1  0.66549984  0.00631847  0.17096972  1
  Te  Te208  1  0.66259308  0.00132878  0.49387131  1
  Te  Te209  1  0.65975133  0.00457776  0.83150023  1
  Te  Te210  1  0.66404640  0.32899791  0.16375247  1
  Te  Te211  1  0.65968495  0.33890459  0.50083716  1
  Te  Te212  1  0.66246643  0.33311952  0.83731228  1
  Te  Te213  1  0.66378476  0.67011812  0.16677356  1
  Te  Te214  1  0.66019878  0.66090810  0.49904439  1
  Te  Te215  1  0.65989330  0.66147890  0.83328113  1
