# generated using pymatgen
data_AgSbTe2
_symmetry_space_group_name_H-M   'P 1'
_cell_length_a   18.31823103
_cell_length_b   18.32351860
_cell_length_c   18.32205608
_cell_angle_alpha   90.00108544
_cell_angle_beta   90.00322282
_cell_angle_gamma   90.00190055
_symmetry_Int_Tables_number   1
_chemical_formula_structural   AgSbTe2
_chemical_formula_sum   'Ag54 Sb54 Te108'
_cell_volume   6149.87958408
_cell_formula_units_Z   54
loop_
 _symmetry_equiv_pos_site_id
 _symmetry_equiv_pos_as_xyz
  1  'x, y, z'
loop_
 _atom_site_type_symbol
 _atom_site_label
 _atom_site_symmetry_multiplicity
 _atom_site_fract_x
 _atom_site_fract_y
 _atom_site_fract_z
 _atom_site_occupancy
  Ag  Ag0  1  0.00192733  0.16591325  0.16582670  1
  Ag  Ag1  1  0.66488125  0.83152093  0.83276348  1
  Ag  Ag2  1  0.34062378  0.49094640  0.17611853  1
  Ag  Ag3  1  0.00085559  0.83061650  0.16015948  1
  Ag  Ag4  1  -0.00557989  0.66914531  0.67531953  1
  Ag  Ag5  1  0.65545268  0.33244688  0.00158160  1
  Ag  Ag6  1  0.49192564  0.00055233  0.50227414  1
  Ag  Ag7  1  0.49433964  0.34374869  0.49545242  1
  Ag  Ag8  1  0.00280865  0.34185721  0.33232710  1
  Ag  Ag9  1  0.67325300  0.66433184  0.66988092  1
  Ag  Ag10  1  0.34267872  0.49590665  0.49395704  1
  Ag  Ag11  1  -0.00169895  0.50898359  0.82903134  1
  Ag  Ag12  1  0.83363326  0.49748941  0.33430645  1
  Ag  Ag13  1  0.83125289  0.50499392  0.66170996  1
  Ag  Ag14  1  0.66336311  0.16434083  0.83581616  1
  Ag  Ag15  1  0.50504199  0.66479240  0.82861321  1
  Ag  Ag16  1  0.16831848  0.15719143  0.67137724  1
  Ag  Ag17  1  0.17820117  0.33500319  0.49864163  1
  Ag  Ag18  1  0.33397867  0.00398155  0.34045538  1
  Ag  Ag19  1  0.49729588  0.17119186  0.00017117  1
  Ag  Ag20  1  0.49532570  0.33326495  0.16343901  1
  Ag  Ag21  1  0.83294450  0.17051087  0.00582355  1
  Ag  Ag22  1  0.17111948  -0.00170337  0.82940972  1
  Ag  Ag23  1  0.33437497  0.17175757  0.16903595  1
  Ag  Ag24  1  0.33283285  0.33662360  0.33163591  1
  Ag  Ag25  1  0.83029218  0.33794925  0.16835429  1
  Ag  Ag26  1  0.84240921  0.82201502  0.66972495  1
  Ag  Ag27  1  0.49629100  0.65541732  0.50442773  1
  Ag  Ag28  1  0.83749224  0.17818308  0.32427132  1
  Ag  Ag29  1  0.49616854  0.00921899  0.16326281  1
  Ag  Ag30  1  0.50243086  0.50291953  0.65545613  1
  Ag  Ag31  1  0.83709936  0.65707736  0.16431185  1
  Ag  Ag32  1  0.17121398  0.16829419  -0.00153244  1
  Ag  Ag33  1  -0.00034433  0.66727652  -0.00429076  1
  Ag  Ag34  1  0.65522592  0.50018287  0.49746823  1
  Ag  Ag35  1  0.16635850  0.83389649  -0.00371842  1
  Ag  Ag36  1  -0.00010509  0.50120994  0.49970156  1
  Ag  Ag37  1  0.33312938  0.83940988  0.49766811  1
  Ag  Ag38  1  0.49412953  0.83763250  -0.00337261  1
  Ag  Ag39  1  -0.00054856  0.82793905  0.83048667  1
  Ag  Ag40  1  0.66279231  0.49754204  0.17122395  1
  Ag  Ag41  1  0.01103701  -0.01183368  0.66846970  1
  Ag  Ag42  1  0.16646698  0.49572727  -0.00038863  1
  Ag  Ag43  1  0.33442524  0.16753203  0.49336624  1
  Ag  Ag44  1  0.00229409  0.66052316  0.33280572  1
  Ag  Ag45  1  0.33108839  -0.00007896  0.66140235  1
  Ag  Ag46  1  0.16994898  0.83294781  0.33969312  1
  Ag  Ag47  1  0.50013155  0.33415663  0.84318535  1
  Ag  Ag48  1  0.33725766  0.33174525  0.01054262  1
  Ag  Ag49  1  0.83686308  0.66677322  0.83034125  1
  Ag  Ag50  1  0.49140019  0.49836561  0.34225544  1
  Ag  Ag51  1  0.33190051  0.65713231  0.33537753  1
  Ag  Ag52  1  0.49537695  -0.00132512  0.83460872  1
  Ag  Ag53  1  0.16233065  0.83868410  0.67007913  1
  Sb  Sb54  1  0.83671781  0.49799156  0.00268437  1
  Sb  Sb55  1  0.66486492  0.17398885  0.16132708  1
  Sb  Sb56  1  0.33499233  0.00434561  0.00080489  1
  Sb  Sb57  1  0.65819594  0.17401902  0.50399911  1
  Sb  Sb58  1  0.00268612  -0.00418258  -0.00370425  1
  Sb  Sb59  1  0.00707134  0.82724034  0.50467891  1
  Sb  Sb60  1  0.00111216  0.33884750  0.66093118  1
  Sb  Sb61  1  0.66917732  0.82725635  0.16077645  1
  Sb  Sb62  1  0.16365437  0.67175917  0.83309772  1
  Sb  Sb63  1  0.65747290  0.00298953  0.33299821  1
  Sb  Sb64  1  0.83863839  0.16973334  0.66816779  1
  Sb  Sb65  1  0.66365881  0.33773281  0.32780526  1
  Sb  Sb66  1  0.83047644  0.33760368  0.49281896  1
  Sb  Sb67  1  0.00630413  -0.00174186  0.33709357  1
  Sb  Sb68  1  0.33418781  0.32994318  0.65981435  1
  Sb  Sb69  1  0.16088818  0.66727992  0.16676381  1
  Sb  Sb70  1  0.16875255  0.16467619  0.33213592  1
  Sb  Sb71  1  0.17139568  0.00066403  0.16253061  1
  Sb  Sb72  1  0.83326614  -0.00491488  0.83258374  1
  Sb  Sb73  1  0.00651453  0.17121813  0.49635611  1
  Sb  Sb74  1  0.17021488  0.33328007  0.16970568  1
  Sb  Sb75  1  0.17295411  0.00271640  0.50669618  1
  Sb  Sb76  1  0.33221603  0.49937388  0.83140784  1
  Sb  Sb77  1  0.82972646  0.33763967  0.83934786  1
  Sb  Sb78  1  0.66326416  0.34011422  0.67164244  1
  Sb  Sb79  1  0.17113722  0.66262187  0.49874708  1
  Sb  Sb80  1  0.00279969  0.33579432  0.00602984  1
  Sb  Sb81  1  0.33327595  0.66946754  0.66077235  1
  Sb  Sb82  1  0.66895245  0.50239049  0.83267534  1
  Sb  Sb83  1  0.84238550  0.82644240  0.33701925  1
  Sb  Sb84  1  0.49420169  0.82908445  0.33127054  1
  Sb  Sb85  1  0.66678004  0.66304285  0.33795856  1
  Sb  Sb86  1  0.50305431  0.66130092  0.16628123  1
  Sb  Sb87  1  0.66257040  -0.00585812  0.66863450  1
  Sb  Sb88  1  0.33064696  0.66275877  0.00469685  1
  Sb  Sb89  1  -0.00203206  0.16511317  0.83822256  1
  Sb  Sb90  1  0.33172766  0.83462959  0.83031269  1
  Sb  Sb91  1  0.00023756  0.50030773  0.16824263  1
  Sb  Sb92  1  0.49623080  0.49615125  0.00029834  1
  Sb  Sb93  1  0.16903580  0.50147585  0.33105315  1
  Sb  Sb94  1  0.66265074  0.00565420  -0.00163434  1
  Sb  Sb95  1  0.83273689  0.66283353  0.50426376  1
  Sb  Sb96  1  0.49475197  0.16892956  0.67107193  1
  Sb  Sb97  1  0.83023680  0.00268142  0.16687369  1
  Sb  Sb98  1  0.49897696  0.17331655  0.32900648  1
  Sb  Sb99  1  0.16607057  0.50216528  0.66779983  1
  Sb  Sb100  1  0.32884110  0.83393746  0.17111396  1
  Sb  Sb101  1  0.49674879  0.82936224  0.67134621  1
  Sb  Sb102  1  0.82976548  0.00012955  0.50042611  1
  Sb  Sb103  1  0.83549142  0.83360305  -0.00473076  1
  Sb  Sb104  1  0.17063662  0.32973177  0.83160376  1
  Sb  Sb105  1  0.65883168  0.82573143  0.50661781  1
  Sb  Sb106  1  0.33735268  0.16645315  0.83577513  1
  Sb  Sb107  1  0.66937183  0.66182862  -0.00514105  1
  Te  Te108  1  0.16747495  0.16617815  0.16198956  1
  Te  Te109  1  0.17216264  0.17247073  0.50138721  1
  Te  Te110  1  0.16629046  0.16274078  0.83460127  1
  Te  Te111  1  0.17264401  0.50052763  0.15962503  1
  Te  Te112  1  0.16175504  0.49543887  0.50076256  1
  Te  Te113  1  0.16213366  0.49927423  0.83712586  1
  Te  Te114  1  0.16099685  0.83447760  0.15913051  1
  Te  Te115  1  0.17302845  0.83271709  0.50037213  1
  Te  Te116  1  0.16435236  0.83677819  0.83391541  1
  Te  Te117  1  0.49853830  0.16896381  0.16341915  1
  Te  Te118  1  0.49487759  0.16369708  0.50041813  1
  Te  Te119  1  0.50260253  0.16792646  0.83640150  1
  Te  Te120  1  0.50026354  0.49683695  0.16723093  1
  Te  Te121  1  0.49977342  0.49952296  0.49929495  1
  Te  Te122  1  0.50066529  0.49955346  0.83217150  1
  Te  Te123  1  0.50119208  0.83328029  0.16116136  1
  Te  Te124  1  0.49396217  0.83840452  0.49986507  1
  Te  Te125  1  0.49894737  0.83483479  0.83574603  1
  Te  Te126  1  0.83215198  0.16776476  0.16617700  1
  Te  Te127  1  0.83158187  0.16868364  0.49737144  1
  Te  Te128  1  0.82840158  0.16762061  0.83765254  1
  Te  Te129  1  0.83419509  0.49851965  0.16958828  1
  Te  Te130  1  0.83915457  0.50003865  0.49848785  1
  Te  Te131  1  0.83702171  0.50450226  0.83109453  1
  Te  Te132  1  0.83885969  0.83224066  0.16691011  1
  Te  Te133  1  0.83067045  0.83317398  0.50734152  1
  Te  Te134  1  0.83588195  0.82930263  0.83006211  1
  Te  Te135  1  0.16834899  -0.00014455  -0.00652316  1
  Te  Te136  1  0.17306679  -0.00567240  0.33255053  1
  Te  Te137  1  0.16856713  -0.00066439  0.66818770  1
  Te  Te138  1  0.17173272  0.33075598  -0.00097411  1
  Te  Te139  1  0.16684304  0.33199826  0.33778921  1
  Te  Te140  1  0.16637268  0.32983206  0.66239130  1
  Te  Te141  1  0.16267519  0.67054813  -0.00030562  1
  Te  Te142  1  0.16675070  0.67219485  0.33275847  1
  Te  Te143  1  0.16135316  0.67232326  0.66611104  1
  Te  Te144  1  0.49897801  -0.00033545  -0.00256724  1
  Te  Te145  1  0.49320232  -0.00040201  0.33248287  1
  Te  Te146  1  0.49545854  -0.00015263  0.66864822  1
  Te  Te147  1  0.49713687  0.33356910  0.00142713  1
  Te  Te148  1  0.49743923  0.33808105  0.33130233  1
  Te  Te149  1  0.49960413  0.33789870  0.66571317  1
  Te  Te150  1  0.50002149  0.67099014  -0.00350077  1
  Te  Te151  1  0.49826333  0.66107086  0.33561521  1
  Te  Te152  1  0.49839191  0.66445884  0.66732669  1
  Te  Te153  1  0.83354258  0.00986327  0.00050818  1
  Te  Te154  1  0.83334343  0.00144876  0.33396763  1
  Te  Te155  1  0.83602224  -0.00033050  0.66600931  1
  Te  Te156  1  0.83499912  0.32905005  0.00633194  1
  Te  Te157  1  0.83377161  0.33614185  0.32865311  1
  Te  Te158  1  0.83259229  0.34033242  0.66735289  1
  Te  Te159  1  0.83784598  0.66718515  -0.00151829  1
  Te  Te160  1  0.83722124  0.66177225  0.33113539  1
  Te  Te161  1  0.83466620  0.66314548  0.66718763  1
  Te  Te162  1  0.00321491  0.16648359  0.00491173  1
  Te  Te163  1  -0.00187838  0.16603050  0.32914390  1
  Te  Te164  1  0.00535720  0.16647059  0.66778995  1
  Te  Te165  1  0.00424902  0.50389413  -0.00158013  1
  Te  Te166  1  0.00294752  0.49965930  0.33386705  1
  Te  Te167  1  -0.00028184  0.50457135  0.66645464  1
  Te  Te168  1  0.00080963  0.82963268  -0.00087187  1
  Te  Te169  1  0.00683168  0.83045256  0.33338228  1
  Te  Te170  1  0.00112898  0.83081296  0.66697095  1
  Te  Te171  1  0.33433703  0.16918782  0.00273315  1
  Te  Te172  1  0.33393591  0.16878792  0.33164032  1
  Te  Te173  1  0.32860382  0.16247342  0.66401573  1
  Te  Te174  1  0.32754059  0.49605011  0.00069882  1
  Te  Te175  1  0.33097535  0.49859732  0.33409458  1
  Te  Te176  1  0.33612870  0.50050318  0.66130258  1
  Te  Te177  1  0.33181779  0.83221542  0.00211433  1
  Te  Te178  1  0.33019431  0.83282158  0.33626218  1
  Te  Te179  1  0.32886939  0.83702824  0.66127294  1
  Te  Te180  1  0.66219602  0.17130887  -0.00359779  1
  Te  Te181  1  0.67585145  0.16763389  0.33504115  1
  Te  Te182  1  0.66917153  0.16582993  0.67279700  1
  Te  Te183  1  0.66799546  0.49408446  0.00449704  1
  Te  Te184  1  0.67133448  0.50060002  0.33353933  1
  Te  Te185  1  0.66628236  0.50472304  0.66550655  1
  Te  Te186  1  0.66397122  0.83295937  -0.00668510  1
  Te  Te187  1  0.66981736  0.83300855  0.33330867  1
  Te  Te188  1  0.66942504  0.82749584  0.67215416  1
  Te  Te189  1  -0.00064325  0.00175269  0.16780918  1
  Te  Te190  1  -0.00093665  0.00077021  0.50676556  1
  Te  Te191  1  0.00171370  -0.00298667  0.82837945  1
  Te  Te192  1  -0.00192566  0.32965073  0.17186887  1
  Te  Te193  1  -0.00129884  0.33728282  0.49326961  1
  Te  Te194  1  0.00023905  0.33771900  0.83305003  1
  Te  Te195  1  -0.00390026  0.66735935  0.16940047  1
  Te  Te196  1  0.00093799  0.66242165  0.49372667  1
  Te  Te197  1  0.00085244  0.66778655  0.83443633  1
  Te  Te198  1  0.33825153  0.00308190  0.17004949  1
  Te  Te199  1  0.33358760  0.00222938  0.50033165  1
  Te  Te200  1  0.33429989  0.00082843  0.82922821  1
  Te  Te201  1  0.33324127  0.33231263  0.16975170  1
  Te  Te202  1  0.33573312  0.33375877  0.49810571  1
  Te  Te203  1  0.33921871  0.33362131  0.83756383  1
  Te  Te204  1  0.33420102  0.66362342  0.17337601  1
  Te  Te205  1  0.33673049  0.66233850  0.49588031  1
  Te  Te206  1  0.34215500  0.66596428  0.83449505  1
  Te  Te207  1  0.65674055  -0.00247524  0.16673285  1
  Te  Te208  1  0.65655125  0.00038481  0.50099613  1
  Te  Te209  1  0.66227294  -0.00283717  0.83263450  1
  Te  Te210  1  0.66638316  0.33766482  0.16242504  1
  Te  Te211  1  0.65855313  0.33999904  0.50089703  1
  Te  Te212  1  0.66218415  0.33089326  0.83886761  1
  Te  Te213  1  0.67497122  0.66034003  0.16612703  1
  Te  Te214  1  0.65975262  0.66109247  0.50592806  1
  Te  Te215  1  0.66593905  0.66910096  0.83039445  1
