# generated using pymatgen
data_AgSbTe2
_symmetry_space_group_name_H-M   'P 1'
_cell_length_a   18.32419683
_cell_length_b   18.32557756
_cell_length_c   18.32164818
_cell_angle_alpha   90.00027243
_cell_angle_beta   90.00216111
_cell_angle_gamma   89.99844842
_symmetry_Int_Tables_number   1
_chemical_formula_structural   AgSbTe2
_chemical_formula_sum   'Ag54 Sb54 Te108'
_cell_volume   6152.43675614
_cell_formula_units_Z   54
loop_
 _symmetry_equiv_pos_site_id
 _symmetry_equiv_pos_as_xyz
  1  'x, y, z'
loop_
 _atom_site_type_symbol
 _atom_site_label
 _atom_site_symmetry_multiplicity
 _atom_site_fract_x
 _atom_site_fract_y
 _atom_site_fract_z
 _atom_site_occupancy
  Ag  Ag0  1  0.16883876  0.32915027  0.16365796  1
  Ag  Ag1  1  0.17188479  0.83434728  0.33054976  1
  Ag  Ag2  1  0.49933351  0.34307398  0.17093412  1
  Ag  Ag3  1  0.82791263  0.33525225  0.49353251  1
  Ag  Ag4  1  0.49640012  0.82127473  0.32739880  1
  Ag  Ag5  1  0.65753246  0.16966090  0.83375706  1
  Ag  Ag6  1  0.33846126  0.50344724  0.83530912  1
  Ag  Ag7  1  0.82448701  0.66525777  0.49227433  1
  Ag  Ag8  1  0.16968917  0.33031850  0.83473206  1
  Ag  Ag9  1  0.50253314  0.16236002  -0.00285120  1
  Ag  Ag10  1  0.82692104  0.16693593  0.00805810  1
  Ag  Ag11  1  0.33901433  0.50404431  0.49336205  1
  Ag  Ag12  1  -0.01532604  0.49355046  0.16858285  1
  Ag  Ag13  1  0.83337626  0.34137376  0.17076701  1
  Ag  Ag14  1  0.34444290  0.66620339  0.00688020  1
  Ag  Ag15  1  0.66211761  0.66001478  0.66586627  1
  Ag  Ag16  1  0.66219085  0.50134744  0.83834012  1
  Ag  Ag17  1  0.65997030  0.66674508  0.32724378  1
  Ag  Ag18  1  0.83215698  0.16375092  0.32677695  1
  Ag  Ag19  1  0.83675933  0.00444946  0.17384766  1
  Ag  Ag20  1  0.34131852  0.66718044  0.66794408  1
  Ag  Ag21  1  0.49562031  0.00665563  0.82887996  1
  Ag  Ag22  1  0.50371135  0.66617225  0.48773575  1
  Ag  Ag23  1  0.33569881  0.82588503  0.16841831  1
  Ag  Ag24  1  0.49685781  0.16469241  0.67407656  1
  Ag  Ag25  1  0.17471651  0.66401881  0.83316048  1
  Ag  Ag26  1  0.50396760  0.50888158  0.32856923  1
  Ag  Ag27  1  -0.00349195  0.83603767  0.49739457  1
  Ag  Ag28  1  -0.00395062  0.32748316  0.66528981  1
  Ag  Ag29  1  0.17455766  0.00443457  0.83171652  1
  Ag  Ag30  1  0.82687357  0.82262177  0.00477871  1
  Ag  Ag31  1  0.00463947  0.00593760  0.66083129  1
  Ag  Ag32  1  0.50307299  0.65952333  0.17418630  1
  Ag  Ag33  1  0.82207129  0.65460437  0.16708541  1
  Ag  Ag34  1  0.33300838  0.16785988  0.16193837  1
  Ag  Ag35  1  0.66709749  0.33698172  0.66772550  1
  Ag  Ag36  1  0.82584374  0.50267803  0.32592537  1
  Ag  Ag37  1  0.33774613  0.16617589  0.83497409  1
  Ag  Ag38  1  0.33840443  0.50514703  0.16675955  1
  Ag  Ag39  1  0.82498854  0.66354394  0.84413483  1
  Ag  Ag40  1  -0.01085300  -0.00231014  0.33475847  1
  Ag  Ag41  1  0.67044989  0.50293906  0.16482846  1
  Ag  Ag42  1  0.50235267  0.83038480  0.00699915  1
  Ag  Ag43  1  0.17318836  0.16445417  0.67291846  1
  Ag  Ag44  1  -0.00747020  0.16974848  0.16708585  1
  Ag  Ag45  1  0.50333774  -0.00143516  0.49999705  1
  Ag  Ag46  1  0.67142767  -0.00371160  0.33232568  1
  Ag  Ag47  1  0.34552662  0.66588708  0.32509610  1
  Ag  Ag48  1  0.66542894  0.66444990  0.00586404  1
  Ag  Ag49  1  0.83169951  -0.00028513  0.49107000  1
  Ag  Ag50  1  0.82908553  0.50578170  0.01250358  1
  Ag  Ag51  1  0.50505563  0.33772343  0.49626345  1
  Ag  Ag52  1  0.33263272  0.00258289  0.66935286  1
  Ag  Ag53  1  0.16498083  0.00627750  0.16647068  1
  Sb  Sb54  1  0.66674153  -0.00253415  0.00492070  1
  Sb  Sb55  1  -0.00222709  0.33250260  0.00164231  1
  Sb  Sb56  1  0.49879833  0.83521693  0.66502543  1
  Sb  Sb57  1  0.66679948  0.16813397  0.50247875  1
  Sb  Sb58  1  0.16919024  0.49535747  0.66976079  1
  Sb  Sb59  1  0.17142393  0.66625105  0.16416179  1
  Sb  Sb60  1  0.83346801  0.83181729  0.66703911  1
  Sb  Sb61  1  0.82905951  0.83318656  0.32791532  1
  Sb  Sb62  1  0.33644619  0.33798769  0.00199680  1
  Sb  Sb63  1  0.33534934  0.83230872  0.83811174  1
  Sb  Sb64  1  0.00173831  0.83532597  0.17106931  1
  Sb  Sb65  1  0.17143815  0.66750598  0.50308326  1
  Sb  Sb66  1  -0.00124556  0.50231867  0.49489147  1
  Sb  Sb67  1  0.00184048  0.16709768  0.83637222  1
  Sb  Sb68  1  0.66485978  0.83034582  0.83530960  1
  Sb  Sb69  1  0.83242819  -0.00168258  0.83418561  1
  Sb  Sb70  1  0.33552362  0.33967726  0.32983227  1
  Sb  Sb71  1  0.50453380  0.16671446  0.33098497  1
  Sb  Sb72  1  0.33381409  0.82835873  0.49469584  1
  Sb  Sb73  1  -0.00138088  0.00150638  0.00377535  1
  Sb  Sb74  1  -0.00426120  0.32909483  0.33298123  1
  Sb  Sb75  1  0.66275346  0.50203489  0.49590136  1
  Sb  Sb76  1  0.16866020  0.50475388  0.32910265  1
  Sb  Sb77  1  0.66458156  0.00161965  0.66377805  1
  Sb  Sb78  1  -0.00310537  0.16247977  0.49704730  1
  Sb  Sb79  1  0.16899378  0.83213914  0.00428968  1
  Sb  Sb80  1  0.83417181  0.33682476  0.83497661  1
  Sb  Sb81  1  0.83148890  0.16757392  0.66673245  1
  Sb  Sb82  1  -0.00088765  0.66650897  0.66604591  1
  Sb  Sb83  1  0.50029321  0.49720662  0.66249705  1
  Sb  Sb84  1  0.50379501  0.50376448  0.00735196  1
  Sb  Sb85  1  0.16716633  0.33305249  0.50013168  1
  Sb  Sb86  1  0.66847744  0.33667341  0.33450198  1
  Sb  Sb87  1  0.50076679  0.66717992  0.83518252  1
  Sb  Sb88  1  0.16831579  0.83777465  0.66449113  1
  Sb  Sb89  1  0.66254089  0.82566704  0.16741240  1
  Sb  Sb90  1  0.33637237  -0.00240660  -0.00191882  1
  Sb  Sb91  1  0.66597974  0.33768364  -0.00166885  1
  Sb  Sb92  1  0.16632802  0.50149155  0.00154543  1
  Sb  Sb93  1  0.66919064  0.83072340  0.49750162  1
  Sb  Sb94  1  -0.00381657  0.67153832  0.33222491  1
  Sb  Sb95  1  0.16654170  -0.00070731  0.49970406  1
  Sb  Sb96  1  -0.00001129  0.83433376  0.83009938  1
  Sb  Sb97  1  0.33672280  0.16877055  0.50080306  1
  Sb  Sb98  1  -0.00150129  0.49941045  0.83764219  1
  Sb  Sb99  1  0.33623898  0.33187201  0.66807413  1
  Sb  Sb100  1  0.82978208  0.50049417  0.66458716  1
  Sb  Sb101  1  0.66878860  0.17235932  0.16257776  1
  Sb  Sb102  1  -0.00636123  0.66609973  0.00184029  1
  Sb  Sb103  1  0.33592298  -0.00382127  0.33412752  1
  Sb  Sb104  1  0.16326929  0.16213418  0.33039391  1
  Sb  Sb105  1  0.17097036  0.16659063  -0.00145748  1
  Sb  Sb106  1  0.50122082  -0.00130887  0.16957754  1
  Sb  Sb107  1  0.49767816  0.32962238  0.83409216  1
  Te  Te108  1  0.16961845  0.16699224  0.16511055  1
  Te  Te109  1  0.16735332  0.16788773  0.50753921  1
  Te  Te110  1  0.16898539  0.16584755  0.83308663  1
  Te  Te111  1  0.17694380  0.49392009  0.16618916  1
  Te  Te112  1  0.17458114  0.49961052  0.49855493  1
  Te  Te113  1  0.16936993  0.49932972  0.83521724  1
  Te  Te114  1  0.17047298  0.83674244  0.16949423  1
  Te  Te115  1  0.16129627  0.83276144  0.49324508  1
  Te  Te116  1  0.16698515  0.83640023  0.83452191  1
  Te  Te117  1  0.49868383  0.16686061  0.16333336  1
  Te  Te118  1  0.50040530  0.16694195  0.50152481  1
  Te  Te119  1  0.49755348  0.16739869  0.83374135  1
  Te  Te120  1  0.49781806  0.49999507  0.16747929  1
  Te  Te121  1  0.49765005  0.50083316  0.49640961  1
  Te  Te122  1  0.49958611  0.49791308  0.83561684  1
  Te  Te123  1  0.49602413  0.83299166  0.16644751  1
  Te  Te124  1  0.50012148  0.83194916  0.49712824  1
  Te  Te125  1  0.49974604  0.84311118  0.83747669  1
  Te  Te126  1  0.83059372  0.16408134  0.16807765  1
  Te  Te127  1  0.83309507  0.16710078  0.49519320  1
  Te  Te128  1  0.83109080  0.16738216  0.83774523  1
  Te  Te129  1  0.82879343  0.49882779  0.16891699  1
  Te  Te130  1  0.83401271  0.49989221  0.49487364  1
  Te  Te131  1  0.83077407  0.50410647  0.83443784  1
  Te  Te132  1  0.83492693  0.84072194  0.16279450  1
  Te  Te133  1  0.83587424  0.83431248  0.49871254  1
  Te  Te134  1  0.83297789  0.82738363  0.84044125  1
  Te  Te135  1  0.16619030  -0.00055421  -0.00005514  1
  Te  Te136  1  0.16761619  -0.00359572  0.32968854  1
  Te  Te137  1  0.16886596  0.00331246  0.66781849  1
  Te  Te138  1  0.16567526  0.33331412  0.00099872  1
  Te  Te139  1  0.16438123  0.33206824  0.32643447  1
  Te  Te140  1  0.16487095  0.32814262  0.66827921  1
  Te  Te141  1  0.17046928  0.66782187  -0.00667313  1
  Te  Te142  1  0.16811619  0.67333336  0.33363719  1
  Te  Te143  1  0.16842053  0.66691366  0.67200803  1
  Te  Te144  1  0.50166912  -0.00043390  -0.00291581  1
  Te  Te145  1  0.50404773  0.00060970  0.33882610  1
  Te  Te146  1  0.49977485  0.00225507  0.66483743  1
  Te  Te147  1  0.50122224  0.32544410  0.00814361  1
  Te  Te148  1  0.50227332  0.33506660  0.33400900  1
  Te  Te149  1  0.50407189  0.32997868  0.66258652  1
  Te  Te150  1  0.50284706  0.66941026  0.00105872  1
  Te  Te151  1  0.50073561  0.66500985  0.33169528  1
  Te  Te152  1  0.50042999  0.66714724  0.66716109  1
  Te  Te153  1  0.83262947  0.00447102  0.00153050  1
  Te  Te154  1  0.83198514  -0.00467225  0.33403901  1
  Te  Te155  1  0.83533153  -0.00011692  0.66214089  1
  Te  Te156  1  0.83225535  0.33045511  0.00403184  1
  Te  Te157  1  0.83285389  0.33353158  0.33344871  1
  Te  Te158  1  0.83171687  0.33324645  0.66462549  1
  Te  Te159  1  0.83075442  0.66512304  0.00355861  1
  Te  Te160  1  0.83018177  0.66660361  0.33150225  1
  Te  Te161  1  0.83055909  0.66688405  0.66301025  1
  Te  Te162  1  -0.00699633  0.16698792  0.00701073  1
  Te  Te163  1  -0.00415129  0.15986383  0.32786031  1
  Te  Te164  1  0.00015705  0.16604685  0.66783502  1
  Te  Te165  1  -0.00830531  0.49900859  0.00730225  1
  Te  Te166  1  -0.00213129  0.50039711  0.32745419  1
  Te  Te167  1  0.00086949  0.49399333  0.66478052  1
  Te  Te168  1  -0.00703048  0.83419437  -0.00069812  1
  Te  Te169  1  0.00362746  0.83849608  0.33627252  1
  Te  Te170  1  0.00099120  0.83922275  0.66026974  1
  Te  Te171  1  0.33772785  0.16642998  -0.00130373  1
  Te  Te172  1  0.33281623  0.16651843  0.32708382  1
  Te  Te173  1  0.33541992  0.16486876  0.66784283  1
  Te  Te174  1  0.33404800  0.50595788  -0.00133205  1
  Te  Te175  1  0.33560498  0.50532743  0.33149240  1
  Te  Te176  1  0.33428108  0.50328850  0.67376915  1
  Te  Te177  1  0.33661313  0.82797561  0.00685572  1
  Te  Te178  1  0.33615034  0.82978005  0.32933240  1
  Te  Te179  1  0.33301275  0.83201946  0.66570633  1
  Te  Te180  1  0.66520778  0.16625918  -0.00485111  1
  Te  Te181  1  0.67251499  0.16227358  0.33344676  1
  Te  Te182  1  0.66306462  0.16913315  0.67218687  1
  Te  Te183  1  0.66892591  0.50346161  -0.00101895  1
  Te  Te184  1  0.66588798  0.50264499  0.32991374  1
  Te  Te185  1  0.66560395  0.50009799  0.67377601  1
  Te  Te186  1  0.66544105  0.82777443  0.00110548  1
  Te  Te187  1  0.65817537  0.83153291  0.33332574  1
  Te  Te188  1  0.66619482  0.82255360  0.66771564  1
  Te  Te189  1  0.00141020  0.00240957  0.16954912  1
  Te  Te190  1  -0.00095603  -0.00192602  0.49913876  1
  Te  Te191  1  0.00269837  0.00021245  0.82682980  1
  Te  Te192  1  -0.00304508  0.33194374  0.16763455  1
  Te  Te193  1  -0.00364899  0.33362781  0.50462648  1
  Te  Te194  1  0.00617015  0.33440678  0.82665753  1
  Te  Te195  1  0.00035253  0.66217837  0.16648169  1
  Te  Te196  1  -0.00470275  0.67097627  0.50098648  1
  Te  Te197  1  0.00161458  0.66593436  0.83258256  1
  Te  Te198  1  0.33179761  0.00439558  0.16627761  1
  Te  Te199  1  0.33807533  -0.00046480  0.50561151  1
  Te  Te200  1  0.33403049  0.00130926  0.83151044  1
  Te  Te201  1  0.33451207  0.33059103  0.16600510  1
  Te  Te202  1  0.33827717  0.34019272  0.49911634  1
  Te  Te203  1  0.32933442  0.33234751  0.83437726  1
  Te  Te204  1  0.33268722  0.66642159  0.16618322  1
  Te  Te205  1  0.33660312  0.66369964  0.50430401  1
  Te  Te206  1  0.33381209  0.66601967  0.83065597  1
  Te  Te207  1  0.67033885  0.00098566  0.17187878  1
  Te  Te208  1  0.66730908  0.00027328  0.49701174  1
  Te  Te209  1  0.66303161  0.00464583  0.83243642  1
  Te  Te210  1  0.66660628  0.34017232  0.16712975  1
  Te  Te211  1  0.66696097  0.33479743  0.50486102  1
  Te  Te212  1  0.66660055  0.33473174  0.82921983  1
  Te  Te213  1  0.66429292  0.66402954  0.16734132  1
  Te  Te214  1  0.66492349  0.66550891  0.50091860  1
  Te  Te215  1  0.66795559  0.66422084  0.83330397  1
