# generated using pymatgen
data_AgSbTe2
_symmetry_space_group_name_H-M   'P 1'
_cell_length_a   18.34315947
_cell_length_b   18.34106005
_cell_length_c   18.33418437
_cell_angle_alpha   90.00099869
_cell_angle_beta   90.00072972
_cell_angle_gamma   89.99989069
_symmetry_Int_Tables_number   1
_chemical_formula_structural   AgSbTe2
_chemical_formula_sum   'Ag54 Sb54 Te108'
_cell_volume   6168.22445619
_cell_formula_units_Z   54
loop_
 _symmetry_equiv_pos_site_id
 _symmetry_equiv_pos_as_xyz
  1  'x, y, z'
loop_
 _atom_site_type_symbol
 _atom_site_label
 _atom_site_symmetry_multiplicity
 _atom_site_fract_x
 _atom_site_fract_y
 _atom_site_fract_z
 _atom_site_occupancy
  Ag  Ag0  1  0.34039307  0.01119933  0.00119668  1
  Ag  Ag1  1  0.50762971  0.48709336  0.00319890  1
  Ag  Ag2  1  0.83673804  0.66121790  0.16643756  1
  Ag  Ag3  1  0.83207366  0.83563198  0.66822841  1
  Ag  Ag4  1  0.17071846  0.50856688  0.32549839  1
  Ag  Ag5  1  0.17071680  0.66828812  0.48438123  1
  Ag  Ag6  1  0.17221081  0.82792756  0.00357411  1
  Ag  Ag7  1  0.66933014  0.49403241  0.84370101  1
  Ag  Ag8  1  0.01177409  0.66680051  0.33259799  1
  Ag  Ag9  1  0.00114495  0.33003283  0.33006564  1
  Ag  Ag10  1  0.16101852  0.66860846  0.83760929  1
  Ag  Ag11  1  0.16700427  0.49787204  0.00410302  1
  Ag  Ag12  1  0.84030423  0.83665358  0.33181722  1
  Ag  Ag13  1  0.00484598  0.16797366  0.49150770  1
  Ag  Ag14  1  0.82772293  0.33540914  0.16221969  1
  Ag  Ag15  1  0.16968154  0.16956234  0.32860595  1
  Ag  Ag16  1  0.65988206  0.32960755  0.32206391  1
  Ag  Ag17  1  0.49906403  0.84043511  0.67022865  1
  Ag  Ag18  1  0.49242154  0.84480724  -0.00501916  1
  Ag  Ag19  1  0.32438835  0.66058698  0.33264659  1
  Ag  Ag20  1  0.16540488  0.66747904  0.17211010  1
  Ag  Ag21  1  0.83040765  0.16956249  0.33410181  1
  Ag  Ag22  1  0.82650652  0.49420171  -0.00007094  1
  Ag  Ag23  1  0.16865926  0.82994193  0.66959583  1
  Ag  Ag24  1  0.49622808  0.48712960  0.32901575  1
  Ag  Ag25  1  0.49866102  0.32971794  0.49440340  1
  Ag  Ag26  1  0.34375465  0.32929703  0.66525227  1
  Ag  Ag27  1  0.82204966  0.16936664  0.66118265  1
  Ag  Ag28  1  0.50452365  0.33021592  0.83947812  1
  Ag  Ag29  1  0.66267238  0.33302607  0.00291271  1
  Ag  Ag30  1  0.66798719  0.48963513  0.16289074  1
  Ag  Ag31  1  0.17841385  0.17495338  0.00783262  1
  Ag  Ag32  1  0.49620935  0.16951120  0.00294553  1
  Ag  Ag33  1  -0.00366291  0.33475119  0.00180224  1
  Ag  Ag34  1  0.66642589  0.01190879  0.32818303  1
  Ag  Ag35  1  0.33660903  0.16932166  0.48821665  1
  Ag  Ag36  1  0.49808255  0.17025735  0.33385001  1
  Ag  Ag37  1  0.50187727  0.01063090  0.84155089  1
  Ag  Ag38  1  0.00150284  0.82824720  0.83362588  1
  Ag  Ag39  1  0.66108802  0.33057638  0.67594560  1
  Ag  Ag40  1  0.82478243  0.33836114  0.84243851  1
  Ag  Ag41  1  0.34098837  0.32848093  0.32898643  1
  Ag  Ag42  1  0.34443242  0.32910975  0.00432151  1
  Ag  Ag43  1  0.33789137  0.16702275  0.16864012  1
  Ag  Ag44  1  0.50301553  0.17251913  0.66225055  1
  Ag  Ag45  1  0.65666145  0.01028463  0.00344019  1
  Ag  Ag46  1  -0.00432657  0.50226330  0.83832600  1
  Ag  Ag47  1  0.49369935  0.66560009  0.49686410  1
  Ag  Ag48  1  0.33120385  0.83570173  0.16563379  1
  Ag  Ag49  1  -0.00201901  0.00758336  0.33452123  1
  Ag  Ag50  1  0.83916311  0.65804596  0.83915347  1
  Ag  Ag51  1  0.49945220  0.01290363  0.50098146  1
  Ag  Ag52  1  0.16285242  0.82052111  0.32989998  1
  Ag  Ag53  1  0.66122281  0.17233531  0.16934498  1
  Sb  Sb54  1  0.17099221  -0.00448718  0.83634782  1
  Sb  Sb55  1  0.00209407  0.83635182  0.49811762  1
  Sb  Sb56  1  0.33361148  0.66467855  0.66041760  1
  Sb  Sb57  1  0.33002935  0.83226562  0.83905508  1
  Sb  Sb58  1  0.32965832  0.66413061  0.00680775  1
  Sb  Sb59  1  0.00114676  0.17017553  0.17304321  1
  Sb  Sb60  1  0.33396219  0.83709859  0.49500851  1
  Sb  Sb61  1  0.83378933  0.49574667  0.32575056  1
  Sb  Sb62  1  -0.00282464  0.16915251  0.83191255  1
  Sb  Sb63  1  0.17210816  0.16498712  0.66519146  1
  Sb  Sb64  1  0.83147366  0.49638112  0.67846963  1
  Sb  Sb65  1  0.82798299  0.33007474  0.49686611  1
  Sb  Sb66  1  0.33611625  0.00531575  0.32861553  1
  Sb  Sb67  1  0.83600950  0.66881129  0.49698019  1
  Sb  Sb68  1  0.16342353  0.33728810  0.16729503  1
  Sb  Sb69  1  0.00215747  0.49625789  0.49760386  1
  Sb  Sb70  1  0.82995703  0.17492435  0.00456698  1
  Sb  Sb71  1  0.33748510  0.00374825  0.67015734  1
  Sb  Sb72  1  0.65926310  0.16810780  0.49075343  1
  Sb  Sb73  1  0.33661247  0.49487145  0.16814399  1
  Sb  Sb74  1  0.00490334  0.82954748  0.16603207  1
  Sb  Sb75  1  0.50145724  0.49230414  0.66690124  1
  Sb  Sb76  1  0.66286228  0.00710266  0.66756831  1
  Sb  Sb77  1  -0.00260918  0.33114940  0.66737543  1
  Sb  Sb78  1  0.66648033  0.65983620  0.00103984  1
  Sb  Sb79  1  0.33513566  0.49775889  0.83792990  1
  Sb  Sb80  1  0.66627275  0.66311175  0.33133513  1
  Sb  Sb81  1  0.17160406  -0.00204634  0.49651369  1
  Sb  Sb82  1  0.82775801  0.00151786  0.83410493  1
  Sb  Sb83  1  0.49682118  0.66511453  0.16969635  1
  Sb  Sb84  1  0.66555834  0.66288256  0.66815564  1
  Sb  Sb85  1  0.50650063  0.33095209  0.16623270  1
  Sb  Sb86  1  0.16702799  0.33779453  0.83871129  1
  Sb  Sb87  1  0.66448364  0.83450756  0.49948776  1
  Sb  Sb88  1  0.66305674  0.83404936  0.16625413  1
  Sb  Sb89  1  0.49950722  0.00322462  0.16309637  1
  Sb  Sb90  1  0.83379446  0.82861701  0.00148137  1
  Sb  Sb91  1  0.33454090  0.49429980  0.49517460  1
  Sb  Sb92  1  0.66439926  0.17411867  0.83996450  1
  Sb  Sb93  1  0.33627954  0.16801777  0.83887968  1
  Sb  Sb94  1  0.16858494  -0.00284836  0.16833228  1
  Sb  Sb95  1  0.82821782  0.00357835  0.49660470  1
  Sb  Sb96  1  -0.00086178  -0.00094096  0.66164233  1
  Sb  Sb97  1  -0.00322959  0.49943714  0.16155231  1
  Sb  Sb98  1  0.66863250  0.82950868  0.83504699  1
  Sb  Sb99  1  0.00175186  0.00447160  0.00373673  1
  Sb  Sb100  1  0.17291282  0.33534702  0.49418682  1
  Sb  Sb101  1  0.00039915  0.66846880  0.66666858  1
  Sb  Sb102  1  0.49984199  0.66369798  0.83241470  1
  Sb  Sb103  1  0.49827529  0.83809410  0.33289962  1
  Sb  Sb104  1  0.00225622  0.66049398  0.00015568  1
  Sb  Sb105  1  0.66378033  0.49617177  0.49527703  1
  Sb  Sb106  1  0.83081981  0.00334553  0.16904429  1
  Sb  Sb107  1  0.16739268  0.50375178  0.66855458  1
  Te  Te108  1  0.16994237  0.16697685  0.16592125  1
  Te  Te109  1  0.16992431  0.16654823  0.49754215  1
  Te  Te110  1  0.16502679  0.16502627  0.83770885  1
  Te  Te111  1  0.16767463  0.50502128  0.16659436  1
  Te  Te112  1  0.16679140  0.50744788  0.49693756  1
  Te  Te113  1  0.16377240  0.50444069  0.83688614  1
  Te  Te114  1  0.16973385  0.83017924  0.16700794  1
  Te  Te115  1  0.16747250  0.82933729  0.49656103  1
  Te  Te116  1  0.16430674  0.83093050  0.83527263  1
  Te  Te117  1  0.49968057  0.16612801  0.16732727  1
  Te  Te118  1  0.49842711  0.17005457  0.49895149  1
  Te  Te119  1  0.50055251  0.16845538  0.83232294  1
  Te  Te120  1  0.50435932  0.50250168  0.16575521  1
  Te  Te121  1  0.49932058  0.50169108  0.49426089  1
  Te  Te122  1  0.50392538  0.49608399  0.83800093  1
  Te  Te123  1  0.49433227  0.83238282  0.16038687  1
  Te  Te124  1  0.49876332  0.82805733  0.50377147  1
  Te  Te125  1  0.50047155  0.83050000  0.83296956  1
  Te  Te126  1  0.82949677  0.17032341  0.17212755  1
  Te  Te127  1  0.83938417  0.16671048  0.49929659  1
  Te  Te128  1  0.83332888  0.17015353  0.82691010  1
  Te  Te129  1  0.83016598  0.50004358  0.16177790  1
  Te  Te130  1  0.83351122  0.50161219  0.50317992  1
  Te  Te131  1  0.83345951  0.49879346  0.83889079  1
  Te  Te132  1  0.83291997  0.82861575  0.17081753  1
  Te  Te133  1  0.83350126  0.83414495  0.50029148  1
  Te  Te134  1  0.83667634  0.83249783  0.83139682  1
  Te  Te135  1  0.16853548  0.00008958  0.00044485  1
  Te  Te136  1  0.16334096  0.00907155  0.33402574  1
  Te  Te137  1  0.16805567  -0.00951034  0.66694843  1
  Te  Te138  1  0.16232546  0.33415224  0.00105887  1
  Te  Te139  1  0.16307086  0.32839283  0.33288278  1
  Te  Te140  1  0.17222668  0.33306576  0.66704578  1
  Te  Te141  1  0.16582244  0.66725002  -0.00120407  1
  Te  Te142  1  0.16812900  0.66461584  0.32883667  1
  Te  Te143  1  0.16749322  0.67171244  0.67408766  1
  Te  Te144  1  0.50060608  0.00164067  -0.00073430  1
  Te  Te145  1  0.50362577  0.00356216  0.33774214  1
  Te  Te146  1  0.50068295  0.00006628  0.66555576  1
  Te  Te147  1  0.50111684  0.33094683  0.00107163  1
  Te  Te148  1  0.50029039  0.33096400  0.33133054  1
  Te  Te149  1  0.50043872  0.33235925  0.66748475  1
  Te  Te150  1  0.49812016  0.66864193  -0.00074266  1
  Te  Te151  1  0.49726744  0.66989298  0.33662277  1
  Te  Te152  1  0.49906472  0.66909965  0.66256401  1
  Te  Te153  1  0.83001255  0.00066587  0.00047183  1
  Te  Te154  1  0.83231706  0.00022241  0.33393974  1
  Te  Te155  1  0.83094215  -0.00050591  0.66609022  1
  Te  Te156  1  0.83415757  0.33498181  0.00061860  1
  Te  Te157  1  0.83489090  0.33096189  0.33253240  1
  Te  Te158  1  0.82940571  0.32935288  0.66730475  1
  Te  Te159  1  0.83509321  0.66155980  0.00042710  1
  Te  Te160  1  0.83456851  0.66769071  0.33139777  1
  Te  Te161  1  0.83281592  0.67306915  0.66785916  1
  Te  Te162  1  0.00206869  0.17116753  0.00082629  1
  Te  Te163  1  -0.00040518  0.16859602  0.33349348  1
  Te  Te164  1  0.00113700  0.16522349  0.66126762  1
  Te  Te165  1  0.00585021  0.49524699  -0.00330503  1
  Te  Te166  1  0.00375052  0.49665268  0.33354488  1
  Te  Te167  1  0.00001239  0.49959941  0.67361986  1
  Te  Te168  1  0.00331272  0.83669400  -0.00468400  1
  Te  Te169  1  0.00197561  0.83036893  0.33273244  1
  Te  Te170  1  -0.00062186  0.83471626  0.66943330  1
  Te  Te171  1  0.33523987  0.16892309  0.00171404  1
  Te  Te172  1  0.33592803  0.16643780  0.32965502  1
  Te  Te173  1  0.33745283  0.17098195  0.66430172  1
  Te  Te174  1  0.33061938  0.49439778  0.00237210  1
  Te  Te175  1  0.33415370  0.49745568  0.33192568  1
  Te  Te176  1  0.33334338  0.49020266  0.66636034  1
  Te  Te177  1  0.33202851  0.82983193  0.00390802  1
  Te  Te178  1  0.32894487  0.83691042  0.32774064  1
  Te  Te179  1  0.33527798  0.83355190  0.66627375  1
  Te  Te180  1  0.66496896  0.16885180  0.00547813  1
  Te  Te181  1  0.66729721  0.16921834  0.33086953  1
  Te  Te182  1  0.66407584  0.17045193  0.66638286  1
  Te  Te183  1  0.66589620  0.49767908  0.00192711  1
  Te  Te184  1  0.66326016  0.49455236  0.32812624  1
  Te  Te185  1  0.66687032  0.49248389  0.66985999  1
  Te  Te186  1  0.66350758  0.83739507  0.00067888  1
  Te  Te187  1  0.67155736  0.83530821  0.33199930  1
  Te  Te188  1  0.66589805  0.83412981  0.66730524  1
  Te  Te189  1  -0.00156687  -0.00100132  0.17492614  1
  Te  Te190  1  0.00061477  0.00608499  0.49377290  1
  Te  Te191  1  -0.00202952  -0.00424231  0.83364287  1
  Te  Te192  1  -0.00889203  0.33382230  0.16670043  1
  Te  Te193  1  0.00062462  0.32927380  0.49770319  1
  Te  Te194  1  -0.00243909  0.33681054  0.83530226  1
  Te  Te195  1  -0.00046692  0.66550450  0.17207416  1
  Te  Te196  1  0.00468763  0.66583702  0.49432142  1
  Te  Te197  1  -0.00140301  0.66680482  0.83331430  1
  Te  Te198  1  0.33301797  0.00084342  0.15981867  1
  Te  Te199  1  0.33966865  0.00723293  0.50099591  1
  Te  Te200  1  0.34174208  -0.00081034  0.84106434  1
  Te  Te201  1  0.32918710  0.32890035  0.16699495  1
  Te  Te202  1  0.33833563  0.32901586  0.49380796  1
  Te  Te203  1  0.33763453  0.33370864  0.83866856  1
  Te  Te204  1  0.32929253  0.66849035  0.17276862  1
  Te  Te205  1  0.33162470  0.66762593  0.49413826  1
  Te  Te206  1  0.32733847  0.66466377  0.83015552  1
  Te  Te207  1  0.66635511  0.00321829  0.16675383  1
  Te  Te208  1  0.65824894  0.00022808  0.49458179  1
  Te  Te209  1  0.66035299  -0.00192618  0.83912045  1
  Te  Te210  1  0.66973349  0.33264734  0.16509784  1
  Te  Te211  1  0.65987951  0.33371786  0.50150085  1
  Te  Te212  1  0.66587796  0.33504972  0.83674008  1
  Te  Te213  1  0.67334720  0.66472966  0.16701257  1
  Te  Te214  1  0.66041775  0.66481364  0.50028291  1
  Te  Te215  1  0.67293679  0.65816692  0.83295589  1
