# generated using pymatgen
data_AgSbTe2
_symmetry_space_group_name_H-M   'P 1'
_cell_length_a   18.34968922
_cell_length_b   18.35150601
_cell_length_c   18.34129109
_cell_angle_alpha   90.00014115
_cell_angle_beta   90.00147048
_cell_angle_gamma   90.00064471
_symmetry_Int_Tables_number   1
_chemical_formula_structural   AgSbTe2
_chemical_formula_sum   'Ag54 Sb54 Te108'
_cell_volume   6176.32764692
_cell_formula_units_Z   54
loop_
 _symmetry_equiv_pos_site_id
 _symmetry_equiv_pos_as_xyz
  1  'x, y, z'
loop_
 _atom_site_type_symbol
 _atom_site_label
 _atom_site_symmetry_multiplicity
 _atom_site_fract_x
 _atom_site_fract_y
 _atom_site_fract_z
 _atom_site_occupancy
  Ag  Ag0  1  -0.00135368  0.66559271  0.66328219  1
  Ag  Ag1  1  0.32844877  0.16977490  0.83506719  1
  Ag  Ag2  1  0.15594132  0.50906697  0.33775189  1
  Ag  Ag3  1  0.49559263  -0.01127309  0.49645229  1
  Ag  Ag4  1  -0.00264448  0.49947835  0.17512008  1
  Ag  Ag5  1  0.84584710  0.34074719  0.50264112  1
  Ag  Ag6  1  0.15867975  0.67284584  0.82854555  1
  Ag  Ag7  1  0.16698588  0.67127034  0.49824869  1
  Ag  Ag8  1  0.50657257  0.50866220  -0.00209086  1
  Ag  Ag9  1  0.83359133  0.50402214  0.66389663  1
  Ag  Ag10  1  0.15825373  0.17111180  -0.00579682  1
  Ag  Ag11  1  -0.00207050  0.34066731  0.65852322  1
  Ag  Ag12  1  0.00090536  0.17464199  0.49413191  1
  Ag  Ag13  1  0.67938140  0.50322824  0.50098150  1
  Ag  Ag14  1  0.49905878  0.83401884  0.33308127  1
  Ag  Ag15  1  0.83995804  0.16439284  -0.00748819  1
  Ag  Ag16  1  0.83697444  0.16516403  0.67325442  1
  Ag  Ag17  1  0.00322833  0.66345845  0.34083135  1
  Ag  Ag18  1  0.00356491  0.34924038  0.34624551  1
  Ag  Ag19  1  0.16153488  0.82552159  0.34189216  1
  Ag  Ag20  1  0.83567439  0.82977643  -0.01245573  1
  Ag  Ag21  1  0.50169267  -0.00383488  0.17328269  1
  Ag  Ag22  1  0.67832161  0.83359217  0.83536742  1
  Ag  Ag23  1  0.15955439  0.83014187  0.66140877  1
  Ag  Ag24  1  -0.00019167  0.16757946  0.16746344  1
  Ag  Ag25  1  0.67957785  0.66629264  0.66947589  1
  Ag  Ag26  1  0.32032554  0.34100999  0.33592253  1
  Ag  Ag27  1  0.50576778  0.82884324  0.00240305  1
  Ag  Ag28  1  0.83533203  0.50336997  -0.00310381  1
  Ag  Ag29  1  0.84466748  0.82878612  0.33627420  1
  Ag  Ag30  1  0.49378433  0.66886604  0.49977728  1
  Ag  Ag31  1  0.50936650  0.50229045  0.66826646  1
  Ag  Ag32  1  0.33555607  0.66374088  -0.00086179  1
  Ag  Ag33  1  -0.00327579  0.48974361  0.49008329  1
  Ag  Ag34  1  0.00212433  0.32503169  -0.00072083  1
  Ag  Ag35  1  -0.00583545  0.83220965  0.83621862  1
  Ag  Ag36  1  0.66771113  0.66842323  -0.00872779  1
  Ag  Ag37  1  0.16081626  0.33601742  0.50051155  1
  Ag  Ag38  1  -0.00126189  0.83347564  0.17417376  1
  Ag  Ag39  1  0.32058393  0.66659835  0.33792679  1
  Ag  Ag40  1  0.83908111  0.82292111  0.67351009  1
  Ag  Ag41  1  0.83878227  0.67361469  0.83076425  1
  Ag  Ag42  1  0.15897566  -0.00461415  0.83053874  1
  Ag  Ag43  1  0.84158673  0.50834360  0.34636943  1
  Ag  Ag44  1  0.49332783  0.33379929  0.83450546  1
  Ag  Ag45  1  0.67621468  0.16147751  0.83339881  1
  Ag  Ag46  1  0.67940253  -0.00442814  0.33570045  1
  Ag  Ag47  1  0.83965033  -0.01178933  0.83468077  1
  Ag  Ag48  1  -0.00075466  -0.00865430  0.33189607  1
  Ag  Ag49  1  0.16440550  0.33086974  0.83285304  1
  Ag  Ag50  1  0.32722644  0.83074148  0.49735916  1
  Ag  Ag51  1  -0.00126332  0.00590238  0.00287016  1
  Ag  Ag52  1  0.16376982  -0.01141384  0.50205777  1
  Ag  Ag53  1  0.32465172  0.33756130  -0.00376017  1
  Sb  Sb54  1  0.83601659  -0.00226101  0.16329408  1
  Sb  Sb55  1  0.83908407  0.33465641  0.16944294  1
  Sb  Sb56  1  0.66985682  0.33650336  -0.00448463  1
  Sb  Sb57  1  0.32943044  -0.00051042  -0.00128617  1
  Sb  Sb58  1  0.83905828  0.66378946  0.50568692  1
  Sb  Sb59  1  -0.00094198  0.50392114  0.83185665  1
  Sb  Sb60  1  0.50124047  0.00133328  0.83191579  1
  Sb  Sb61  1  0.16332565  0.49781333  0.00105801  1
  Sb  Sb62  1  0.16015328  0.16468825  0.67077128  1
  Sb  Sb63  1  0.16100316  0.33297811  0.16864335  1
  Sb  Sb64  1  0.50093024  0.66351790  0.83277384  1
  Sb  Sb65  1  0.67283931  0.16719175  0.50330194  1
  Sb  Sb66  1  0.32787472  -0.00418785  0.33473703  1
  Sb  Sb67  1  0.33397812  0.49728331  0.83432926  1
  Sb  Sb68  1  0.50063259  0.16468644  -0.00222442  1
  Sb  Sb69  1  0.50665320  0.17114182  0.66878366  1
  Sb  Sb70  1  0.32713723  0.16404036  0.50163803  1
  Sb  Sb71  1  0.32515065  0.33474032  0.66842303  1
  Sb  Sb72  1  0.49597858  0.33915091  0.50380615  1
  Sb  Sb73  1  0.66775118  0.50315087  0.82975101  1
  Sb  Sb74  1  -0.00090276  0.16134971  0.83425297  1
  Sb  Sb75  1  0.67084657  0.67048717  0.33781487  1
  Sb  Sb76  1  0.00478548  0.83003414  0.50010470  1
  Sb  Sb77  1  0.50082490  0.50518723  0.33382992  1
  Sb  Sb78  1  0.67109864  0.83340075  0.16436916  1
  Sb  Sb79  1  0.66935316  -0.00544722  0.66426193  1
  Sb  Sb80  1  0.16186194  0.16690334  0.33394438  1
  Sb  Sb81  1  0.50143330  0.82748438  0.66624424  1
  Sb  Sb82  1  0.67233779  0.33172782  0.33685902  1
  Sb  Sb83  1  -0.00075849  0.66836103  -0.00268496  1
  Sb  Sb84  1  0.83938068  0.33389416  0.83048606  1
  Sb  Sb85  1  0.32929829  0.83418656  0.83181206  1
  Sb  Sb86  1  0.83898201  0.16667809  0.33386760  1
  Sb  Sb87  1  0.83752863  0.00165238  0.50244501  1
  Sb  Sb88  1  0.67344273  0.16191729  0.16237129  1
  Sb  Sb89  1  0.66474224  0.82823792  0.50263092  1
  Sb  Sb90  1  0.67443677  0.33910563  0.66954785  1
  Sb  Sb91  1  0.49715016  0.33075385  0.16143357  1
  Sb  Sb92  1  0.33034344  0.83229639  0.17041807  1
  Sb  Sb93  1  0.15987161  0.50393021  0.66203379  1
  Sb  Sb94  1  0.32769101  0.50481204  0.49951524  1
  Sb  Sb95  1  0.67239908  -0.00498504  -0.00030665  1
  Sb  Sb96  1  0.16221582  0.83356274  -0.00137796  1
  Sb  Sb97  1  -0.00052816  -0.00250459  0.66652223  1
  Sb  Sb98  1  0.32888616  0.50081136  0.16612017  1
  Sb  Sb99  1  0.83682743  0.66810337  0.16098337  1
  Sb  Sb100  1  0.33175816  0.00007112  0.66731329  1
  Sb  Sb101  1  0.16357963  -0.00065177  0.16651097  1
  Sb  Sb102  1  0.49879696  0.16059228  0.33512587  1
  Sb  Sb103  1  0.67247759  0.50164376  0.16834522  1
  Sb  Sb104  1  0.16224263  0.66699033  0.16858365  1
  Sb  Sb105  1  0.32821663  0.16735638  0.16362076  1
  Sb  Sb106  1  0.32912950  0.66630143  0.66564878  1
  Sb  Sb107  1  0.50033325  0.67075757  0.16719182  1
  Te  Te108  1  0.16118151  0.16551878  0.15548748  1
  Te  Te109  1  0.16234085  0.17053360  0.50153741  1
  Te  Te110  1  0.16720789  0.16662237  0.83426559  1
  Te  Te111  1  0.15952719  0.50002565  0.17406808  1
  Te  Te112  1  0.16272928  0.49851666  0.49773287  1
  Te  Te113  1  0.16779507  0.49993866  0.83180355  1
  Te  Te114  1  0.16099231  0.83451027  0.17245638  1
  Te  Te115  1  0.16750822  0.83166702  0.50070548  1
  Te  Te116  1  0.16555160  0.83390822  0.83048871  1
  Te  Te117  1  0.50108614  0.16054097  0.16663172  1
  Te  Te118  1  0.49971238  0.16500793  0.50189063  1
  Te  Te119  1  0.49739136  0.17045905  0.83256471  1
  Te  Te120  1  0.50152009  0.49895484  0.15931362  1
  Te  Te121  1  0.49727603  0.50462865  0.50064290  1
  Te  Te122  1  0.50139932  0.49553163  0.83753113  1
  Te  Te123  1  0.49939652  0.83702728  0.16464983  1
  Te  Te124  1  0.49889897  0.83153782  0.50049240  1
  Te  Te125  1  0.49932717  0.83464308  0.83857754  1
  Te  Te126  1  0.83911291  0.16577063  0.15721109  1
  Te  Te127  1  0.83786153  0.17009841  0.50309091  1
  Te  Te128  1  0.83268851  0.17094945  0.83398518  1
  Te  Te129  1  0.83793171  0.50070221  0.16031985  1
  Te  Te130  1  0.83572800  0.50147111  0.50220333  1
  Te  Te131  1  0.83168495  0.50268686  0.83517498  1
  Te  Te132  1  0.83851146  0.83368796  0.17890122  1
  Te  Te133  1  0.83002527  0.83433008  0.49494725  1
  Te  Te134  1  0.83300778  0.83138214  0.83099411  1
  Te  Te135  1  0.16126741  0.00122380  -0.00239666  1
  Te  Te136  1  0.16070599  -0.00077564  0.33636436  1
  Te  Te137  1  0.16639572  -0.00407934  0.66739885  1
  Te  Te138  1  0.16678513  0.33358887  -0.00157433  1
  Te  Te139  1  0.16320206  0.33160333  0.33519260  1
  Te  Te140  1  0.15892815  0.33428192  0.66732981  1
  Te  Te141  1  0.17213542  0.66606475  -0.00474506  1
  Te  Te142  1  0.16572805  0.66711619  0.33318489  1
  Te  Te143  1  0.16374873  0.66910170  0.66780784  1
  Te  Te144  1  0.50062040  -0.00489592  0.00030467  1
  Te  Te145  1  0.49355760  -0.00396868  0.33668763  1
  Te  Te146  1  0.50106983  0.00081510  0.65861485  1
  Te  Te147  1  0.49987073  0.33338845  -0.00458192  1
  Te  Te148  1  0.50099920  0.33376923  0.33244255  1
  Te  Te149  1  0.49935421  0.33894544  0.67110929  1
  Te  Te150  1  0.49801943  0.66756794  0.00056268  1
  Te  Te151  1  0.50404620  0.67128729  0.33566769  1
  Te  Te152  1  0.49646095  0.66226725  0.66323817  1
  Te  Te153  1  0.83659334  -0.00498088  -0.00314811  1
  Te  Te154  1  0.83610413  -0.00106064  0.33395127  1
  Te  Te155  1  0.83270084  0.00188873  0.67072894  1
  Te  Te156  1  0.83665373  0.33773081  0.00047161  1
  Te  Te157  1  0.83913894  0.33427503  0.33912260  1
  Te  Te158  1  0.83844882  0.33828382  0.66410950  1
  Te  Te159  1  0.83324236  0.66982441  -0.00539186  1
  Te  Te160  1  0.83623404  0.66681578  0.33303043  1
  Te  Te161  1  0.83569170  0.66596156  0.66799093  1
  Te  Te162  1  -0.00101460  0.16338420  -0.00361599  1
  Te  Te163  1  -0.00077329  0.16237802  0.33041165  1
  Te  Te164  1  -0.00386153  0.16882527  0.66403171  1
  Te  Te165  1  -0.00348544  0.50059662  0.00126952  1
  Te  Te166  1  -0.00162766  0.50212079  0.33230982  1
  Te  Te167  1  -0.00374011  0.50211654  0.66519634  1
  Te  Te168  1  -0.00304055  0.83354170  -0.00327771  1
  Te  Te169  1  0.00251069  0.83371354  0.33565583  1
  Te  Te170  1  -0.00062994  0.83079176  0.66865644  1
  Te  Te171  1  0.33273474  0.16973446  -0.00360445  1
  Te  Te172  1  0.33134492  0.17589014  0.33306049  1
  Te  Te173  1  0.33547808  0.16864034  0.67304517  1
  Te  Te174  1  0.33369324  0.49880218  0.00083298  1
  Te  Te175  1  0.33337299  0.50174917  0.33238083  1
  Te  Te176  1  0.34567435  0.49877328  0.66693364  1
  Te  Te177  1  0.33353194  0.82966658  0.00055859  1
  Te  Te178  1  0.33564944  0.82915919  0.33567126  1
  Te  Te179  1  0.33070717  0.83342951  0.66074403  1
  Te  Te180  1  0.67135829  0.16636195  -0.00615506  1
  Te  Te181  1  0.66752650  0.16022527  0.33299951  1
  Te  Te182  1  0.67414665  0.16634139  0.67132101  1
  Te  Te183  1  0.66833094  0.50503139  0.00087762  1
  Te  Te184  1  0.67275577  0.50016378  0.33861045  1
  Te  Te185  1  0.66932131  0.50467305  0.66429286  1
  Te  Te186  1  0.66915890  0.83056818  -0.00204141  1
  Te  Te187  1  0.65966226  0.83700881  0.33264250  1
  Te  Te188  1  0.66999408  0.82752707  0.67167970  1
  Te  Te189  1  0.00020338  -0.00257375  0.16593096  1
  Te  Te190  1  0.00375973  0.00400294  0.49791502  1
  Te  Te191  1  -0.00070820  -0.00508981  0.83264864  1
  Te  Te192  1  -0.00136421  0.33210124  0.15756064  1
  Te  Te193  1  0.00077442  0.33232336  0.50054886  1
  Te  Te194  1  0.00552405  0.33412573  0.84046585  1
  Te  Te195  1  -0.00045694  0.66839953  0.17318333  1
  Te  Te196  1  0.00540514  0.66427877  0.50205132  1
  Te  Te197  1  -0.00047251  0.66995383  0.83180497  1
  Te  Te198  1  0.34123148  0.00118097  0.16665137  1
  Te  Te199  1  0.32941852  -0.00315996  0.50057996  1
  Te  Te200  1  0.32850815  0.00651963  0.83430051  1
  Te  Te201  1  0.33297925  0.33279900  0.16491851  1
  Te  Te202  1  0.32701310  0.33218750  0.49525545  1
  Te  Te203  1  0.32902170  0.33144819  0.83497233  1
  Te  Te204  1  0.33283018  0.66625173  0.16396314  1
  Te  Te205  1  0.33012943  0.67002005  0.49793856  1
  Te  Te206  1  0.32867699  0.66773607  0.83799150  1
  Te  Te207  1  0.66138585  0.00019796  0.17458461  1
  Te  Te208  1  0.66507874  0.00085296  0.49495361  1
  Te  Te209  1  0.67039910  -0.00218911  0.83221958  1
  Te  Te210  1  0.66571654  0.33153317  0.16736905  1
  Te  Te211  1  0.66533493  0.33842542  0.50113527  1
  Te  Te212  1  0.66063799  0.32805141  0.83300058  1
  Te  Te213  1  0.66687428  0.66545648  0.15529531  1
  Te  Te214  1  0.66111532  0.66177009  0.50355379  1
  Te  Te215  1  0.66607326  0.66894285  0.83152085  1
