# generated using pymatgen
data_AgSbTe2
_symmetry_space_group_name_H-M   'P 1'
_cell_length_a   18.33099999
_cell_length_b   18.33592735
_cell_length_c   18.33483428
_cell_angle_alpha   89.99627750
_cell_angle_beta   89.99800679
_cell_angle_gamma   90.00239148
_symmetry_Int_Tables_number   1
_chemical_formula_structural   AgSbTe2
_chemical_formula_sum   'Ag54 Sb54 Te108'
_cell_volume   6162.62901306
_cell_formula_units_Z   54
loop_
 _symmetry_equiv_pos_site_id
 _symmetry_equiv_pos_as_xyz
  1  'x, y, z'
loop_
 _atom_site_type_symbol
 _atom_site_label
 _atom_site_symmetry_multiplicity
 _atom_site_fract_x
 _atom_site_fract_y
 _atom_site_fract_z
 _atom_site_occupancy
  Ag  Ag0  1  0.49784475  0.67738584  0.84186962  1
  Ag  Ag1  1  0.00037378  0.83421264  0.50036455  1
  Ag  Ag2  1  0.17372812  0.67504727  0.16352600  1
  Ag  Ag3  1  0.66223120  0.15565488  0.16399308  1
  Ag  Ag4  1  -0.00819935  -0.00003753  -0.00355591  1
  Ag  Ag5  1  0.83187928  0.84016249  0.67172527  1
  Ag  Ag6  1  0.16960314  0.83140843  0.33454289  1
  Ag  Ag7  1  0.17207654  0.67081056  0.83718595  1
  Ag  Ag8  1  0.66616562  0.67663286  -0.00115871  1
  Ag  Ag9  1  0.65841342  0.83692055  0.16203044  1
  Ag  Ag10  1  0.83583350  0.33446435  0.51347452  1
  Ag  Ag11  1  0.16326551  0.67496139  0.49713021  1
  Ag  Ag12  1  0.82981085  -0.00352078  0.83119797  1
  Ag  Ag13  1  -0.00957214  0.32101763  0.66397897  1
  Ag  Ag14  1  0.83161643  0.32939599  0.83010935  1
  Ag  Ag15  1  0.33195615  0.16300773  0.84037766  1
  Ag  Ag16  1  0.83260266  0.16145378  0.66969656  1
  Ag  Ag17  1  0.82841695  0.66722126  0.15861264  1
  Ag  Ag18  1  0.49614402  0.83442528  0.32057404  1
  Ag  Ag19  1  0.33995305  0.16339067  0.16062071  1
  Ag  Ag20  1  0.50738761  0.83072981  0.00672536  1
  Ag  Ag21  1  0.67008269  0.33130054  0.00075005  1
  Ag  Ag22  1  0.51318603  0.16372513  0.67133900  1
  Ag  Ag23  1  0.33355513  0.51449552  0.84223365  1
  Ag  Ag24  1  0.50482905  0.32908541  0.16515036  1
  Ag  Ag25  1  0.33460270  0.83139969  0.84180795  1
  Ag  Ag26  1  0.34460633  0.83205273  0.16350372  1
  Ag  Ag27  1  0.16180689  0.83284819  0.65798350  1
  Ag  Ag28  1  0.50665995  -0.00547838  0.83835349  1
  Ag  Ag29  1  -0.00567709  -0.00548833  0.33424233  1
  Ag  Ag30  1  -0.00496907  0.16252234  0.82975384  1
  Ag  Ag31  1  0.66938134  -0.00594549  0.00096425  1
  Ag  Ag32  1  0.83213260  0.51196490  0.00230505  1
  Ag  Ag33  1  -0.00363445  0.50799721  0.49962391  1
  Ag  Ag34  1  0.17241046  -0.00729568  0.16465602  1
  Ag  Ag35  1  0.83434265  0.50013621  0.32427804  1
  Ag  Ag36  1  0.83124168  0.67405757  0.83886772  1
  Ag  Ag37  1  0.66969097  0.68086916  0.67722565  1
  Ag  Ag38  1  0.16812565  0.16327863  0.00019499  1
  Ag  Ag39  1  0.50323242  -0.00729217  0.16117613  1
  Ag  Ag40  1  0.67522607  0.32534920  0.67255414  1
  Ag  Ag41  1  0.34004454  0.66964049  0.00028836  1
  Ag  Ag42  1  0.67246870  -0.00254852  0.67328040  1
  Ag  Ag43  1  0.82661858  0.83046929  -0.00377450  1
  Ag  Ag44  1  0.82687607  0.33755777  0.16206118  1
  Ag  Ag45  1  0.33455126  0.33348978  0.32766938  1
  Ag  Ag46  1  -0.00767717  0.00121155  0.66888391  1
  Ag  Ag47  1  0.33478096  0.51402611  0.16164240  1
  Ag  Ag48  1  0.67055587  -0.00520978  0.32018286  1
  Ag  Ag49  1  0.32574819  0.83158260  0.49753265  1
  Ag  Ag50  1  0.00059083  0.67567163  0.33510253  1
  Ag  Ag51  1  -0.00227048  0.16098006  0.50921695  1
  Ag  Ag52  1  0.66947435  0.83461131  0.49880460  1
  Ag  Ag53  1  0.49942301  0.68096630  0.16004397  1
  Sb  Sb54  1  0.32900588  0.66809614  0.32288280  1
  Sb  Sb55  1  0.83412507  0.16856506  0.33634893  1
  Sb  Sb56  1  0.16186684  -0.00714961  0.49589630  1
  Sb  Sb57  1  0.66598168  0.50324564  0.83498601  1
  Sb  Sb58  1  0.83456428  -0.00012644  0.50735867  1
  Sb  Sb59  1  -0.00839955  0.32725775  -0.00492013  1
  Sb  Sb60  1  0.15971462  0.15844482  0.67183742  1
  Sb  Sb61  1  0.16373492  0.50019451  0.00113596  1
  Sb  Sb62  1  0.00016744  0.33230858  0.33755743  1
  Sb  Sb63  1  0.33652402  -0.00602934  0.00137861  1
  Sb  Sb64  1  0.83390980  0.49954465  0.67012769  1
  Sb  Sb65  1  0.16563953  0.15855655  0.32722367  1
  Sb  Sb66  1  0.50286124  -0.00277528  0.49975766  1
  Sb  Sb67  1  0.50680783  0.33148382  0.49743588  1
  Sb  Sb68  1  0.66621093  0.50356362  0.16428738  1
  Sb  Sb69  1  0.67251487  0.16113932  0.50142696  1
  Sb  Sb70  1  0.00072592  0.83773448  0.82950360  1
  Sb  Sb71  1  0.50512606  0.50847298  0.00157381  1
  Sb  Sb72  1  0.83262253  0.16255366  -0.00482754  1
  Sb  Sb73  1  0.83421770  0.83108583  0.33280449  1
  Sb  Sb74  1  0.49862339  0.15915131  -0.00137632  1
  Sb  Sb75  1  -0.00027567  0.49783767  0.82938720  1
  Sb  Sb76  1  0.33569097  0.33020637  0.66616635  1
  Sb  Sb77  1  0.33985294  0.33667018  0.00474283  1
  Sb  Sb78  1  0.66481878  0.83433226  0.83819238  1
  Sb  Sb79  1  0.50128272  0.49905656  0.67032776  1
  Sb  Sb80  1  0.49652610  0.67127707  0.49942315  1
  Sb  Sb81  1  0.16635767  0.83596011  0.00297004  1
  Sb  Sb82  1  0.66607702  0.32814983  0.32886041  1
  Sb  Sb83  1  0.82906146  -0.00306393  0.16026186  1
  Sb  Sb84  1  0.50520598  0.83760839  0.67077437  1
  Sb  Sb85  1  0.83675892  0.66615695  0.50092239  1
  Sb  Sb86  1  0.50299249  0.50574252  0.32766845  1
  Sb  Sb87  1  0.67444594  0.50529241  0.50082774  1
  Sb  Sb88  1  0.49977937  0.16020855  0.33037932  1
  Sb  Sb89  1  0.50480579  0.33117902  0.83834465  1
  Sb  Sb90  1  0.16432257  0.50872935  0.66796724  1
  Sb  Sb91  1  0.32634098  0.50713972  0.49637369  1
  Sb  Sb92  1  0.33457430  -0.00283976  0.67008859  1
  Sb  Sb93  1  0.33461813  -0.00310294  0.32793398  1
  Sb  Sb94  1  0.16242488  0.50778529  0.33135331  1
  Sb  Sb95  1  -0.00143255  0.50243549  0.17002210  1
  Sb  Sb96  1  0.32791482  0.16304945  0.49962711  1
  Sb  Sb97  1  0.15944380  0.33763661  0.50052105  1
  Sb  Sb98  1  0.16843187  0.33222957  0.16700227  1
  Sb  Sb99  1  0.33721093  0.67075820  0.67613541  1
  Sb  Sb100  1  -0.00343848  0.16402659  0.16400768  1
  Sb  Sb101  1  -0.00040239  0.83399575  0.17128140  1
  Sb  Sb102  1  0.16572038  -0.00411355  0.83813161  1
  Sb  Sb103  1  0.67120341  0.67469032  0.32824164  1
  Sb  Sb104  1  -0.00408485  0.67238212  0.66407071  1
  Sb  Sb105  1  -0.00379168  0.67331281  0.00296345  1
  Sb  Sb106  1  0.66835098  0.16363243  0.83562512  1
  Sb  Sb107  1  0.16417635  0.33392559  0.83289523  1
  Te  Te108  1  0.16867804  0.16422524  0.16208072  1
  Te  Te109  1  0.16074533  0.16693481  0.49983621  1
  Te  Te110  1  0.16968522  0.16631345  0.83760139  1
  Te  Te111  1  0.17344907  0.50453569  0.16592465  1
  Te  Te112  1  0.15882940  0.50955826  0.49994185  1
  Te  Te113  1  0.17240125  0.50564799  0.83422855  1
  Te  Te114  1  0.16501890  0.83325091  0.16889235  1
  Te  Te115  1  0.16572773  0.83141711  0.49831924  1
  Te  Te116  1  0.17132383  0.82978007  0.83461586  1
  Te  Te117  1  0.50102606  0.16752853  0.16595106  1
  Te  Te118  1  0.49783027  0.16593619  0.50772857  1
  Te  Te119  1  0.49680293  0.16419186  0.83166701  1
  Te  Te120  1  0.49300604  0.49134520  0.16677779  1
  Te  Te121  1  0.49797714  0.50109526  0.49843352  1
  Te  Te122  1  0.49209924  0.50217849  0.83451782  1
  Te  Te123  1  0.50144905  0.83625926  0.16535843  1
  Te  Te124  1  0.50012859  0.83266129  0.49926879  1
  Te  Te125  1  0.49468627  0.83467714  0.83357087  1
  Te  Te126  1  0.82805753  0.17012654  0.16679692  1
  Te  Te127  1  0.83805200  0.17308565  0.50486159  1
  Te  Te128  1  0.83456230  0.16601508  0.82966230  1
  Te  Te129  1  0.83265902  0.50191238  0.16412721  1
  Te  Te130  1  0.83814040  0.49643467  0.49828271  1
  Te  Te131  1  0.83343421  0.50018639  0.83979308  1
  Te  Te132  1  0.83115893  0.82936595  0.16366735  1
  Te  Te133  1  0.83415417  0.83237407  0.50419225  1
  Te  Te134  1  0.83486366  0.83462105  0.83269575  1
  Te  Te135  1  0.16461891  0.00279937  0.00482862  1
  Te  Te136  1  0.16408675  -0.00670897  0.32654065  1
  Te  Te137  1  0.16217402  -0.00843333  0.66731227  1
  Te  Te138  1  0.16530686  0.32733635  -0.00002541  1
  Te  Te139  1  0.17192373  0.33315368  0.33381270  1
  Te  Te140  1  0.16253188  0.33357145  0.66618673  1
  Te  Te141  1  0.16516373  0.66657115  0.00115603  1
  Te  Te142  1  0.16300842  0.67138934  0.33006125  1
  Te  Te143  1  0.16632765  0.67443412  0.67160633  1
  Te  Te144  1  0.50306468  -0.00549599  -0.00075391  1
  Te  Te145  1  0.50442624  -0.00545543  0.32937334  1
  Te  Te146  1  0.50326752  0.00461779  0.67090204  1
  Te  Te147  1  0.50739982  0.33524420  0.00518556  1
  Te  Te148  1  0.49783219  0.33268997  0.32935910  1
  Te  Te149  1  0.50519362  0.32674049  0.66618704  1
  Te  Te150  1  0.50277553  0.66887848  0.00034213  1
  Te  Te151  1  0.50043969  0.67305232  0.32760513  1
  Te  Te152  1  0.50916028  0.66632098  0.67142411  1
  Te  Te153  1  0.83112473  -0.00279796  -0.00554130  1
  Te  Te154  1  0.83317500  -0.00030428  0.33232454  1
  Te  Te155  1  0.83325447  0.00033989  0.66908513  1
  Te  Te156  1  0.82961078  0.32862882  -0.00073350  1
  Te  Te157  1  0.83348595  0.33703723  0.32555386  1
  Te  Te158  1  0.83243056  0.33636163  0.67011176  1
  Te  Te159  1  0.83358463  0.66977849  -0.00043517  1
  Te  Te160  1  0.83848219  0.66281406  0.33171364  1
  Te  Te161  1  0.82884207  0.66746193  0.67072185  1
  Te  Te162  1  0.00317742  0.16032961  -0.00416416  1
  Te  Te163  1  0.00103297  0.16019619  0.33688726  1
  Te  Te164  1  -0.00145093  0.16268360  0.66886370  1
  Te  Te165  1  -0.00677685  0.49807623  -0.00086316  1
  Te  Te166  1  -0.00452881  0.50009573  0.33806699  1
  Te  Te167  1  0.00054646  0.49589082  0.66036997  1
  Te  Te168  1  -0.00518538  0.84089638  -0.00101541  1
  Te  Te169  1  0.00058412  0.83424166  0.33725389  1
  Te  Te170  1  -0.00265167  0.83660556  0.66342677  1
  Te  Te171  1  0.33220818  0.16854480  0.00082073  1
  Te  Te172  1  0.33308621  0.16995221  0.33142525  1
  Te  Te173  1  0.33085045  0.16564505  0.66874234  1
  Te  Te174  1  0.33208472  0.50423067  0.00109556  1
  Te  Te175  1  0.33380127  0.49646134  0.32919961  1
  Te  Te176  1  0.33264555  0.49861281  0.67007503  1
  Te  Te177  1  0.33246156  0.82887407  0.00144187  1
  Te  Te178  1  0.33262694  0.83250678  0.33057868  1
  Te  Te179  1  0.33076865  0.83325339  0.66269670  1
  Te  Te180  1  0.66518352  0.16755400  0.00468744  1
  Te  Te181  1  0.66578105  0.15746659  0.33025616  1
  Te  Te182  1  0.67124943  0.16486532  0.66622844  1
  Te  Te183  1  0.67353248  0.49421921  -0.00041572  1
  Te  Te184  1  0.67378556  0.50020149  0.33467671  1
  Te  Te185  1  0.66571569  0.49395816  0.66657700  1
  Te  Te186  1  0.66653158  0.83309149  0.00088323  1
  Te  Te187  1  0.66723660  0.83691177  0.33523244  1
  Te  Te188  1  0.66863805  0.83702409  0.66464990  1
  Te  Te189  1  0.00095065  0.00125135  0.16784833  1
  Te  Te190  1  -0.00029779  -0.00197642  0.49904604  1
  Te  Te191  1  -0.00098300  0.00263341  0.83390159  1
  Te  Te192  1  -0.00545350  0.33343653  0.16698882  1
  Te  Te193  1  -0.00402715  0.32944713  0.50274427  1
  Te  Te194  1  -0.00399068  0.32907885  0.82763980  1
  Te  Te195  1  -0.00099979  0.66629759  0.17158010  1
  Te  Te196  1  0.00276247  0.67015732  0.49830884  1
  Te  Te197  1  -0.00218574  0.66539523  0.83295363  1
  Te  Te198  1  0.33505093  -0.00006299  0.16604000  1
  Te  Te199  1  0.33304632  -0.00642761  0.49868388  1
  Te  Te200  1  0.33597542  0.00052371  0.83495434  1
  Te  Te201  1  0.33343034  0.32448078  0.16792047  1
  Te  Te202  1  0.33369411  0.33520289  0.49556443  1
  Te  Te203  1  0.33408027  0.32657895  0.83433047  1
  Te  Te204  1  0.33533855  0.67053482  0.16282983  1
  Te  Te205  1  0.32742790  0.67086141  0.50149597  1
  Te  Te206  1  0.33504210  0.67063735  0.83721276  1
  Te  Te207  1  0.66664155  -0.00237438  0.16250703  1
  Te  Te208  1  0.66779790  -0.00530782  0.50394742  1
  Te  Te209  1  0.66718929  0.00028990  0.83479657  1
  Te  Te210  1  0.66702266  0.33590148  0.16606976  1
  Te  Te211  1  0.67369907  0.33256418  0.50052957  1
  Te  Te212  1  0.67049308  0.33399150  0.83321925  1
  Te  Te213  1  0.66655392  0.66934833  0.16284406  1
  Te  Te214  1  0.66625834  0.67256702  0.50242879  1
  Te  Te215  1  0.66885271  0.66651507  0.83642903  1
