# generated using pymatgen
data_AgSbTe2
_symmetry_space_group_name_H-M   'P 1'
_cell_length_a   18.34324581
_cell_length_b   18.34380200
_cell_length_c   18.33453423
_cell_angle_alpha   90.00138165
_cell_angle_beta   89.99674706
_cell_angle_gamma   89.99925195
_symmetry_Int_Tables_number   1
_chemical_formula_structural   AgSbTe2
_chemical_formula_sum   'Ag54 Sb54 Te108'
_cell_volume   6169.29333566
_cell_formula_units_Z   54
loop_
 _symmetry_equiv_pos_site_id
 _symmetry_equiv_pos_as_xyz
  1  'x, y, z'
loop_
 _atom_site_type_symbol
 _atom_site_label
 _atom_site_symmetry_multiplicity
 _atom_site_fract_x
 _atom_site_fract_y
 _atom_site_fract_z
 _atom_site_occupancy
  Ag  Ag0  1  0.49949473  0.67722577  0.82375756  1
  Ag  Ag1  1  0.50019799  0.50265877  0.00619699  1
  Ag  Ag2  1  0.65133842  -0.00566925  0.32848400  1
  Ag  Ag3  1  0.65802017  0.83774091  0.82335010  1
  Ag  Ag4  1  0.16760635  0.32468025  0.16909442  1
  Ag  Ag5  1  0.17350303  0.50295877  0.34107965  1
  Ag  Ag6  1  0.00856117  0.15352577  0.50312060  1
  Ag  Ag7  1  0.00707849  -0.00385158  0.65803136  1
  Ag  Ag8  1  0.83281394  0.34312934  0.50310626  1
  Ag  Ag9  1  0.00768826  0.16193623  0.82402450  1
  Ag  Ag10  1  0.50018698  -0.00632575  0.83151352  1
  Ag  Ag11  1  0.17380471  0.32380875  0.83138929  1
  Ag  Ag12  1  0.01020541  -0.00235535  0.34243014  1
  Ag  Ag13  1  0.83684824  0.50300626  0.66403638  1
  Ag  Ag14  1  0.50050265  -0.00940354  0.49424255  1
  Ag  Ag15  1  0.49958867  0.67202140  0.49871772  1
  Ag  Ag16  1  0.49835094  0.83423790  0.66040822  1
  Ag  Ag17  1  0.33665570  -0.00644464  0.33984178  1
  Ag  Ag18  1  0.82443373  -0.00164493  0.16800170  1
  Ag  Ag19  1  0.00189710  0.83506747  0.49982846  1
  Ag  Ag20  1  -0.00028410  0.83766798  0.17986753  1
  Ag  Ag21  1  0.66539317  0.66863463  0.65932053  1
  Ag  Ag22  1  0.49740949  0.33178239  0.83221210  1
  Ag  Ag23  1  0.16518674  0.15861534  0.65875360  1
  Ag  Ag24  1  0.49506281  0.15322278  0.33743677  1
  Ag  Ag25  1  0.66479546  0.15732596  0.17198631  1
  Ag  Ag26  1  0.49630680  0.50778418  0.33413157  1
  Ag  Ag27  1  0.65716258  0.67803045  0.34170315  1
  Ag  Ag28  1  0.66522697  0.50319366  0.17095716  1
  Ag  Ag29  1  -0.00023902  0.67323136  0.66185660  1
  Ag  Ag30  1  0.16839692  0.66647215  0.50069209  1
  Ag  Ag31  1  0.00764088  0.51026049  0.50094798  1
  Ag  Ag32  1  0.33386361  0.34035418  -0.00419505  1
  Ag  Ag33  1  0.16774478  0.00061690  0.18155310  1
  Ag  Ag34  1  0.82555209  0.00055642  0.83307981  1
  Ag  Ag35  1  0.16372789  0.50215820  0.65989393  1
  Ag  Ag36  1  0.34077667  0.83549672  0.82927315  1
  Ag  Ag37  1  0.82750546  0.50122097  -0.00703969  1
  Ag  Ag38  1  0.33774076  0.67481809  0.33771242  1
  Ag  Ag39  1  0.17302600  0.83855367  0.34012081  1
  Ag  Ag40  1  0.16894558  0.00255146  0.81883874  1
  Ag  Ag41  1  0.66611171  0.83834186  0.17935031  1
  Ag  Ag42  1  0.50108667  0.83705144  0.34315748  1
  Ag  Ag43  1  0.66507589  0.34039252  0.66673533  1
  Ag  Ag44  1  0.17328513  0.15579127  0.34432232  1
  Ag  Ag45  1  0.83692687  0.66522244  0.50216976  1
  Ag  Ag46  1  0.33592893  0.66318667  0.00505682  1
  Ag  Ag47  1  0.17127222  0.83961829  0.65970121  1
  Ag  Ag48  1  0.32591144  0.16466673  0.49845596  1
  Ag  Ag49  1  0.65700765  0.83107804  0.49909559  1
  Ag  Ag50  1  0.50751118  -0.00031935  0.18003172  1
  Ag  Ag51  1  0.32592479  0.50292554  0.49803544  1
  Ag  Ag52  1  0.32925760  -0.00295840  0.66038682  1
  Ag  Ag53  1  0.66430386  0.15726873  0.83082385  1
  Sb  Sb54  1  0.00088072  -0.00142781  -0.00067642  1
  Sb  Sb55  1  0.66497524  -0.00102367  0.00321821  1
  Sb  Sb56  1  0.83684918  0.16731444  0.66647196  1
  Sb  Sb57  1  0.83271893  0.16757072  -0.00149661  1
  Sb  Sb58  1  0.66573810  -0.00399808  0.66587719  1
  Sb  Sb59  1  0.33362815  -0.00118456  -0.00072173  1
  Sb  Sb60  1  0.83159151  0.50243863  0.33927731  1
  Sb  Sb61  1  0.83459539  0.33106846  0.16994301  1
  Sb  Sb62  1  0.49800562  0.33123898  0.16496898  1
  Sb  Sb63  1  0.83229492  -0.00413961  0.49943978  1
  Sb  Sb64  1  0.00451817  0.32755989  0.33666154  1
  Sb  Sb65  1  0.16416202  0.33564627  0.50159954  1
  Sb  Sb66  1  0.66565117  0.33115034  0.33777300  1
  Sb  Sb67  1  0.16712781  0.67087141  0.17662190  1
  Sb  Sb68  1  0.33449813  0.50282410  0.82896395  1
  Sb  Sb69  1  0.66437814  0.50130153  0.83244442  1
  Sb  Sb70  1  0.83188760  0.33015948  0.82890470  1
  Sb  Sb71  1  0.82689871  0.67048375  0.82791344  1
  Sb  Sb72  1  0.00186413  0.49611875  0.82501154  1
  Sb  Sb73  1  0.00348550  0.33495054  -0.00147591  1
  Sb  Sb74  1  0.82913085  0.83487896  0.33506199  1
  Sb  Sb75  1  0.66288972  0.33503282  -0.00458072  1
  Sb  Sb76  1  0.83024596  0.67062306  0.17367512  1
  Sb  Sb77  1  0.00346632  0.66673696  -0.00791567  1
  Sb  Sb78  1  0.49945761  0.16797837  0.00059332  1
  Sb  Sb79  1  -0.00023425  0.15819485  0.17149143  1
  Sb  Sb80  1  0.17026087  0.49927631  -0.00027152  1
  Sb  Sb81  1  0.33573345  0.83543677  0.16860746  1
  Sb  Sb82  1  0.66534486  0.50994425  0.49713372  1
  Sb  Sb83  1  0.17192804  0.67105587  0.82403642  1
  Sb  Sb84  1  0.83277808  0.16225891  0.33500574  1
  Sb  Sb85  1  0.16813414  0.83389340  0.00033903  1
  Sb  Sb86  1  0.00006379  0.84017786  0.82503330  1
  Sb  Sb87  1  0.33543778  0.33034203  0.66836576  1
  Sb  Sb88  1  0.33470944  0.16531598  0.17250392  1
  Sb  Sb89  1  0.33481051  0.67336300  0.66068897  1
  Sb  Sb90  1  0.00027588  0.33172373  0.66275149  1
  Sb  Sb91  1  0.00347259  0.67415022  0.34332964  1
  Sb  Sb92  1  -0.00096465  0.50465567  0.17566119  1
  Sb  Sb93  1  0.50406427  0.33432461  0.50301991  1
  Sb  Sb94  1  0.33609539  0.49952215  0.17241801  1
  Sb  Sb95  1  0.83147450  0.83097446  0.66490147  1
  Sb  Sb96  1  0.33156393  0.33237235  0.33272234  1
  Sb  Sb97  1  0.66680531  0.16132648  0.50049288  1
  Sb  Sb98  1  0.49955377  0.82921779  -0.00085314  1
  Sb  Sb99  1  0.49817139  0.50664822  0.66379023  1
  Sb  Sb100  1  0.16695726  0.16499556  -0.00133033  1
  Sb  Sb101  1  0.33308570  0.16100587  0.82825669  1
  Sb  Sb102  1  0.17402240  -0.00527424  0.49992515  1
  Sb  Sb103  1  0.33388810  0.83377914  0.50169017  1
  Sb  Sb104  1  0.49686808  0.15856759  0.66363029  1
  Sb  Sb105  1  0.66214591  0.66567572  -0.00040623  1
  Sb  Sb106  1  0.83184302  0.83139455  0.00068179  1
  Sb  Sb107  1  0.50092534  0.67089978  0.17313230  1
  Te  Te108  1  0.16503565  0.16523122  0.16834196  1
  Te  Te109  1  0.16541862  0.17094955  0.50031405  1
  Te  Te110  1  0.16737949  0.16478241  0.83200168  1
  Te  Te111  1  0.16493872  0.50092748  0.17012569  1
  Te  Te112  1  0.16660882  0.49721688  0.50019585  1
  Te  Te113  1  0.16576554  0.49987642  0.83147345  1
  Te  Te114  1  0.16599727  0.83717839  0.17140028  1
  Te  Te115  1  0.16631497  0.82897761  0.50057832  1
  Te  Te116  1  0.16695353  0.83866523  0.83019712  1
  Te  Te117  1  0.50378421  0.16316500  0.16910631  1
  Te  Te118  1  0.49914757  0.16674287  0.49549117  1
  Te  Te119  1  0.50333685  0.16852001  0.83215073  1
  Te  Te120  1  0.50327177  0.49975551  0.16803402  1
  Te  Te121  1  0.49776988  0.50163913  0.49545065  1
  Te  Te122  1  0.49899159  0.49563593  0.83264616  1
  Te  Te123  1  0.50339900  0.83951865  0.16728864  1
  Te  Te124  1  0.49757918  0.83335572  0.50180521  1
  Te  Te125  1  0.50143872  0.83217385  0.83618158  1
  Te  Te126  1  0.82887597  0.16174182  0.16593432  1
  Te  Te127  1  0.83668642  0.16758535  0.50045018  1
  Te  Te128  1  0.82682427  0.16245391  0.83378475  1
  Te  Te129  1  0.82975719  0.50045606  0.16752275  1
  Te  Te130  1  0.83215273  0.50337245  0.50449647  1
  Te  Te131  1  0.83401545  0.50053691  0.83006283  1
  Te  Te132  1  0.82966744  0.83821566  0.16554004  1
  Te  Te133  1  0.83935956  0.82708590  0.50109152  1
  Te  Te134  1  0.83017314  0.83926011  0.83456468  1
  Te  Te135  1  0.16741475  -0.00117231  0.00150154  1
  Te  Te136  1  0.16855390  -0.00124544  0.33699056  1
  Te  Te137  1  0.16626664  -0.00004454  0.66343742  1
  Te  Te138  1  0.17144418  0.33340788  -0.00261957  1
  Te  Te139  1  0.16675173  0.33800776  0.32806259  1
  Te  Te140  1  0.16742167  0.33581343  0.67218698  1
  Te  Te141  1  0.17268768  0.66603510  -0.00209282  1
  Te  Te142  1  0.17067046  0.66517367  0.33944992  1
  Te  Te143  1  0.16568474  0.66436853  0.66136982  1
  Te  Te144  1  0.49791841  0.00011488  -0.00883216  1
  Te  Te145  1  0.49546984  -0.00185620  0.33442418  1
  Te  Te146  1  0.49924395  -0.00556155  0.67088798  1
  Te  Te147  1  0.49573076  0.33681860  -0.00261946  1
  Te  Te148  1  0.49997944  0.34030557  0.33325243  1
  Te  Te149  1  0.50435352  0.33328093  0.67100807  1
  Te  Te150  1  0.49648980  0.66158366  -0.00071709  1
  Te  Te151  1  0.49882582  0.66769647  0.33415292  1
  Te  Te152  1  0.50182068  0.67187903  0.66456385  1
  Te  Te153  1  0.83362909  0.00020107  -0.00090458  1
  Te  Te154  1  0.83864282  0.00063091  0.32928051  1
  Te  Te155  1  0.83850629  -0.00073423  0.67205104  1
  Te  Te156  1  0.83356740  0.34178633  0.00101924  1
  Te  Te157  1  0.83427058  0.33252687  0.33951623  1
  Te  Te158  1  0.82925130  0.33688442  0.66419772  1
  Te  Te159  1  0.83542898  0.65939073  -0.00126794  1
  Te  Te160  1  0.82401365  0.66698828  0.34110448  1
  Te  Te161  1  0.83228895  0.66407707  0.66349665  1
  Te  Te162  1  -0.00124757  0.16780729  -0.00840701  1
  Te  Te163  1  0.00470983  0.15957077  0.33831011  1
  Te  Te164  1  0.00307532  0.16509403  0.66521930  1
  Te  Te165  1  -0.00311274  0.50210321  0.00276391  1
  Te  Te166  1  0.00331074  0.50217124  0.34075826  1
  Te  Te167  1  0.00041422  0.49965517  0.66122683  1
  Te  Te168  1  -0.00055115  0.83013808  0.00705368  1
  Te  Te169  1  0.00196722  0.83593614  0.33643014  1
  Te  Te170  1  0.00243457  0.83404935  0.66265414  1
  Te  Te171  1  0.33408781  0.17230095  0.00052572  1
  Te  Te172  1  0.33389452  0.16642570  0.33710649  1
  Te  Te173  1  0.32855822  0.16127015  0.66086696  1
  Te  Te174  1  0.33791031  0.50090491  -0.00101979  1
  Te  Te175  1  0.33342441  0.49927795  0.33643487  1
  Te  Te176  1  0.32905241  0.49905029  0.65959157  1
  Te  Te177  1  0.33278214  0.82886283  -0.00657112  1
  Te  Te178  1  0.33301951  0.83350564  0.33168514  1
  Te  Te179  1  0.33248546  0.83749458  0.66946440  1
  Te  Te180  1  0.66711035  0.16797689  -0.00317301  1
  Te  Te181  1  0.66194426  0.16271708  0.33131706  1
  Te  Te182  1  0.66587707  0.16570648  0.67103260  1
  Te  Te183  1  0.66536112  0.49987290  0.00396537  1
  Te  Te184  1  0.66422704  0.49795228  0.32876044  1
  Te  Te185  1  0.66762995  0.50303920  0.66605949  1
  Te  Te186  1  0.66758077  0.83125268  0.00092817  1
  Te  Te187  1  0.66482723  0.83532562  0.33615045  1
  Te  Te188  1  0.66462635  0.83050413  0.66449796  1
  Te  Te189  1  0.00499383  -0.00418119  0.16592956  1
  Te  Te190  1  -0.00421925  -0.00245059  0.50050351  1
  Te  Te191  1  0.00675153  0.00299873  0.83294232  1
  Te  Te192  1  0.00541662  0.33240733  0.16634622  1
  Te  Te193  1  -0.00669884  0.33479332  0.49890267  1
  Te  Te194  1  0.00282237  0.32668341  0.83232067  1
  Te  Te195  1  -0.00093716  0.67507860  0.16634358  1
  Te  Te196  1  0.00149461  0.66877347  0.50252830  1
  Te  Te197  1  -0.00031441  0.66727668  0.82281284  1
  Te  Te198  1  0.32989506  0.00091501  0.16710574  1
  Te  Te199  1  0.33916400  0.00358411  0.50095099  1
  Te  Te200  1  0.33152130  -0.00334193  0.83361077  1
  Te  Te201  1  0.32822211  0.33369494  0.16111632  1
  Te  Te202  1  0.33479044  0.33212067  0.50088711  1
  Te  Te203  1  0.33351352  0.33405510  0.83542354  1
  Te  Te204  1  0.33354842  0.66669917  0.16538060  1
  Te  Te205  1  0.33350667  0.66288546  0.49633257  1
  Te  Te206  1  0.33816966  0.67083925  0.83104814  1
  Te  Te207  1  0.66556469  0.00029681  0.16723160  1
  Te  Te208  1  0.66330973  -0.00533984  0.49551234  1
  Te  Te209  1  0.66575595  -0.00163239  0.83316758  1
  Te  Te210  1  0.66814113  0.33223206  0.16592124  1
  Te  Te211  1  0.67207666  0.32962727  0.50557473  1
  Te  Te212  1  0.66388756  0.33369680  0.82838309  1
  Te  Te213  1  0.66694764  0.66639989  0.16861759  1
  Te  Te214  1  0.66060138  0.66951623  0.50052413  1
  Te  Te215  1  0.66022820  0.67052026  0.83043685  1
