# generated using pymatgen
data_AgSbTe2
_symmetry_space_group_name_H-M   'P 1'
_cell_length_a   18.30990562
_cell_length_b   18.31554357
_cell_length_c   18.31080345
_cell_angle_alpha   89.99859417
_cell_angle_beta   90.00131156
_cell_angle_gamma   90.00032704
_symmetry_Int_Tables_number   1
_chemical_formula_structural   AgSbTe2
_chemical_formula_sum   'Ag54 Sb54 Te108'
_cell_volume   6140.63549048
_cell_formula_units_Z   54
loop_
 _symmetry_equiv_pos_site_id
 _symmetry_equiv_pos_as_xyz
  1  'x, y, z'
loop_
 _atom_site_type_symbol
 _atom_site_label
 _atom_site_symmetry_multiplicity
 _atom_site_fract_x
 _atom_site_fract_y
 _atom_site_fract_z
 _atom_site_occupancy
  Ag  Ag0  1  0.33117374  0.17089601  0.83431835  1
  Ag  Ag1  1  0.50006091  0.49413135  -0.00315122  1
  Ag  Ag2  1  0.82993574  0.00468456  0.16650831  1
  Ag  Ag3  1  0.00230380  0.66216816  0.33346811  1
  Ag  Ag4  1  0.15655824  0.17075037  0.32976362  1
  Ag  Ag5  1  0.66388880  0.33077265  0.00177207  1
  Ag  Ag6  1  0.83794613  0.16844484  0.33476996  1
  Ag  Ag7  1  0.66925656  0.16733133  0.49780989  1
  Ag  Ag8  1  0.66493666  0.67082001  0.66632913  1
  Ag  Ag9  1  0.33971298  0.33386831  -0.00655294  1
  Ag  Ag10  1  0.16691654  0.83377818  0.66674291  1
  Ag  Ag11  1  0.49779051  0.33421061  0.83730576  1
  Ag  Ag12  1  0.83265471  -0.00220390  0.83602225  1
  Ag  Ag13  1  -0.00105077  0.49196451  0.17722108  1
  Ag  Ag14  1  0.66105624  0.67004933  -0.00451706  1
  Ag  Ag15  1  -0.00536643  0.49946804  0.49368028  1
  Ag  Ag16  1  0.50405935  0.67243083  0.50049711  1
  Ag  Ag17  1  -0.00429563  0.83020219  0.49901710  1
  Ag  Ag18  1  0.33818218  0.66347067  -0.00185668  1
  Ag  Ag19  1  0.50526926  -0.00850087  0.49670139  1
  Ag  Ag20  1  0.33491696  0.83565256  0.83121305  1
  Ag  Ag21  1  0.82699383  0.83601609  0.67054898  1
  Ag  Ag22  1  0.33529680  0.33168800  0.67499807  1
  Ag  Ag23  1  0.66841078  0.49901480  0.50121957  1
  Ag  Ag24  1  0.49905570  0.17345078  -0.00152259  1
  Ag  Ag25  1  0.83364568  0.16521509  0.66154732  1
  Ag  Ag26  1  0.82585405  0.49780077  0.66341428  1
  Ag  Ag27  1  0.66548693  0.83331873  0.50507067  1
  Ag  Ag28  1  0.83719605  0.32732836  0.17326151  1
  Ag  Ag29  1  0.33620193  -0.00187216  0.66934547  1
  Ag  Ag30  1  0.50184211  0.83393163  0.34378522  1
  Ag  Ag31  1  -0.00617029  0.00472203  0.33267144  1
  Ag  Ag32  1  -0.00599085  0.83850148  0.83014218  1
  Ag  Ag33  1  -0.00601788  0.33166252  0.33009582  1
  Ag  Ag34  1  0.15696921  0.49758299  0.33431493  1
  Ag  Ag35  1  0.50640984  0.83007712  0.66243414  1
  Ag  Ag36  1  0.66795057  -0.00047711  0.00460049  1
  Ag  Ag37  1  0.67503159  0.32864018  0.33608527  1
  Ag  Ag38  1  0.66911606  0.00307509  0.33281518  1
  Ag  Ag39  1  0.33788942  0.49045319  0.83480753  1
  Ag  Ag40  1  0.16278912  0.83620098  -0.00451325  1
  Ag  Ag41  1  0.83333922  0.83735492  -0.00836358  1
  Ag  Ag42  1  0.50041365  0.50169312  0.33761924  1
  Ag  Ag43  1  0.16439118  0.66815244  0.16865391  1
  Ag  Ag44  1  0.16528900  0.16740446  0.00190840  1
  Ag  Ag45  1  0.50895658  -0.00015753  0.16899414  1
  Ag  Ag46  1  0.15775257  0.33306778  0.49604987  1
  Ag  Ag47  1  -0.00141611  0.32907263  0.00808924  1
  Ag  Ag48  1  0.16269867  0.83224288  0.33588913  1
  Ag  Ag49  1  0.66857709  0.83483061  0.82767466  1
  Ag  Ag50  1  0.50474825  0.50379384  0.66386854  1
  Ag  Ag51  1  -0.00125978  0.17181843  0.16850352  1
  Ag  Ag52  1  0.83420456  0.33237816  0.49554020  1
  Ag  Ag53  1  0.00064355  0.16362559  0.83995703  1
  Sb  Sb54  1  -0.00583669  0.00312584  0.00384205  1
  Sb  Sb55  1  0.33293877  0.83438544  0.16113635  1
  Sb  Sb56  1  0.16774603  0.66570875  0.49527721  1
  Sb  Sb57  1  0.33016765  0.66739733  0.32981044  1
  Sb  Sb58  1  0.17040420  0.49828979  0.00495902  1
  Sb  Sb59  1  0.33707940  0.16779567  0.50442686  1
  Sb  Sb60  1  0.82889601  0.66327638  0.49972538  1
  Sb  Sb61  1  0.33642228  -0.00070624  0.33692544  1
  Sb  Sb62  1  0.50310736  0.16567684  0.32944841  1
  Sb  Sb63  1  0.50359911  0.16646846  0.66971577  1
  Sb  Sb64  1  0.67050658  0.49743727  0.17115160  1
  Sb  Sb65  1  0.33841238  0.00125140  -0.00627284  1
  Sb  Sb66  1  0.15861207  0.33565281  0.17055295  1
  Sb  Sb67  1  0.16234076  -0.00177095  0.83410881  1
  Sb  Sb68  1  0.50407934  0.33458261  0.50195323  1
  Sb  Sb69  1  0.82847875  0.50056996  -0.00429994  1
  Sb  Sb70  1  0.16371564  -0.00208062  0.16803253  1
  Sb  Sb71  1  0.33950437  0.66759866  0.67251847  1
  Sb  Sb72  1  0.00152314  0.33245479  0.66372998  1
  Sb  Sb73  1  0.16784778  0.00163340  0.49809487  1
  Sb  Sb74  1  0.83680933  0.66734504  0.16664109  1
  Sb  Sb75  1  -0.00508752  0.67040249  0.66094000  1
  Sb  Sb76  1  0.49784643  0.66977901  0.16881772  1
  Sb  Sb77  1  0.83188831  0.67504610  0.83250591  1
  Sb  Sb78  1  0.16864887  0.67089410  0.83803906  1
  Sb  Sb79  1  0.83034901  0.32775337  0.83260586  1
  Sb  Sb80  1  0.50611806  0.32959140  0.16158606  1
  Sb  Sb81  1  0.00065552  0.66603835  0.00440459  1
  Sb  Sb82  1  0.33644195  0.83383260  0.50638571  1
  Sb  Sb83  1  0.82784804  0.00331992  0.49883224  1
  Sb  Sb84  1  -0.00501112  0.16768122  0.49558239  1
  Sb  Sb85  1  0.16388422  0.16429109  0.66722125  1
  Sb  Sb86  1  0.66910530  0.66730237  0.33590808  1
  Sb  Sb87  1  0.16841725  0.50324003  0.66044044  1
  Sb  Sb88  1  0.50033940  0.66377423  0.82998248  1
  Sb  Sb89  1  0.32813804  0.16714783  0.15972538  1
  Sb  Sb90  1  0.17236434  0.33204442  0.83298841  1
  Sb  Sb91  1  0.67293555  0.16575145  0.17002823  1
  Sb  Sb92  1  0.66450049  0.33683462  0.66487033  1
  Sb  Sb93  1  0.83513670  0.49105218  0.33881688  1
  Sb  Sb94  1  0.50249126  0.83249788  -0.00426677  1
  Sb  Sb95  1  -0.00036634  0.83539315  0.16950617  1
  Sb  Sb96  1  0.66192740  0.50322842  0.82953761  1
  Sb  Sb97  1  -0.00037774  -0.00243971  0.66283364  1
  Sb  Sb98  1  0.66822615  0.16265526  0.83194458  1
  Sb  Sb99  1  0.00235993  0.49806341  0.83236189  1
  Sb  Sb100  1  0.83410376  0.84094541  0.33668635  1
  Sb  Sb101  1  0.33203831  0.33345875  0.33197270  1
  Sb  Sb102  1  0.83377038  0.16372858  0.00199661  1
  Sb  Sb103  1  0.33702339  0.49849791  0.50419235  1
  Sb  Sb104  1  0.33166126  0.49904769  0.16308167  1
  Sb  Sb105  1  0.50367419  0.00088496  0.83314006  1
  Sb  Sb106  1  0.66710490  0.83631123  0.16628286  1
  Sb  Sb107  1  0.66462638  -0.00630133  0.66386713  1
  Te  Te108  1  0.16063427  0.16586649  0.16610616  1
  Te  Te109  1  0.16704113  0.17092111  0.49764963  1
  Te  Te110  1  0.16493993  0.16518484  0.83616272  1
  Te  Te111  1  0.16250385  0.50410338  0.17298301  1
  Te  Te112  1  0.16368355  0.49764755  0.49468535  1
  Te  Te113  1  0.17321050  0.50122538  0.83148108  1
  Te  Te114  1  0.16611084  0.83032190  0.16792735  1
  Te  Te115  1  0.16407486  0.83331659  0.49855031  1
  Te  Te116  1  0.16642099  0.83405014  0.83395564  1
  Te  Te117  1  0.49752105  0.16120441  0.16055367  1
  Te  Te118  1  0.50665339  0.16445211  0.49926508  1
  Te  Te119  1  0.49816895  0.16980469  0.83747817  1
  Te  Te120  1  0.50096480  0.50074033  0.16855298  1
  Te  Te121  1  0.50361247  0.49947374  0.50106135  1
  Te  Te122  1  0.49743646  0.49665290  0.83426649  1
  Te  Te123  1  0.49977530  0.83795247  0.17489952  1
  Te  Te124  1  0.49972851  0.83319366  0.50105768  1
  Te  Te125  1  0.50147609  0.83325097  0.82755716  1
  Te  Te126  1  0.83852243  0.16641429  0.16882217  1
  Te  Te127  1  0.82969092  0.16953489  0.49971125  1
  Te  Te128  1  0.83667557  0.16129642  0.83013291  1
  Te  Te129  1  0.83944233  0.49669212  0.16434768  1
  Te  Te130  1  0.83239423  0.49755680  0.50426707  1
  Te  Te131  1  0.83482721  0.49933409  0.82375094  1
  Te  Te132  1  0.83351079  0.83866221  0.16079601  1
  Te  Te133  1  0.83320452  0.83296423  0.50473745  1
  Te  Te134  1  0.83292405  0.83667538  0.83198446  1
  Te  Te135  1  0.16741793  -0.00093121  0.00195622  1
  Te  Te136  1  0.16491326  -0.00214364  0.33283371  1
  Te  Te137  1  0.17208467  -0.00601886  0.66541067  1
  Te  Te138  1  0.16391623  0.32957483  0.00045761  1
  Te  Te139  1  0.16726005  0.33400323  0.33612368  1
  Te  Te140  1  0.17164181  0.33347230  0.66010228  1
  Te  Te141  1  0.16849107  0.66882261  0.00515768  1
  Te  Te142  1  0.16410514  0.66803908  0.33046973  1
  Te  Te143  1  0.16702878  0.67430711  0.66484594  1
  Te  Te144  1  0.50612763  0.00112319  0.00313688  1
  Te  Te145  1  0.50336256  -0.00058394  0.33421470  1
  Te  Te146  1  0.49741494  -0.00166845  0.66365321  1
  Te  Te147  1  0.50197919  0.33331619  -0.00012159  1
  Te  Te148  1  0.50233177  0.33671082  0.33144345  1
  Te  Te149  1  0.49634982  0.33516717  0.67051662  1
  Te  Te150  1  0.50018991  0.66369227  0.00205479  1
  Te  Te151  1  0.50022634  0.66674343  0.33633034  1
  Te  Te152  1  0.50410615  0.66594441  0.66336408  1
  Te  Te153  1  0.82944887  -0.00246017  0.00131626  1
  Te  Te154  1  0.83081474  0.00559691  0.33174407  1
  Te  Te155  1  0.83282036  -0.00117569  0.66901499  1
  Te  Te156  1  0.83240968  0.33388158  0.00066953  1
  Te  Te157  1  0.83269227  0.33049230  0.33408883  1
  Te  Te158  1  0.83322373  0.33247101  0.66410459  1
  Te  Te159  1  0.82853925  0.67219678  0.00087122  1
  Te  Te160  1  0.84040896  0.66844558  0.33198117  1
  Te  Te161  1  0.82641733  0.66899355  0.66616516  1
  Te  Te162  1  0.00086974  0.16806354  -0.00055103  1
  Te  Te163  1  -0.00074152  0.16820603  0.33442574  1
  Te  Te164  1  -0.00441610  0.16487621  0.67251158  1
  Te  Te165  1  -0.00000321  0.49486696  -0.00068175  1
  Te  Te166  1  -0.00143344  0.49522882  0.33599584  1
  Te  Te167  1  -0.00217527  0.50177623  0.66230705  1
  Te  Te168  1  0.00153782  0.83331009  -0.00209855  1
  Te  Te169  1  0.00010351  0.83635610  0.33601043  1
  Te  Te170  1  -0.00007054  0.83311636  0.66644043  1
  Te  Te171  1  0.33119256  0.16838654  -0.00536539  1
  Te  Te172  1  0.32459885  0.16661745  0.33364848  1
  Te  Te173  1  0.33265855  0.16790066  0.67227824  1
  Te  Te174  1  0.33660181  0.49850844  -0.00339406  1
  Te  Te175  1  0.33774506  0.49994185  0.33320454  1
  Te  Te176  1  0.33688377  0.49850329  0.67190020  1
  Te  Te177  1  0.33126477  0.83270369  -0.00621425  1
  Te  Te178  1  0.33057049  0.83384662  0.33313273  1
  Te  Te179  1  0.33327724  0.83333216  0.67097466  1
  Te  Te180  1  0.66412025  0.16709581  0.00003297  1
  Te  Te181  1  0.66772083  0.16743754  0.33635088  1
  Te  Te182  1  0.67198181  0.16692636  0.66168957  1
  Te  Te183  1  0.66205878  0.49865820  -0.00021067  1
  Te  Te184  1  0.66409941  0.49859300  0.33861325  1
  Te  Te185  1  0.66500750  0.50353301  0.66350254  1
  Te  Te186  1  0.66724785  0.83465176  -0.00123270  1
  Te  Te187  1  0.66470733  0.83570466  0.33840368  1
  Te  Te188  1  0.66620298  0.83249361  0.66591543  1
  Te  Te189  1  -0.00385869  0.00507238  0.17233127  1
  Te  Te190  1  -0.00056434  -0.00587513  0.49305294  1
  Te  Te191  1  -0.00538445  -0.00133036  0.83315190  1
  Te  Te192  1  -0.00212692  0.33299893  0.16741088  1
  Te  Te193  1  -0.00245228  0.33457888  0.49816957  1
  Te  Te194  1  -0.00004890  0.32953919  0.83693409  1
  Te  Te195  1  0.00366453  0.66234982  0.17194717  1
  Te  Te196  1  0.00081757  0.66721042  0.49375756  1
  Te  Te197  1  0.00065502  0.67226968  0.83396292  1
  Te  Te198  1  0.34133050  0.00103435  0.16724669  1
  Te  Te199  1  0.34089942  0.00176706  0.50666027  1
  Te  Te200  1  0.33379430  -0.00137975  0.82815302  1
  Te  Te201  1  0.33273849  0.33315588  0.15716894  1
  Te  Te202  1  0.33057895  0.33300375  0.50321780  1
  Te  Te203  1  0.33454203  0.33138499  0.83475312  1
  Te  Te204  1  0.32809926  0.66676205  0.15834898  1
  Te  Te205  1  0.34233691  0.66558923  0.49879091  1
  Te  Te206  1  0.33426209  0.67176572  0.83991906  1
  Te  Te207  1  0.66849507  0.00058086  0.16868304  1
  Te  Te208  1  0.66417689  -0.00252479  0.49662619  1
  Te  Te209  1  0.67122906  -0.00397582  0.83733548  1
  Te  Te210  1  0.67446418  0.33237439  0.16757322  1
  Te  Te211  1  0.67010020  0.33484467  0.49838200  1
  Te  Te212  1  0.66186626  0.33256005  0.83823147  1
  Te  Te213  1  0.66716224  0.66580567  0.15958124  1
  Te  Te214  1  0.66327080  0.66711445  0.50072368  1
  Te  Te215  1  0.66612759  0.67234432  0.83478301  1
