# generated using pymatgen
data_AgSbTe2
_symmetry_space_group_name_H-M   'P 1'
_cell_length_a   18.30666267
_cell_length_b   18.31125611
_cell_length_c   18.31148464
_cell_angle_alpha   90.00072865
_cell_angle_beta   89.99847629
_cell_angle_gamma   90.00264068
_symmetry_Int_Tables_number   1
_chemical_formula_structural   AgSbTe2
_chemical_formula_sum   'Ag54 Sb54 Te108'
_cell_volume   6138.33903894
_cell_formula_units_Z   54
loop_
 _symmetry_equiv_pos_site_id
 _symmetry_equiv_pos_as_xyz
  1  'x, y, z'
loop_
 _atom_site_type_symbol
 _atom_site_label
 _atom_site_symmetry_multiplicity
 _atom_site_fract_x
 _atom_site_fract_y
 _atom_site_fract_z
 _atom_site_occupancy
  Ag  Ag0  1  0.16645522  0.49695475  0.00628496  1
  Ag  Ag1  1  0.50402866  0.33399440  0.49692508  1
  Ag  Ag2  1  0.49889733  0.16135724  -0.00065136  1
  Ag  Ag3  1  0.82582015  0.83428324  0.33273380  1
  Ag  Ag4  1  0.50465273  0.84405915  0.00514085  1
  Ag  Ag5  1  0.83314384  0.83705255  0.66986210  1
  Ag  Ag6  1  0.33026709  0.66535201  -0.00000135  1
  Ag  Ag7  1  0.66844145  0.67070768  0.66388418  1
  Ag  Ag8  1  0.82745792  0.33466635  0.50417946  1
  Ag  Ag9  1  0.83014222  0.32422749  0.83166419  1
  Ag  Ag10  1  0.49902723  -0.00251896  0.15938977  1
  Ag  Ag11  1  0.83291759  0.49099072  0.66454340  1
  Ag  Ag12  1  0.00202833  0.50054105  0.16697298  1
  Ag  Ag13  1  0.82671057  0.83882476  -0.00128147  1
  Ag  Ag14  1  0.16132311  0.83828516  0.66713653  1
  Ag  Ag15  1  0.16202604  0.34203654  0.16264049  1
  Ag  Ag16  1  0.17233584  0.16378220  -0.00128990  1
  Ag  Ag17  1  0.83119276  0.49842558  0.33205815  1
  Ag  Ag18  1  0.00019399  -0.00016023  -0.00352292  1
  Ag  Ag19  1  0.00380358  0.83673613  0.16627495  1
  Ag  Ag20  1  0.16719819  0.66652043  0.16562709  1
  Ag  Ag21  1  0.33477016  0.33193620  0.00009786  1
  Ag  Ag22  1  0.17303908  0.67130446  0.49853313  1
  Ag  Ag23  1  0.33218091  0.49740118  0.50011692  1
  Ag  Ag24  1  0.16241502  -0.00083200  0.83406010  1
  Ag  Ag25  1  0.16030104  0.50194284  0.32334986  1
  Ag  Ag26  1  0.83206283  0.00383038  0.83359312  1
  Ag  Ag27  1  0.66276632  0.00067616  -0.00217392  1
  Ag  Ag28  1  0.16663228  -0.00362389  0.50802066  1
  Ag  Ag29  1  0.83521301  0.16847317  0.67174388  1
  Ag  Ag30  1  0.66668649  0.32822489  0.00123203  1
  Ag  Ag31  1  0.66926148  0.33447759  0.32943698  1
  Ag  Ag32  1  0.67187512  0.15977921  0.83529637  1
  Ag  Ag33  1  0.32763566  0.83564265  0.16411177  1
  Ag  Ag34  1  0.50278991  0.15921873  0.33064084  1
  Ag  Ag35  1  0.49983966  0.66608295  0.49805312  1
  Ag  Ag36  1  0.51001808  0.00156192  0.84161680  1
  Ag  Ag37  1  0.00241649  0.00127148  0.67580701  1
  Ag  Ag38  1  0.33339217  0.16300967  0.83425905  1
  Ag  Ag39  1  -0.00532918  0.32612641  0.66787192  1
  Ag  Ag40  1  0.66671906  -0.00707992  0.32855656  1
  Ag  Ag41  1  0.83347453  0.33776185  0.16542803  1
  Ag  Ag42  1  -0.00606038  0.16202686  0.83286112  1
  Ag  Ag43  1  -0.00257355  -0.00176623  0.32692887  1
  Ag  Ag44  1  0.50847500  0.84040431  0.32901888  1
  Ag  Ag45  1  0.33451337  0.16755828  0.50560164  1
  Ag  Ag46  1  0.66648810  0.67483134  0.33685708  1
  Ag  Ag47  1  0.67341017  0.49622277  0.16640074  1
  Ag  Ag48  1  0.16899922  0.67450690  0.83938582  1
  Ag  Ag49  1  0.66985276  0.83998059  0.83448740  1
  Ag  Ag50  1  0.67016333  0.49884088  0.83789653  1
  Ag  Ag51  1  0.32483521  -0.00000641  0.66877068  1
  Ag  Ag52  1  0.16551832  -0.00325180  0.16294244  1
  Ag  Ag53  1  0.66711191  0.83265507  0.49690481  1
  Sb  Sb54  1  -0.00346058  0.67074838  0.66733409  1
  Sb  Sb55  1  0.49690582  0.67426925  0.17010868  1
  Sb  Sb56  1  0.33532543  0.49608678  0.83244588  1
  Sb  Sb57  1  0.50647871  0.50009708  0.66525002  1
  Sb  Sb58  1  0.50723175  0.32581947  0.83192072  1
  Sb  Sb59  1  0.49753617  -0.00002552  0.49922240  1
  Sb  Sb60  1  0.00383524  0.16480239  0.50557425  1
  Sb  Sb61  1  0.83036956  0.16216185  -0.00684543  1
  Sb  Sb62  1  0.16689924  0.33271368  0.49599750  1
  Sb  Sb63  1  0.16525867  0.83182753  0.33272915  1
  Sb  Sb64  1  0.32964268  0.50274231  0.16835125  1
  Sb  Sb65  1  0.83463750  0.66975680  0.83247926  1
  Sb  Sb66  1  0.49916825  0.67360659  0.83223550  1
  Sb  Sb67  1  0.67052814  -0.00432131  0.67241197  1
  Sb  Sb68  1  0.33362111  0.16257614  0.16204008  1
  Sb  Sb69  1  0.83575763  0.00166289  0.50428678  1
  Sb  Sb70  1  0.33727766  0.33375055  0.33002373  1
  Sb  Sb71  1  0.16877004  0.83674814  -0.00008238  1
  Sb  Sb72  1  0.50355359  0.83566925  0.66648872  1
  Sb  Sb73  1  0.00531148  0.67281352  0.00109221  1
  Sb  Sb74  1  0.66557630  0.50267556  0.49809734  1
  Sb  Sb75  1  -0.00328023  0.49521258  0.83747984  1
  Sb  Sb76  1  -0.00249454  0.32689798  -0.00178013  1
  Sb  Sb77  1  0.33508306  0.84117192  0.83751392  1
  Sb  Sb78  1  0.82751807  0.16620377  0.33713338  1
  Sb  Sb79  1  0.66682993  0.16908182  0.16103267  1
  Sb  Sb80  1  -0.00380771  0.83508595  0.49699645  1
  Sb  Sb81  1  -0.00439751  0.84167868  0.83739356  1
  Sb  Sb82  1  0.49818944  0.49755568  0.00090080  1
  Sb  Sb83  1  0.33566092  0.00216927  -0.00466563  1
  Sb  Sb84  1  0.33520177  0.66654738  0.33158089  1
  Sb  Sb85  1  0.83379991  0.00076178  0.16239703  1
  Sb  Sb86  1  0.50215879  0.32774976  0.16838293  1
  Sb  Sb87  1  0.33501737  0.00020146  0.33483721  1
  Sb  Sb88  1  0.66814699  0.83230864  0.16727602  1
  Sb  Sb89  1  0.50399574  0.16473271  0.66971386  1
  Sb  Sb90  1  0.33417195  0.67084042  0.66890765  1
  Sb  Sb91  1  0.66323016  0.16390820  0.50313698  1
  Sb  Sb92  1  -0.00612374  0.32946256  0.33368815  1
  Sb  Sb93  1  0.00200474  0.49962318  0.49522238  1
  Sb  Sb94  1  0.67463442  0.33582205  0.66852762  1
  Sb  Sb95  1  0.83525444  0.66488862  0.16773130  1
  Sb  Sb96  1  0.00164896  0.16380160  0.16050704  1
  Sb  Sb97  1  0.66185160  0.66876137  0.00107828  1
  Sb  Sb98  1  -0.00305422  0.67009082  0.33194375  1
  Sb  Sb99  1  0.83077824  0.66512388  0.50020144  1
  Sb  Sb100  1  0.32801200  0.32702221  0.66933162  1
  Sb  Sb101  1  0.50501778  0.50097398  0.33388586  1
  Sb  Sb102  1  0.16245745  0.32802302  0.83930998  1
  Sb  Sb103  1  0.16211529  0.15813314  0.67473000  1
  Sb  Sb104  1  0.16109325  0.50465099  0.66730037  1
  Sb  Sb105  1  0.83539825  0.50076199  0.00166946  1
  Sb  Sb106  1  0.16997870  0.16678157  0.32932259  1
  Sb  Sb107  1  0.33642884  0.83450495  0.49656523  1
  Te  Te108  1  0.16755537  0.16169366  0.16097222  1
  Te  Te109  1  0.17350540  0.16291132  0.49831684  1
  Te  Te110  1  0.16923198  0.16320814  0.83862895  1
  Te  Te111  1  0.16759725  0.50085368  0.16621861  1
  Te  Te112  1  0.16990703  0.50157631  0.49919196  1
  Te  Te113  1  0.16678088  0.50100080  0.83746113  1
  Te  Te114  1  0.16544752  0.83500330  0.16669777  1
  Te  Te115  1  0.16762813  0.83542239  0.50081448  1
  Te  Te116  1  0.16684007  0.83585596  0.83060421  1
  Te  Te117  1  0.49990249  0.15937207  0.16620174  1
  Te  Te118  1  0.49592324  0.16857390  0.49910541  1
  Te  Te119  1  0.49958825  0.16181362  0.83679778  1
  Te  Te120  1  0.50460185  0.49981428  0.16690553  1
  Te  Te121  1  0.49521643  0.50028061  0.49983023  1
  Te  Te122  1  0.50746025  0.50038736  0.83272663  1
  Te  Te123  1  0.50054303  0.83768570  0.16674620  1
  Te  Te124  1  0.50432822  0.83046494  0.49687213  1
  Te  Te125  1  0.50487303  0.83886861  0.83651913  1
  Te  Te126  1  0.83445410  0.17683702  0.16776537  1
  Te  Te127  1  0.83387600  0.17252176  0.50716127  1
  Te  Te128  1  0.83279207  0.16464696  0.83274615  1
  Te  Te129  1  0.83452603  0.49831786  0.16839995  1
  Te  Te130  1  0.83359327  0.49661122  0.49838425  1
  Te  Te131  1  0.82995771  0.50031455  0.83272091  1
  Te  Te132  1  0.83847428  0.83313541  0.16920509  1
  Te  Te133  1  0.82773665  0.83290883  0.49790698  1
  Te  Te134  1  0.83011476  0.83552399  0.83227870  1
  Te  Te135  1  0.16747057  0.00135910  0.00063406  1
  Te  Te136  1  0.16337716  0.00029797  0.32736971  1
  Te  Te137  1  0.16357805  -0.00135141  0.66795814  1
  Te  Te138  1  0.16488260  0.33305997  0.00305651  1
  Te  Te139  1  0.16523269  0.33708991  0.32662654  1
  Te  Te140  1  0.15811733  0.33403638  0.66630668  1
  Te  Te141  1  0.17019004  0.66918522  0.00145417  1
  Te  Te142  1  0.16616145  0.66340977  0.33244927  1
  Te  Te143  1  0.16618865  0.67257637  0.66456623  1
  Te  Te144  1  0.49962118  0.00076185  -0.00048479  1
  Te  Te145  1  0.50208609  0.00011160  0.33267967  1
  Te  Te146  1  0.49519840  0.00007454  0.67201464  1
  Te  Te147  1  0.50302765  0.32926619  0.00011136  1
  Te  Te148  1  0.50503774  0.33085213  0.33580298  1
  Te  Te149  1  0.49780981  0.33301051  0.65849032  1
  Te  Te150  1  0.49253349  0.66857035  -0.00000237  1
  Te  Te151  1  0.50504018  0.66929325  0.33733301  1
  Te  Te152  1  0.50523651  0.66754714  0.66076861  1
  Te  Te153  1  0.83087646  -0.00235103  -0.00311515  1
  Te  Te154  1  0.83137732  -0.00144164  0.33378195  1
  Te  Te155  1  0.83706542  -0.00252722  0.66956449  1
  Te  Te156  1  0.82831595  0.33360001  -0.00066757  1
  Te  Te157  1  0.82929670  0.33396169  0.33231047  1
  Te  Te158  1  0.83499064  0.33364066  0.66873631  1
  Te  Te159  1  0.83262689  0.67668916  -0.00021833  1
  Te  Te160  1  0.82807151  0.66598815  0.33457320  1
  Te  Te161  1  0.82921459  0.67313946  0.66619431  1
  Te  Te162  1  0.00411978  0.15977428  -0.00620832  1
  Te  Te163  1  0.00018381  0.15801990  0.33376507  1
  Te  Te164  1  -0.00387539  0.16343868  0.67132796  1
  Te  Te165  1  0.00474857  0.50086078  0.00571752  1
  Te  Te166  1  -0.00293838  0.49864140  0.32783632  1
  Te  Te167  1  -0.00801420  0.49996854  0.66739265  1
  Te  Te168  1  -0.00496279  0.83919452  0.00447513  1
  Te  Te169  1  -0.00475715  0.83782051  0.32942595  1
  Te  Te170  1  -0.00171812  0.83808235  0.66586356  1
  Te  Te171  1  0.33498036  0.16977767  -0.00242983  1
  Te  Te172  1  0.34013214  0.16796030  0.33775960  1
  Te  Te173  1  0.33314563  0.16221836  0.66870382  1
  Te  Te174  1  0.32871734  0.49782464  -0.00114366  1
  Te  Te175  1  0.32891246  0.49933297  0.33871973  1
  Te  Te176  1  0.33189903  0.49945577  0.66181021  1
  Te  Te177  1  0.33862511  0.83011284  0.00337454  1
  Te  Te178  1  0.34062466  0.83267830  0.32681856  1
  Te  Te179  1  0.32900041  0.83867658  0.66608154  1
  Te  Te180  1  0.66410743  0.16561383  -0.00447471  1
  Te  Te181  1  0.66146641  0.16707097  0.33508649  1
  Te  Te182  1  0.67280553  0.16524396  0.67296093  1
  Te  Te183  1  0.66668368  0.49908916  0.00056687  1
  Te  Te184  1  0.67031461  0.49533388  0.33176035  1
  Te  Te185  1  0.67320839  0.50522717  0.66899259  1
  Te  Te186  1  0.66562320  0.83513370  -0.00002711  1
  Te  Te187  1  0.66785792  0.83436098  0.33047074  1
  Te  Te188  1  0.66896514  0.83108986  0.66743013  1
  Te  Te189  1  0.00026406  -0.00171458  0.16457239  1
  Te  Te190  1  0.00597195  -0.00005122  0.49912751  1
  Te  Te191  1  0.00056079  0.00133488  0.83527342  1
  Te  Te192  1  0.00029269  0.33527843  0.16668684  1
  Te  Te193  1  -0.00487806  0.33261691  0.50501164  1
  Te  Te194  1  -0.00669057  0.32769462  0.82968910  1
  Te  Te195  1  0.00656419  0.66609530  0.16704698  1
  Te  Te196  1  0.01212689  0.66697595  0.49971811  1
  Te  Te197  1  0.00966440  0.66543824  0.83341253  1
  Te  Te198  1  0.33204722  -0.00415406  0.16695736  1
  Te  Te199  1  0.32871213  0.00245378  0.50437604  1
  Te  Te200  1  0.32664463  0.00348947  0.82963129  1
  Te  Te201  1  0.33010253  0.33343738  0.16040471  1
  Te  Te202  1  0.33548270  0.33207175  0.50066915  1
  Te  Te203  1  0.33506865  0.32739417  0.83798388  1
  Te  Te204  1  0.32856244  0.67029450  0.16303251  1
  Te  Te205  1  0.33411871  0.66484542  0.50094817  1
  Te  Te206  1  0.32886390  0.66474941  0.83674282  1
  Te  Te207  1  0.66516190  0.00051661  0.16520519  1
  Te  Te208  1  0.66663516  -0.00472895  0.49497113  1
  Te  Te209  1  0.66911575  -0.00096763  0.83468835  1
  Te  Te210  1  0.66784456  0.33551085  0.16524486  1
  Te  Te211  1  0.66661149  0.33283583  0.49846055  1
  Te  Te212  1  0.67026059  0.33393042  0.83519519  1
  Te  Te213  1  0.66552921  0.65881755  0.17045724  1
  Te  Te214  1  0.66502189  0.66941868  0.49844539  1
  Te  Te215  1  0.66570236  0.66693809  0.83182366  1
