# generated using pymatgen
data_AgSbTe2
_symmetry_space_group_name_H-M   'P 1'
_cell_length_a   18.34748981
_cell_length_b   18.34551812
_cell_length_c   18.34537158
_cell_angle_alpha   90.00220016
_cell_angle_beta   89.99936805
_cell_angle_gamma   89.99932438
_symmetry_Int_Tables_number   1
_chemical_formula_structural   AgSbTe2
_chemical_formula_sum   'Ag54 Sb54 Te108'
_cell_volume   6174.94579176
_cell_formula_units_Z   54
loop_
 _symmetry_equiv_pos_site_id
 _symmetry_equiv_pos_as_xyz
  1  'x, y, z'
loop_
 _atom_site_type_symbol
 _atom_site_label
 _atom_site_symmetry_multiplicity
 _atom_site_fract_x
 _atom_site_fract_y
 _atom_site_fract_z
 _atom_site_occupancy
  Ag  Ag0  1  -0.00084757  0.00420434  0.32085918  1
  Ag  Ag1  1  0.00056760  0.32388142  0.65862711  1
  Ag  Ag2  1  0.16012331  0.16903161  0.33152546  1
  Ag  Ag3  1  0.51045936  0.66511731  0.49810417  1
  Ag  Ag4  1  0.83344907  0.33322030  0.49537363  1
  Ag  Ag5  1  0.33590199  0.83335940  0.49565589  1
  Ag  Ag6  1  0.33639586  0.16819252  0.15992536  1
  Ag  Ag7  1  0.67358860  0.17190953  0.49654047  1
  Ag  Ag8  1  0.66955450  0.33729934  0.32002565  1
  Ag  Ag9  1  0.83322916  0.16867907  0.32591010  1
  Ag  Ag10  1  0.15563167  0.00222056  0.16149246  1
  Ag  Ag11  1  -0.01037629  0.83905973  0.16180003  1
  Ag  Ag12  1  0.82927547  0.50000485  0.00463582  1
  Ag  Ag13  1  -0.00075711  0.00515742  0.66841017  1
  Ag  Ag14  1  0.67048830  0.65621887  0.01157039  1
  Ag  Ag15  1  0.67373852  0.18364319  0.16174381  1
  Ag  Ag16  1  -0.01126550  0.67840612  0.00302862  1
  Ag  Ag17  1  0.50224560  0.50012139  0.67643130  1
  Ag  Ag18  1  0.34407058  0.49079766  0.16036113  1
  Ag  Ag19  1  0.66618128  0.49942751  0.16211816  1
  Ag  Ag20  1  0.16616708  0.16360642  0.00321680  1
  Ag  Ag21  1  0.66731962  0.81929241  0.49322461  1
  Ag  Ag22  1  0.67306540  0.81501583  0.16722761  1
  Ag  Ag23  1  0.16536078  0.49079453  0.33229312  1
  Ag  Ag24  1  -0.01282689  0.48731614  0.49995551  1
  Ag  Ag25  1  0.32944823  0.00275325  0.66894253  1
  Ag  Ag26  1  0.15944428  0.00506676  0.84275261  1
  Ag  Ag27  1  0.83485257  0.00273717  0.16125980  1
  Ag  Ag28  1  0.66385713  0.33304435  0.00755795  1
  Ag  Ag29  1  -0.00666297  0.16960911  0.49986933  1
  Ag  Ag30  1  0.16520125  0.16484031  0.66804093  1
  Ag  Ag31  1  0.34421793  0.49033608  0.84283794  1
  Ag  Ag32  1  0.33449578  0.83663305  0.16517774  1
  Ag  Ag33  1  0.50306691  0.65511712  0.84345306  1
  Ag  Ag34  1  0.50218674  0.33652302  0.84115746  1
  Ag  Ag35  1  0.33760008  0.17046538  0.84385025  1
  Ag  Ag36  1  0.51554224  0.33755443  0.15808136  1
  Ag  Ag37  1  0.66204740  0.49423811  0.84411142  1
  Ag  Ag38  1  0.66869368  0.65666019  0.32230794  1
  Ag  Ag39  1  0.82502295  0.65838042  0.49189782  1
  Ag  Ag40  1  0.82929323  0.16520552  0.00704248  1
  Ag  Ag41  1  0.51208779  0.65867410  0.16317336  1
  Ag  Ag42  1  0.66992274  0.50252403  0.49729142  1
  Ag  Ag43  1  -0.00220206  -0.00054573  0.00357333  1
  Ag  Ag44  1  0.34617562  0.32916524  0.00251665  1
  Ag  Ag45  1  0.67151411  0.00369572  0.66621292  1
  Ag  Ag46  1  0.82698958  0.32303025  0.16772035  1
  Ag  Ag47  1  0.83735352  0.00361216  0.84211512  1
  Ag  Ag48  1  0.66269724  0.17109099  0.84620345  1
  Ag  Ag49  1  0.15613232  0.32986499  0.49764569  1
  Ag  Ag50  1  0.15704697  0.84530389  0.00535006  1
  Ag  Ag51  1  0.83556453  0.83633354  0.00559120  1
  Ag  Ag52  1  0.50520881  0.17165290  0.00110702  1
  Ag  Ag53  1  0.82424658  0.66793856  0.16427257  1
  Sb  Sb54  1  0.66676237  0.83525171  0.83757015  1
  Sb  Sb55  1  0.17200926  0.67036783  0.83867528  1
  Sb  Sb56  1  0.16506534  0.00590959  0.49900685  1
  Sb  Sb57  1  0.83588176  0.16659523  0.66706890  1
  Sb  Sb58  1  0.49917173  0.17084366  0.67146197  1
  Sb  Sb59  1  -0.00175708  0.66807743  0.66864394  1
  Sb  Sb60  1  0.17049847  0.49182991  0.66334027  1
  Sb  Sb61  1  0.33817494  0.50279671  0.49810341  1
  Sb  Sb62  1  0.32467540  0.00899701  -0.00167588  1
  Sb  Sb63  1  0.50136737  0.83007926  0.66617096  1
  Sb  Sb64  1  0.33299084  0.16401740  0.49855209  1
  Sb  Sb65  1  0.50358599  0.83646275  0.00346867  1
  Sb  Sb66  1  0.16513569  0.66155172  0.49785320  1
  Sb  Sb67  1  -0.00554197  0.32787278  -0.00195085  1
  Sb  Sb68  1  -0.00360671  0.83704308  0.49529594  1
  Sb  Sb69  1  0.33399611  0.83790531  0.83853662  1
  Sb  Sb70  1  0.16551486  0.83675804  0.32677999  1
  Sb  Sb71  1  0.33893854  0.66558844  0.33040384  1
  Sb  Sb72  1  0.33137598  0.32868766  0.67165409  1
  Sb  Sb73  1  0.34006517  0.66137850  0.00299154  1
  Sb  Sb74  1  -0.00094914  0.83717269  0.84182400  1
  Sb  Sb75  1  0.83291420  0.49488677  0.33036362  1
  Sb  Sb76  1  0.50309337  0.83174083  0.33175877  1
  Sb  Sb77  1  0.67596200  0.00517807  -0.00006735  1
  Sb  Sb78  1  0.50908894  0.49166082  -0.00238716  1
  Sb  Sb79  1  0.82608127  0.66868804  0.84141023  1
  Sb  Sb80  1  0.67030687  0.32971645  0.66746317  1
  Sb  Sb81  1  -0.00777010  0.66883306  0.32838927  1
  Sb  Sb82  1  0.67276545  0.00348236  0.33285765  1
  Sb  Sb83  1  -0.00410344  0.16174583  0.17069706  1
  Sb  Sb84  1  0.16314884  0.32580051  0.16985377  1
  Sb  Sb85  1  -0.00334803  0.49830951  0.83057954  1
  Sb  Sb86  1  0.83286658  0.00303621  0.49782664  1
  Sb  Sb87  1  0.50295360  -0.00299589  0.50279245  1
  Sb  Sb88  1  0.50248947  0.50047588  0.33059485  1
  Sb  Sb89  1  0.83166169  0.83833021  0.32496955  1
  Sb  Sb90  1  -0.00539116  0.50420026  0.17061219  1
  Sb  Sb91  1  0.16551911  0.67049172  0.16554772  1
  Sb  Sb92  1  0.82775004  0.49805837  0.66657268  1
  Sb  Sb93  1  0.32587483  0.00204746  0.33197645  1
  Sb  Sb94  1  0.16780173  0.84456216  0.67003928  1
  Sb  Sb95  1  0.33599050  0.66903744  0.66745033  1
  Sb  Sb96  1  0.16249267  0.49635543  0.00443547  1
  Sb  Sb97  1  0.50449010  0.00289854  0.16415919  1
  Sb  Sb98  1  0.50600333  0.33731251  0.49985251  1
  Sb  Sb99  1  -0.00031656  0.16475848  0.83018595  1
  Sb  Sb100  1  0.33677433  0.33268999  0.32654578  1
  Sb  Sb101  1  0.83148606  0.83639442  0.66908016  1
  Sb  Sb102  1  0.17095305  0.32595081  0.83190403  1
  Sb  Sb103  1  0.50073561  0.00412238  0.83496330  1
  Sb  Sb104  1  0.66536942  0.66707652  0.66518616  1
  Sb  Sb105  1  0.82655380  0.32840142  0.83772096  1
  Sb  Sb106  1  0.50634172  0.16993863  0.32550719  1
  Sb  Sb107  1  -0.00555637  0.32785858  0.33689686  1
  Te  Te108  1  0.16551830  0.16317861  0.16707846  1
  Te  Te109  1  0.16778362  0.17016844  0.49827116  1
  Te  Te110  1  0.16854222  0.16328152  0.83293713  1
  Te  Te111  1  0.16524203  0.49909389  0.17134363  1
  Te  Te112  1  0.16955815  0.49367708  0.49652190  1
  Te  Te113  1  0.17086458  0.49997926  0.83317990  1
  Te  Te114  1  0.17294662  0.83719742  0.16372406  1
  Te  Te115  1  0.16923824  0.83174069  0.50018717  1
  Te  Te116  1  0.16836764  0.84050513  0.84147547  1
  Te  Te117  1  0.49919551  0.17011741  0.16242595  1
  Te  Te118  1  0.50462855  0.16757548  0.49901936  1
  Te  Te119  1  0.50098466  0.17019386  0.83669057  1
  Te  Te120  1  0.50057534  0.49879914  0.16631942  1
  Te  Te121  1  0.50418802  0.50450713  0.49970712  1
  Te  Te122  1  0.50114359  0.49787123  0.83581862  1
  Te  Te123  1  0.49809627  0.83148091  0.16655651  1
  Te  Te124  1  0.50282765  0.82802816  0.49910602  1
  Te  Te125  1  0.49982013  0.82431019  0.83445872  1
  Te  Te126  1  0.83289558  0.16454504  0.16639664  1
  Te  Te127  1  0.83423583  0.16834705  0.50090072  1
  Te  Te128  1  0.82781636  0.16354478  0.83617530  1
  Te  Te129  1  0.83066534  0.50701496  0.16506884  1
  Te  Te130  1  0.83088147  0.49848413  0.50005989  1
  Te  Te131  1  0.82684172  0.49962331  0.83766819  1
  Te  Te132  1  0.83072558  0.83284867  0.16453522  1
  Te  Te133  1  0.82890488  0.83143169  0.49981344  1
  Te  Te134  1  0.83176824  0.83939732  0.84127818  1
  Te  Te135  1  0.16388976  0.00260212  0.00156642  1
  Te  Te136  1  0.15997428  0.00444470  0.32797039  1
  Te  Te137  1  0.16561149  0.00573566  0.66712466  1
  Te  Te138  1  0.16323711  0.32707564  0.00046005  1
  Te  Te139  1  0.16790362  0.32991201  0.33641993  1
  Te  Te140  1  0.16328485  0.32669970  0.66161086  1
  Te  Te141  1  0.16116287  0.66825090  -0.00003625  1
  Te  Te142  1  0.16512673  0.66308523  0.33363464  1
  Te  Te143  1  0.16645436  0.66772754  0.66839778  1
  Te  Te144  1  0.49906569  0.00896226  -0.00098453  1
  Te  Te145  1  0.49808951  0.00123208  0.33401422  1
  Te  Te146  1  0.49964060  0.00040520  0.66847822  1
  Te  Te147  1  0.50199651  0.32946184  0.00135843  1
  Te  Te148  1  0.50739372  0.33412067  0.32746507  1
  Te  Te149  1  0.49913849  0.33905819  0.66922081  1
  Te  Te150  1  0.50640050  0.66953375  0.00334522  1
  Te  Te151  1  0.50776684  0.66628348  0.33247987  1
  Te  Te152  1  0.49915517  0.66128928  0.66238400  1
  Te  Te153  1  0.83604948  0.00290180  0.00096370  1
  Te  Te154  1  0.83931979  0.00685734  0.32928236  1
  Te  Te155  1  0.83415642  -0.00011090  0.67081995  1
  Te  Te156  1  0.82966497  0.33051825  0.00248851  1
  Te  Te157  1  0.82911172  0.32906404  0.33416167  1
  Te  Te158  1  0.83984103  0.33365214  0.66017469  1
  Te  Te159  1  0.82957705  0.66706726  0.00109768  1
  Te  Te160  1  0.82856414  0.66780834  0.33256858  1
  Te  Te161  1  0.83455275  0.66758671  0.66115849  1
  Te  Te162  1  0.00086400  0.16260910  -0.00257535  1
  Te  Te163  1  -0.00035332  0.16399768  0.33811558  1
  Te  Te164  1  0.00279775  0.16489520  0.66409987  1
  Te  Te165  1  -0.00656126  0.49845157  -0.00060448  1
  Te  Te166  1  0.00390147  0.50137301  0.33966714  1
  Te  Te167  1  0.00120205  0.50052100  0.65983912  1
  Te  Te168  1  -0.00195807  0.83693058  0.00370368  1
  Te  Te169  1  0.00012001  0.84043332  0.32675889  1
  Te  Te170  1  0.00023609  0.83877012  0.66587056  1
  Te  Te171  1  0.32897332  0.16873294  0.00074981  1
  Te  Te172  1  0.32829857  0.16708136  0.32915260  1
  Te  Te173  1  0.33059972  0.16255628  0.66675371  1
  Te  Te174  1  0.32798935  0.49508555  0.00163979  1
  Te  Te175  1  0.32706017  0.49978253  0.32725891  1
  Te  Te176  1  0.33851795  0.50007227  0.67058059  1
  Te  Te177  1  0.33306177  0.83006676  0.00443234  1
  Te  Te178  1  0.33271035  0.83376917  0.33247909  1
  Te  Te179  1  0.33356607  0.83973686  0.66539131  1
  Te  Te180  1  0.66915000  0.16702397  0.00268470  1
  Te  Te181  1  0.67036185  0.16983290  0.33287327  1
  Te  Te182  1  0.66573262  0.16351245  0.66099563  1
  Te  Te183  1  0.67016927  0.49752710  0.00072258  1
  Te  Te184  1  0.66781291  0.49851585  0.33666296  1
  Te  Te185  1  0.66242094  0.49912600  0.66303629  1
  Te  Te186  1  0.67057269  0.83253811  0.00486626  1
  Te  Te187  1  0.66777278  0.83261012  0.33299765  1
  Te  Te188  1  0.66628985  0.84258034  0.66341856  1
  Te  Te189  1  -0.00254894  -0.00081339  0.16347188  1
  Te  Te190  1  -0.00035642  0.00358496  0.50722340  1
  Te  Te191  1  -0.00001208  0.00053008  0.83084816  1
  Te  Te192  1  -0.00981781  0.33575483  0.16663732  1
  Te  Te193  1  -0.00213926  0.33095621  0.49915949  1
  Te  Te194  1  -0.00088187  0.33381105  0.82357121  1
  Te  Te195  1  -0.00283285  0.67311525  0.16216981  1
  Te  Te196  1  -0.00383612  0.66772904  0.49895205  1
  Te  Te197  1  -0.00041732  0.66623796  0.83964225  1
  Te  Te198  1  0.33600916  0.00146437  0.16652043  1
  Te  Te199  1  0.33399066  -0.00597727  0.50365036  1
  Te  Te200  1  0.33315772  0.00433066  0.82951715  1
  Te  Te201  1  0.32962648  0.33184168  0.16238455  1
  Te  Te202  1  0.33508147  0.33422816  0.49916416  1
  Te  Te203  1  0.33656247  0.33077419  0.83739249  1
  Te  Te204  1  0.33564982  0.66647149  0.16678107  1
  Te  Te205  1  0.33629287  0.67242137  0.49910993  1
  Te  Te206  1  0.34018348  0.66298924  0.83476126  1
  Te  Te207  1  0.67160413  -0.00198548  0.16767281  1
  Te  Te208  1  0.66729600  0.00671645  0.50171730  1
  Te  Te209  1  0.66794646  0.00346203  0.82989228  1
  Te  Te210  1  0.67091150  0.33829133  0.16415675  1
  Te  Te211  1  0.66963272  0.33309565  0.50172815  1
  Te  Te212  1  0.66353146  0.33223410  0.83393397  1
  Te  Te213  1  0.66774362  0.66009673  0.16683581  1
  Te  Te214  1  0.66785334  0.66430233  0.50426871  1
  Te  Te215  1  0.66195138  0.66432418  0.83223960  1
