# generated using pymatgen
data_AgSbTe2
_symmetry_space_group_name_H-M   'P 1'
_cell_length_a   18.33855347
_cell_length_b   18.33138589
_cell_length_c   18.34226840
_cell_angle_alpha   89.99806428
_cell_angle_beta   90.00015483
_cell_angle_gamma   90.00018456
_symmetry_Int_Tables_number   1
_chemical_formula_structural   AgSbTe2
_chemical_formula_sum   'Ag54 Sb54 Te108'
_cell_volume   6166.14054763
_cell_formula_units_Z   54
loop_
 _symmetry_equiv_pos_site_id
 _symmetry_equiv_pos_as_xyz
  1  'x, y, z'
loop_
 _atom_site_type_symbol
 _atom_site_label
 _atom_site_symmetry_multiplicity
 _atom_site_fract_x
 _atom_site_fract_y
 _atom_site_fract_z
 _atom_site_occupancy
  Ag  Ag0  1  0.00212523  0.32961799  0.32508620  1
  Ag  Ag1  1  0.32032578  0.83112064  0.83916908  1
  Ag  Ag2  1  0.83271431  0.33892798  0.16333272  1
  Ag  Ag3  1  0.65288927  0.33874042  0.00188138  1
  Ag  Ag4  1  0.32406997  -0.00516719  0.33586821  1
  Ag  Ag5  1  0.83442058  0.16357273  0.66787233  1
  Ag  Ag6  1  0.49581986  0.33382413  0.84703426  1
  Ag  Ag7  1  0.16141149  0.66846932  0.84135282  1
  Ag  Ag8  1  0.32849689  0.67003183  0.32399824  1
  Ag  Ag9  1  0.33823560  0.34197539  0.00086482  1
  Ag  Ag10  1  0.49144223  0.49414609  -0.00058418  1
  Ag  Ag11  1  0.16718426  0.50153954  0.32524297  1
  Ag  Ag12  1  0.00097851  0.17287756  0.17280472  1
  Ag  Ag13  1  0.66627217  0.16845988  0.84430030  1
  Ag  Ag14  1  0.33034587  -0.00420352  0.65529482  1
  Ag  Ag15  1  0.32319648  0.66149984  0.00489339  1
  Ag  Ag16  1  0.16792703  0.66775308  0.16199508  1
  Ag  Ag17  1  0.00064897  0.67164429  0.67299750  1
  Ag  Ag18  1  0.84389352  0.82685757  0.32706732  1
  Ag  Ag19  1  0.00529508  0.33442034  0.00325752  1
  Ag  Ag20  1  0.83773761  0.66337479  0.15950608  1
  Ag  Ag21  1  0.16265485  0.83191833  0.66721728  1
  Ag  Ag22  1  0.16502746  0.82068538  -0.00213223  1
  Ag  Ag23  1  0.49642768  0.33568920  0.49680370  1
  Ag  Ag24  1  0.65680783  0.49811594  0.49785198  1
  Ag  Ag25  1  0.32480805  0.82444669  0.16834635  1
  Ag  Ag26  1  0.66825902  0.17217096  0.16214857  1
  Ag  Ag27  1  0.48900867  0.17014197  0.32752487  1
  Ag  Ag28  1  0.00328459  0.82666525  0.83211242  1
  Ag  Ag29  1  0.00933562  0.16219038  0.48996757  1
  Ag  Ag30  1  0.83391611  0.50408800  0.00371593  1
  Ag  Ag31  1  0.32509171  0.83548046  0.49458366  1
  Ag  Ag32  1  0.67336029  0.83098462  0.84300615  1
  Ag  Ag33  1  0.49759813  0.49775051  0.67489080  1
  Ag  Ag34  1  0.00304057  0.50848829  0.83665948  1
  Ag  Ag35  1  0.49483103  0.17970365  0.00617691  1
  Ag  Ag36  1  0.16882276  0.17905484  0.00616256  1
  Ag  Ag37  1  0.00789646  0.83687355  0.49950564  1
  Ag  Ag38  1  0.32993105  0.50444035  0.16437997  1
  Ag  Ag39  1  0.16779265  0.34022738  0.84230128  1
  Ag  Ag40  1  0.33465220  0.49933634  0.49203797  1
  Ag  Ag41  1  0.16608194  0.83649594  0.33536195  1
  Ag  Ag42  1  0.67661118  0.66235022  0.00133242  1
  Ag  Ag43  1  0.66977435  0.83103145  0.16060220  1
  Ag  Ag44  1  0.32737906  0.16567767  0.49433983  1
  Ag  Ag45  1  0.84440057  0.83237179  0.67551675  1
  Ag  Ag46  1  0.84150932  0.50410299  0.32195625  1
  Ag  Ag47  1  0.16789375  -0.00411670  0.49495277  1
  Ag  Ag48  1  0.16871417  0.50185915  0.00310157  1
  Ag  Ag49  1  0.84341647  0.67008971  0.84217359  1
  Ag  Ag50  1  0.16551939  0.16419016  0.32906792  1
  Ag  Ag51  1  0.84114867  0.82356933  -0.00216053  1
  Ag  Ag52  1  0.50272161  0.33213868  0.15868000  1
  Ag  Ag53  1  0.00666012  0.00128915  0.33499222  1
  Sb  Sb54  1  0.83369766  0.33802884  0.84194409  1
  Sb  Sb55  1  0.66826158  0.50089249  0.83762003  1
  Sb  Sb56  1  0.00099366  0.66048609  -0.00419248  1
  Sb  Sb57  1  0.00275218  0.00305769  0.00562135  1
  Sb  Sb58  1  0.16364399  0.16134197  0.66644496  1
  Sb  Sb59  1  0.33478951  0.16417204  0.83317814  1
  Sb  Sb60  1  0.33061767  -0.00251540  0.00454794  1
  Sb  Sb61  1  0.83418174  0.66718436  0.49764263  1
  Sb  Sb62  1  0.66926011  0.82789128  0.49823758  1
  Sb  Sb63  1  0.66601874  0.33427042  0.67394268  1
  Sb  Sb64  1  0.49522225  0.66144721  0.16338275  1
  Sb  Sb65  1  0.48809127  0.00677351  0.49872670  1
  Sb  Sb66  1  0.16736178  -0.00469144  0.17382784  1
  Sb  Sb67  1  0.49514301  0.82820300  0.66832809  1
  Sb  Sb68  1  0.32926179  0.50354729  0.83888245  1
  Sb  Sb69  1  0.00151766  0.83392479  0.16625777  1
  Sb  Sb70  1  0.32744151  0.67001479  0.66936567  1
  Sb  Sb71  1  0.50161897  0.17219084  0.66714166  1
  Sb  Sb72  1  0.84071341  -0.00076788  0.49883616  1
  Sb  Sb73  1  0.16786949  0.67254021  0.49655269  1
  Sb  Sb74  1  0.66778068  -0.00036023  0.33241019  1
  Sb  Sb75  1  0.00305813  0.49690952  0.16007662  1
  Sb  Sb76  1  0.00038039  0.33512652  0.66843592  1
  Sb  Sb77  1  0.00578793  0.66711396  0.33525269  1
  Sb  Sb78  1  0.83119188  0.50296638  0.66979046  1
  Sb  Sb79  1  0.49519450  0.49468503  0.32831161  1
  Sb  Sb80  1  0.33127167  0.16908763  0.16955748  1
  Sb  Sb81  1  0.66686827  -0.00068210  0.00029906  1
  Sb  Sb82  1  0.67189644  0.66693806  0.67474918  1
  Sb  Sb83  1  0.16669317  0.33776298  0.16084234  1
  Sb  Sb84  1  0.49647011  0.66025176  0.49951872  1
  Sb  Sb85  1  0.83502847  -0.00219072  0.16771666  1
  Sb  Sb86  1  0.83180707  0.33395750  0.49329968  1
  Sb  Sb87  1  0.00528769  -0.00736093  0.66067886  1
  Sb  Sb88  1  0.66649480  0.49938546  0.16552059  1
  Sb  Sb89  1  0.66888240  0.33444761  0.32520295  1
  Sb  Sb90  1  0.49111916  0.83849914  0.33086702  1
  Sb  Sb91  1  -0.00251197  0.16696408  0.83496031  1
  Sb  Sb92  1  0.49817017  0.00543661  0.16711079  1
  Sb  Sb93  1  0.16771602  -0.00604737  0.83100894  1
  Sb  Sb94  1  0.83437972  -0.00876812  0.83264680  1
  Sb  Sb95  1  0.32888197  0.33445019  0.32840876  1
  Sb  Sb96  1  0.66403346  -0.00109706  0.66738257  1
  Sb  Sb97  1  0.00405518  0.50119529  0.50013380  1
  Sb  Sb98  1  0.83315717  0.16998599  -0.00039771  1
  Sb  Sb99  1  0.66470095  0.17247235  0.49706457  1
  Sb  Sb100  1  0.49684735  0.82952463  0.00105325  1
  Sb  Sb101  1  0.33338750  0.33295679  0.67009592  1
  Sb  Sb102  1  0.49807317  0.00328073  0.83422063  1
  Sb  Sb103  1  0.17082974  0.50643497  0.66876727  1
  Sb  Sb104  1  0.49784217  0.66213374  0.83699811  1
  Sb  Sb105  1  0.16984114  0.33071245  0.49993836  1
  Sb  Sb106  1  0.83978624  0.16725714  0.33276981  1
  Sb  Sb107  1  0.66494286  0.66520574  0.32543818  1
  Te  Te108  1  0.16472715  0.16686550  0.16780019  1
  Te  Te109  1  0.16715560  0.16438381  0.50036547  1
  Te  Te110  1  0.16577110  0.16808639  0.83599256  1
  Te  Te111  1  0.16882931  0.50384896  0.16625257  1
  Te  Te112  1  0.17285451  0.50008773  0.49878615  1
  Te  Te113  1  0.16444709  0.50166052  0.83398500  1
  Te  Te114  1  0.16680122  0.82927003  0.16532758  1
  Te  Te115  1  0.16751049  0.83291858  0.49593355  1
  Te  Te116  1  0.16418140  0.83245293  0.83665380  1
  Te  Te117  1  0.49905811  0.17106543  0.16691435  1
  Te  Te118  1  0.49681233  0.17303415  0.49814520  1
  Te  Te119  1  0.50358089  0.17257543  0.83534577  1
  Te  Te120  1  0.49656296  0.49440659  0.16107006  1
  Te  Te121  1  0.49614038  0.49574936  0.49438867  1
  Te  Te122  1  0.50010285  0.49473733  0.83632918  1
  Te  Te123  1  0.50732240  0.83372491  0.16624325  1
  Te  Te124  1  0.49822549  0.83377508  0.50002417  1
  Te  Te125  1  0.50793801  0.83415570  0.83340369  1
  Te  Te126  1  0.83101830  0.16934278  0.16604030  1
  Te  Te127  1  0.83449573  0.16682695  0.50383316  1
  Te  Te128  1  0.82834282  0.16665677  0.83104326  1
  Te  Te129  1  0.83272494  0.50039182  0.16478385  1
  Te  Te130  1  0.83385558  0.49919052  0.49935264  1
  Te  Te131  1  0.83666849  0.50609447  0.83645458  1
  Te  Te132  1  0.83420694  0.83142913  0.16607019  1
  Te  Te133  1  0.83531988  0.83291071  0.49735288  1
  Te  Te134  1  0.83343125  0.82991822  0.83499318  1
  Te  Te135  1  0.16720013  0.00407565  0.00026100  1
  Te  Te136  1  0.16653447  0.00043405  0.33520719  1
  Te  Te137  1  0.17141085  -0.00630521  0.66118057  1
  Te  Te138  1  0.16626041  0.33634457  -0.00012966  1
  Te  Te139  1  0.16251452  0.33318510  0.33397014  1
  Te  Te140  1  0.16669120  0.33335123  0.67728445  1
  Te  Te141  1  0.16520147  0.66386743  0.00088207  1
  Te  Te142  1  0.16958730  0.66361492  0.33022181  1
  Te  Te143  1  0.16256704  0.67272185  0.67408075  1
  Te  Te144  1  0.49848626  0.01340915  0.00004831  1
  Te  Te145  1  0.49616000  0.00936159  0.33378912  1
  Te  Te146  1  0.49165771  0.00001510  0.66626649  1
  Te  Te147  1  0.49804789  0.33485534  0.00202392  1
  Te  Te148  1  0.50024810  0.32931891  0.33461731  1
  Te  Te149  1  0.49998073  0.33915199  0.66032390  1
  Te  Te150  1  0.50060688  0.66035586  -0.00001812  1
  Te  Te151  1  0.49203560  0.66744853  0.33170673  1
  Te  Te152  1  0.50183143  0.65796150  0.66819246  1
  Te  Te153  1  0.83499245  -0.01252891  -0.00001348  1
  Te  Te154  1  0.83850805  -0.00779785  0.33379662  1
  Te  Te155  1  0.83250222  -0.00310466  0.66570233  1
  Te  Te156  1  0.84023479  0.33580294  0.00423636  1
  Te  Te157  1  0.83766160  0.33707635  0.32673776  1
  Te  Te158  1  0.83308340  0.32976546  0.66768428  1
  Te  Te159  1  0.83553292  0.66617644  0.00143104  1
  Te  Te160  1  0.83328578  0.66585654  0.32979940  1
  Te  Te161  1  0.83794247  0.67143433  0.66898189  1
  Te  Te162  1  0.00287491  0.17059751  0.00233087  1
  Te  Te163  1  0.00090692  0.16820712  0.33351730  1
  Te  Te164  1  -0.00442150  0.16499730  0.66451430  1
  Te  Te165  1  0.00172999  0.49449187  -0.00367701  1
  Te  Te166  1  0.00123829  0.49762853  0.33623402  1
  Te  Te167  1  0.00030637  0.50439883  0.67123014  1
  Te  Te168  1  0.00396681  0.83750959  -0.00124758  1
  Te  Te169  1  0.00316106  0.83312968  0.33400779  1
  Te  Te170  1  0.00153763  0.83305244  0.66598923  1
  Te  Te171  1  0.33036145  0.16629754  0.00040602  1
  Te  Te172  1  0.32886116  0.16803240  0.33417938  1
  Te  Te173  1  0.33336692  0.16146598  0.66168146  1
  Te  Te174  1  0.33051241  0.50075622  -0.00067301  1
  Te  Te175  1  0.33007825  0.50071905  0.33101398  1
  Te  Te176  1  0.33845768  0.50150078  0.66072583  1
  Te  Te177  1  0.33142616  0.83088150  0.00049944  1
  Te  Te178  1  0.33036376  0.83217566  0.33249962  1
  Te  Te179  1  0.33118477  0.83435815  0.66491972  1
  Te  Te180  1  0.66784600  0.16698428  0.00238474  1
  Te  Te181  1  0.66646098  0.16575176  0.32746799  1
  Te  Te182  1  0.67109560  0.16608994  0.66823403  1
  Te  Te183  1  0.67191286  0.49937072  0.00052906  1
  Te  Te184  1  0.67117968  0.50076776  0.33686700  1
  Te  Te185  1  0.66208923  0.50094421  0.66154124  1
  Te  Te186  1  0.66310197  0.83281606  0.00064893  1
  Te  Te187  1  0.66974097  0.83298144  0.33035659  1
  Te  Te188  1  0.66932243  0.83289912  0.66770880  1
  Te  Te189  1  0.00086400  0.01101852  0.17405139  1
  Te  Te190  1  0.00581165  -0.00045393  0.49534433  1
  Te  Te191  1  0.00086110  -0.00570995  0.83326234  1
  Te  Te192  1  -0.00062379  0.33180251  0.16612988  1
  Te  Te193  1  0.00045389  0.32909805  0.49918376  1
  Te  Te194  1  0.00290974  0.33452256  0.83654707  1
  Te  Te195  1  -0.00129681  0.66660478  0.16984139  1
  Te  Te196  1  0.00045356  0.67160779  0.50734973  1
  Te  Te197  1  0.00107105  0.66883422  0.83289561  1
  Te  Te198  1  0.33404598  -0.01061998  0.17349553  1
  Te  Te199  1  0.32825720  -0.00064529  0.49568455  1
  Te  Te200  1  0.33365083  -0.00822258  0.83220466  1
  Te  Te201  1  0.33772231  0.33640812  0.16183130  1
  Te  Te202  1  0.33513968  0.33250172  0.50097902  1
  Te  Te203  1  0.33342401  0.33260809  0.83791378  1
  Te  Te204  1  0.33263997  0.66539300  0.16439087  1
  Te  Te205  1  0.33332062  0.66752918  0.49899154  1
  Te  Te206  1  0.33031752  0.67186299  0.83733355  1
  Te  Te207  1  0.66659987  -0.00133466  0.16748246  1
  Te  Te208  1  0.66432176  -0.00007737  0.50000528  1
  Te  Te209  1  0.66591253  0.00112537  0.83265535  1
  Te  Te210  1  0.66726088  0.33290231  0.16094717  1
  Te  Te211  1  0.66331789  0.33783393  0.50059208  1
  Te  Te212  1  0.66474408  0.33124047  0.84080461  1
  Te  Te213  1  0.67048922  0.66911676  0.16154890  1
  Te  Te214  1  0.66519460  0.65944092  0.50029801  1
  Te  Te215  1  0.66801138  0.66978684  0.84036364  1
