# generated using pymatgen
data_AgSbTe2
_symmetry_space_group_name_H-M   'P 1'
_cell_length_a   18.31181899
_cell_length_b   18.31459104
_cell_length_c   18.31333905
_cell_angle_alpha   89.99871013
_cell_angle_beta   89.99941952
_cell_angle_gamma   90.00157096
_symmetry_Int_Tables_number   1
_chemical_formula_structural   AgSbTe2
_chemical_formula_sum   'Ag54 Sb54 Te108'
_cell_volume   6141.80817208
_cell_formula_units_Z   54
loop_
 _symmetry_equiv_pos_site_id
 _symmetry_equiv_pos_as_xyz
  1  'x, y, z'
loop_
 _atom_site_type_symbol
 _atom_site_label
 _atom_site_symmetry_multiplicity
 _atom_site_fract_x
 _atom_site_fract_y
 _atom_site_fract_z
 _atom_site_occupancy
  Ag  Ag0  1  0.16325031  0.16999140  0.32645545  1
  Ag  Ag1  1  0.33294511  0.66995589  -0.00506598  1
  Ag  Ag2  1  0.83212550  0.50591160  0.33234041  1
  Ag  Ag3  1  0.82829064  0.33115990  0.16948283  1
  Ag  Ag4  1  0.16767567  0.66540470  0.83082937  1
  Ag  Ag5  1  -0.00055362  0.66945353  0.66556423  1
  Ag  Ag6  1  0.67250532  -0.00873293  0.33096996  1
  Ag  Ag7  1  -0.00989087  0.82996931  0.83196889  1
  Ag  Ag8  1  0.50242361  -0.00272294  0.16501007  1
  Ag  Ag9  1  0.33398812  0.00214602  0.00150404  1
  Ag  Ag10  1  0.33389538  0.16229829  0.15796241  1
  Ag  Ag11  1  -0.00105871  0.16468075  0.16449591  1
  Ag  Ag12  1  0.50219949  0.82657646  0.66689183  1
  Ag  Ag13  1  0.34251030  0.50308343  0.50803138  1
  Ag  Ag14  1  0.66200891  0.50598763  0.82996529  1
  Ag  Ag15  1  0.33877424  0.50023352  0.82900385  1
  Ag  Ag16  1  -0.00725152  0.00205474  0.32668611  1
  Ag  Ag17  1  0.83455594  0.67016538  0.83349250  1
  Ag  Ag18  1  0.82831794  0.82711849  0.32750289  1
  Ag  Ag19  1  -0.00138432  0.00447382  0.00716576  1
  Ag  Ag20  1  0.82549616  0.33979390  0.49322177  1
  Ag  Ag21  1  -0.00486704  0.16368294  0.49200926  1
  Ag  Ag22  1  0.33887222  0.34406275  0.66859290  1
  Ag  Ag23  1  0.16223062  0.49955608  0.33262577  1
  Ag  Ag24  1  0.66916049  0.33535193  0.33593048  1
  Ag  Ag25  1  0.83214669  0.67397026  0.16796654  1
  Ag  Ag26  1  0.33423065  0.66458543  0.67020345  1
  Ag  Ag27  1  -0.00665611  0.83126610  0.50253458  1
  Ag  Ag28  1  0.33685582  -0.00344072  0.67249771  1
  Ag  Ag29  1  0.50613017  0.34055161  0.50028154  1
  Ag  Ag30  1  0.49864826  0.33646745  0.83218108  1
  Ag  Ag31  1  0.16576563  0.49863476  0.00114472  1
  Ag  Ag32  1  0.83847347  0.16496750  0.00354122  1
  Ag  Ag33  1  -0.00468947  0.32571896  0.00071447  1
  Ag  Ag34  1  0.67116586  0.82695175  0.83919926  1
  Ag  Ag35  1  0.67098881  0.66858207  0.33552542  1
  Ag  Ag36  1  0.83122004  0.66562224  0.49658544  1
  Ag  Ag37  1  0.82973941  -0.00306844  0.16667532  1
  Ag  Ag38  1  0.50548752  0.32714698  0.16601507  1
  Ag  Ag39  1  0.50234291  0.83698232  0.00384093  1
  Ag  Ag40  1  0.16557148  0.66365165  0.50343742  1
  Ag  Ag41  1  0.49233573  0.16259555  0.00410414  1
  Ag  Ag42  1  0.82928802  0.82963330  0.00352022  1
  Ag  Ag43  1  0.34483045  0.83906633  0.16182654  1
  Ag  Ag44  1  0.82994017  0.82858842  0.66772746  1
  Ag  Ag45  1  0.17026372  0.16926320  0.00465963  1
  Ag  Ag46  1  0.66631944  0.83494903  0.16809938  1
  Ag  Ag47  1  0.67074295  0.17732274  0.49590197  1
  Ag  Ag48  1  0.83539707  0.50470005  0.00567888  1
  Ag  Ag49  1  0.50253309  0.66216746  0.50250318  1
  Ag  Ag50  1  0.66334238  0.49842150  0.49929465  1
  Ag  Ag51  1  0.33404113  0.17033977  0.84083806  1
  Ag  Ag52  1  0.51015916  0.83314824  0.32652224  1
  Ag  Ag53  1  0.49709683  0.50285396  0.66262773  1
  Sb  Sb54  1  0.16343757  0.83183905  0.33333092  1
  Sb  Sb55  1  0.33491155  0.49856998  0.16474104  1
  Sb  Sb56  1  0.49924856  0.00055165  0.83918303  1
  Sb  Sb57  1  -0.00666722  0.32836072  0.32938831  1
  Sb  Sb58  1  0.33416869  0.82695695  0.49916240  1
  Sb  Sb59  1  0.49787021  0.16750037  0.66890795  1
  Sb  Sb60  1  0.33884813  0.33449162  0.33588437  1
  Sb  Sb61  1  -0.00795308  0.83921873  0.16632251  1
  Sb  Sb62  1  0.82731548  0.34060025  0.83697087  1
  Sb  Sb63  1  0.50040530  0.50086436  -0.00401080  1
  Sb  Sb64  1  0.66263368  0.16785860  0.83332151  1
  Sb  Sb65  1  0.82719422  0.50739043  0.66468815  1
  Sb  Sb66  1  0.00133403  0.33734972  0.66786490  1
  Sb  Sb67  1  0.83408341  0.16167162  0.66783616  1
  Sb  Sb68  1  -0.00469667  0.49460920  0.16516279  1
  Sb  Sb69  1  0.00166666  -0.00725983  0.66669707  1
  Sb  Sb70  1  0.83534534  0.16526874  0.32832462  1
  Sb  Sb71  1  -0.00349641  0.50321812  0.49823728  1
  Sb  Sb72  1  0.16758312  0.82896572  0.66691016  1
  Sb  Sb73  1  0.17252528  0.33918827  0.83639600  1
  Sb  Sb74  1  0.33414241  -0.00036555  0.32801184  1
  Sb  Sb75  1  0.00042405  0.50570193  0.83548677  1
  Sb  Sb76  1  0.16301633  0.66577279  0.16669110  1
  Sb  Sb77  1  0.33656150  0.82977021  0.83685338  1
  Sb  Sb78  1  0.83382518  -0.00906992  0.84336471  1
  Sb  Sb79  1  0.16671406  0.33848238  0.49789737  1
  Sb  Sb80  1  0.50133305  -0.00229591  0.49527645  1
  Sb  Sb81  1  0.16641462  0.33005933  0.16512755  1
  Sb  Sb82  1  0.00372894  0.16185370  0.84082384  1
  Sb  Sb83  1  0.49916710  0.16471393  0.32863890  1
  Sb  Sb84  1  0.16588614  0.00164841  0.16559172  1
  Sb  Sb85  1  0.17528618  0.50405462  0.66733659  1
  Sb  Sb86  1  0.33425570  0.33087526  -0.00302498  1
  Sb  Sb87  1  0.66609702  -0.00255434  0.00650504  1
  Sb  Sb88  1  0.50400870  0.67058376  0.16992712  1
  Sb  Sb89  1  0.66963849  0.82801662  0.49429161  1
  Sb  Sb90  1  0.66540608  0.66767221  0.66089514  1
  Sb  Sb91  1  0.66766705  0.16245099  0.17069691  1
  Sb  Sb92  1  -0.00102096  0.67031596  -0.00378370  1
  Sb  Sb93  1  0.16610958  0.83297121  0.00042785  1
  Sb  Sb94  1  0.66630816  0.66863433  0.00195286  1
  Sb  Sb95  1  0.66141024  0.33578195  0.66013315  1
  Sb  Sb96  1  0.66287451  -0.00453874  0.65968104  1
  Sb  Sb97  1  0.83335648  -0.00350546  0.49272036  1
  Sb  Sb98  1  0.16537712  -0.00253957  0.49882567  1
  Sb  Sb99  1  0.50124545  0.66460529  0.82855678  1
  Sb  Sb100  1  0.66976302  0.33403553  0.00613830  1
  Sb  Sb101  1  0.16900900  -0.00476081  0.83597609  1
  Sb  Sb102  1  0.50538048  0.50332996  0.33902592  1
  Sb  Sb103  1  0.33703984  0.66619573  0.33371421  1
  Sb  Sb104  1  0.33350252  0.17170759  0.50014355  1
  Sb  Sb105  1  0.66924639  0.50393625  0.17006696  1
  Sb  Sb106  1  -0.00736465  0.67243106  0.33827751  1
  Sb  Sb107  1  0.16859026  0.16657748  0.66899473  1
  Te  Te108  1  0.16595097  0.16716477  0.16505040  1
  Te  Te109  1  0.16273413  0.16769818  0.49703594  1
  Te  Te110  1  0.17212043  0.16741707  0.83882304  1
  Te  Te111  1  0.16620608  0.49830191  0.16540966  1
  Te  Te112  1  0.16694790  0.50438285  0.49627958  1
  Te  Te113  1  0.17001919  0.50588007  0.83866128  1
  Te  Te114  1  0.17705519  0.83207982  0.16821253  1
  Te  Te115  1  0.16075475  0.82589662  0.49889918  1
  Te  Te116  1  0.16136267  0.82469239  0.83384975  1
  Te  Te117  1  0.50063248  0.16596636  0.16380347  1
  Te  Te118  1  0.50188187  0.17080723  0.49909064  1
  Te  Te119  1  0.49635953  0.17073294  0.83833633  1
  Te  Te120  1  0.50113675  0.49281481  0.16733631  1
  Te  Te121  1  0.50122479  0.50055411  0.50040612  1
  Te  Te122  1  0.50018892  0.49812695  0.83051905  1
  Te  Te123  1  0.50287842  0.83278524  0.16538901  1
  Te  Te124  1  0.50116631  0.82955663  0.50297897  1
  Te  Te125  1  0.50510387  0.83264586  0.83538260  1
  Te  Te126  1  0.83382069  0.16749744  0.16277774  1
  Te  Te127  1  0.83467377  0.16673341  0.50116539  1
  Te  Te128  1  0.83294542  0.16699951  0.83870248  1
  Te  Te129  1  0.83243872  0.49761197  0.16587758  1
  Te  Te130  1  0.82992430  0.50146748  0.49846451  1
  Te  Te131  1  0.83008724  0.50607822  0.83423449  1
  Te  Te132  1  0.83144923  0.83393177  0.16623877  1
  Te  Te133  1  0.83438177  0.83080312  0.49906552  1
  Te  Te134  1  0.83114488  0.83024496  0.83645186  1
  Te  Te135  1  0.16790531  0.00516492  -0.00064915  1
  Te  Te136  1  0.16185756  0.00393810  0.33349115  1
  Te  Te137  1  0.17609560  -0.00171010  0.66752631  1
  Te  Te138  1  0.16060287  0.33455930  0.00025187  1
  Te  Te139  1  0.16531756  0.33470042  0.33258014  1
  Te  Te140  1  0.17423739  0.33441682  0.66723737  1
  Te  Te141  1  0.16925474  0.66292845  -0.00086917  1
  Te  Te142  1  0.16499801  0.66215409  0.33645046  1
  Te  Te143  1  0.16840515  0.66614931  0.66573538  1
  Te  Te144  1  0.49825292  -0.00125427  0.00454279  1
  Te  Te145  1  0.50200214  -0.00520358  0.32761772  1
  Te  Te146  1  0.49533000  -0.00375645  0.66621298  1
  Te  Te147  1  0.50176651  0.33158375  0.00240165  1
  Te  Te148  1  0.50613386  0.33301533  0.33396914  1
  Te  Te149  1  0.49641544  0.33397579  0.66543630  1
  Te  Te150  1  0.49407348  0.66989909  0.00100073  1
  Te  Te151  1  0.50474869  0.67195725  0.33793083  1
  Te  Te152  1  0.49768804  0.66701014  0.66310879  1
  Te  Te153  1  0.83392334  -0.00148441  0.00622582  1
  Te  Te154  1  0.83303679  -0.00099606  0.32805355  1
  Te  Te155  1  0.83306243  -0.00859935  0.66756762  1
  Te  Te156  1  0.83549717  0.33548686  0.00123461  1
  Te  Te157  1  0.83051764  0.33456110  0.33360067  1
  Te  Te158  1  0.83475645  0.33275926  0.66210019  1
  Te  Te159  1  0.83288251  0.66704346  0.00048409  1
  Te  Te160  1  0.83249041  0.66626574  0.33410324  1
  Te  Te161  1  0.83424656  0.67065134  0.66634670  1
  Te  Te162  1  -0.00130196  0.16442410  0.00140957  1
  Te  Te163  1  0.00176923  0.16379868  0.33201484  1
  Te  Te164  1  0.00112625  0.16603400  0.66285375  1
  Te  Te165  1  -0.00140914  0.49814320  -0.00016668  1
  Te  Te166  1  -0.00140674  0.49914024  0.33228512  1
  Te  Te167  1  0.00095768  0.50659340  0.66702581  1
  Te  Te168  1  -0.00264469  0.83837370  -0.00136618  1
  Te  Te169  1  -0.00466825  0.84039998  0.33531146  1
  Te  Te170  1  -0.00259301  0.83017903  0.66538552  1
  Te  Te171  1  0.33345552  0.16762323  0.00060406  1
  Te  Te172  1  0.32609937  0.16665742  0.32911731  1
  Te  Te173  1  0.33255285  0.16286689  0.67039640  1
  Te  Te174  1  0.33148562  0.50133162  -0.00320223  1
  Te  Te175  1  0.32844544  0.49995865  0.33469764  1
  Te  Te176  1  0.33641008  0.50338406  0.66728258  1
  Te  Te177  1  0.33378747  0.83486762  0.00160583  1
  Te  Te178  1  0.33644670  0.83392277  0.32926142  1
  Te  Te179  1  0.33829941  0.83009950  0.66762939  1
  Te  Te180  1  0.66708322  0.16566487  -0.00161438  1
  Te  Te181  1  0.66656285  0.17062943  0.33743587  1
  Te  Te182  1  0.66692134  0.16454534  0.65915208  1
  Te  Te183  1  0.67141795  0.50130068  -0.00480912  1
  Te  Te184  1  0.67131324  0.50093669  0.33601371  1
  Te  Te185  1  0.65923949  0.50104277  0.66784956  1
  Te  Te186  1  0.66717585  0.83287160  0.00110750  1
  Te  Te187  1  0.66797692  0.83251542  0.33298438  1
  Te  Te188  1  0.66576420  0.83353304  0.67021582  1
  Te  Te189  1  -0.00161111  0.00427673  0.16616026  1
  Te  Te190  1  0.00048793  0.00034539  0.49879814  1
  Te  Te191  1  0.00132215  -0.00733344  0.83585785  1
  Te  Te192  1  -0.00560278  0.32697311  0.16160265  1
  Te  Te193  1  -0.00429490  0.32901508  0.50201613  1
  Te  Te194  1  -0.00128795  0.33215122  0.83736247  1
  Te  Te195  1  -0.00714870  0.66753109  0.16613245  1
  Te  Te196  1  -0.00292628  0.66917769  0.50397157  1
  Te  Te197  1  -0.00188828  0.67063464  0.82976250  1
  Te  Te198  1  0.33595819  0.00117867  0.16324664  1
  Te  Te199  1  0.33365358  0.00006364  0.50333771  1
  Te  Te200  1  0.33368555  0.00209789  0.83663409  1
  Te  Te201  1  0.33976057  0.32873209  0.16724932  1
  Te  Te202  1  0.33710938  0.33959371  0.50415132  1
  Te  Te203  1  0.33763251  0.33559896  0.83075640  1
  Te  Te204  1  0.33266886  0.66789392  0.16222418  1
  Te  Te205  1  0.33409893  0.66275030  0.50124427  1
  Te  Te206  1  0.33353288  0.66458682  0.83358825  1
  Te  Te207  1  0.66638223  -0.00367352  0.17183958  1
  Te  Te208  1  0.66587805  0.00677620  0.49103761  1
  Te  Te209  1  0.66642737  -0.00403376  0.83028020  1
  Te  Te210  1  0.66820501  0.33368139  0.17270776  1
  Te  Te211  1  0.66749372  0.33664903  0.49847832  1
  Te  Te212  1  0.65983748  0.33703089  0.83217292  1
  Te  Te213  1  0.67174141  0.67146218  0.17201065  1
  Te  Te214  1  0.66836206  0.66235542  0.49571832  1
  Te  Te215  1  0.67007736  0.66650023  0.83419623  1
