# generated using pymatgen
data_AgSbTe2
_symmetry_space_group_name_H-M   'P 1'
_cell_length_a   18.32643820
_cell_length_b   18.32057225
_cell_length_c   18.32076270
_cell_angle_alpha   90.00078444
_cell_angle_beta   89.99652733
_cell_angle_gamma   90.00081690
_symmetry_Int_Tables_number   1
_chemical_formula_structural   AgSbTe2
_chemical_formula_sum   'Ag54 Sb54 Te108'
_cell_volume   6151.21136278
_cell_formula_units_Z   54
loop_
 _symmetry_equiv_pos_site_id
 _symmetry_equiv_pos_as_xyz
  1  'x, y, z'
loop_
 _atom_site_type_symbol
 _atom_site_label
 _atom_site_symmetry_multiplicity
 _atom_site_fract_x
 _atom_site_fract_y
 _atom_site_fract_z
 _atom_site_occupancy
  Ag  Ag0  1  0.49717839  0.32893774  0.17013104  1
  Ag  Ag1  1  0.33521640  0.00207095  0.66800135  1
  Ag  Ag2  1  0.17591055  0.32890871  0.15861656  1
  Ag  Ag3  1  0.50020287  0.00395964  0.17014634  1
  Ag  Ag4  1  0.48987560  0.66481102  0.83655079  1
  Ag  Ag5  1  0.66693154  0.00469084  0.32649229  1
  Ag  Ag6  1  0.00716507  0.67777602  0.32555464  1
  Ag  Ag7  1  0.48975322  0.83601419  0.33269987  1
  Ag  Ag8  1  0.82888826  0.16481064  0.32752297  1
  Ag  Ag9  1  0.83343498  0.84438940  0.66419910  1
  Ag  Ag10  1  0.17157582  0.00429630  0.16622328  1
  Ag  Ag11  1  0.16966724  0.33149438  0.84051185  1
  Ag  Ag12  1  0.16517970  0.16906916  -0.00240059  1
  Ag  Ag13  1  0.32705707  0.49700936  0.83835957  1
  Ag  Ag14  1  0.66876293  0.16787395  0.16993885  1
  Ag  Ag15  1  0.33299775  -0.00182108  0.32894618  1
  Ag  Ag16  1  0.00857957  0.33221567  0.00053536  1
  Ag  Ag17  1  0.33131589  0.67176500  0.33038861  1
  Ag  Ag18  1  0.32655720  0.16921229  0.83698298  1
  Ag  Ag19  1  0.50680155  0.16526730  0.66730568  1
  Ag  Ag20  1  0.67097341  0.84280673  0.16849481  1
  Ag  Ag21  1  0.83387030  0.49267293  0.00221387  1
  Ag  Ag22  1  0.65646369  0.32201377  0.32384921  1
  Ag  Ag23  1  0.82687393  0.16217853  0.66767604  1
  Ag  Ag24  1  0.00748554  0.17000903  0.83721305  1
  Ag  Ag25  1  0.32955279  0.00868392  0.00572220  1
  Ag  Ag26  1  0.17026665  0.49861169  0.67466385  1
  Ag  Ag27  1  0.83342701  0.67227830  0.16475956  1
  Ag  Ag28  1  0.82797036  -0.00110309  0.16873201  1
  Ag  Ag29  1  0.83418104  0.17046460  0.00204102  1
  Ag  Ag30  1  0.66659459  0.16706061  0.83495792  1
  Ag  Ag31  1  0.49298702  0.33236688  0.49023822  1
  Ag  Ag32  1  0.66855610  0.66061939  0.00487914  1
  Ag  Ag33  1  0.33251695  0.49893691  0.49519912  1
  Ag  Ag34  1  0.66289013  0.49173669  0.16355651  1
  Ag  Ag35  1  0.33147419  0.83080086  0.49314671  1
  Ag  Ag36  1  -0.00390528  0.16462520  0.50047052  1
  Ag  Ag37  1  0.00610012  0.83745590  0.48808052  1
  Ag  Ag38  1  0.17062486  0.01068401  0.84054033  1
  Ag  Ag39  1  0.67017993  0.16763721  0.49455249  1
  Ag  Ag40  1  0.16914231  0.83625667  0.33246002  1
  Ag  Ag41  1  0.17391059  0.33166440  0.49663968  1
  Ag  Ag42  1  0.33521749  0.49326120  0.16346784  1
  Ag  Ag43  1  -0.00315618  0.83460381  0.17086772  1
  Ag  Ag44  1  0.33632085  0.33205529  0.32469032  1
  Ag  Ag45  1  0.66472473  0.00625262  0.66242969  1
  Ag  Ag46  1  0.00246865  0.66130954  0.00406266  1
  Ag  Ag47  1  0.00351527  -0.00425800  0.32875107  1
  Ag  Ag48  1  0.33037364  0.66138453  0.00186942  1
  Ag  Ag49  1  0.17078934  0.65538244  0.83838109  1
  Ag  Ag50  1  0.01091423  0.49406775  0.83840851  1
  Ag  Ag51  1  0.49602839  0.66539438  0.49876915  1
  Ag  Ag52  1  0.66527868  0.33043314  0.00684205  1
  Ag  Ag53  1  0.32677362  0.33385474  0.00729225  1
  Sb  Sb54  1  0.17145045  0.66446006  0.50026674  1
  Sb  Sb55  1  0.33382598  0.66912722  0.66622541  1
  Sb  Sb56  1  0.00316749  0.32989724  0.67257353  1
  Sb  Sb57  1  0.16602616  0.49320763  -0.00400007  1
  Sb  Sb58  1  0.66431992  0.32452261  0.66795539  1
  Sb  Sb59  1  0.00180524  0.50221239  0.15988840  1
  Sb  Sb60  1  0.66565513  0.83805586  0.49375706  1
  Sb  Sb61  1  0.66051380  0.49197379  0.49310431  1
  Sb  Sb62  1  -0.00425795  0.16294810  0.16457440  1
  Sb  Sb63  1  0.66608365  0.83790705  0.83848109  1
  Sb  Sb64  1  0.16600855  0.66680257  0.16267033  1
  Sb  Sb65  1  0.83938144  0.32907177  0.83863419  1
  Sb  Sb66  1  0.50450078  0.16496234  0.33467357  1
  Sb  Sb67  1  0.83319352  0.49592403  0.32434538  1
  Sb  Sb68  1  0.66456459  0.49449905  0.84173348  1
  Sb  Sb69  1  0.49901419  0.83323246  0.00738135  1
  Sb  Sb70  1  0.49937602  0.00310901  0.49335922  1
  Sb  Sb71  1  0.16490460  0.83243322  0.66212933  1
  Sb  Sb72  1  0.83721203  0.84008437  0.33274839  1
  Sb  Sb73  1  0.66580812  0.67325809  0.67270964  1
  Sb  Sb74  1  0.00059369  0.66819720  0.66863676  1
  Sb  Sb75  1  0.82847652  0.32984758  0.16402065  1
  Sb  Sb76  1  0.16748881  0.83781461  0.00586495  1
  Sb  Sb77  1  0.33278413  0.83447416  0.17244165  1
  Sb  Sb78  1  0.83044613  0.66949865  0.49121216  1
  Sb  Sb79  1  0.16741145  0.00441831  0.49739753  1
  Sb  Sb80  1  0.00230247  0.83521225  0.83656641  1
  Sb  Sb81  1  0.00758651  0.49823100  0.50334277  1
  Sb  Sb82  1  0.50173302  0.83935692  0.66077953  1
  Sb  Sb83  1  0.49451822  0.00003297  0.83710652  1
  Sb  Sb84  1  0.00390265  0.33081317  0.32696277  1
  Sb  Sb85  1  -0.00023292  0.00212471  0.66322326  1
  Sb  Sb86  1  0.83700324  0.49746360  0.67406116  1
  Sb  Sb87  1  0.83343059  0.32973325  0.49788621  1
  Sb  Sb88  1  0.16739599  0.16828656  0.67217907  1
  Sb  Sb89  1  0.33766262  0.16855874  0.16260567  1
  Sb  Sb90  1  0.66308487  0.66937797  0.32557794  1
  Sb  Sb91  1  0.16381817  0.16359362  0.32763699  1
  Sb  Sb92  1  0.49547915  0.49463679  0.66634989  1
  Sb  Sb93  1  0.83351783  0.00281324  0.49405681  1
  Sb  Sb94  1  0.49969113  0.16798481  -0.00175430  1
  Sb  Sb95  1  0.33360577  0.16838792  0.50260805  1
  Sb  Sb96  1  0.16970287  0.50134725  0.33378528  1
  Sb  Sb97  1  0.49600577  0.50047579  0.33149598  1
  Sb  Sb98  1  0.33217259  0.83382768  0.83132143  1
  Sb  Sb99  1  0.83541794  0.66660914  0.84223703  1
  Sb  Sb100  1  0.66337668  0.00522724  0.00536741  1
  Sb  Sb101  1  0.49364713  0.33398801  0.83794067  1
  Sb  Sb102  1  0.49834504  0.50012192  0.00152023  1
  Sb  Sb103  1  0.83432483  0.83620170  0.00237611  1
  Sb  Sb104  1  0.50029028  0.66691099  0.16743396  1
  Sb  Sb105  1  0.33223299  0.32962210  0.66759207  1
  Sb  Sb106  1  0.83761058  0.00479128  0.83765044  1
  Sb  Sb107  1  0.00490223  0.00340158  0.00632535  1
  Te  Te108  1  0.16474388  0.16544521  0.16071735  1
  Te  Te109  1  0.16202432  0.17183421  0.50122844  1
  Te  Te110  1  0.16688971  0.16908504  0.83485103  1
  Te  Te111  1  0.17325741  0.49432433  0.16698054  1
  Te  Te112  1  0.17207472  0.49543241  0.50512588  1
  Te  Te113  1  0.16844390  0.49781804  0.83331033  1
  Te  Te114  1  0.16275877  0.83705229  0.17251058  1
  Te  Te115  1  0.16582307  0.83290875  0.49516804  1
  Te  Te116  1  0.16580486  0.83546311  0.83121162  1
  Te  Te117  1  0.50720504  0.16668183  0.16550247  1
  Te  Te118  1  0.50194514  0.17001260  0.50486129  1
  Te  Te119  1  0.50042427  0.16663325  0.82856506  1
  Te  Te120  1  0.49857047  0.49464276  0.16660491  1
  Te  Te121  1  0.49324576  0.49879747  0.50047814  1
  Te  Te122  1  0.49411864  0.50514339  0.83138007  1
  Te  Te123  1  0.50351374  0.83696591  0.17337600  1
  Te  Te124  1  0.49755281  0.83128883  0.49384483  1
  Te  Te125  1  0.50127029  0.82514082  0.83166558  1
  Te  Te126  1  0.82999951  0.16392893  0.16512265  1
  Te  Te127  1  0.83386840  0.16723049  0.50178962  1
  Te  Te128  1  0.83206568  0.16600562  0.83593865  1
  Te  Te129  1  0.83150333  0.50377884  0.16023786  1
  Te  Te130  1  0.83423844  0.49955035  0.50310999  1
  Te  Te131  1  0.83726905  0.49878965  0.84058568  1
  Te  Te132  1  0.83328270  0.83499481  0.16718966  1
  Te  Te133  1  0.83632882  0.83290186  0.50489769  1
  Te  Te134  1  0.83342146  0.83521860  0.82520129  1
  Te  Te135  1  0.17053501  0.00377046  0.00179741  1
  Te  Te136  1  0.16741711  -0.00181129  0.33101329  1
  Te  Te137  1  0.17153626  -0.00052796  0.66958247  1
  Te  Te138  1  0.16822512  0.32953660  0.00052427  1
  Te  Te139  1  0.17149949  0.33264249  0.33391001  1
  Te  Te140  1  0.16678666  0.33715453  0.66547616  1
  Te  Te141  1  0.16871130  0.67061847  -0.00272477  1
  Te  Te142  1  0.16901565  0.67056908  0.33254838  1
  Te  Te143  1  0.16611336  0.66335056  0.67409836  1
  Te  Te144  1  0.49096055  -0.00043572  0.00669500  1
  Te  Te145  1  0.49793834  -0.00162118  0.32983726  1
  Te  Te146  1  0.49979359  0.00390814  0.66802298  1
  Te  Te147  1  0.50017939  0.33376636  0.00571479  1
  Te  Te148  1  0.49744055  0.33316713  0.33154933  1
  Te  Te149  1  0.49987170  0.32703344  0.66115846  1
  Te  Te150  1  0.49534954  0.66712018  -0.00242002  1
  Te  Te151  1  0.49522616  0.67134161  0.33643914  1
  Te  Te152  1  0.50212355  0.66775138  0.66294933  1
  Te  Te153  1  0.83395365  0.00553728  0.00645966  1
  Te  Te154  1  0.83097077  0.00509061  0.32833042  1
  Te  Te155  1  0.83156538  0.00346962  0.66858777  1
  Te  Te156  1  0.83161601  0.33143208  0.00074334  1
  Te  Te157  1  0.83197703  0.32709338  0.33191913  1
  Te  Te158  1  0.83291759  0.32783946  0.66714407  1
  Te  Te159  1  0.83372722  0.66997888  0.00527176  1
  Te  Te160  1  0.83511806  0.66471588  0.32523659  1
  Te  Te161  1  0.83214424  0.66641161  0.66654229  1
  Te  Te162  1  -0.00093376  0.16865005  -0.00224703  1
  Te  Te163  1  -0.00470883  0.16336378  0.33600746  1
  Te  Te164  1  -0.00593747  0.16568435  0.66580735  1
  Te  Te165  1  -0.00365301  0.50095119  -0.00316284  1
  Te  Te166  1  0.00025698  0.50507060  0.33378559  1
  Te  Te167  1  0.00461753  0.49994880  0.67498527  1
  Te  Te168  1  -0.00009673  0.82709026  0.00523856  1
  Te  Te169  1  -0.00147829  0.83408625  0.33212287  1
  Te  Te170  1  -0.00452413  0.83454776  0.66281294  1
  Te  Te171  1  0.33231943  0.16835095  -0.00303208  1
  Te  Te172  1  0.33201226  0.16670894  0.33390746  1
  Te  Te173  1  0.33442427  0.16124263  0.67120256  1
  Te  Te174  1  0.33283266  0.49964179  0.00021703  1
  Te  Te175  1  0.33215481  0.49820412  0.33342346  1
  Te  Te176  1  0.33039787  0.50067892  0.66908392  1
  Te  Te177  1  0.33330257  0.82730979  0.00061263  1
  Te  Te178  1  0.33120774  0.83338337  0.33347615  1
  Te  Te179  1  0.33321008  0.84075181  0.65783571  1
  Te  Te180  1  0.66732648  0.16891588  -0.00053863  1
  Te  Te181  1  0.66688880  0.16575423  0.33302684  1
  Te  Te182  1  0.66767067  0.16348892  0.66809236  1
  Te  Te183  1  0.67038862  0.49891793  0.00290314  1
  Te  Te184  1  0.66739282  0.49623363  0.32561962  1
  Te  Te185  1  0.66840575  0.50004574  0.66840145  1
  Te  Te186  1  0.66662156  0.82904343  0.00697859  1
  Te  Te187  1  0.66753007  0.83802838  0.32882620  1
  Te  Te188  1  0.67029237  0.84197247  0.66576980  1
  Te  Te189  1  0.00274483  -0.00354981  0.17010582  1
  Te  Te190  1  0.00042645  0.00075847  0.49419862  1
  Te  Te191  1  0.00713017  0.00476458  0.83453792  1
  Te  Te192  1  0.00740095  0.33381668  0.16125986  1
  Te  Te193  1  0.00447602  0.33008573  0.49752372  1
  Te  Te194  1  0.00495724  0.33133496  0.83887903  1
  Te  Te195  1  0.00019883  0.66813705  0.16569036  1
  Te  Te196  1  0.00001987  0.66863758  0.49567321  1
  Te  Te197  1  0.00341465  0.66624582  0.83768163  1
  Te  Te198  1  0.33240942  0.00031384  0.16733929  1
  Te  Te199  1  0.33354723  -0.00231121  0.49444759  1
  Te  Te200  1  0.33071945  0.00122086  0.83717709  1
  Te  Te201  1  0.33511188  0.33196365  0.16666269  1
  Te  Te202  1  0.33349536  0.33472282  0.50092973  1
  Te  Te203  1  0.33092818  0.33301628  0.83540913  1
  Te  Te204  1  0.33377367  0.66290284  0.16748176  1
  Te  Te205  1  0.33527098  0.66628825  0.49819875  1
  Te  Te206  1  0.33175868  0.66671256  0.83321087  1
  Te  Te207  1  0.66577833  0.00193384  0.16646140  1
  Te  Te208  1  0.66655826  0.00550912  0.49887578  1
  Te  Te209  1  0.66519571  0.00541051  0.83379932  1
  Te  Te210  1  0.66686051  0.33224139  0.16625448  1
  Te  Te211  1  0.66242567  0.32835405  0.49632704  1
  Te  Te212  1  0.66240129  0.32769296  0.83934791  1
  Te  Te213  1  0.66738681  0.66339277  0.16308382  1
  Te  Te214  1  0.66064888  0.66411199  0.49882195  1
  Te  Te215  1  0.66596281  0.66622842  0.84195784  1
