# generated using pymatgen
data_AgSbTe2
_symmetry_space_group_name_H-M   'P 1'
_cell_length_a   18.35648378
_cell_length_b   18.36335609
_cell_length_c   18.35090759
_cell_angle_alpha   90.00364675
_cell_angle_beta   90.00483001
_cell_angle_gamma   90.00094394
_symmetry_Int_Tables_number   1
_chemical_formula_structural   AgSbTe2
_chemical_formula_sum   'Ag54 Sb54 Te108'
_cell_volume   6185.84589866
_cell_formula_units_Z   54
loop_
 _symmetry_equiv_pos_site_id
 _symmetry_equiv_pos_as_xyz
  1  'x, y, z'
loop_
 _atom_site_type_symbol
 _atom_site_label
 _atom_site_symmetry_multiplicity
 _atom_site_fract_x
 _atom_site_fract_y
 _atom_site_fract_z
 _atom_site_occupancy
  Ag  Ag0  1  0.83554671  0.82052684  0.32660655  1
  Ag  Ag1  1  0.17030118  0.00038881  0.83055934  1
  Ag  Ag2  1  0.34244726  0.83699470  0.83141315  1
  Ag  Ag3  1  0.15633829  0.33342752  0.17093309  1
  Ag  Ag4  1  0.16493395  0.17644270  0.33280974  1
  Ag  Ag5  1  0.67795757  0.16847556  0.15130551  1
  Ag  Ag6  1  -0.01233524  0.66709240  0.00654410  1
  Ag  Ag7  1  0.16144825  0.33691473  0.49620677  1
  Ag  Ag8  1  0.50493096  0.49411668  -0.00852386  1
  Ag  Ag9  1  0.66644682  0.83411305  0.83200253  1
  Ag  Ag10  1  0.16589815  0.00804509  0.51317710  1
  Ag  Ag11  1  0.32200773  0.49905878  0.51425329  1
  Ag  Ag12  1  0.82994581  0.50451869  -0.00497865  1
  Ag  Ag13  1  0.33869626  0.66271113  0.67080463  1
  Ag  Ag14  1  0.67258230  -0.01029102  0.67324204  1
  Ag  Ag15  1  0.83335803  0.81806276  -0.00783087  1
  Ag  Ag16  1  0.66983071  0.33428467  -0.00353854  1
  Ag  Ag17  1  0.16355714  0.83317523  0.66913804  1
  Ag  Ag18  1  0.83960768  0.34312273  0.49989649  1
  Ag  Ag19  1  0.68025484  0.66627185  0.32954019  1
  Ag  Ag20  1  0.82318298  -0.00865889  0.83195439  1
  Ag  Ag21  1  0.67622435  0.66036734  -0.00686188  1
  Ag  Ag22  1  0.50954711  0.66493710  0.83048833  1
  Ag  Ag23  1  0.00150434  0.34303856  0.33195540  1
  Ag  Ag24  1  0.82463920  0.17401896  -0.00264591  1
  Ag  Ag25  1  0.00426787  -0.00148412  0.66879941  1
  Ag  Ag26  1  0.83332669  0.50658338  0.67019909  1
  Ag  Ag27  1  0.34179328  0.32959151  -0.00288518  1
  Ag  Ag28  1  0.00128093  0.16874052  0.16639767  1
  Ag  Ag29  1  0.67511521  0.66874322  0.67691504  1
  Ag  Ag30  1  0.84004968  0.50833002  0.34041304  1
  Ag  Ag31  1  0.66295985  0.16276250  0.83589831  1
  Ag  Ag32  1  0.16816457  0.50189104  0.66167093  1
  Ag  Ag33  1  -0.00065652  0.49898710  0.49739288  1
  Ag  Ag34  1  0.82642126  0.66648747  0.84710759  1
  Ag  Ag35  1  0.82940866  0.82272199  0.67340843  1
  Ag  Ag36  1  0.33329022  0.01298469  -0.00686004  1
  Ag  Ag37  1  0.33942718  0.16340397  0.83678805  1
  Ag  Ag38  1  0.16659678  0.15644061  0.66656174  1
  Ag  Ag39  1  0.83822075  0.34150225  0.16323810  1
  Ag  Ag40  1  -0.00645364  0.65950700  0.32748034  1
  Ag  Ag41  1  0.33943810  0.50174368  0.83139087  1
  Ag  Ag42  1  0.50678370  0.82541549  0.67422358  1
  Ag  Ag43  1  0.15625607  0.49515834  0.34115531  1
  Ag  Ag44  1  0.15323685  0.65879994  0.16817967  1
  Ag  Ag45  1  0.50518797  0.33943821  0.83868566  1
  Ag  Ag46  1  -0.00378166  0.82223698  0.16688205  1
  Ag  Ag47  1  0.49988220  -0.00130851  0.83366915  1
  Ag  Ag48  1  0.50678847  0.17506842  -0.00475886  1
  Ag  Ag49  1  0.82755782  0.33872033  0.84578918  1
  Ag  Ag50  1  0.32827265  0.16999851  0.15301118  1
  Ag  Ag51  1  0.83636300  0.66123222  0.16458981  1
  Ag  Ag52  1  0.49220959  0.50701895  0.67633830  1
  Ag  Ag53  1  0.83384627  0.65911241  0.48019099  1
  Sb  Sb54  1  0.49536492  0.16859172  0.32084047  1
  Sb  Sb55  1  0.32868377  0.17260692  0.50549965  1
  Sb  Sb56  1  0.50045964  0.00133465  0.15496744  1
  Sb  Sb57  1  0.50232177  0.50033439  0.33593218  1
  Sb  Sb58  1  0.67095142  -0.00319740  0.33882732  1
  Sb  Sb59  1  0.16746018  0.33102244  0.83216677  1
  Sb  Sb60  1  0.16790145  0.16834577  -0.00040685  1
  Sb  Sb61  1  0.49302242  0.00035496  0.51416834  1
  Sb  Sb62  1  0.16171191  0.83015553  0.33674718  1
  Sb  Sb63  1  0.32462073  0.83513886  0.15680830  1
  Sb  Sb64  1  0.49823327  0.33652455  0.51138505  1
  Sb  Sb65  1  0.33174030  0.34021605  0.67478405  1
  Sb  Sb66  1  0.16003777  0.65990614  0.49902631  1
  Sb  Sb67  1  0.83689570  0.16877548  0.67497611  1
  Sb  Sb68  1  0.32890347  0.82697507  0.51182242  1
  Sb  Sb69  1  0.83420826  -0.00059133  0.15808861  1
  Sb  Sb70  1  0.83848006  -0.00164614  0.51098720  1
  Sb  Sb71  1  0.50666482  0.66380569  0.51146803  1
  Sb  Sb72  1  0.67412700  0.83600615  0.15883233  1
  Sb  Sb73  1  0.32400045  0.33408955  0.32717434  1
  Sb  Sb74  1  0.50671732  0.66712188  0.15656330  1
  Sb  Sb75  1  0.16419976  0.66901073  0.83226446  1
  Sb  Sb76  1  -0.00667863  0.66905059  0.66637169  1
  Sb  Sb77  1  0.67166343  0.49696317  0.16164057  1
  Sb  Sb78  1  -0.00139591  0.82775837  0.49921636  1
  Sb  Sb79  1  0.33122095  0.00088917  0.32867570  1
  Sb  Sb80  1  -0.00156943  0.16597354  0.83751634  1
  Sb  Sb81  1  0.66202799  0.50506836  0.83422290  1
  Sb  Sb82  1  0.16362104  0.50010123  -0.00211564  1
  Sb  Sb83  1  0.67732332  0.33764174  0.32533511  1
  Sb  Sb84  1  -0.00023591  -0.00223195  -0.00451223  1
  Sb  Sb85  1  0.16390262  0.00455689  0.16351380  1
  Sb  Sb86  1  0.00039434  -0.00107222  0.33741527  1
  Sb  Sb87  1  -0.00230784  0.50154462  0.17290468  1
  Sb  Sb88  1  -0.00579582  0.33807889  0.00661568  1
  Sb  Sb89  1  0.50236927  0.33334680  0.15780312  1
  Sb  Sb90  1  0.67442350  0.50082151  0.50285637  1
  Sb  Sb91  1  0.33060354  0.49658839  0.16109482  1
  Sb  Sb92  1  0.16165404  0.83186821  -0.00631100  1
  Sb  Sb93  1  0.83904444  0.17067585  0.32516729  1
  Sb  Sb94  1  0.32885125  0.66388114  0.33892837  1
  Sb  Sb95  1  0.49588304  0.16686131  0.67768983  1
  Sb  Sb96  1  0.66999422  0.33764144  0.67706945  1
  Sb  Sb97  1  -0.00664496  0.83322751  0.83351330  1
  Sb  Sb98  1  0.00109775  0.33246229  0.66236351  1
  Sb  Sb99  1  0.00188043  0.17182559  0.49684790  1
  Sb  Sb100  1  -0.00220755  0.50071133  0.82800440  1
  Sb  Sb101  1  0.66615015  0.00375953  -0.00890606  1
  Sb  Sb102  1  0.67104337  0.82987962  0.51138237  1
  Sb  Sb103  1  0.50829072  0.82980051  0.34070383  1
  Sb  Sb104  1  0.50593628  0.83167129  -0.00878918  1
  Sb  Sb105  1  0.66905837  0.16847578  0.50721825  1
  Sb  Sb106  1  0.33527024  0.66382115  -0.00785159  1
  Sb  Sb107  1  0.32910775  -0.00518084  0.67506725  1
  Te  Te108  1  0.16683880  0.16903622  0.16818253  1
  Te  Te109  1  0.16700831  0.17078839  0.50103235  1
  Te  Te110  1  0.16713922  0.16546408  0.82902999  1
  Te  Te111  1  0.16774623  0.49756799  0.16733655  1
  Te  Te112  1  0.16435290  0.49925368  0.49982305  1
  Te  Te113  1  0.17012940  0.49996969  0.82865718  1
  Te  Te114  1  0.15951191  0.83155423  0.16696168  1
  Te  Te115  1  0.16602245  0.83734847  0.50576509  1
  Te  Te116  1  0.16816226  0.83583226  0.82895336  1
  Te  Te117  1  0.49247101  0.16651091  0.15667039  1
  Te  Te118  1  0.49863919  0.16777491  0.49770561  1
  Te  Te119  1  0.49860440  0.16731831  0.83547867  1
  Te  Te120  1  0.49975092  0.50111803  0.16193118  1
  Te  Te121  1  0.49450958  0.49923559  0.50473550  1
  Te  Te122  1  0.49914083  0.50042461  0.83368776  1
  Te  Te123  1  0.49827405  0.83413389  0.16961777  1
  Te  Te124  1  0.49835191  0.83300901  0.50988892  1
  Te  Te125  1  0.50168081  0.83128609  0.83124124  1
  Te  Te126  1  0.83496009  0.16557392  0.16203602  1
  Te  Te127  1  0.83334514  0.17032120  0.49828762  1
  Te  Te128  1  0.83184069  0.17071161  0.83679747  1
  Te  Te129  1  0.83232858  0.49947393  0.16247218  1
  Te  Te130  1  0.83478059  0.50080980  0.49905021  1
  Te  Te131  1  0.83403792  0.49965609  0.83212215  1
  Te  Te132  1  0.83665369  0.83445331  0.16700051  1
  Te  Te133  1  0.83416824  0.83083942  0.50408709  1
  Te  Te134  1  0.83279297  0.83280356  0.83279179  1
  Te  Te135  1  0.17047603  -0.00067014  -0.00571439  1
  Te  Te136  1  0.16677204  0.00100449  0.33476878  1
  Te  Te137  1  0.16817261  -0.00148134  0.66972470  1
  Te  Te138  1  0.16544237  0.33552748  0.00449192  1
  Te  Te139  1  0.16363806  0.33558639  0.33226173  1
  Te  Te140  1  0.16600123  0.34060536  0.66347646  1
  Te  Te141  1  0.16680215  0.66649566  0.00720682  1
  Te  Te142  1  0.16235162  0.66264113  0.32964079  1
  Te  Te143  1  0.16284554  0.66653204  0.66547056  1
  Te  Te144  1  0.49526739  -0.00012589  -0.00779486  1
  Te  Te145  1  0.50064160  -0.00075651  0.33605324  1
  Te  Te146  1  0.50464168  -0.00168689  0.67438150  1
  Te  Te147  1  0.50202323  0.33386216  -0.00337695  1
  Te  Te148  1  0.50193976  0.33416903  0.33503804  1
  Te  Te149  1  0.50184317  0.33883456  0.67629638  1
  Te  Te150  1  0.50317975  0.66243795  -0.00755324  1
  Te  Te151  1  0.50268709  0.66614622  0.33281850  1
  Te  Te152  1  0.50123871  0.66567451  0.67098095  1
  Te  Te153  1  0.83359408  0.00535612  -0.00836689  1
  Te  Te154  1  0.83400385  -0.00267216  0.33822340  1
  Te  Te155  1  0.83349339  0.00181449  0.67275785  1
  Te  Te156  1  0.83262257  0.33369905  0.00253369  1
  Te  Te157  1  0.83904102  0.33555577  0.33099680  1
  Te  Te158  1  0.83428441  0.33658428  0.65918252  1
  Te  Te159  1  0.83150469  0.66385087  0.00390772  1
  Te  Te160  1  0.83620722  0.66507695  0.32497146  1
  Te  Te161  1  0.83469083  0.66609655  0.67680455  1
  Te  Te162  1  -0.00302000  0.16587101  0.00539654  1
  Te  Te163  1  0.00568235  0.16621263  0.32869464  1
  Te  Te164  1  0.00555762  0.16171087  0.66602886  1
  Te  Te165  1  -0.00433093  0.50535887  -0.00379810  1
  Te  Te166  1  -0.00095451  0.49983701  0.33592211  1
  Te  Te167  1  -0.00067753  0.50029774  0.66113420  1
  Te  Te168  1  -0.00551609  0.83085416  0.00521767  1
  Te  Te169  1  -0.00423221  0.83092356  0.32988472  1
  Te  Te170  1  0.00058728  0.83676865  0.66595918  1
  Te  Te171  1  0.32937410  0.16953238  -0.00407337  1
  Te  Te172  1  0.32712785  0.16643644  0.33123521  1
  Te  Te173  1  0.32777051  0.16815419  0.67222621  1
  Te  Te174  1  0.33439867  0.49601430  -0.00586328  1
  Te  Te175  1  0.33296592  0.50044559  0.33310426  1
  Te  Te176  1  0.33278638  0.50157735  0.67118650  1
  Te  Te177  1  0.33367309  0.83329146  -0.00748919  1
  Te  Te178  1  0.33559353  0.83291574  0.33405515  1
  Te  Te179  1  0.33108774  0.82785133  0.67274671  1
  Te  Te180  1  0.66514260  0.16495660  -0.00419527  1
  Te  Te181  1  0.66459237  0.16623151  0.33216728  1
  Te  Te182  1  0.66483509  0.16604290  0.67356523  1
  Te  Te183  1  0.66757891  0.49816282  -0.00042671  1
  Te  Te184  1  0.67088643  0.50552886  0.33183293  1
  Te  Te185  1  0.67225868  0.50529410  0.66558579  1
  Te  Te186  1  0.67239054  0.82984689  -0.00468225  1
  Te  Te187  1  0.67324382  0.82908112  0.33141467  1
  Te  Te188  1  0.66904018  0.82966271  0.67204314  1
  Te  Te189  1  -0.00030985  0.00465530  0.16719367  1
  Te  Te190  1  0.00643499  0.00054972  0.50554312  1
  Te  Te191  1  0.00688956  -0.00038737  0.82896991  1
  Te  Te192  1  -0.00139039  0.33001130  0.16985661  1
  Te  Te193  1  0.00068075  0.33681213  0.49571756  1
  Te  Te194  1  -0.00796213  0.33275369  0.83338343  1
  Te  Te195  1  -0.00254862  0.66495077  0.16758706  1
  Te  Te196  1  -0.00642551  0.66161549  0.49558033  1
  Te  Te197  1  -0.00393610  0.66710957  0.84111497  1
  Te  Te198  1  0.33245072  0.00402775  0.15898602  1
  Te  Te199  1  0.32655458  0.00040479  0.49909389  1
  Te  Te200  1  0.33425883  -0.00007405  0.83383664  1
  Te  Te201  1  0.33353299  0.32961261  0.16029676  1
  Te  Te202  1  0.33040582  0.33932873  0.49893932  1
  Te  Te203  1  0.33212695  0.33250804  0.83804603  1
  Te  Te204  1  0.33368112  0.66813330  0.16701261  1
  Te  Te205  1  0.33383502  0.66015127  0.50711920  1
  Te  Te206  1  0.33041044  0.66546351  0.82942389  1
  Te  Te207  1  0.66615458  0.00844514  0.16960347  1
  Te  Te208  1  0.66492050  0.00023304  0.50939733  1
  Te  Te209  1  0.66584678  -0.00124833  0.83156719  1
  Te  Te210  1  0.67139247  0.32713955  0.16009591  1
  Te  Te211  1  0.67022497  0.33292858  0.49766601  1
  Te  Te212  1  0.66804117  0.32799612  0.83746631  1
  Te  Te213  1  0.67214390  0.66870407  0.16481515  1
  Te  Te214  1  0.67338106  0.66653832  0.49493929  1
  Te  Te215  1  0.66792624  0.66802232  0.83345089  1
