# generated using pymatgen
data_AgSbTe2
_symmetry_space_group_name_H-M   'P 1'
_cell_length_a   18.33923322
_cell_length_b   18.33882576
_cell_length_c   18.34927876
_cell_angle_alpha   90.00168145
_cell_angle_beta   90.00210554
_cell_angle_gamma   89.99866635
_symmetry_Int_Tables_number   1
_chemical_formula_structural   AgSbTe2
_chemical_formula_sum   'Ag54 Sb54 Te108'
_cell_volume   6171.22946827
_cell_formula_units_Z   54
loop_
 _symmetry_equiv_pos_site_id
 _symmetry_equiv_pos_as_xyz
  1  'x, y, z'
loop_
 _atom_site_type_symbol
 _atom_site_label
 _atom_site_symmetry_multiplicity
 _atom_site_fract_x
 _atom_site_fract_y
 _atom_site_fract_z
 _atom_site_occupancy
  Ag  Ag0  1  0.66386879  0.33331919  0.33520472  1
  Ag  Ag1  1  0.50250598  0.17411428  0.66052370  1
  Ag  Ag2  1  -0.00265230  -0.00062736  0.00096632  1
  Ag  Ag3  1  0.33437187  0.66582710  -0.00821177  1
  Ag  Ag4  1  0.00760993  0.65867630  0.34065778  1
  Ag  Ag5  1  0.49899607  0.33345850  0.82164411  1
  Ag  Ag6  1  0.65523864  0.16463723  0.50257142  1
  Ag  Ag7  1  0.83434163  -0.00239836  0.16574195  1
  Ag  Ag8  1  0.33380737  0.50563394  0.16952803  1
  Ag  Ag9  1  0.84365753  0.65202802  0.83085120  1
  Ag  Ag10  1  0.33705845  -0.00781991  0.33327638  1
  Ag  Ag11  1  0.66554571  0.33602206  -0.00213076  1
  Ag  Ag12  1  0.49416310  0.49325429  0.34255196  1
  Ag  Ag13  1  0.84461449  0.49405264  0.67027265  1
  Ag  Ag14  1  0.33081282  0.49668175  0.50692412  1
  Ag  Ag15  1  -0.00248355  0.18017210  0.82341808  1
  Ag  Ag16  1  0.82470508  0.00420539  0.50745846  1
  Ag  Ag17  1  0.33189729  0.82922463  0.16700530  1
  Ag  Ag18  1  0.17002505  0.33808605  0.50518286  1
  Ag  Ag19  1  0.84044744  0.33634783  0.82975345  1
  Ag  Ag20  1  0.16067432  0.34236461  0.82233637  1
  Ag  Ag21  1  0.00560349  0.83377570  0.16811635  1
  Ag  Ag22  1  0.49718076  0.83299798  0.00148919  1
  Ag  Ag23  1  0.16792774  0.82652587  0.66241806  1
  Ag  Ag24  1  0.16851805  -0.00551586  0.16843956  1
  Ag  Ag25  1  0.16800980  0.66077795  0.82499219  1
  Ag  Ag26  1  0.49348168  0.32522550  0.50616085  1
  Ag  Ag27  1  0.34399026  0.17763719  0.50095546  1
  Ag  Ag28  1  0.00756120  0.34017439  0.66492016  1
  Ag  Ag29  1  -0.00068924  0.17587740  0.50589622  1
  Ag  Ag30  1  0.00269129  0.50303327  0.16890793  1
  Ag  Ag31  1  0.66484030  0.84356386  0.49757993  1
  Ag  Ag32  1  0.33325454  0.82173087  0.83476501  1
  Ag  Ag33  1  0.32722133  0.65987659  0.66809589  1
  Ag  Ag34  1  0.65536981  0.83737301  0.17013272  1
  Ag  Ag35  1  0.32793226  0.66674843  0.33614458  1
  Ag  Ag36  1  0.16766097  0.66116588  0.50648496  1
  Ag  Ag37  1  0.33062324  0.34170995  0.66368628  1
  Ag  Ag38  1  0.33003582  0.50381965  0.82391653  1
  Ag  Ag39  1  0.66511129  0.00159900  0.66221274  1
  Ag  Ag40  1  0.16898406  0.83105936  0.33549571  1
  Ag  Ag41  1  0.48989921  0.49071122  0.66723390  1
  Ag  Ag42  1  0.83539154  0.49921069  -0.01244925  1
  Ag  Ag43  1  0.00964508  0.65826432  0.66526644  1
  Ag  Ag44  1  0.49803869  0.50028672  -0.00401838  1
  Ag  Ag45  1  -0.00102649  0.49731687  0.82514238  1
  Ag  Ag46  1  0.00614986  0.49303263  0.50819314  1
  Ag  Ag47  1  -0.00158221  0.34007628  0.34943616  1
  Ag  Ag48  1  0.50020306  0.00548395  0.82906493  1
  Ag  Ag49  1  0.49853991  -0.00323617  0.17090894  1
  Ag  Ag50  1  0.83388614  0.00363178  0.82899563  1
  Ag  Ag51  1  0.49928689  0.17305277  0.34860316  1
  Ag  Ag52  1  0.50297712  0.01064599  0.50199660  1
  Ag  Ag53  1  0.83239346  0.17100960  0.66589188  1
  Sb  Sb54  1  0.00350361  -0.00005489  0.33080429  1
  Sb  Sb55  1  0.16849404  -0.00000535  0.49753661  1
  Sb  Sb56  1  0.16977338  0.50542046  0.33693979  1
  Sb  Sb57  1  0.83703544  0.83423415  0.33245878  1
  Sb  Sb58  1  0.50047673  0.16736601  -0.00502126  1
  Sb  Sb59  1  0.33602703  0.16410585  0.17509268  1
  Sb  Sb60  1  0.33949866  0.34363774  -0.01040228  1
  Sb  Sb61  1  0.83569375  0.49799531  0.33748879  1
  Sb  Sb62  1  0.33510893  0.83098920  0.49952782  1
  Sb  Sb63  1  0.49495175  0.83315697  0.66882929  1
  Sb  Sb64  1  0.66553265  0.16246575  0.17372112  1
  Sb  Sb65  1  0.16788282  -0.00196885  0.83571115  1
  Sb  Sb66  1  0.33799592  -0.00004341  0.66284957  1
  Sb  Sb67  1  -0.00398951  0.00163380  0.66940176  1
  Sb  Sb68  1  0.83420107  0.33095383  0.16184227  1
  Sb  Sb69  1  0.33269559  0.33787991  0.34149077  1
  Sb  Sb70  1  0.83058238  0.16597055  0.34289777  1
  Sb  Sb71  1  0.83713567  0.83397755  0.66836754  1
  Sb  Sb72  1  -0.00052719  0.83321829  0.49758794  1
  Sb  Sb73  1  0.49271854  0.66403376  0.50031290  1
  Sb  Sb74  1  0.16818879  0.50110895  -0.00318134  1
  Sb  Sb75  1  0.66537002  0.32945722  0.66544626  1
  Sb  Sb76  1  0.33331366  -0.00567934  0.00462919  1
  Sb  Sb77  1  0.67053870  0.16791500  0.82574428  1
  Sb  Sb78  1  0.83392515  0.16907786  -0.00924916  1
  Sb  Sb79  1  0.66549837  0.50294231  0.16576309  1
  Sb  Sb80  1  0.83356829  0.32975548  0.50812579  1
  Sb  Sb81  1  0.49498323  0.83480547  0.33133293  1
  Sb  Sb82  1  0.49553970  0.66159885  0.83242854  1
  Sb  Sb83  1  0.49830282  0.33200627  0.16901341  1
  Sb  Sb84  1  0.49541121  0.66975828  0.16618902  1
  Sb  Sb85  1  0.00524119  0.66699962  -0.00229801  1
  Sb  Sb86  1  0.84118087  0.66918252  0.50520745  1
  Sb  Sb87  1  -0.00166302  0.16597344  0.16948457  1
  Sb  Sb88  1  0.16660300  0.33271288  0.17108570  1
  Sb  Sb89  1  0.16706515  0.50478942  0.66651130  1
  Sb  Sb90  1  0.33152995  0.17141831  0.82607899  1
  Sb  Sb91  1  0.66409994  0.66401753  0.33501667  1
  Sb  Sb92  1  0.17133690  0.83150350  0.00207017  1
  Sb  Sb93  1  0.66030344  0.00272347  0.33927630  1
  Sb  Sb94  1  0.00463755  0.82968851  0.83596758  1
  Sb  Sb95  1  0.83755014  0.66909505  0.16201778  1
  Sb  Sb96  1  0.17064451  0.16427218  0.33681366  1
  Sb  Sb97  1  0.66664896  0.66985872  0.66608656  1
  Sb  Sb98  1  0.16880139  0.67006294  0.16860480  1
  Sb  Sb99  1  0.66330516  0.49600263  0.50147635  1
  Sb  Sb100  1  0.66263317  0.66486896  -0.00152811  1
  Sb  Sb101  1  0.16611432  0.16597677  0.66488913  1
  Sb  Sb102  1  0.66050857  0.83600673  0.83325395  1
  Sb  Sb103  1  -0.00267313  0.33414454  -0.00737607  1
  Sb  Sb104  1  0.16600437  0.16633225  -0.00164261  1
  Sb  Sb105  1  0.66635008  0.49752241  0.83192893  1
  Sb  Sb106  1  0.66832855  0.00322916  -0.00153082  1
  Sb  Sb107  1  0.82983727  0.83088181  -0.00121299  1
  Te  Te108  1  0.16720084  0.15840761  0.16731759  1
  Te  Te109  1  0.15949648  0.17047781  0.50012603  1
  Te  Te110  1  0.15992477  0.16930023  0.83296597  1
  Te  Te111  1  0.16575223  0.49957472  0.16526532  1
  Te  Te112  1  0.16651960  0.49944394  0.49929819  1
  Te  Te113  1  0.16782876  0.49987289  0.83412670  1
  Te  Te114  1  0.16863506  0.83519153  0.16816401  1
  Te  Te115  1  0.16755726  0.83168070  0.49838770  1
  Te  Te116  1  0.17278591  0.83087733  0.83182636  1
  Te  Te117  1  0.50011200  0.15808168  0.16671967  1
  Te  Te118  1  0.49925242  0.16632393  0.50368979  1
  Te  Te119  1  0.49970886  0.16776366  0.82780729  1
  Te  Te120  1  0.49782210  0.50015803  0.16091737  1
  Te  Te121  1  0.49755450  0.49781111  0.50168874  1
  Te  Te122  1  0.49881824  0.49719636  0.83288943  1
  Te  Te123  1  0.49498653  0.83630433  0.16544774  1
  Te  Te124  1  0.50420073  0.83491811  0.49983184  1
  Te  Te125  1  0.49436825  0.83423814  0.83700248  1
  Te  Te126  1  0.83259726  0.15915967  0.16568042  1
  Te  Te127  1  0.84023607  0.16367405  0.50623608  1
  Te  Te128  1  0.83687101  0.16369915  0.82650466  1
  Te  Te129  1  0.83522883  0.49999857  0.16580730  1
  Te  Te130  1  0.83621703  0.50086866  0.50589922  1
  Te  Te131  1  0.83075052  0.49558459  0.83102052  1
  Te  Te132  1  0.84115878  0.83699225  0.16529794  1
  Te  Te133  1  0.82805464  0.84033638  0.49998707  1
  Te  Te134  1  0.83224495  0.84498674  0.83423580  1
  Te  Te135  1  0.16143696  -0.00084139  0.00566588  1
  Te  Te136  1  0.17158151  -0.00503350  0.32991815  1
  Te  Te137  1  0.16711144  -0.00893948  0.66694255  1
  Te  Te138  1  0.16770823  0.33269540  -0.00460596  1
  Te  Te139  1  0.15972168  0.33194200  0.33884771  1
  Te  Te140  1  0.16650155  0.32828396  0.66508632  1
  Te  Te141  1  0.17364198  0.66689802  -0.00964479  1
  Te  Te142  1  0.16621990  0.67068791  0.33410201  1
  Te  Te143  1  0.16741284  0.66766381  0.66673810  1
  Te  Te144  1  0.50095026  -0.00089171  -0.00324289  1
  Te  Te145  1  0.49728243  0.00033033  0.33414878  1
  Te  Te146  1  0.50241273  -0.00093796  0.66691723  1
  Te  Te147  1  0.50458682  0.33583239  0.00051634  1
  Te  Te148  1  0.49893861  0.33283504  0.33405087  1
  Te  Te149  1  0.50299176  0.33423496  0.66504044  1
  Te  Te150  1  0.49551807  0.66569953  -0.00085810  1
  Te  Te151  1  0.49548180  0.65782810  0.33350770  1
  Te  Te152  1  0.49766788  0.66145684  0.66644794  1
  Te  Te153  1  0.83477165  -0.00026273  -0.00032491  1
  Te  Te154  1  0.83341456  0.00062456  0.32972994  1
  Te  Te155  1  0.83078113  0.00046575  0.66604105  1
  Te  Te156  1  0.82932372  0.33770273  -0.00565326  1
  Te  Te157  1  0.83531251  0.33264417  0.33048353  1
  Te  Te158  1  0.83142130  0.33301530  0.67153162  1
  Te  Te159  1  0.83353382  0.66154747  -0.00625488  1
  Te  Te160  1  0.83955257  0.66552434  0.33354183  1
  Te  Te161  1  0.83435174  0.66420216  0.67144065  1
  Te  Te162  1  -0.00078164  0.16207479  -0.00227439  1
  Te  Te163  1  -0.00054791  0.17226669  0.33727720  1
  Te  Te164  1  -0.00183269  0.16657303  0.66693910  1
  Te  Te165  1  -0.00381841  0.50089555  0.00347337  1
  Te  Te166  1  -0.00005560  0.49975429  0.33105788  1
  Te  Te167  1  0.00175795  0.50071100  0.66821608  1
  Te  Te168  1  -0.00091473  0.83535397  0.00591725  1
  Te  Te169  1  0.00515072  0.83167368  0.32941955  1
  Te  Te170  1  0.00513283  0.82805103  0.66670014  1
  Te  Te171  1  0.33357033  0.16850375  0.00085639  1
  Te  Te172  1  0.33836079  0.16556072  0.34028833  1
  Te  Te173  1  0.33724037  0.16763999  0.66047473  1
  Te  Te174  1  0.33627069  0.50574673  0.00397465  1
  Te  Te175  1  0.33532292  0.50215132  0.32981360  1
  Te  Te176  1  0.33206218  0.49917728  0.66599213  1
  Te  Te177  1  0.33716952  0.82964517  0.00187292  1
  Te  Te178  1  0.33083483  0.83097210  0.33200213  1
  Te  Te179  1  0.32940326  0.83055868  0.66946859  1
  Te  Te180  1  0.66698409  0.17490731  0.00206977  1
  Te  Te181  1  0.66187972  0.17139554  0.34004981  1
  Te  Te182  1  0.66692918  0.16248774  0.66202890  1
  Te  Te183  1  0.66361117  0.49759026  0.00117295  1
  Te  Te184  1  0.66075233  0.49507043  0.33283965  1
  Te  Te185  1  0.66530092  0.50201913  0.66476922  1
  Te  Te186  1  0.65983678  0.83375636  0.00554267  1
  Te  Te187  1  0.66679292  0.83181462  0.33137798  1
  Te  Te188  1  0.66583139  0.83824663  0.66325677  1
  Te  Te189  1  -0.00110824  -0.00040519  0.16580620  1
  Te  Te190  1  -0.00123191  0.00211170  0.49967017  1
  Te  Te191  1  -0.00039895  -0.00265668  0.83767106  1
  Te  Te192  1  0.00091523  0.33660215  0.16495410  1
  Te  Te193  1  -0.00422249  0.33638770  0.50593048  1
  Te  Te194  1  0.00042066  0.33712366  0.83020270  1
  Te  Te195  1  0.00165115  0.66593487  0.16733522  1
  Te  Te196  1  0.00509766  0.66643390  0.50042659  1
  Te  Te197  1  0.00303356  0.66398615  0.83173334  1
  Te  Te198  1  0.33544270  -0.00235363  0.17023769  1
  Te  Te199  1  0.33620808  0.00016706  0.49526515  1
  Te  Te200  1  0.33709747  0.00285564  0.83530239  1
  Te  Te201  1  0.33032296  0.33781431  0.16423946  1
  Te  Te202  1  0.33279068  0.33623224  0.50233481  1
  Te  Te203  1  0.33617683  0.33685626  0.82571134  1
  Te  Te204  1  0.33151130  0.66680206  0.17157002  1
  Te  Te205  1  0.32878866  0.66378875  0.49952751  1
  Te  Te206  1  0.33407992  0.66377571  0.83005805  1
  Te  Te207  1  0.66605644  -0.00406904  0.16621781  1
  Te  Te208  1  0.66506783  0.00361611  0.50032753  1
  Te  Te209  1  0.66340064  0.00084478  0.83010678  1
  Te  Te210  1  0.66657925  0.33304201  0.17091189  1
  Te  Te211  1  0.66422018  0.32999612  0.49592897  1
  Te  Te212  1  0.66150470  0.33204407  0.83602983  1
  Te  Te213  1  0.66863689  0.67678690  0.16706494  1
  Te  Te214  1  0.66944592  0.67235694  0.49888460  1
  Te  Te215  1  0.67861976  0.67031825  0.83325612  1
