# generated using pymatgen
data_AgSbTe2
_symmetry_space_group_name_H-M   'P 1'
_cell_length_a   18.33566300
_cell_length_b   18.33804314
_cell_length_c   18.33591667
_cell_angle_alpha   90.00043403
_cell_angle_beta   90.00321725
_cell_angle_gamma   89.99629367
_symmetry_Int_Tables_number   1
_chemical_formula_structural   AgSbTe2
_chemical_formula_sum   'Ag54 Sb54 Te108'
_cell_volume   6165.27188103
_cell_formula_units_Z   54
loop_
 _symmetry_equiv_pos_site_id
 _symmetry_equiv_pos_as_xyz
  1  'x, y, z'
loop_
 _atom_site_type_symbol
 _atom_site_label
 _atom_site_symmetry_multiplicity
 _atom_site_fract_x
 _atom_site_fract_y
 _atom_site_fract_z
 _atom_site_occupancy
  Ag  Ag0  1  0.32992061  0.50036691  0.17173883  1
  Ag  Ag1  1  0.66166962  0.83516519  0.51446714  1
  Ag  Ag2  1  0.00486669  0.33580039  0.67369910  1
  Ag  Ag3  1  0.65410876  -0.00752109  0.67063371  1
  Ag  Ag4  1  0.50258512  0.66275316  0.15754760  1
  Ag  Ag5  1  0.33745037  0.66482743  -0.00368857  1
  Ag  Ag6  1  0.32984308  0.34135971  0.34511340  1
  Ag  Ag7  1  0.50009623  -0.00883229  0.82541387  1
  Ag  Ag8  1  0.16450962  -0.00097431  0.15736764  1
  Ag  Ag9  1  0.33214266  0.49910814  0.49945935  1
  Ag  Ag10  1  0.15828877  -0.00835816  0.83102632  1
  Ag  Ag11  1  0.83330839  0.49940592  -0.00700151  1
  Ag  Ag12  1  0.33301967  0.83213459  0.82791045  1
  Ag  Ag13  1  0.83358627  0.83042552  -0.00454128  1
  Ag  Ag14  1  0.66475637  -0.00428819  0.34103999  1
  Ag  Ag15  1  0.49937587  0.33465533  0.82919771  1
  Ag  Ag16  1  0.49470213  0.83859096  0.66925363  1
  Ag  Ag17  1  0.50083058  0.15191609  0.66830420  1
  Ag  Ag18  1  -0.00013410  0.66234006  0.33537484  1
  Ag  Ag19  1  0.84162124  0.50032508  0.67424560  1
  Ag  Ag20  1  -0.00601913  0.00638620  -0.00828970  1
  Ag  Ag21  1  0.83952920  0.33635234  0.83459602  1
  Ag  Ag22  1  0.83305581  0.83069262  0.33026875  1
  Ag  Ag23  1  0.15575778  0.33491515  0.82821268  1
  Ag  Ag24  1  0.83867514  0.17028951  -0.00813697  1
  Ag  Ag25  1  0.49419090  0.33169719  0.51154457  1
  Ag  Ag26  1  0.66579308  0.83392207  0.82981555  1
  Ag  Ag27  1  0.83510431  0.16807635  0.67439436  1
  Ag  Ag28  1  0.49059210  0.50004489  0.33073220  1
  Ag  Ag29  1  0.49949822  0.00087067  0.51423929  1
  Ag  Ag30  1  0.00297220  0.34061879  0.33312390  1
  Ag  Ag31  1  0.16339639  0.50877345  0.66557071  1
  Ag  Ag32  1  0.49830003  0.67193051  0.83314917  1
  Ag  Ag33  1  0.00249679  0.66492682  0.67080877  1
  Ag  Ag34  1  0.67811179  0.33202649  -0.00589700  1
  Ag  Ag35  1  0.17344572  0.82840007  0.67015679  1
  Ag  Ag36  1  0.50174813  0.50273080  0.00042954  1
  Ag  Ag37  1  -0.00039138  0.83859794  0.83074685  1
  Ag  Ag38  1  0.16744417  0.66399086  0.51404129  1
  Ag  Ag39  1  0.16062909  0.67110203  0.82926521  1
  Ag  Ag40  1  0.00312648  0.49808793  0.16775097  1
  Ag  Ag41  1  0.33786958  0.83145433  0.51042925  1
  Ag  Ag42  1  -0.00177992  0.16367558  0.83420312  1
  Ag  Ag43  1  0.34208567  -0.00619424  0.66731887  1
  Ag  Ag44  1  0.83298828  0.66580378  0.15336001  1
  Ag  Ag45  1  0.66935409  0.67533881  0.67015940  1
  Ag  Ag46  1  0.83688426  0.66549165  0.83344974  1
  Ag  Ag47  1  0.00163760  -0.00200996  0.67497903  1
  Ag  Ag48  1  0.17179872  0.50080980  0.33745505  1
  Ag  Ag49  1  -0.00503655  0.32881548  -0.01028612  1
  Ag  Ag50  1  0.67296084  -0.00047749  -0.01045648  1
  Ag  Ag51  1  0.33405083  0.33101280  0.66493492  1
  Ag  Ag52  1  -0.00061300  0.17246121  0.15306576  1
  Ag  Ag53  1  0.33597105  0.17814510  0.50748786  1
  Sb  Sb54  1  -0.00104403  0.83276865  0.50807499  1
  Sb  Sb55  1  0.16294624  0.33342910  0.16327526  1
  Sb  Sb56  1  0.33064153  0.16382195  0.82765955  1
  Sb  Sb57  1  0.83776134  0.50389062  0.33201023  1
  Sb  Sb58  1  0.67044721  0.67131318  0.33803038  1
  Sb  Sb59  1  0.49749302  0.33999241  0.16319174  1
  Sb  Sb60  1  0.17313936  0.33915102  0.50716088  1
  Sb  Sb61  1  -0.00118168  0.66433659  -0.00541227  1
  Sb  Sb62  1  0.66709283  0.50442078  0.83322637  1
  Sb  Sb63  1  0.83771249  0.66781629  0.50715597  1
  Sb  Sb64  1  0.16098155  0.83319694  -0.01117842  1
  Sb  Sb65  1  0.33012561  0.66066530  0.33194861  1
  Sb  Sb66  1  0.66013694  0.50447559  0.50347353  1
  Sb  Sb67  1  0.66636053  0.50158689  0.16430976  1
  Sb  Sb68  1  0.66554407  0.33162835  0.33148608  1
  Sb  Sb69  1  0.67266788  0.16475012  0.16280653  1
  Sb  Sb70  1  0.83557798  0.16361726  0.33222063  1
  Sb  Sb71  1  0.33649146  0.00334037  0.34197749  1
  Sb  Sb72  1  0.49389738  0.66700094  0.50514759  1
  Sb  Sb73  1  0.82662750  -0.00287875  0.50467277  1
  Sb  Sb74  1  0.83790288  -0.00378951  0.16220306  1
  Sb  Sb75  1  0.33279096  -0.00513320  -0.00990018  1
  Sb  Sb76  1  0.67474522  0.16084032  0.83169415  1
  Sb  Sb77  1  0.33244939  0.82760790  0.16426533  1
  Sb  Sb78  1  0.16499550  0.17395547  0.33431095  1
  Sb  Sb79  1  0.66714166  0.83260980  0.16151910  1
  Sb  Sb80  1  0.50684702  0.17150584  -0.01046920  1
  Sb  Sb81  1  0.32957174  0.66976572  0.67181934  1
  Sb  Sb82  1  0.00569561  0.50051511  0.49990133  1
  Sb  Sb83  1  0.50476868  0.82901708  -0.01101946  1
  Sb  Sb84  1  0.50303774  0.82936963  0.34115045  1
  Sb  Sb85  1  0.16775498  0.16603794  0.66882815  1
  Sb  Sb86  1  -0.00187551  0.49809827  0.83380438  1
  Sb  Sb87  1  0.00521899  0.16875223  0.50804387  1
  Sb  Sb88  1  0.49613219  -0.00538926  0.16217976  1
  Sb  Sb89  1  0.83510868  -0.00305856  0.83349115  1
  Sb  Sb90  1  0.15966790  0.16597032  -0.00308516  1
  Sb  Sb91  1  0.66091393  0.16101991  0.50458735  1
  Sb  Sb92  1  0.83152935  0.83277202  0.67249410  1
  Sb  Sb93  1  -0.00057289  0.83150491  0.16081156  1
  Sb  Sb94  1  0.16259540  0.82740717  0.34059987  1
  Sb  Sb95  1  0.83826062  0.33983064  0.15662612  1
  Sb  Sb96  1  0.49926813  0.17130577  0.34122615  1
  Sb  Sb97  1  0.16506421  0.66736855  0.16225211  1
  Sb  Sb98  1  0.83013344  0.33348382  0.50887063  1
  Sb  Sb99  1  0.16361934  0.50029493  -0.00341123  1
  Sb  Sb100  1  0.33252967  0.50474029  0.83047616  1
  Sb  Sb101  1  -0.00227213  -0.00151750  0.33238553  1
  Sb  Sb102  1  0.17359174  -0.00683799  0.50987592  1
  Sb  Sb103  1  0.32887256  0.17180983  0.17122038  1
  Sb  Sb104  1  0.66684507  0.66747445  -0.00839866  1
  Sb  Sb105  1  0.49573268  0.50293583  0.66982071  1
  Sb  Sb106  1  0.66558504  0.33304984  0.67384284  1
  Sb  Sb107  1  0.33124060  0.33845630  -0.00683810  1
  Te  Te108  1  0.16043973  0.16051212  0.16715648  1
  Te  Te109  1  0.17625923  0.16431626  0.49962397  1
  Te  Te110  1  0.16132283  0.16983777  0.83303085  1
  Te  Te111  1  0.16600768  0.50100718  0.16812341  1
  Te  Te112  1  0.17113930  0.50397539  0.50095654  1
  Te  Te113  1  0.16734566  0.50043839  0.82869582  1
  Te  Te114  1  0.16735611  0.83860191  0.16831203  1
  Te  Te115  1  0.16939664  0.82654777  0.50720761  1
  Te  Te116  1  0.16587858  0.83275761  0.82945572  1
  Te  Te117  1  0.49955921  0.16546646  0.16642327  1
  Te  Te118  1  0.49543771  0.16697069  0.50588405  1
  Te  Te119  1  0.49887866  0.17005358  0.82683606  1
  Te  Te120  1  0.49856827  0.50403102  0.16389587  1
  Te  Te121  1  0.49396127  0.49810061  0.49784718  1
  Te  Te122  1  0.49969736  0.49979190  0.83776032  1
  Te  Te123  1  0.49835990  0.82456200  0.16765371  1
  Te  Te124  1  0.50047222  0.83398826  0.50495865  1
  Te  Te125  1  0.49984362  0.83258120  0.82966899  1
  Te  Te126  1  0.84034246  0.16720417  0.16341831  1
  Te  Te127  1  0.83344272  0.16629449  0.50632468  1
  Te  Te128  1  0.83766341  0.17141093  0.83333526  1
  Te  Te129  1  0.83741626  0.50591650  0.16471377  1
  Te  Te130  1  0.83086661  0.49933530  0.50574265  1
  Te  Te131  1  0.83228472  0.50098370  0.83333666  1
  Te  Te132  1  0.83372542  0.82687813  0.16450244  1
  Te  Te133  1  0.82822256  0.83267468  0.49266107  1
  Te  Te134  1  0.83453044  0.82946571  0.83520610  1
  Te  Te135  1  0.16436351  -0.00068725  -0.00515536  1
  Te  Te136  1  0.16665272  -0.00111286  0.33551830  1
  Te  Te137  1  0.16103974  -0.00221624  0.67199838  1
  Te  Te138  1  0.16176118  0.33349413  -0.00840128  1
  Te  Te139  1  0.16561646  0.34004856  0.33317306  1
  Te  Te140  1  0.16501453  0.33278091  0.66897207  1
  Te  Te141  1  0.17169276  0.66615489  -0.00687582  1
  Te  Te142  1  0.16021132  0.66165797  0.32943237  1
  Te  Te143  1  0.16611097  0.66738050  0.67142764  1
  Te  Te144  1  0.50388024  0.00155883  -0.00464714  1
  Te  Te145  1  0.50401085  -0.00044277  0.33131678  1
  Te  Te146  1  0.49800336  -0.00317783  0.66956854  1
  Te  Te147  1  0.49953349  0.33872741  -0.00517660  1
  Te  Te148  1  0.49862440  0.33887637  0.33231006  1
  Te  Te149  1  0.49902420  0.33903088  0.66822687  1
  Te  Te150  1  0.50129004  0.66379440  -0.00279596  1
  Te  Te151  1  0.50111091  0.66113878  0.33322745  1
  Te  Te152  1  0.50406514  0.66852012  0.67119397  1
  Te  Te153  1  0.83366495  -0.00058641  0.00051609  1
  Te  Te154  1  0.82849926  -0.00498458  0.33234341  1
  Te  Te155  1  0.84278783  0.00491869  0.66650978  1
  Te  Te156  1  0.83558977  0.33579919  -0.00381794  1
  Te  Te157  1  0.83585670  0.33339699  0.33490407  1
  Te  Te158  1  0.83337516  0.33342884  0.67226291  1
  Te  Te159  1  0.83258931  0.66454228  -0.00422899  1
  Te  Te160  1  0.83800450  0.66984193  0.33590948  1
  Te  Te161  1  0.83791020  0.66539983  0.67133976  1
  Te  Te162  1  -0.00317273  0.16702758  -0.00304872  1
  Te  Te163  1  -0.00067364  0.16963218  0.33337271  1
  Te  Te164  1  -0.00114804  0.17121446  0.67002703  1
  Te  Te165  1  -0.00302628  0.49638559  0.00640486  1
  Te  Te166  1  0.00111170  0.50125326  0.33154802  1
  Te  Te167  1  0.00175939  0.49918719  0.66513882  1
  Te  Te168  1  -0.00544448  0.83694493  -0.00570537  1
  Te  Te169  1  -0.00470345  0.82926679  0.33366965  1
  Te  Te170  1  -0.00159628  0.83204044  0.67039606  1
  Te  Te171  1  0.33578603  0.16634779  0.00311359  1
  Te  Te172  1  0.33310559  0.17526476  0.33994397  1
  Te  Te173  1  0.33661413  0.16944845  0.66486048  1
  Te  Te174  1  0.33533812  0.50266471  0.00283332  1
  Te  Te175  1  0.33205349  0.49928845  0.33296120  1
  Te  Te176  1  0.32906907  0.49592094  0.66384923  1
  Te  Te177  1  0.33369005  0.82716747  -0.00474918  1
  Te  Te178  1  0.33279157  0.83365999  0.33789761  1
  Te  Te179  1  0.33344357  0.83253557  0.66824774  1
  Te  Te180  1  0.67443644  0.16597248  -0.00078603  1
  Te  Te181  1  0.66773242  0.15854043  0.33285727  1
  Te  Te182  1  0.66607810  0.16150988  0.66630880  1
  Te  Te183  1  0.66841722  0.49647772  -0.00029970  1
  Te  Te184  1  0.66266465  0.49937210  0.33402623  1
  Te  Te185  1  0.67363985  0.50436774  0.66617550  1
  Te  Te186  1  0.67166941  0.83721831  -0.00560484  1
  Te  Te187  1  0.67020584  0.83730318  0.33133825  1
  Te  Te188  1  0.67067869  0.83398814  0.67027138  1
  Te  Te189  1  0.00496341  0.00102427  0.16519815  1
  Te  Te190  1  0.00103509  0.00106573  0.50281676  1
  Te  Te191  1  -0.00097824  -0.00003742  0.83374663  1
  Te  Te192  1  0.00095261  0.33387265  0.17125975  1
  Te  Te193  1  -0.00050879  0.33288529  0.49784684  1
  Te  Te194  1  -0.00150965  0.33467024  0.83122948  1
  Te  Te195  1  -0.00296255  0.66434907  0.16527344  1
  Te  Te196  1  0.00552190  0.66694921  0.50210407  1
  Te  Te197  1  -0.00012845  0.66853186  0.83189013  1
  Te  Te198  1  0.32724950  0.00116425  0.16727515  1
  Te  Te199  1  0.33891664  -0.00722624  0.50542512  1
  Te  Te200  1  0.33580717  -0.00304231  0.82834959  1
  Te  Te201  1  0.33018848  0.33912707  0.16935630  1
  Te  Te202  1  0.33470518  0.33687179  0.50241558  1
  Te  Te203  1  0.33679453  0.33259568  0.82839929  1
  Te  Te204  1  0.33593132  0.66167658  0.16172716  1
  Te  Te205  1  0.32853616  0.66596440  0.49910531  1
  Te  Te206  1  0.33665215  0.66955714  0.83608257  1
  Te  Te207  1  0.66532935  -0.00016900  0.16332371  1
  Te  Te208  1  0.66072343  -0.00460526  0.50409667  1
  Te  Te209  1  0.66515328  -0.00356163  0.83108943  1
  Te  Te210  1  0.66703368  0.33267077  0.15965637  1
  Te  Te211  1  0.65733464  0.33331495  0.49852952  1
  Te  Te212  1  0.66247877  0.33173749  0.83678499  1
  Te  Te213  1  0.66846650  0.66654148  0.16833928  1
  Te  Te214  1  0.66554895  0.67344051  0.50644365  1
  Te  Te215  1  0.66705659  0.67158622  0.82980227  1
