# generated using pymatgen
data_AgSbTe2
_symmetry_space_group_name_H-M   'P 1'
_cell_length_a   18.35744842
_cell_length_b   18.35927278
_cell_length_c   18.35531612
_cell_angle_alpha   90.00092309
_cell_angle_beta   90.00195316
_cell_angle_gamma   90.00013130
_symmetry_Int_Tables_number   1
_chemical_formula_structural   AgSbTe2
_chemical_formula_sum   'Ag54 Sb54 Te108'
_cell_volume   6186.28123150
_cell_formula_units_Z   54
loop_
 _symmetry_equiv_pos_site_id
 _symmetry_equiv_pos_as_xyz
  1  'x, y, z'
loop_
 _atom_site_type_symbol
 _atom_site_label
 _atom_site_symmetry_multiplicity
 _atom_site_fract_x
 _atom_site_fract_y
 _atom_site_fract_z
 _atom_site_occupancy
  Ag  Ag0  1  0.16683524  0.34036093  0.49788088  1
  Ag  Ag1  1  0.16037866  0.33454432  0.17560912  1
  Ag  Ag2  1  0.33409316  0.33174349  0.33545780  1
  Ag  Ag3  1  0.49629640  0.34271407  0.82726415  1
  Ag  Ag4  1  0.00464446  0.49700410  0.17595433  1
  Ag  Ag5  1  0.66107345  0.50095110  0.82252725  1
  Ag  Ag6  1  0.00538617  0.17103994  0.49663934  1
  Ag  Ag7  1  0.83796629  0.33283573  0.49513021  1
  Ag  Ag8  1  0.33379040  0.00985165  0.65881523  1
  Ag  Ag9  1  0.00255514  0.82607931  0.82698969  1
  Ag  Ag10  1  0.65236770  0.65850680  0.66789502  1
  Ag  Ag11  1  0.84077117  0.83777412  0.33423936  1
  Ag  Ag12  1  0.17276722  0.66229160  0.17586057  1
  Ag  Ag13  1  0.82305809  0.65529920  0.83189549  1
  Ag  Ag14  1  0.00258719  0.83622869  0.17706517  1
  Ag  Ag15  1  0.49689240  0.17239500  0.65908312  1
  Ag  Ag16  1  0.33412880  0.65940494  0.34508598  1
  Ag  Ag17  1  0.33183180  0.49884809  0.49928691  1
  Ag  Ag18  1  0.00119573  0.83406680  0.49492039  1
  Ag  Ag19  1  0.01080481  0.00309744  0.33354444  1
  Ag  Ag20  1  0.32757465  0.16468625  0.18060671  1
  Ag  Ag21  1  0.49051653  0.17024539  0.33914135  1
  Ag  Ag22  1  0.66137344  0.50096793  0.17101853  1
  Ag  Ag23  1  0.66354459  0.34074172  0.66370092  1
  Ag  Ag24  1  0.83944182  0.33248072  0.17595725  1
  Ag  Ag25  1  0.49953605  0.65991795  0.82010318  1
  Ag  Ag26  1  -0.00205011  0.50323048  0.82228838  1
  Ag  Ag27  1  0.17517845  0.65576767  0.49817260  1
  Ag  Ag28  1  0.33187394  0.00638138  0.33952305  1
  Ag  Ag29  1  0.33246937  0.82624453  0.82447798  1
  Ag  Ag30  1  0.83427555  0.17043618  0.01241153  1
  Ag  Ag31  1  0.49478884  0.66344851  0.17298308  1
  Ag  Ag32  1  0.33853020  0.16894706  0.81863722  1
  Ag  Ag33  1  0.17809703  0.49961361  0.65526649  1
  Ag  Ag34  1  0.66490333  0.66239512  -0.01331677  1
  Ag  Ag35  1  0.34571152  0.49895659  0.82134509  1
  Ag  Ag36  1  0.17198679  0.82425871  0.66462493  1
  Ag  Ag37  1  0.33298583  0.17347409  0.49885982  1
  Ag  Ag38  1  0.49848306  0.49954962  0.66388897  1
  Ag  Ag39  1  0.49617432  0.01225703  0.49972735  1
  Ag  Ag40  1  0.49197841  0.49707694  0.34432188  1
  Ag  Ag41  1  0.01538351  0.49843912  0.49870300  1
  Ag  Ag42  1  0.33411033  0.65512092  0.66113436  1
  Ag  Ag43  1  0.65154924  0.17796921  0.50001779  1
  Ag  Ag44  1  0.00951890  0.16835322  0.17599722  1
  Ag  Ag45  1  0.17322047  0.50118371  0.34086958  1
  Ag  Ag46  1  0.49356004  0.00488385  0.17826813  1
  Ag  Ag47  1  0.17200734  0.01086984  0.17295278  1
  Ag  Ag48  1  0.65323218  0.49558768  0.50624796  1
  Ag  Ag49  1  0.49200808  0.65657622  0.50277206  1
  Ag  Ag50  1  0.17678195  0.17066772  0.66010903  1
  Ag  Ag51  1  0.83774807  0.16874250  0.33602263  1
  Ag  Ag52  1  0.49406217  0.00142561  0.82208341  1
  Ag  Ag53  1  0.83058986  0.33808923  0.82900602  1
  Sb  Sb54  1  0.66812381  0.33811516  -0.00405292  1
  Sb  Sb55  1  0.84102206  0.82959236  0.66364667  1
  Sb  Sb56  1  -0.00020431  0.00067801  0.00661269  1
  Sb  Sb57  1  0.33788775  0.33363549  0.66018340  1
  Sb  Sb58  1  -0.00172779  0.33361022  0.00331573  1
  Sb  Sb59  1  0.66935246  0.82988553  0.50009473  1
  Sb  Sb60  1  0.33126550  0.49821006  0.17476780  1
  Sb  Sb61  1  0.49955611  0.83112891  -0.00085184  1
  Sb  Sb62  1  0.83048097  0.00248524  0.83214409  1
  Sb  Sb63  1  0.16833989  0.33629411  0.82661186  1
  Sb  Sb64  1  0.49227042  0.82920650  0.66690184  1
  Sb  Sb65  1  0.83397283  0.00463146  0.17107895  1
  Sb  Sb66  1  0.00182340  0.16943213  0.83028465  1
  Sb  Sb67  1  -0.00198883  0.66563342  -0.00095947  1
  Sb  Sb68  1  0.17152836  0.00112627  0.49612502  1
  Sb  Sb69  1  0.83453369  0.49682327  0.33420907  1
  Sb  Sb70  1  0.00521585  0.32996719  0.33412411  1
  Sb  Sb71  1  0.83358415  0.66150020  0.16431559  1
  Sb  Sb72  1  0.50012589  0.33529523  0.16577331  1
  Sb  Sb73  1  0.66183034  0.00293488  0.33527830  1
  Sb  Sb74  1  0.82823159  0.49982103  0.66761842  1
  Sb  Sb75  1  0.83372126  0.66025798  0.50386278  1
  Sb  Sb76  1  0.33395624  0.33441353  0.00417100  1
  Sb  Sb77  1  0.16978187  0.17333913  0.33827657  1
  Sb  Sb78  1  0.66753183  0.82803267  0.16929708  1
  Sb  Sb79  1  0.17047738  0.66492566  0.82964492  1
  Sb  Sb80  1  0.16592830  0.83199708  -0.00112070  1
  Sb  Sb81  1  0.32987320  0.83099975  0.50436999  1
  Sb  Sb82  1  0.33715052  0.66519208  -0.00240902  1
  Sb  Sb83  1  0.66060290  0.17487576  0.82761423  1
  Sb  Sb84  1  0.83189116  0.49604882  -0.00203930  1
  Sb  Sb85  1  0.50225228  0.16603948  0.00007345  1
  Sb  Sb86  1  0.16472180  0.82934421  0.33785422  1
  Sb  Sb87  1  0.65923709  0.66292044  0.33883029  1
  Sb  Sb88  1  0.32991519  0.83599544  0.16562269  1
  Sb  Sb89  1  0.16527279  0.16734098  0.00154533  1
  Sb  Sb90  1  0.49614027  0.33414939  0.50507562  1
  Sb  Sb91  1  0.83156599  0.00514663  0.49754349  1
  Sb  Sb92  1  0.16679307  0.49986691  0.00199739  1
  Sb  Sb93  1  0.50153936  0.50217215  -0.00390075  1
  Sb  Sb94  1  0.00842864  -0.00060216  0.66034724  1
  Sb  Sb95  1  0.65461094  0.00077301  0.66570115  1
  Sb  Sb96  1  0.00589580  0.66331884  0.66571666  1
  Sb  Sb97  1  0.66577520  0.17145704  0.17238684  1
  Sb  Sb98  1  0.66440090  0.82511041  0.83153640  1
  Sb  Sb99  1  0.33459356  0.00141592  -0.00041022  1
  Sb  Sb100  1  0.66288576  0.33410352  0.34161474  1
  Sb  Sb101  1  0.00475801  0.66751636  0.33387718  1
  Sb  Sb102  1  -0.00333622  0.33606819  0.66182176  1
  Sb  Sb103  1  0.83043403  0.16943871  0.65950518  1
  Sb  Sb104  1  0.66486377  -0.00139211  0.00004463  1
  Sb  Sb105  1  0.83488498  0.83435231  0.00289695  1
  Sb  Sb106  1  0.50019823  0.83323719  0.33556307  1
  Sb  Sb107  1  0.17218351  -0.00066213  0.83364491  1
  Te  Te108  1  0.16787547  0.16838015  0.16613896  1
  Te  Te109  1  0.16593773  0.16551654  0.50240540  1
  Te  Te110  1  0.17183749  0.16799136  0.83220552  1
  Te  Te111  1  0.16525044  0.49930752  0.16798625  1
  Te  Te112  1  0.17098818  0.50068974  0.49997965  1
  Te  Te113  1  0.15546579  0.49950050  0.83464104  1
  Te  Te114  1  0.16157502  0.82627947  0.16563256  1
  Te  Te115  1  0.16064501  0.83504241  0.50500085  1
  Te  Te116  1  0.16572665  0.83277503  0.82925577  1
  Te  Te117  1  0.49743476  0.16511453  0.16898595  1
  Te  Te118  1  0.49603248  0.16984065  0.49862765  1
  Te  Te119  1  0.49718673  0.16054817  0.83425698  1
  Te  Te120  1  0.49916426  0.50299074  0.16503267  1
  Te  Te121  1  0.49675244  0.49831161  0.50180534  1
  Te  Te122  1  0.50306360  0.50208576  0.83174037  1
  Te  Te123  1  0.49944947  0.83126155  0.16717700  1
  Te  Te124  1  0.50401685  0.83257894  0.49934730  1
  Te  Te125  1  0.49659928  0.83660412  0.83305584  1
  Te  Te126  1  0.83105127  0.17118183  0.17217207  1
  Te  Te127  1  0.84466660  0.17086817  0.49569134  1
  Te  Te128  1  0.83171738  0.17041034  0.83045438  1
  Te  Te129  1  0.84110591  0.49434710  0.16666366  1
  Te  Te130  1  0.83390660  0.49376910  0.49930748  1
  Te  Te131  1  0.83821326  0.49935750  0.83371464  1
  Te  Te132  1  0.83927185  0.83361892  0.17028240  1
  Te  Te133  1  0.83929293  0.83231876  0.49618616  1
  Te  Te134  1  0.83875751  0.83322339  0.83373938  1
  Te  Te135  1  0.16579580  -0.00049073  0.01222726  1
  Te  Te136  1  0.16844906  -0.00447845  0.32945736  1
  Te  Te137  1  0.17446548  0.00664126  0.66772257  1
  Te  Te138  1  0.16643691  0.33228101  0.01299475  1
  Te  Te139  1  0.17055395  0.33872308  0.33552271  1
  Te  Te140  1  0.16344808  0.33387790  0.66090302  1
  Te  Te141  1  0.16615136  0.66704003  0.01199915  1
  Te  Te142  1  0.17002559  0.66360397  0.33688991  1
  Te  Te143  1  0.17217525  0.66300073  0.66400431  1
  Te  Te144  1  0.50213159  -0.00155528  0.00313016  1
  Te  Te145  1  0.49558996  0.00125436  0.33641175  1
  Te  Te146  1  0.49301766  0.00074448  0.66317552  1
  Te  Te147  1  0.50058783  0.33210574  -0.01228651  1
  Te  Te148  1  0.49555175  0.33362088  0.33001960  1
  Te  Te149  1  0.50296495  0.33211702  0.67017502  1
  Te  Te150  1  0.50455789  0.66765207  0.00956278  1
  Te  Te151  1  0.49500336  0.66536609  0.33495174  1
  Te  Te152  1  0.49543905  0.66608614  0.66437413  1
  Te  Te153  1  0.83167613  0.00786378  0.00029663  1
  Te  Te154  1  0.83458212  0.00227802  0.33367027  1
  Te  Te155  1  0.83198360  -0.00158796  0.66648881  1
  Te  Te156  1  0.83275121  0.32798164  -0.00309650  1
  Te  Te157  1  0.83063112  0.32956606  0.33441349  1
  Te  Te158  1  0.82698074  0.33290703  0.66870055  1
  Te  Te159  1  0.82740802  0.66712966  -0.00666073  1
  Te  Te160  1  0.83249143  0.66798542  0.33361058  1
  Te  Te161  1  0.83179747  0.66753302  0.67386628  1
  Te  Te162  1  -0.00541368  0.16581472  0.00173229  1
  Te  Te163  1  0.00223198  0.16393038  0.33286625  1
  Te  Te164  1  0.00277265  0.16541212  0.66109340  1
  Te  Te165  1  -0.00067763  0.50063771  0.00038036  1
  Te  Te166  1  0.00377542  0.49981212  0.33566415  1
  Te  Te167  1  0.00381851  0.50009257  0.66205274  1
  Te  Te168  1  -0.00121958  0.83371825  -0.00446971  1
  Te  Te169  1  -0.00078075  0.83494368  0.33400250  1
  Te  Te170  1  0.00817647  0.83334839  0.66674607  1
  Te  Te171  1  0.33357229  0.16767130  0.00225222  1
  Te  Te172  1  0.33235149  0.16591961  0.33722212  1
  Te  Te173  1  0.33567730  0.16935625  0.66142168  1
  Te  Te174  1  0.33294773  0.50006503  -0.01713626  1
  Te  Te175  1  0.33440196  0.50098592  0.33463698  1
  Te  Te176  1  0.33541805  0.49783166  0.66494878  1
  Te  Te177  1  0.33237026  0.83274316  -0.01435204  1
  Te  Te178  1  0.33333864  0.83619740  0.33129771  1
  Te  Te179  1  0.32881350  0.83517169  0.66938536  1
  Te  Te180  1  0.67319256  0.16644351  -0.00045343  1
  Te  Te181  1  0.66698201  0.16743979  0.33987890  1
  Te  Te182  1  0.66106850  0.16742662  0.65967601  1
  Te  Te183  1  0.66740409  0.50464162  0.00845098  1
  Te  Te184  1  0.66317378  0.50021659  0.33082746  1
  Te  Te185  1  0.66517223  0.50101629  0.66546188  1
  Te  Te186  1  0.66899471  0.82465474  0.00128956  1
  Te  Te187  1  0.67843753  0.83438627  0.33347376  1
  Te  Te188  1  0.66927072  0.83062252  0.66570730  1
  Te  Te189  1  -0.00073478  0.00126336  0.17198894  1
  Te  Te190  1  -0.00180407  -0.00130376  0.49453400  1
  Te  Te191  1  0.00001957  -0.00157529  0.83195354  1
  Te  Te192  1  -0.00055516  0.33235198  0.16807876  1
  Te  Te193  1  0.00036702  0.33556961  0.50011483  1
  Te  Te194  1  -0.00213418  0.33515924  0.83394864  1
  Te  Te195  1  0.00034719  0.66257892  0.16668538  1
  Te  Te196  1  0.00006501  0.66184584  0.50014309  1
  Te  Te197  1  0.00245848  0.66738512  0.83245002  1
  Te  Te198  1  0.33351611  0.00078183  0.16718966  1
  Te  Te199  1  0.33562858  -0.00314725  0.49895447  1
  Te  Te200  1  0.33507860  0.00812829  0.83339259  1
  Te  Te201  1  0.33349639  0.32934973  0.17153555  1
  Te  Te202  1  0.32975690  0.33290180  0.49514922  1
  Te  Te203  1  0.33393888  0.33201897  0.83652938  1
  Te  Te204  1  0.33305534  0.66732780  0.16549163  1
  Te  Te205  1  0.33313436  0.66885297  0.50057966  1
  Te  Te206  1  0.33725327  0.66542022  0.83192959  1
  Te  Te207  1  0.65770958  -0.00101348  0.16610178  1
  Te  Te208  1  0.66028611  0.00229941  0.50063191  1
  Te  Te209  1  0.66023330  -0.00145398  0.83397566  1
  Te  Te210  1  0.66938379  0.34010953  0.16479220  1
  Te  Te211  1  0.67007608  0.33474749  0.50269368  1
  Te  Te212  1  0.66940667  0.33902882  0.82991852  1
  Te  Te213  1  0.66514526  0.66149569  0.17028044  1
  Te  Te214  1  0.66563169  0.66147371  0.50672308  1
  Te  Te215  1  0.66361321  0.66351917  0.82931973  1
