# generated using pymatgen
data_AgSbTe2
_symmetry_space_group_name_H-M   'P 1'
_cell_length_a   18.33857406
_cell_length_b   18.34344257
_cell_length_c   18.33444950
_cell_angle_alpha   90.00022900
_cell_angle_beta   89.99888491
_cell_angle_gamma   89.99957702
_symmetry_Int_Tables_number   1
_chemical_formula_structural   AgSbTe2
_chemical_formula_sum   'Ag54 Sb54 Te108'
_cell_volume   6167.57276583
_cell_formula_units_Z   54
loop_
 _symmetry_equiv_pos_site_id
 _symmetry_equiv_pos_as_xyz
  1  'x, y, z'
loop_
 _atom_site_type_symbol
 _atom_site_label
 _atom_site_symmetry_multiplicity
 _atom_site_fract_x
 _atom_site_fract_y
 _atom_site_fract_z
 _atom_site_occupancy
  Ag  Ag0  1  0.66199230  0.16864474  0.17081605  1
  Ag  Ag1  1  0.00004408  0.66930164  -0.00198113  1
  Ag  Ag2  1  0.34099261  0.32458940  0.33883664  1
  Ag  Ag3  1  0.66549073  0.65916049  0.66072608  1
  Ag  Ag4  1  0.83426867  0.66435130  0.82294460  1
  Ag  Ag5  1  0.50146822  -0.00001606  0.49611955  1
  Ag  Ag6  1  0.16491277  0.67556551  0.49909031  1
  Ag  Ag7  1  -0.00272396  -0.00455031  0.65654090  1
  Ag  Ag8  1  0.83380474  0.66367473  0.50296029  1
  Ag  Ag9  1  0.00218209  0.83381103  0.82529882  1
  Ag  Ag10  1  0.33431419  0.67466350  -0.00081556  1
  Ag  Ag11  1  0.49616463  0.84466181  0.34769698  1
  Ag  Ag12  1  0.50711783  0.32961573  0.50001524  1
  Ag  Ag13  1  0.16629687  0.33450253  0.49907396  1
  Ag  Ag14  1  0.00013957  0.16005989  0.50106501  1
  Ag  Ag15  1  0.17081567  0.50321083  0.33916054  1
  Ag  Ag16  1  0.49585225  0.83321504  -0.00345342  1
  Ag  Ag17  1  -0.00516379  0.33470647  -0.00248740  1
  Ag  Ag18  1  0.33310591  0.83337872  0.82509568  1
  Ag  Ag19  1  0.33517987  -0.00173088  0.00318767  1
  Ag  Ag20  1  0.65487712  0.00342687  0.34051852  1
  Ag  Ag21  1  0.34276813  -0.00090094  0.33897050  1
  Ag  Ag22  1  0.33918430  0.67633880  0.65857933  1
  Ag  Ag23  1  0.83140850  0.66835506  0.16879639  1
  Ag  Ag24  1  0.83029152  0.16932327  0.66055347  1
  Ag  Ag25  1  0.82465054  -0.00030385  0.17613679  1
  Ag  Ag26  1  0.00555408  0.83747112  0.50498403  1
  Ag  Ag27  1  0.49543710  0.83434026  0.66365649  1
  Ag  Ag28  1  0.82436300  0.49744609  0.66131283  1
  Ag  Ag29  1  0.66503298  -0.00110833  0.65761788  1
  Ag  Ag30  1  0.50088647  0.49476204  -0.00200104  1
  Ag  Ag31  1  0.82439714  0.33791552  0.82230792  1
  Ag  Ag32  1  0.00287869  -0.00454326  -0.00187072  1
  Ag  Ag33  1  0.66965528  0.49592023  0.50123146  1
  Ag  Ag34  1  0.50565420  0.50282305  0.66412185  1
  Ag  Ag35  1  0.65909388  0.32966609  0.34215619  1
  Ag  Ag36  1  0.50692996  0.33621548  0.82842459  1
  Ag  Ag37  1  0.33290789  0.16307379  0.49713837  1
  Ag  Ag38  1  0.17819397  0.83167619  0.34460694  1
  Ag  Ag39  1  0.66635279  0.49295895  0.17423021  1
  Ag  Ag40  1  0.49950441  0.15753648  0.33587248  1
  Ag  Ag41  1  0.33852957  -0.00541361  0.65515280  1
  Ag  Ag42  1  0.66067831  0.33688286  -0.00060548  1
  Ag  Ag43  1  0.17518375  0.83461624  0.66122695  1
  Ag  Ag44  1  0.33168964  0.67773937  0.34366096  1
  Ag  Ag45  1  0.82644890  0.33461681  0.50463761  1
  Ag  Ag46  1  0.50235707  0.00057352  0.18162511  1
  Ag  Ag47  1  0.82703411  0.00029052  0.50096742  1
  Ag  Ag48  1  -0.00813614  0.50030893  0.50099132  1
  Ag  Ag49  1  0.34161458  0.16346687  0.17959438  1
  Ag  Ag50  1  0.66789624  0.33634819  0.65916316  1
  Ag  Ag51  1  0.34077507  0.33163295  0.00220917  1
  Ag  Ag52  1  0.66754438  0.84373999  0.50235982  1
  Ag  Ag53  1  0.16862009  -0.00701828  0.50104305  1
  Sb  Sb54  1  0.66577482  0.66215159  -0.00326225  1
  Sb  Sb55  1  0.16741706  0.50596236  0.65709623  1
  Sb  Sb56  1  0.49873306  0.16763621  0.00611083  1
  Sb  Sb57  1  0.16994130  0.83335287  -0.00114507  1
  Sb  Sb58  1  0.66232684  0.66792247  0.33973609  1
  Sb  Sb59  1  0.17719583  0.16388941  0.33885276  1
  Sb  Sb60  1  0.83011549  0.83237030  -0.00177663  1
  Sb  Sb61  1  -0.00754215  0.50119196  0.16989591  1
  Sb  Sb62  1  0.49929604  0.67062376  0.50231408  1
  Sb  Sb63  1  -0.00302821  0.16461707  0.17065841  1
  Sb  Sb64  1  0.00391271  0.66803073  0.33642579  1
  Sb  Sb65  1  0.16914318  0.33347464  0.17286806  1
  Sb  Sb66  1  0.66531253  0.83204391  0.82461356  1
  Sb  Sb67  1  0.49879585  0.00094645  0.82810498  1
  Sb  Sb68  1  0.16519718  0.66962659  0.82682248  1
  Sb  Sb69  1  0.50297872  0.67012633  0.16575397  1
  Sb  Sb70  1  0.33592710  0.49627992  0.49909937  1
  Sb  Sb71  1  0.33614194  0.16232335  0.82973772  1
  Sb  Sb72  1  0.33683868  0.83838255  0.16769476  1
  Sb  Sb73  1  -0.00373165  0.16275235  0.82797281  1
  Sb  Sb74  1  0.16727985  0.33450982  0.82803869  1
  Sb  Sb75  1  0.33254124  0.84142367  0.50465706  1
  Sb  Sb76  1  0.33637350  0.50538442  0.83323365  1
  Sb  Sb77  1  0.66594126  0.49838444  0.82512887  1
  Sb  Sb78  1  0.66347105  0.00244555  0.00317456  1
  Sb  Sb79  1  0.50216567  0.66485312  0.83067296  1
  Sb  Sb80  1  0.34121535  0.33192244  0.66245691  1
  Sb  Sb81  1  0.83077097  0.83460890  0.33859525  1
  Sb  Sb82  1  0.82804287  0.49930826  -0.00349886  1
  Sb  Sb83  1  0.82878728  0.33205958  0.16914069  1
  Sb  Sb84  1  0.83268921  0.16764745  -0.00232126  1
  Sb  Sb85  1  -0.00399950  0.50357608  0.82768444  1
  Sb  Sb86  1  0.82579936  0.16523290  0.34111076  1
  Sb  Sb87  1  0.83501413  -0.00201232  0.82613255  1
  Sb  Sb88  1  0.16729739  -0.00268443  0.82521498  1
  Sb  Sb89  1  0.16341971  0.16125930  0.66051769  1
  Sb  Sb90  1  0.50501411  0.16505306  0.65781635  1
  Sb  Sb91  1  0.83300399  0.50020294  0.34194589  1
  Sb  Sb92  1  0.66557373  0.16629683  0.49589194  1
  Sb  Sb93  1  0.66433895  0.83552654  0.17305696  1
  Sb  Sb94  1  0.49842873  0.49973917  0.33689929  1
  Sb  Sb95  1  0.16796870  0.16610343  0.00102952  1
  Sb  Sb96  1  -0.00847954  0.32935485  0.66542443  1
  Sb  Sb97  1  0.66641569  0.16944880  0.83477915  1
  Sb  Sb98  1  0.50193501  0.32778570  0.17097846  1
  Sb  Sb99  1  -0.00363925  0.67303564  0.66511803  1
  Sb  Sb100  1  0.34143283  0.49599538  0.16807912  1
  Sb  Sb101  1  0.00032855  0.33339198  0.33722143  1
  Sb  Sb102  1  0.83098996  0.83219807  0.66258630  1
  Sb  Sb103  1  0.00141872  -0.00095939  0.33947802  1
  Sb  Sb104  1  0.16551649  0.66732713  0.17236039  1
  Sb  Sb105  1  -0.00178064  0.83412308  0.16769304  1
  Sb  Sb106  1  0.17045378  -0.00069283  0.17326169  1
  Sb  Sb107  1  0.17057314  0.50092377  0.00696761  1
  Te  Te108  1  0.17262108  0.16676255  0.16867340  1
  Te  Te109  1  0.16464497  0.16928371  0.50021491  1
  Te  Te110  1  0.16594240  0.16664253  0.83140598  1
  Te  Te111  1  0.16501862  0.50032484  0.17746954  1
  Te  Te112  1  0.16717490  0.49791486  0.49682243  1
  Te  Te113  1  0.16526783  0.50069528  0.83373680  1
  Te  Te114  1  0.16542828  0.83301143  0.17727267  1
  Te  Te115  1  0.16730910  0.83342642  0.50144622  1
  Te  Te116  1  0.16611479  0.83291212  0.82852263  1
  Te  Te117  1  0.50034331  0.16153185  0.17160869  1
  Te  Te118  1  0.49603408  0.16651139  0.49609157  1
  Te  Te119  1  0.49995528  0.17708332  0.83345614  1
  Te  Te120  1  0.50781813  0.50215934  0.16210391  1
  Te  Te121  1  0.50456701  0.49687912  0.50331289  1
  Te  Te122  1  0.49985972  0.49425589  0.83410212  1
  Te  Te123  1  0.50148297  0.83979178  0.15860409  1
  Te  Te124  1  0.50474098  0.83472378  0.50372167  1
  Te  Te125  1  0.49668748  0.83297461  0.83192961  1
  Te  Te126  1  0.82911209  0.16061647  0.16691516  1
  Te  Te127  1  0.83723879  0.16462997  0.50201099  1
  Te  Te128  1  0.83307855  0.17393685  0.82579064  1
  Te  Te129  1  0.82654030  0.50308694  0.16725605  1
  Te  Te130  1  0.83235485  0.50053554  0.50185670  1
  Te  Te131  1  0.83345206  0.49999945  0.82683013  1
  Te  Te132  1  0.83219105  0.83511323  0.16723837  1
  Te  Te133  1  0.83013921  0.83508264  0.49953701  1
  Te  Te134  1  0.83882309  0.82822525  0.83353959  1
  Te  Te135  1  0.16635220  -0.00116916  0.00229383  1
  Te  Te136  1  0.17063939  -0.00396496  0.34012909  1
  Te  Te137  1  0.16691554  -0.00449801  0.66031713  1
  Te  Te138  1  0.16932620  0.33414616  -0.00100821  1
  Te  Te139  1  0.16880759  0.33508364  0.33896795  1
  Te  Te140  1  0.16777305  0.33534999  0.66058686  1
  Te  Te141  1  0.16721450  0.66617242  0.00060821  1
  Te  Te142  1  0.17116778  0.66861368  0.33794178  1
  Te  Te143  1  0.17184470  0.67171838  0.66026589  1
  Te  Te144  1  0.49718746  -0.00238179  -0.00456739  1
  Te  Te145  1  0.49908086  -0.00057381  0.33593045  1
  Te  Te146  1  0.49991186  -0.00134596  0.66354003  1
  Te  Te147  1  0.49992764  0.33359263  0.00396775  1
  Te  Te148  1  0.49965662  0.33545974  0.33730459  1
  Te  Te149  1  0.50466972  0.33246051  0.66392988  1
  Te  Te150  1  0.49680964  0.66782826  -0.00206436  1
  Te  Te151  1  0.49216685  0.66988054  0.33206337  1
  Te  Te152  1  0.50003646  0.66638842  0.66758618  1
  Te  Te153  1  0.83502874  -0.00004414  -0.00136115  1
  Te  Te154  1  0.83151528  -0.00051467  0.33470239  1
  Te  Te155  1  0.83331419  0.00100818  0.66331723  1
  Te  Te156  1  0.83391498  0.33359960  -0.00165292  1
  Te  Te157  1  0.82922379  0.33279874  0.33971546  1
  Te  Te158  1  0.83096394  0.33506156  0.66467137  1
  Te  Te159  1  0.83572362  0.66587808  0.00123342  1
  Te  Te160  1  0.83212827  0.66736148  0.33451321  1
  Te  Te161  1  0.83094447  0.66489829  0.66302210  1
  Te  Te162  1  0.00056318  0.16612867  0.00057224  1
  Te  Te163  1  0.00088955  0.16748542  0.33932608  1
  Te  Te164  1  -0.00488890  0.15983352  0.66129494  1
  Te  Te165  1  0.00116817  0.50030881  0.00063969  1
  Te  Te166  1  0.00617373  0.50007088  0.33904695  1
  Te  Te167  1  -0.00138910  0.50097540  0.66019317  1
  Te  Te168  1  0.00093800  0.83278346  -0.00021300  1
  Te  Te169  1  0.00283139  0.83316469  0.33953898  1
  Te  Te170  1  -0.00025333  0.83596360  0.66563306  1
  Te  Te171  1  0.33308907  0.16602977  -0.00190873  1
  Te  Te172  1  0.33779117  0.16540744  0.33591531  1
  Te  Te173  1  0.33266564  0.15941740  0.66187013  1
  Te  Te174  1  0.33825710  0.49521245  0.00068646  1
  Te  Te175  1  0.33112838  0.49799277  0.33149144  1
  Te  Te176  1  0.33896257  0.50406902  0.66732428  1
  Te  Te177  1  0.33323230  0.83376136  -0.00006968  1
  Te  Te178  1  0.33709749  0.83481278  0.33123393  1
  Te  Te179  1  0.33466947  0.83444969  0.66733379  1
  Te  Te180  1  0.66628260  0.17189423  0.00742034  1
  Te  Te181  1  0.66191131  0.16699019  0.32951066  1
  Te  Te182  1  0.67070773  0.16766785  0.66870687  1
  Te  Te183  1  0.66142014  0.49693672  0.00245734  1
  Te  Te184  1  0.66597636  0.49750236  0.33596921  1
  Te  Te185  1  0.66508471  0.49802579  0.66261400  1
  Te  Te186  1  0.65890657  0.83238921  -0.00262270  1
  Te  Te187  1  0.66007038  0.83711051  0.33986901  1
  Te  Te188  1  0.66212229  0.83692202  0.66259212  1
  Te  Te189  1  -0.00285942  0.00119059  0.16149971  1
  Te  Te190  1  -0.00014107  -0.00204550  0.50040476  1
  Te  Te191  1  0.00067650  -0.00498868  0.83783069  1
  Te  Te192  1  -0.00064328  0.33273954  0.15844410  1
  Te  Te193  1  0.00003926  0.33575259  0.50045791  1
  Te  Te194  1  -0.00123670  0.33250642  0.83763339  1
  Te  Te195  1  -0.00636594  0.66642930  0.16038776  1
  Te  Te196  1  -0.00181150  0.66808490  0.50053455  1
  Te  Te197  1  -0.00292220  0.67062894  0.83651134  1
  Te  Te198  1  0.33555882  0.00431690  0.16463017  1
  Te  Te199  1  0.33554328  0.00207975  0.49890126  1
  Te  Te200  1  0.33245455  -0.00529918  0.84073083  1
  Te  Te201  1  0.33355920  0.32765483  0.16555839  1
  Te  Te202  1  0.33330819  0.32938649  0.49870111  1
  Te  Te203  1  0.33606415  0.33220647  0.83595578  1
  Te  Te204  1  0.33391302  0.66465917  0.15951601  1
  Te  Te205  1  0.33121978  0.66259725  0.50026147  1
  Te  Te206  1  0.33317832  0.67219723  0.83686394  1
  Te  Te207  1  0.66557019  0.00154204  0.16781001  1
  Te  Te208  1  0.66662082  0.00293257  0.50012261  1
  Te  Te209  1  0.66774269  0.00091125  0.82730497  1
  Te  Te210  1  0.66831335  0.33328722  0.16506261  1
  Te  Te211  1  0.66731779  0.33052959  0.49986289  1
  Te  Te212  1  0.66675003  0.33363374  0.83823228  1
  Te  Te213  1  0.67147383  0.66543741  0.16749605  1
  Te  Te214  1  0.66711263  0.66270075  0.50244051  1
  Te  Te215  1  0.67440809  0.66723191  0.82563304  1
