# generated using pymatgen
data_AgSbTe2
_symmetry_space_group_name_H-M   'P 1'
_cell_length_a   18.35806722
_cell_length_b   18.34926764
_cell_length_c   18.35362365
_cell_angle_alpha   90.00031184
_cell_angle_beta   89.99843526
_cell_angle_gamma   90.00045157
_symmetry_Int_Tables_number   1
_chemical_formula_structural   AgSbTe2
_chemical_formula_sum   'Ag54 Sb54 Te108'
_cell_volume   6182.54822620
_cell_formula_units_Z   54
loop_
 _symmetry_equiv_pos_site_id
 _symmetry_equiv_pos_as_xyz
  1  'x, y, z'
loop_
 _atom_site_type_symbol
 _atom_site_label
 _atom_site_symmetry_multiplicity
 _atom_site_fract_x
 _atom_site_fract_y
 _atom_site_fract_z
 _atom_site_occupancy
  Ag  Ag0  1  0.00667502  0.31984043  0.65867369  1
  Ag  Ag1  1  0.16467255  0.83446737  0.34178242  1
  Ag  Ag2  1  0.00129252  0.31891696  0.34047855  1
  Ag  Ag3  1  0.16426921  0.15172794  0.66179087  1
  Ag  Ag4  1  0.15893385  0.83616380  0.00139918  1
  Ag  Ag5  1  0.84437580  0.15310276  0.66446327  1
  Ag  Ag6  1  -0.00657452  0.83663393  0.17589559  1
  Ag  Ag7  1  0.49628439  -0.00409131  0.49926960  1
  Ag  Ag8  1  0.16430229  0.83462673  0.65768174  1
  Ag  Ag9  1  0.33004939  0.83465626  0.17711502  1
  Ag  Ag10  1  -0.00067037  0.00105492  0.65537665  1
  Ag  Ag11  1  0.32743824  -0.00330421  0.00776691  1
  Ag  Ag12  1  0.16153858  0.15317860  0.34436337  1
  Ag  Ag13  1  0.00106329  0.15215307  0.17966545  1
  Ag  Ag14  1  0.16189649  -0.00256155  0.82504702  1
  Ag  Ag15  1  0.50082950  -0.00111878  0.83303131  1
  Ag  Ag16  1  0.16594796  0.32444346  0.82642207  1
  Ag  Ag17  1  0.16324980  0.50405187  0.33419529  1
  Ag  Ag18  1  0.66771511  0.15826597  0.83039134  1
  Ag  Ag19  1  0.84355136  0.83601801  0.65260567  1
  Ag  Ag20  1  0.50870975  0.50307646  0.00396925  1
  Ag  Ag21  1  0.00692318  0.15586502  0.49871803  1
  Ag  Ag22  1  0.66634554  0.50748946  0.16972911  1
  Ag  Ag23  1  0.49724100  0.33188040  0.50179941  1
  Ag  Ag24  1  0.67229520  -0.00578511  0.00675320  1
  Ag  Ag25  1  0.66608909  0.67733720  0.00116843  1
  Ag  Ag26  1  0.83642568  0.83670237  0.00870454  1
  Ag  Ag27  1  0.16715403  0.68084490  0.82110888  1
  Ag  Ag28  1  0.66624687  0.83503971  0.49428163  1
  Ag  Ag29  1  0.84389811  -0.00346803  0.49968694  1
  Ag  Ag30  1  0.17293291  0.67838518  0.50354084  1
  Ag  Ag31  1  -0.00141407  -0.00268373  0.00469089  1
  Ag  Ag32  1  0.01098718  0.84220016  0.49749136  1
  Ag  Ag33  1  0.16001609  -0.00558551  0.50118684  1
  Ag  Ag34  1  0.32960271  0.67878260  0.33940620  1
  Ag  Ag35  1  0.34076105  0.50953687  0.16792302  1
  Ag  Ag36  1  0.83729207  -0.00234189  0.82959849  1
  Ag  Ag37  1  0.83715372  -0.00317914  0.17092675  1
  Ag  Ag38  1  0.66582301  0.51365411  0.49085173  1
  Ag  Ag39  1  0.50509759  -0.00276678  0.17152953  1
  Ag  Ag40  1  0.32344591  0.33659929  0.66263606  1
  Ag  Ag41  1  0.32294274  0.15007361  0.50025589  1
  Ag  Ag42  1  0.67498773  -0.00404885  0.33157301  1
  Ag  Ag43  1  0.83607173  0.50624882  0.33077314  1
  Ag  Ag44  1  0.82782219  0.51071581  0.01033120  1
  Ag  Ag45  1  0.00103205  -0.00022522  0.33830492  1
  Ag  Ag46  1  0.32650651  0.83506575  0.49659422  1
  Ag  Ag47  1  0.49254261  0.83511932  0.65947170  1
  Ag  Ag48  1  0.66931021  0.83537676  0.17131993  1
  Ag  Ag49  1  0.00860716  0.68420222  0.66300977  1
  Ag  Ag50  1  0.49163239  0.67864631  0.50144559  1
  Ag  Ag51  1  0.32535142  0.67206898  0.65748069  1
  Ag  Ag52  1  0.83929785  0.83535160  0.33668443  1
  Ag  Ag53  1  0.32336385  -0.00392562  0.33505840  1
  Sb  Sb54  1  0.16510900  0.50771767  0.00442635  1
  Sb  Sb55  1  0.49622963  0.32894013  0.82792721  1
  Sb  Sb56  1  0.66681749  0.67217939  0.66668594  1
  Sb  Sb57  1  0.83408419  0.50441748  0.66249871  1
  Sb  Sb58  1  0.00156741  0.49947781  0.83348145  1
  Sb  Sb59  1  0.00457698  0.67545224  0.33875977  1
  Sb  Sb60  1  0.32620145  0.15724445  0.17367986  1
  Sb  Sb61  1  0.49509733  0.83718807  0.34131228  1
  Sb  Sb62  1  0.50128509  0.83643276  -0.00057118  1
  Sb  Sb63  1  0.16866317  0.67336729  0.17190124  1
  Sb  Sb64  1  0.32820176  0.33107317  0.33851083  1
  Sb  Sb65  1  -0.00168248  0.50224498  0.49886040  1
  Sb  Sb66  1  -0.00312448  0.50413702  0.17062622  1
  Sb  Sb67  1  0.66742492  0.33120522  0.66412740  1
  Sb  Sb68  1  -0.00093968  0.16040750  0.82528929  1
  Sb  Sb69  1  0.00231613  0.83900575  0.82613275  1
  Sb  Sb70  1  0.16861098  0.32873239  0.50308546  1
  Sb  Sb71  1  0.49432835  0.15975598  0.33564483  1
  Sb  Sb72  1  0.49859085  0.50426967  0.66491189  1
  Sb  Sb73  1  0.49667218  0.67292704  0.83048277  1
  Sb  Sb74  1  0.49946177  0.50057223  0.33264119  1
  Sb  Sb75  1  0.16468988  0.15427840  -0.00256010  1
  Sb  Sb76  1  0.50038610  0.67344714  0.17056505  1
  Sb  Sb77  1  0.84043667  0.15691963  0.33761931  1
  Sb  Sb78  1  0.16625658  0.50575775  0.66104649  1
  Sb  Sb79  1  0.50056998  0.16229450  -0.00044307  1
  Sb  Sb80  1  0.67473815  -0.00225375  0.66486136  1
  Sb  Sb81  1  0.66793062  0.15721678  0.50215482  1
  Sb  Sb82  1  0.66716036  0.49818415  0.83650327  1
  Sb  Sb83  1  0.33124025  0.33094151  -0.00373994  1
  Sb  Sb84  1  0.83787053  0.67413634  0.83335833  1
  Sb  Sb85  1  0.83336239  0.32897002  0.49897529  1
  Sb  Sb86  1  0.49686309  0.15693682  0.66386585  1
  Sb  Sb87  1  0.32950347  0.83747312  0.82820011  1
  Sb  Sb88  1  0.16008809  -0.00407996  0.17333839  1
  Sb  Sb89  1  0.33561376  0.67319385  0.00108706  1
  Sb  Sb90  1  0.32564649  -0.00324837  0.65736677  1
  Sb  Sb91  1  0.83478553  0.33033652  0.16842795  1
  Sb  Sb92  1  0.33433149  0.50690726  0.49498427  1
  Sb  Sb93  1  0.66703061  0.33166377  0.00131332  1
  Sb  Sb94  1  0.16563367  0.33380876  0.16718032  1
  Sb  Sb95  1  0.67182678  0.33293600  0.33588226  1
  Sb  Sb96  1  0.83486980  0.67711370  0.49981020  1
  Sb  Sb97  1  0.33297245  0.16005346  0.82693955  1
  Sb  Sb98  1  0.00081676  0.32638568  -0.00049818  1
  Sb  Sb99  1  -0.00247128  0.67615262  -0.00486866  1
  Sb  Sb100  1  0.66382878  0.67503022  0.33277435  1
  Sb  Sb101  1  0.83565249  0.15601485  -0.00383633  1
  Sb  Sb102  1  0.49948637  0.33292722  0.17100624  1
  Sb  Sb103  1  0.67181776  0.15748706  0.16457572  1
  Sb  Sb104  1  0.83193143  0.67620487  0.16672498  1
  Sb  Sb105  1  0.33148226  0.50099021  0.83661701  1
  Sb  Sb106  1  0.83731728  0.32727509  0.83200217  1
  Sb  Sb107  1  0.66815688  0.84010741  0.83449997  1
  Te  Te108  1  0.16045864  0.16867328  0.16926713  1
  Te  Te109  1  0.16680060  0.16876077  0.50162804  1
  Te  Te110  1  0.16700110  0.16305383  0.82732538  1
  Te  Te111  1  0.16822774  0.50212946  0.17108414  1
  Te  Te112  1  0.16656852  0.50279729  0.49229440  1
  Te  Te113  1  0.16692063  0.49944936  0.83674554  1
  Te  Te114  1  0.17194657  0.83256634  0.16056962  1
  Te  Te115  1  0.16794515  0.83358850  0.49937274  1
  Te  Te116  1  0.16729153  0.83717163  0.83890815  1
  Te  Te117  1  0.49979166  0.16049672  0.16739437  1
  Te  Te118  1  0.49944568  0.16654149  0.50027137  1
  Te  Te119  1  0.50402763  0.16095460  0.83178536  1
  Te  Te120  1  0.50147434  0.49921549  0.16458232  1
  Te  Te121  1  0.50546251  0.49757663  0.50081112  1
  Te  Te122  1  0.49950742  0.49893314  0.83965217  1
  Te  Te123  1  0.50330790  0.83846462  0.16559220  1
  Te  Te124  1  0.50572009  0.83410218  0.50042191  1
  Te  Te125  1  0.50004341  0.83857250  0.82462272  1
  Te  Te126  1  0.83970342  0.16121277  0.16645065  1
  Te  Te127  1  0.83486350  0.16130180  0.50593719  1
  Te  Te128  1  0.83057792  0.16169523  0.82760308  1
  Te  Te129  1  0.82924570  0.49835008  0.16813942  1
  Te  Te130  1  0.82676732  0.49848628  0.49580515  1
  Te  Te131  1  0.83289837  0.50061179  0.83552634  1
  Te  Te132  1  0.83251168  0.83720590  0.16850296  1
  Te  Te133  1  0.82832681  0.83667216  0.49642007  1
  Te  Te134  1  0.83372937  0.83862847  0.83622308  1
  Te  Te135  1  0.16696397  -0.00407502  -0.00384711  1
  Te  Te136  1  0.16465026  -0.00299098  0.33525376  1
  Te  Te137  1  0.16546472  -0.00413188  0.66443571  1
  Te  Te138  1  0.16649695  0.33418994  -0.00617841  1
  Te  Te139  1  0.15958196  0.33890734  0.33240468  1
  Te  Te140  1  0.16548608  0.33991081  0.66755734  1
  Te  Te141  1  0.16680178  0.67355451  -0.00462967  1
  Te  Te142  1  0.17005748  0.67073980  0.33749863  1
  Te  Te143  1  0.16638767  0.66793297  0.66502231  1
  Te  Te144  1  0.50430929  0.00073629  -0.00204252  1
  Te  Te145  1  0.50187792  0.00081919  0.33275245  1
  Te  Te146  1  0.49889069  -0.00508334  0.66608121  1
  Te  Te147  1  0.49875316  0.33808558  -0.00101535  1
  Te  Te148  1  0.50107075  0.33065391  0.33963216  1
  Te  Te149  1  0.49885634  0.33250751  0.66247407  1
  Te  Te150  1  0.50365786  0.66317274  -0.00063562  1
  Te  Te151  1  0.49374982  0.66470080  0.33964177  1
  Te  Te152  1  0.49777860  0.67188917  0.66280784  1
  Te  Te153  1  0.83176771  -0.00269599  0.00009405  1
  Te  Te154  1  0.83507061  -0.00263030  0.33506946  1
  Te  Te155  1  0.83570293  -0.00353004  0.66526518  1
  Te  Te156  1  0.83483708  0.33737104  -0.00090408  1
  Te  Te157  1  0.84038154  0.33892235  0.33346259  1
  Te  Te158  1  0.83785789  0.33312600  0.66777867  1
  Te  Te159  1  0.82893747  0.66927585  -0.00101751  1
  Te  Te160  1  0.83288529  0.66741513  0.33310441  1
  Te  Te161  1  0.83875941  0.67334346  0.66814832  1
  Te  Te162  1  0.00104548  0.16123930  0.00743532  1
  Te  Te163  1  0.00149256  0.16364552  0.33727756  1
  Te  Te164  1  0.00230045  0.16253421  0.66363085  1
  Te  Te165  1  -0.00684556  0.50062962  0.00199606  1
  Te  Te166  1  -0.00120047  0.50372926  0.33226011  1
  Te  Te167  1  -0.00192184  0.49242825  0.66665458  1
  Te  Te168  1  -0.00300530  0.83615562  0.00150617  1
  Te  Te169  1  0.00129123  0.83512998  0.33591460  1
  Te  Te170  1  0.00210011  0.83978140  0.66339392  1
  Te  Te171  1  0.33274517  0.16019300  0.00295173  1
  Te  Te172  1  0.32506919  0.16340860  0.34076201  1
  Te  Te173  1  0.32818366  0.17000956  0.66006349  1
  Te  Te174  1  0.33341343  0.50049096  0.00670512  1
  Te  Te175  1  0.33221093  0.49740017  0.32687598  1
  Te  Te176  1  0.33417017  0.49884800  0.66867092  1
  Te  Te177  1  0.33543412  0.83749822  0.00301490  1
  Te  Te178  1  0.33211427  0.83522897  0.33467966  1
  Te  Te179  1  0.32842825  0.83081419  0.66277381  1
  Te  Te180  1  0.66723252  0.16252360  -0.00460985  1
  Te  Te181  1  0.66803725  0.16049867  0.33219166  1
  Te  Te182  1  0.66848978  0.16744926  0.67031194  1
  Te  Te183  1  0.66892970  0.49714614  0.00187155  1
  Te  Te184  1  0.66977171  0.49980557  0.33176923  1
  Te  Te185  1  0.66682782  0.50036353  0.66270407  1
  Te  Te186  1  0.66673841  0.83477387  0.00073438  1
  Te  Te187  1  0.67006621  0.83507742  0.33117370  1
  Te  Te188  1  0.66921135  0.83180079  0.66275796  1
  Te  Te189  1  -0.00086997  -0.00510108  0.16574220  1
  Te  Te190  1  -0.00023550  -0.00113915  0.49748829  1
  Te  Te191  1  0.00013258  0.00203365  0.84326696  1
  Te  Te192  1  0.00012676  0.33341455  0.16997627  1
  Te  Te193  1  -0.00006836  0.33489415  0.49967909  1
  Te  Te194  1  0.00586765  0.33087271  0.83182372  1
  Te  Te195  1  0.00054161  0.67598920  0.16517638  1
  Te  Te196  1  0.00175076  0.66855911  0.50563285  1
  Te  Te197  1  0.00630903  0.66601338  0.82565778  1
  Te  Te198  1  0.33473088  -0.00307997  0.17016557  1
  Te  Te199  1  0.33590683  -0.00465676  0.49847402  1
  Te  Te200  1  0.33515351  0.00087224  0.84165824  1
  Te  Te201  1  0.33465416  0.33370299  0.16602851  1
  Te  Te202  1  0.33628915  0.33986052  0.50335925  1
  Te  Te203  1  0.32817816  0.33067526  0.82754407  1
  Te  Te204  1  0.33497982  0.66878673  0.16931091  1
  Te  Te205  1  0.33378900  0.66787271  0.49969881  1
  Te  Te206  1  0.32815538  0.66771224  0.82976553  1
  Te  Te207  1  0.66761145  -0.00172127  0.16786761  1
  Te  Te208  1  0.65798311  -0.00388665  0.49715551  1
  Te  Te209  1  0.66780305  0.00113693  0.83307345  1
  Te  Te210  1  0.66594730  0.33686042  0.16808510  1
  Te  Te211  1  0.66268574  0.33228992  0.49897004  1
  Te  Te212  1  0.66568489  0.32563297  0.83308834  1
  Te  Te213  1  0.66515288  0.66769997  0.16322012  1
  Te  Te214  1  0.66517599  0.66923740  0.49988984  1
  Te  Te215  1  0.66598008  0.66474486  0.84001135  1
