# generated using pymatgen
data_AgSbTe2
_symmetry_space_group_name_H-M   'P 1'
_cell_length_a   18.34817507
_cell_length_b   18.33929499
_cell_length_c   18.34358987
_cell_angle_alpha   90.00122889
_cell_angle_beta   89.99918397
_cell_angle_gamma   90.00480640
_symmetry_Int_Tables_number   1
_chemical_formula_structural   AgSbTe2
_chemical_formula_sum   'Ag54 Sb54 Te108'
_cell_volume   6172.48213893
_cell_formula_units_Z   54
loop_
 _symmetry_equiv_pos_site_id
 _symmetry_equiv_pos_as_xyz
  1  'x, y, z'
loop_
 _atom_site_type_symbol
 _atom_site_label
 _atom_site_symmetry_multiplicity
 _atom_site_fract_x
 _atom_site_fract_y
 _atom_site_fract_z
 _atom_site_occupancy
  Ag  Ag0  1  0.83196776  -0.00659982  0.84143610  1
  Ag  Ag1  1  0.48880006  0.00463927  0.15771410  1
  Ag  Ag2  1  0.34004737  0.00419967  0.00351383  1
  Ag  Ag3  1  0.49562741  0.16736084  0.31755987  1
  Ag  Ag4  1  0.65251465  0.83381462  0.83574398  1
  Ag  Ag5  1  0.00135565  0.83415902  0.82674382  1
  Ag  Ag6  1  0.32698480  0.82502669  0.51072081  1
  Ag  Ag7  1  0.33471763  0.33467010  -0.00109483  1
  Ag  Ag8  1  0.16914276  0.83072298  0.66490915  1
  Ag  Ag9  1  0.84275656  0.82981914  0.66916113  1
  Ag  Ag10  1  0.65387228  0.66934588  0.66659589  1
  Ag  Ag11  1  0.16839746  0.33591258  0.50688589  1
  Ag  Ag12  1  0.00244827  0.15952746  0.83830406  1
  Ag  Ag13  1  0.33381453  0.66519896  0.67204167  1
  Ag  Ag14  1  0.16357829  0.67256617  0.50173248  1
  Ag  Ag15  1  0.49356474  0.50508299  0.67222679  1
  Ag  Ag16  1  0.49777976  0.84623051  -0.01245277  1
  Ag  Ag17  1  0.49586067  0.32530430  0.15896687  1
  Ag  Ag18  1  -0.00082158  0.66812454  0.33834287  1
  Ag  Ag19  1  0.65914378  0.50091160  0.50183882  1
  Ag  Ag20  1  0.33707612  0.50181799  0.50757022  1
  Ag  Ag21  1  0.33418257  0.66532864  -0.00803068  1
  Ag  Ag22  1  0.32832167  -0.00062085  0.32120042  1
  Ag  Ag23  1  0.00846435  0.16210065  0.16397155  1
  Ag  Ag24  1  0.17484522  0.16551857  0.00273087  1
  Ag  Ag25  1  -0.00057406  0.33241758  0.34015905  1
  Ag  Ag26  1  0.33041194  0.34191320  0.67060788  1
  Ag  Ag27  1  0.00839877  0.66898868  -0.00016760  1
  Ag  Ag28  1  0.49861198  -0.01190911  0.84667566  1
  Ag  Ag29  1  0.49345780  0.67628019  0.83199603  1
  Ag  Ag30  1  0.17110324  -0.00308616  0.16889554  1
  Ag  Ag31  1  0.33564872  0.49740234  0.15812196  1
  Ag  Ag32  1  0.84298871  0.34327436  0.50033850  1
  Ag  Ag33  1  0.00838211  0.82571028  0.50557291  1
  Ag  Ag34  1  0.84253645  0.67187819  0.17119429  1
  Ag  Ag35  1  0.33353822  0.16316591  0.16200303  1
  Ag  Ag36  1  0.01214430  0.33814833  0.65859626  1
  Ag  Ag37  1  0.65112334  0.33017881  -0.00001648  1
  Ag  Ag38  1  0.65307904  -0.00014653  0.00158057  1
  Ag  Ag39  1  0.00594612  -0.00087284  0.32897925  1
  Ag  Ag40  1  0.83557144  0.50191789  0.33744920  1
  Ag  Ag41  1  0.34009537  0.82750939  0.83010475  1
  Ag  Ag42  1  0.49310152  0.15944824  0.00097391  1
  Ag  Ag43  1  0.66544943  0.83540294  0.15745370  1
  Ag  Ag44  1  0.49289596  0.82382893  0.67644256  1
  Ag  Ag45  1  0.16825241  -0.01045071  0.49464261  1
  Ag  Ag46  1  0.49536424  0.49765529  -0.00427737  1
  Ag  Ag47  1  0.16990694  0.33091440  0.82679940  1
  Ag  Ag48  1  0.33610212  0.50699545  0.83236884  1
  Ag  Ag49  1  0.84406285  0.66305293  0.49948122  1
  Ag  Ag50  1  0.00402762  0.67256130  0.66374341  1
  Ag  Ag51  1  0.49142009  0.33628940  0.49895164  1
  Ag  Ag52  1  0.16361097  0.67339753  0.16706050  1
  Ag  Ag53  1  0.83377159  -0.00550487  0.16274707  1
  Sb  Sb54  1  0.66103539  0.67011959  -0.00317128  1
  Sb  Sb55  1  0.16784008  0.00021070  0.83551263  1
  Sb  Sb56  1  0.66462478  0.17222341  0.50016394  1
  Sb  Sb57  1  0.00214127  -0.00481561  0.66519979  1
  Sb  Sb58  1  0.49992713  0.49624399  0.33454478  1
  Sb  Sb59  1  0.66121284  0.16241332  0.16367585  1
  Sb  Sb60  1  0.17219954  0.66684186  0.83104914  1
  Sb  Sb61  1  0.66900660  0.16017031  0.83689865  1
  Sb  Sb62  1  -0.00117369  0.83418796  0.16631619  1
  Sb  Sb63  1  0.66610123  -0.00114944  0.32534595  1
  Sb  Sb64  1  0.65790821  0.50555054  0.83049366  1
  Sb  Sb65  1  0.00505117  0.50031131  0.16752951  1
  Sb  Sb66  1  0.66153072  0.50444827  0.16898050  1
  Sb  Sb67  1  0.82727868  0.50341386  0.00427070  1
  Sb  Sb68  1  0.00267280  -0.00388305  0.00328184  1
  Sb  Sb69  1  0.66716594  0.33466338  0.33118773  1
  Sb  Sb70  1  0.33081724  0.16560834  0.84128544  1
  Sb  Sb71  1  0.17225380  0.33158329  0.16682894  1
  Sb  Sb72  1  0.17566316  0.49927145  -0.00019908  1
  Sb  Sb73  1  0.66559162  -0.01006310  0.67459728  1
  Sb  Sb74  1  0.33039070  0.33078911  0.33259861  1
  Sb  Sb75  1  0.83085147  0.33382330  0.17024039  1
  Sb  Sb76  1  0.66209103  0.34076049  0.66918267  1
  Sb  Sb77  1  0.49372465  0.00192705  0.49923611  1
  Sb  Sb78  1  0.84015468  -0.00515099  0.49758227  1
  Sb  Sb79  1  0.17399624  0.50491997  0.66488644  1
  Sb  Sb80  1  0.33308131  -0.00512735  0.67079613  1
  Sb  Sb81  1  0.83752252  0.16200347  0.66717914  1
  Sb  Sb82  1  0.83319924  0.16837933  0.33141670  1
  Sb  Sb83  1  0.49597476  0.67021520  0.15898542  1
  Sb  Sb84  1  0.67229780  0.66648331  0.33809469  1
  Sb  Sb85  1  0.82918280  0.50766066  0.66137304  1
  Sb  Sb86  1  0.49688443  0.16861899  0.67269978  1
  Sb  Sb87  1  0.83412288  0.16551281  0.00200237  1
  Sb  Sb88  1  0.83967162  0.32879147  0.82759868  1
  Sb  Sb89  1  0.00322780  0.50503601  0.50040861  1
  Sb  Sb90  1  0.00721798  0.50290876  0.83111332  1
  Sb  Sb91  1  0.82922566  0.83379903  -0.00426549  1
  Sb  Sb92  1  0.83210036  0.67220078  0.83075144  1
  Sb  Sb93  1  0.49365577  0.33263312  0.83827868  1
  Sb  Sb94  1  0.66552444  0.82779974  0.50638774  1
  Sb  Sb95  1  0.17331000  0.83503575  -0.00549246  1
  Sb  Sb96  1  0.83584175  0.82967761  0.33576901  1
  Sb  Sb97  1  0.00557356  0.33542245  0.00004993  1
  Sb  Sb98  1  0.33537987  0.83506745  0.16121228  1
  Sb  Sb99  1  0.16566031  0.83493473  0.33913774  1
  Sb  Sb100  1  0.16707641  0.16618761  0.67090857  1
  Sb  Sb101  1  0.16503385  0.50016002  0.33523413  1
  Sb  Sb102  1  0.33158315  0.16793724  0.49586232  1
  Sb  Sb103  1  0.49461860  0.66209026  0.50667074  1
  Sb  Sb104  1  0.16943499  0.16492261  0.32821391  1
  Sb  Sb105  1  0.00222683  0.16681875  0.49871506  1
  Sb  Sb106  1  0.32748270  0.67104293  0.33542999  1
  Sb  Sb107  1  0.49733017  0.83754306  0.33284691  1
  Te  Te108  1  0.16911346  0.16495339  0.16298858  1
  Te  Te109  1  0.16636406  0.17132791  0.50027348  1
  Te  Te110  1  0.16173661  0.16776328  0.83840515  1
  Te  Te111  1  0.17360297  0.50468952  0.16723667  1
  Te  Te112  1  0.17526311  0.49565905  0.49970217  1
  Te  Te113  1  0.17476225  0.49216818  0.83330278  1
  Te  Te114  1  0.16707812  0.83402644  0.16412795  1
  Te  Te115  1  0.16716052  0.83254234  0.50303573  1
  Te  Te116  1  0.16205023  0.83419883  0.82725604  1
  Te  Te117  1  0.49827707  0.16582205  0.16075626  1
  Te  Te118  1  0.49975468  0.17406002  0.50356240  1
  Te  Te119  1  0.50115960  0.15990486  0.84008292  1
  Te  Te120  1  0.49609517  0.50010910  0.16712639  1
  Te  Te121  1  0.49800830  0.49705230  0.49981140  1
  Te  Te122  1  0.49501862  0.49923883  0.83237807  1
  Te  Te123  1  0.50353999  0.83858107  0.16548363  1
  Te  Te124  1  0.49649631  0.83384043  0.50202189  1
  Te  Te125  1  0.49642302  0.83218107  0.83261897  1
  Te  Te126  1  0.83967795  0.16350422  0.16775252  1
  Te  Te127  1  0.83284327  0.17191059  0.49915065  1
  Te  Te128  1  0.84052515  0.15894222  0.83390986  1
  Te  Te129  1  0.83153109  0.50350272  0.17279461  1
  Te  Te130  1  0.83461321  0.50239746  0.49843939  1
  Te  Te131  1  0.83110003  0.49906064  0.83422372  1
  Te  Te132  1  0.83099661  0.83221282  0.16584486  1
  Te  Te133  1  0.83349126  0.82821976  0.50548231  1
  Te  Te134  1  0.84228414  0.83562731  0.83018153  1
  Te  Te135  1  0.17023570  0.00323069  0.00346016  1
  Te  Te136  1  0.16692428  0.00047245  0.33161392  1
  Te  Te137  1  0.16721762  -0.00371505  0.66014193  1
  Te  Te138  1  0.17136310  0.32902645  -0.00067102  1
  Te  Te139  1  0.16006935  0.33247655  0.33661446  1
  Te  Te140  1  0.16880796  0.33245800  0.66680787  1
  Te  Te141  1  0.16867868  0.66670975  0.00142369  1
  Te  Te142  1  0.16003009  0.66646564  0.33402658  1
  Te  Te143  1  0.16704860  0.66980906  0.66475023  1
  Te  Te144  1  0.49774749  0.00077028  0.00211268  1
  Te  Te145  1  0.49708150  0.00557813  0.33137464  1
  Te  Te146  1  0.50050267  -0.00087956  0.66889709  1
  Te  Te147  1  0.49458710  0.33713409  -0.00055938  1
  Te  Te148  1  0.49949182  0.32941381  0.33375868  1
  Te  Te149  1  0.49608395  0.33653764  0.66468353  1
  Te  Te150  1  0.49633152  0.66002155  -0.00479456  1
  Te  Te151  1  0.50192353  0.66708114  0.33250459  1
  Te  Te152  1  0.49488965  0.66551461  0.66792861  1
  Te  Te153  1  0.83420191  -0.00025285  0.00196672  1
  Te  Te154  1  0.83803758  0.00048454  0.32856971  1
  Te  Te155  1  0.83370051  -0.00687373  0.66751938  1
  Te  Te156  1  0.83240509  0.33483141  -0.00073157  1
  Te  Te157  1  0.83677347  0.33583809  0.33823685  1
  Te  Te158  1  0.83112304  0.33331088  0.66073046  1
  Te  Te159  1  0.83446269  0.66633966  0.00549672  1
  Te  Te160  1  0.83803561  0.66466186  0.33421897  1
  Te  Te161  1  0.84336518  0.67033444  0.66421322  1
  Te  Te162  1  0.00158551  0.16781810  0.00129820  1
  Te  Te163  1  -0.00058328  0.16530841  0.32961459  1
  Te  Te164  1  0.00011053  0.17441107  0.67153808  1
  Te  Te165  1  -0.00200472  0.50841243  -0.00029644  1
  Te  Te166  1  -0.00388325  0.50048995  0.33306194  1
  Te  Te167  1  -0.00205979  0.49677298  0.66811894  1
  Te  Te168  1  0.00110191  0.82785249  -0.00338724  1
  Te  Te169  1  -0.00065510  0.83318261  0.33833377  1
  Te  Te170  1  0.00235015  0.83343507  0.66451279  1
  Te  Te171  1  0.33330877  0.16633011  0.00225964  1
  Te  Te172  1  0.33669639  0.16193132  0.32718554  1
  Te  Te173  1  0.33294766  0.17666500  0.66835003  1
  Te  Te174  1  0.33545530  0.50154001  -0.00080786  1
  Te  Te175  1  0.33340481  0.50170062  0.33368354  1
  Te  Te176  1  0.33518477  0.50148876  0.66739611  1
  Te  Te177  1  0.33779172  0.82850978  -0.00430516  1
  Te  Te178  1  0.33369116  0.83988075  0.34172981  1
  Te  Te179  1  0.33313669  0.83312529  0.66872217  1
  Te  Te180  1  0.66332933  0.16646210  -0.00028672  1
  Te  Te181  1  0.65753414  0.16672777  0.33265386  1
  Te  Te182  1  0.66752299  0.16609767  0.66815620  1
  Te  Te183  1  0.65967078  0.49764789  -0.00008068  1
  Te  Te184  1  0.67239031  0.50024760  0.33993331  1
  Te  Te185  1  0.65963735  0.50727887  0.66315682  1
  Te  Te186  1  0.66272217  0.83515041  -0.00314767  1
  Te  Te187  1  0.66656395  0.83331898  0.32739651  1
  Te  Te188  1  0.66104949  0.82718824  0.67122166  1
  Te  Te189  1  0.00223543  0.00042579  0.16807287  1
  Te  Te190  1  0.00423887  -0.00186833  0.49431764  1
  Te  Te191  1  -0.00018275  -0.00066239  0.83360793  1
  Te  Te192  1  0.00023408  0.33018099  0.16909411  1
  Te  Te193  1  0.00168283  0.33312731  0.50048858  1
  Te  Te194  1  0.00516280  0.33378148  0.83154654  1
  Te  Te195  1  0.00184307  0.66697721  0.16708753  1
  Te  Te196  1  0.00310172  0.66633424  0.50095408  1
  Te  Te197  1  0.00148812  0.66856595  0.83088336  1
  Te  Te198  1  0.33171971  -0.00205973  0.16412126  1
  Te  Te199  1  0.32854909  0.00030804  0.50175502  1
  Te  Te200  1  0.33494484  -0.00351491  0.83824771  1
  Te  Te201  1  0.33583502  0.33384140  0.16505491  1
  Te  Te202  1  0.33189421  0.33463087  0.49891722  1
  Te  Te203  1  0.33107629  0.33204257  0.83540460  1
  Te  Te204  1  0.32858821  0.66656539  0.16779251  1
  Te  Te205  1  0.32867689  0.66558727  0.50014059  1
  Te  Te206  1  0.33333733  0.66673481  0.83212844  1
  Te  Te207  1  0.67311374  -0.00296349  0.16171560  1
  Te  Te208  1  0.66902058  0.00030005  0.49852528  1
  Te  Te209  1  0.66940772  -0.00519711  0.83943583  1
  Te  Te210  1  0.66129675  0.33451638  0.16162847  1
  Te  Te211  1  0.66443861  0.33900224  0.50037875  1
  Te  Te212  1  0.66998695  0.33269984  0.83832515  1
  Te  Te213  1  0.66833548  0.67147077  0.16617309  1
  Te  Te214  1  0.66953284  0.66275786  0.50534258  1
  Te  Te215  1  0.66398452  0.67246630  0.82889632  1
