# generated using pymatgen
data_AgSbTe2
_symmetry_space_group_name_H-M   'P 1'
_cell_length_a   18.35734196
_cell_length_b   18.36026278
_cell_length_c   18.35512780
_cell_angle_alpha   89.99730775
_cell_angle_beta   90.00216026
_cell_angle_gamma   89.99853452
_symmetry_Int_Tables_number   1
_chemical_formula_structural   AgSbTe2
_chemical_formula_sum   'Ag54 Sb54 Te108'
_cell_volume   6186.51545833
_cell_formula_units_Z   54
loop_
 _symmetry_equiv_pos_site_id
 _symmetry_equiv_pos_as_xyz
  1  'x, y, z'
loop_
 _atom_site_type_symbol
 _atom_site_label
 _atom_site_symmetry_multiplicity
 _atom_site_fract_x
 _atom_site_fract_y
 _atom_site_fract_z
 _atom_site_occupancy
  Ag  Ag0  1  0.49333431  -0.00805966  0.49063082  1
  Ag  Ag1  1  -0.00261027  0.51168726  0.17259997  1
  Ag  Ag2  1  0.84390288  -0.00367116  0.84069070  1
  Ag  Ag3  1  -0.00137292  0.65967834  0.64996429  1
  Ag  Ag4  1  0.50116187  0.16156860  0.32276115  1
  Ag  Ag5  1  0.50526454  0.67418389  0.16767777  1
  Ag  Ag6  1  0.50019940  0.50716851  -0.00333979  1
  Ag  Ag7  1  0.50007573  0.83078028  0.00155617  1
  Ag  Ag8  1  -0.00440258  0.16573264  0.15937770  1
  Ag  Ag9  1  0.15404693  0.66677003  0.49964037  1
  Ag  Ag10  1  0.84074926  0.16759374  0.00346013  1
  Ag  Ag11  1  0.67975675  0.33728547  0.66830742  1
  Ag  Ag12  1  -0.00063998  0.01013790  0.00358949  1
  Ag  Ag13  1  0.83815703  0.50188527  0.66756891  1
  Ag  Ag14  1  0.32170524  0.83341468  0.50230540  1
  Ag  Ag15  1  0.83863036  0.66526714  0.83525228  1
  Ag  Ag16  1  0.00004659  0.15870049  0.84513934  1
  Ag  Ag17  1  -0.00237297  0.32359039  0.00125135  1
  Ag  Ag18  1  0.83767866  0.66577518  0.16746214  1
  Ag  Ag19  1  0.68274123  0.66539776  0.32985374  1
  Ag  Ag20  1  0.15075882  0.16528028  -0.00252002  1
  Ag  Ag21  1  0.15062461  0.66536000  0.17052146  1
  Ag  Ag22  1  -0.00130666  0.34385181  0.66943923  1
  Ag  Ag23  1  -0.00094499  0.82665460  0.83701841  1
  Ag  Ag24  1  0.16403830  -0.00451195  0.50145102  1
  Ag  Ag25  1  0.50011613  0.67009011  0.49508294  1
  Ag  Ag26  1  0.15566303  0.50227332  0.34498436  1
  Ag  Ag27  1  0.15377062  0.66922555  0.83169878  1
  Ag  Ag28  1  0.83994399  0.00160559  0.16220905  1
  Ag  Ag29  1  0.16209823  0.17094263  0.66906225  1
  Ag  Ag30  1  0.67644304  0.82840387  0.83962408  1
  Ag  Ag31  1  0.16032494  -0.00772455  0.83024329  1
  Ag  Ag32  1  0.00165778  -0.00101444  0.32178547  1
  Ag  Ag33  1  -0.00127268  0.34693897  0.32550214  1
  Ag  Ag34  1  0.84511042  0.50443154  0.33375636  1
  Ag  Ag35  1  0.00436316  0.82044809  0.49379512  1
  Ag  Ag36  1  0.00222453  0.50835690  0.48575255  1
  Ag  Ag37  1  0.15312007  0.50043221  0.66461048  1
  Ag  Ag38  1  0.32276305  -0.00097102  0.33523379  1
  Ag  Ag39  1  0.50424928  0.50154321  0.67263316  1
  Ag  Ag40  1  0.32217573  0.82922361  0.83183211  1
  Ag  Ag41  1  0.83839789  0.33385273  0.15961413  1
  Ag  Ag42  1  -0.00649276  0.82584791  0.16422862  1
  Ag  Ag43  1  0.67509060  0.83320759  0.16204370  1
  Ag  Ag44  1  0.66969542  0.50707923  0.83096672  1
  Ag  Ag45  1  -0.00044731  0.66029592  0.33325357  1
  Ag  Ag46  1  0.67792172  0.15676394  0.16417304  1
  Ag  Ag47  1  0.84407089  0.66337902  0.48817684  1
  Ag  Ag48  1  0.16078328  0.34837637  0.50197167  1
  Ag  Ag49  1  0.83811333  0.34373060  0.83700630  1
  Ag  Ag50  1  0.33277781  0.50593245  0.83193501  1
  Ag  Ag51  1  0.50545386  -0.00369600  0.16899434  1
  Ag  Ag52  1  0.50231167  0.16344154  0.00531102  1
  Ag  Ag53  1  -0.00046450  0.66615894  0.01710505  1
  Sb  Sb54  1  0.32551125  0.50899269  0.50533598  1
  Sb  Sb55  1  0.49465374  0.33704206  0.50052726  1
  Sb  Sb56  1  0.16313524  0.83562803  -0.00246659  1
  Sb  Sb57  1  0.66513156  0.16631101  0.49358075  1
  Sb  Sb58  1  0.49982542  0.83636835  0.32905997  1
  Sb  Sb59  1  0.50781602  0.33662393  0.83477022  1
  Sb  Sb60  1  0.49948641  0.50153535  0.33184821  1
  Sb  Sb61  1  0.49830385  -0.00342191  0.83839428  1
  Sb  Sb62  1  0.00123385  -0.00062418  0.67189311  1
  Sb  Sb63  1  0.67379074  0.33333670  -0.00251687  1
  Sb  Sb64  1  0.33024685  0.15926952  0.49934038  1
  Sb  Sb65  1  0.67309606  -0.00108747  0.00168163  1
  Sb  Sb66  1  0.32717526  0.67150620  0.33471970  1
  Sb  Sb67  1  0.84217276  0.17509273  0.67636383  1
  Sb  Sb68  1  0.67479891  0.16612984  0.84016825  1
  Sb  Sb69  1  0.66734524  0.00489726  0.66869787  1
  Sb  Sb70  1  0.32711675  0.33387558  -0.00186542  1
  Sb  Sb71  1  0.32591583  0.32925144  0.33419718  1
  Sb  Sb72  1  0.16207832  0.49868600  -0.00465636  1
  Sb  Sb73  1  0.83401989  0.17149082  0.32484823  1
  Sb  Sb74  1  0.33017323  -0.00178292  0.66286180  1
  Sb  Sb75  1  0.84297062  0.33998362  0.50140979  1
  Sb  Sb76  1  0.83647635  0.82635397  0.67111480  1
  Sb  Sb77  1  0.16282420  0.82890924  0.66651134  1
  Sb  Sb78  1  0.67190575  0.66814208  0.00268633  1
  Sb  Sb79  1  0.67344639  0.50367963  0.16200056  1
  Sb  Sb80  1  0.83736308  0.82563943  0.32867127  1
  Sb  Sb81  1  0.67290597  0.66185861  0.66594991  1
  Sb  Sb82  1  0.15481573  0.33820188  0.16920835  1
  Sb  Sb83  1  0.16141086  0.82929853  0.33532485  1
  Sb  Sb84  1  0.33141197  0.83404148  0.16660996  1
  Sb  Sb85  1  -0.00262302  0.50781006  0.83135777  1
  Sb  Sb86  1  0.32273230  0.16458326  0.83483027  1
  Sb  Sb87  1  0.66969788  0.82931638  0.49795213  1
  Sb  Sb88  1  0.32529134  0.66548112  0.66684548  1
  Sb  Sb89  1  0.32966836  -0.00116969  0.00380254  1
  Sb  Sb90  1  0.15936355  -0.00388416  0.16687999  1
  Sb  Sb91  1  0.32560765  0.33777420  0.66761891  1
  Sb  Sb92  1  0.32930845  0.66760184  -0.00112521  1
  Sb  Sb93  1  0.84080445  -0.00806844  0.49721159  1
  Sb  Sb94  1  0.16385897  0.16804525  0.33184083  1
  Sb  Sb95  1  0.50165778  0.82796724  0.66887721  1
  Sb  Sb96  1  0.50227221  0.66588889  0.83476769  1
  Sb  Sb97  1  0.00057542  0.16710710  0.49929830  1
  Sb  Sb98  1  0.49793113  0.17084073  0.66882031  1
  Sb  Sb99  1  0.67391891  0.33838893  0.33514137  1
  Sb  Sb100  1  0.33110844  0.16407286  0.16590622  1
  Sb  Sb101  1  0.15559004  0.33646046  0.82880276  1
  Sb  Sb102  1  0.67168208  -0.00514890  0.32936241  1
  Sb  Sb103  1  0.83615692  0.49865710  -0.00121760  1
  Sb  Sb104  1  0.67332022  0.50232218  0.50471487  1
  Sb  Sb105  1  0.51066603  0.33082927  0.16579319  1
  Sb  Sb106  1  0.83583127  0.83704951  0.00057279  1
  Sb  Sb107  1  0.32788735  0.50353946  0.16383777  1
  Te  Te108  1  0.16332924  0.16623909  0.16281311  1
  Te  Te109  1  0.16584465  0.15492834  0.50081418  1
  Te  Te110  1  0.16152384  0.16820918  0.83451301  1
  Te  Te111  1  0.16306371  0.50559058  0.16451177  1
  Te  Te112  1  0.16390861  0.50660251  0.50440274  1
  Te  Te113  1  0.17190893  0.50323642  0.82998444  1
  Te  Te114  1  0.16333592  0.82581820  0.16551119  1
  Te  Te115  1  0.16430630  0.83196840  0.50094184  1
  Te  Te116  1  0.16357876  0.83139185  0.83216877  1
  Te  Te117  1  0.49785303  0.16572854  0.16472075  1
  Te  Te118  1  0.49872979  0.16347175  0.50009205  1
  Te  Te119  1  0.49998175  0.16575859  0.83604313  1
  Te  Te120  1  0.50010860  0.49917235  0.16274976  1
  Te  Te121  1  0.49743863  0.50374662  0.50095020  1
  Te  Te122  1  0.50355353  0.50063308  0.83487927  1
  Te  Te123  1  0.49673650  0.83489296  0.16356667  1
  Te  Te124  1  0.50300240  0.83333528  0.50148554  1
  Te  Te125  1  0.50291190  0.83345712  0.83713210  1
  Te  Te126  1  0.83451154  0.16339111  0.16451416  1
  Te  Te127  1  0.83057852  0.16380313  0.50024504  1
  Te  Te128  1  0.83816233  0.16138641  0.83986213  1
  Te  Te129  1  0.83588502  0.50220057  0.16601166  1
  Te  Te130  1  0.83848246  0.50435268  0.50107913  1
  Te  Te131  1  0.83078990  0.50137658  0.83344805  1
  Te  Te132  1  0.83335750  0.83301454  0.16516625  1
  Te  Te133  1  0.83927434  0.82467040  0.50174325  1
  Te  Te134  1  0.83624186  0.83409939  0.83549222  1
  Te  Te135  1  0.16246351  0.00415945  -0.00259873  1
  Te  Te136  1  0.16501888  0.00094467  0.33433001  1
  Te  Te137  1  0.16676933  0.00462868  0.66763095  1
  Te  Te138  1  0.16002925  0.32811385  0.00055658  1
  Te  Te139  1  0.15979975  0.33630860  0.33765979  1
  Te  Te140  1  0.16036624  0.33642648  0.66298613  1
  Te  Te141  1  0.16265228  0.66653651  -0.00302834  1
  Te  Te142  1  0.16347161  0.66350515  0.33390517  1
  Te  Te143  1  0.16122828  0.66266251  0.66639617  1
  Te  Te144  1  0.49825247  -0.00063368  0.00363321  1
  Te  Te145  1  0.50672265  0.00202684  0.33217160  1
  Te  Te146  1  0.49919217  0.00227940  0.66190071  1
  Te  Te147  1  0.49939027  0.33177564  0.00094113  1
  Te  Te148  1  0.50006854  0.32821282  0.33468956  1
  Te  Te149  1  0.49998056  0.33873455  0.66654076  1
  Te  Te150  1  0.50002236  0.66741020  0.00175531  1
  Te  Te151  1  0.49425020  0.66593272  0.33182445  1
  Te  Te152  1  0.50312283  0.66210636  0.66442031  1
  Te  Te153  1  0.83821638  0.00357508  0.00090987  1
  Te  Te154  1  0.83911497  0.00145270  0.32956312  1
  Te  Te155  1  0.83238724  0.00268399  0.66894729  1
  Te  Te156  1  0.83824156  0.33162906  -0.00077506  1
  Te  Te157  1  0.83881422  0.33947920  0.33301460  1
  Te  Te158  1  0.83821998  0.33894277  0.66791201  1
  Te  Te159  1  0.83769959  0.66559244  0.00071742  1
  Te  Te160  1  0.83806165  0.66407917  0.33040982  1
  Te  Te161  1  0.83716683  0.66149252  0.67379727  1
  Te  Te162  1  -0.00412422  0.16613470  -0.00062259  1
  Te  Te163  1  0.00000024  0.15854244  0.33055284  1
  Te  Te164  1  0.00461298  0.17104440  0.66701164  1
  Te  Te165  1  0.00104079  0.50484555  0.00995983  1
  Te  Te166  1  0.00050797  0.50045950  0.33142239  1
  Te  Te167  1  -0.00232490  0.50149104  0.67246731  1
  Te  Te168  1  0.00094804  0.82589228  -0.00023538  1
  Te  Te169  1  -0.00018309  0.84003698  0.33273616  1
  Te  Te170  1  -0.00024923  0.82716682  0.66921117  1
  Te  Te171  1  0.34219269  0.16681680  -0.00125993  1
  Te  Te172  1  0.33927590  0.16037160  0.33295768  1
  Te  Te173  1  0.32441344  0.16920473  0.66760127  1
  Te  Te174  1  0.33841742  0.49982602  -0.00561443  1
  Te  Te175  1  0.32747350  0.49815060  0.33371468  1
  Te  Te176  1  0.34287812  0.50095485  0.67177984  1
  Te  Te177  1  0.33800501  0.83396043  -0.00592193  1
  Te  Te178  1  0.33269742  0.83972188  0.33927982  1
  Te  Te179  1  0.33509026  0.83233163  0.67001084  1
  Te  Te180  1  0.66109026  0.16695117  0.00585163  1
  Te  Te181  1  0.66316059  0.16872603  0.32616843  1
  Te  Te182  1  0.66670662  0.17420032  0.66743184  1
  Te  Te183  1  0.66045613  0.49982888  -0.00608481  1
  Te  Te184  1  0.66849679  0.50536319  0.33369211  1
  Te  Te185  1  0.66622194  0.49692654  0.67064944  1
  Te  Te186  1  0.66068158  0.83342492  0.00125566  1
  Te  Te187  1  0.66688623  0.82515258  0.32740040  1
  Te  Te188  1  0.66778975  0.83414797  0.67427848  1
  Te  Te189  1  -0.00017208  -0.00066318  0.16243173  1
  Te  Te190  1  0.00252940  -0.00400159  0.50237753  1
  Te  Te191  1  0.00153793  -0.00099209  0.83186438  1
  Te  Te192  1  -0.00288682  0.32484016  0.16624645  1
  Te  Te193  1  0.00395888  0.33341159  0.50254664  1
  Te  Te194  1  -0.00430863  0.33489945  0.83477883  1
  Te  Te195  1  -0.00380940  0.66954214  0.17342026  1
  Te  Te196  1  -0.00094439  0.66465010  0.49473941  1
  Te  Te197  1  -0.00154150  0.66636472  0.83358622  1
  Te  Te198  1  0.33930119  -0.00226101  0.17366110  1
  Te  Te199  1  0.33349725  -0.00654594  0.49704146  1
  Te  Te200  1  0.32705166  -0.00447202  0.83419548  1
  Te  Te201  1  0.33369556  0.33372763  0.16718711  1
  Te  Te202  1  0.32237846  0.33372001  0.49948263  1
  Te  Te203  1  0.33439449  0.33863067  0.83346163  1
  Te  Te204  1  0.34482080  0.66820544  0.16699090  1
  Te  Te205  1  0.34042822  0.67459368  0.50087062  1
  Te  Te206  1  0.33261008  0.66835279  0.83275443  1
  Te  Te207  1  0.66614612  -0.00318716  0.16651859  1
  Te  Te208  1  0.66419363  -0.00242238  0.50015569  1
  Te  Te209  1  0.67008326  -0.00456777  0.83324451  1
  Te  Te210  1  0.67787027  0.33113436  0.16766847  1
  Te  Te211  1  0.66472263  0.33364634  0.50561608  1
  Te  Te212  1  0.67553449  0.33399558  0.82956239  1
  Te  Te213  1  0.66505122  0.66928121  0.16846058  1
  Te  Te214  1  0.66068431  0.66734755  0.49440420  1
  Te  Te215  1  0.67183640  0.66777104  0.83357719  1
