# generated using pymatgen
data_AgSbTe2
_symmetry_space_group_name_H-M   'P 1'
_cell_length_a   18.35070988
_cell_length_b   18.34106435
_cell_length_c   18.34282479
_cell_angle_alpha   90.00386559
_cell_angle_beta   89.99954624
_cell_angle_gamma   89.99551240
_symmetry_Int_Tables_number   1
_chemical_formula_structural   AgSbTe2
_chemical_formula_sum   'Ag54 Sb54 Te108'
_cell_volume   6173.67295246
_cell_formula_units_Z   54
loop_
 _symmetry_equiv_pos_site_id
 _symmetry_equiv_pos_as_xyz
  1  'x, y, z'
loop_
 _atom_site_type_symbol
 _atom_site_label
 _atom_site_symmetry_multiplicity
 _atom_site_fract_x
 _atom_site_fract_y
 _atom_site_fract_z
 _atom_site_occupancy
  Ag  Ag0  1  0.16855444  0.66403675  0.49720917  1
  Ag  Ag1  1  0.65300360  0.49446281  0.82756391  1
  Ag  Ag2  1  0.50830003  0.33417264  0.50913278  1
  Ag  Ag3  1  0.83273024  0.16706540  0.33269378  1
  Ag  Ag4  1  0.67512610  0.17927714  0.49628863  1
  Ag  Ag5  1  0.82699450  0.33026570  0.82820102  1
  Ag  Ag6  1  0.33249521  0.00408072  0.32751825  1
  Ag  Ag7  1  0.33789546  0.33269581  0.33884954  1
  Ag  Ag8  1  -0.00966348  0.17078540  0.49409715  1
  Ag  Ag9  1  0.83169528  0.16661336  0.00756073  1
  Ag  Ag10  1  0.65279876  0.00328567  0.00373947  1
  Ag  Ag11  1  0.65892296  0.33730420  0.65664520  1
  Ag  Ag12  1  -0.00192421  0.49472698  0.50240411  1
  Ag  Ag13  1  0.50195843  0.49591566  0.67264748  1
  Ag  Ag14  1  0.66628834  0.49036711  0.50502313  1
  Ag  Ag15  1  0.83288010  0.32401084  0.17074088  1
  Ag  Ag16  1  0.49699332  0.65175565  0.83250229  1
  Ag  Ag17  1  0.34085452  0.49072232  0.82983099  1
  Ag  Ag18  1  0.00631136  0.66410193  0.66513337  1
  Ag  Ag19  1  0.33894182  0.33783182  0.66964008  1
  Ag  Ag20  1  0.81971695  0.32866204  0.50125945  1
  Ag  Ag21  1  -0.00011561  0.00487016  0.33151391  1
  Ag  Ag22  1  0.00237370  0.49732546  0.82495890  1
  Ag  Ag23  1  0.83227604  0.01050194  0.83611143  1
  Ag  Ag24  1  0.66876582  0.00827276  0.32839539  1
  Ag  Ag25  1  0.49487353  0.49360877  0.33544182  1
  Ag  Ag26  1  0.83080378  0.00668664  0.16932258  1
  Ag  Ag27  1  0.17045472  0.83167323  0.33519630  1
  Ag  Ag28  1  0.17278595  0.16475224  0.00037104  1
  Ag  Ag29  1  0.49772808  0.84880227  -0.00384200  1
  Ag  Ag30  1  0.83213848  0.01184592  0.48974926  1
  Ag  Ag31  1  0.33273474  0.65993151  0.66713606  1
  Ag  Ag32  1  0.16953528  0.00520615  0.16739159  1
  Ag  Ag33  1  0.49182890  0.00366544  0.84201764  1
  Ag  Ag34  1  0.16856029  0.66343386  0.17464975  1
  Ag  Ag35  1  0.16742492  0.82980924  0.66603814  1
  Ag  Ag36  1  0.66141602  0.33020332  0.34290156  1
  Ag  Ag37  1  0.50058479  0.00171556  0.15498171  1
  Ag  Ag38  1  0.33637843  0.16804390  0.83281201  1
  Ag  Ag39  1  0.32904887  0.65699695  0.33959742  1
  Ag  Ag40  1  0.34083997  0.00233981  -0.00360187  1
  Ag  Ag41  1  0.50051682  0.49662947  -0.01483159  1
  Ag  Ag42  1  0.18098820  0.32999628  0.83516871  1
  Ag  Ag43  1  0.16680834  0.32791704  0.16727775  1
  Ag  Ag44  1  0.17568112  0.00788407  0.84037573  1
  Ag  Ag45  1  0.66432352  0.49618568  0.17058302  1
  Ag  Ag46  1  0.83478412  0.83407022  0.66704040  1
  Ag  Ag47  1  0.17354187  0.50207375  0.33402809  1
  Ag  Ag48  1  0.49937503  0.16169104  -0.00266114  1
  Ag  Ag49  1  0.65800612  0.65593673  0.66761074  1
  Ag  Ag50  1  -0.00376411  0.16540992  0.17083482  1
  Ag  Ag51  1  0.49820035  0.33808265  0.82926028  1
  Ag  Ag52  1  0.33257184  0.16968587  0.50055483  1
  Ag  Ag53  1  0.33485236  0.84303007  0.83182516  1
  Sb  Sb54  1  0.49935127  0.17422331  0.67167121  1
  Sb  Sb55  1  0.00049486  0.33161321  -0.00126098  1
  Sb  Sb56  1  0.00506596  0.83221303  0.83085285  1
  Sb  Sb57  1  0.50356212  0.01000109  0.50035503  1
  Sb  Sb58  1  0.00218373  0.00346550  0.00434783  1
  Sb  Sb59  1  0.33256004  0.83610238  0.50343395  1
  Sb  Sb60  1  0.82903172  0.66374879  0.83025568  1
  Sb  Sb61  1  -0.00060052  0.32895136  0.33485362  1
  Sb  Sb62  1  0.83625386  0.66275549  0.50208874  1
  Sb  Sb63  1  0.83258728  0.16592356  0.66422563  1
  Sb  Sb64  1  0.82590180  0.84725851  -0.00666780  1
  Sb  Sb65  1  0.49416952  0.83368308  0.32975747  1
  Sb  Sb66  1  0.50153870  0.16963351  0.32969817  1
  Sb  Sb67  1  0.16497513  0.16696348  0.32920148  1
  Sb  Sb68  1  0.66804649  0.83426992  0.50174144  1
  Sb  Sb69  1  0.33521140  0.32703360  -0.00382878  1
  Sb  Sb70  1  0.16836933  0.16503060  0.67030289  1
  Sb  Sb71  1  0.00887104  0.66929081  0.33861708  1
  Sb  Sb72  1  0.67280761  0.16900936  0.17098816  1
  Sb  Sb73  1  0.00153015  0.83380638  0.50156205  1
  Sb  Sb74  1  0.16813975  0.33549462  0.49966136  1
  Sb  Sb75  1  0.17138280  0.50218076  0.66384698  1
  Sb  Sb76  1  0.49486647  0.65713952  0.50566652  1
  Sb  Sb77  1  0.66307751  0.17087361  0.83113121  1
  Sb  Sb78  1  0.49713967  0.82635604  0.67354794  1
  Sb  Sb79  1  0.82593072  0.49191993  -0.00326523  1
  Sb  Sb80  1  0.66390907  0.66755982  -0.00487157  1
  Sb  Sb81  1  0.66030944  0.83301540  0.83131697  1
  Sb  Sb82  1  -0.00100296  -0.00239991  0.66289922  1
  Sb  Sb83  1  0.82554089  0.50076009  0.66723688  1
  Sb  Sb84  1  0.17419679  0.66402344  0.83065586  1
  Sb  Sb85  1  0.33721453  0.49796205  0.16654165  1
  Sb  Sb86  1  0.17267904  0.49509989  0.00113429  1
  Sb  Sb87  1  0.49568007  0.66677140  0.16345092  1
  Sb  Sb88  1  0.83722596  0.66475493  0.16933210  1
  Sb  Sb89  1  0.33487329  0.66996941  -0.00352193  1
  Sb  Sb90  1  0.50038965  0.32973082  0.16474340  1
  Sb  Sb91  1  0.83142044  0.49111719  0.33499325  1
  Sb  Sb92  1  0.33355077  0.00138049  0.67013178  1
  Sb  Sb93  1  0.00127421  0.16983325  0.83316747  1
  Sb  Sb94  1  0.16361908  -0.00141989  0.49669822  1
  Sb  Sb95  1  -0.00015806  0.33855748  0.66647890  1
  Sb  Sb96  1  0.33202563  0.83663609  0.16442840  1
  Sb  Sb97  1  0.17282666  0.84056539  -0.00054401  1
  Sb  Sb98  1  0.00348180  0.66363478  -0.00597948  1
  Sb  Sb99  1  0.83776639  0.84596005  0.33761548  1
  Sb  Sb100  1  -0.00051533  0.49351024  0.16958160  1
  Sb  Sb101  1  0.65952728  0.65880324  0.33969789  1
  Sb  Sb102  1  0.32936323  0.16558346  0.16471798  1
  Sb  Sb103  1  0.00284064  0.84120492  0.16880147  1
  Sb  Sb104  1  0.66556638  0.32740214  -0.00056089  1
  Sb  Sb105  1  0.33588152  0.49409368  0.50137054  1
  Sb  Sb106  1  0.66687961  0.83583530  0.16745991  1
  Sb  Sb107  1  0.66848947  0.00275274  0.66792379  1
  Te  Te108  1  0.16330330  0.16632353  0.16334553  1
  Te  Te109  1  0.17117385  0.16716125  0.50105775  1
  Te  Te110  1  0.16649299  0.16796959  0.83734413  1
  Te  Te111  1  0.16643048  0.49508440  0.16890884  1
  Te  Te112  1  0.16435170  0.50299056  0.49601284  1
  Te  Te113  1  0.16552767  0.49559821  0.83463217  1
  Te  Te114  1  0.16690903  0.83966687  0.16990928  1
  Te  Te115  1  0.16678562  0.82875566  0.50078587  1
  Te  Te116  1  0.17206358  0.83464834  0.83183765  1
  Te  Te117  1  0.50011175  0.16197808  0.15931031  1
  Te  Te118  1  0.49453447  0.17388394  0.49906084  1
  Te  Te119  1  0.49829985  0.16385826  0.83673695  1
  Te  Te120  1  0.50385043  0.50008796  0.17597186  1
  Te  Te121  1  0.50249837  0.49445754  0.49468388  1
  Te  Te122  1  0.49725094  0.49586863  0.82849994  1
  Te  Te123  1  0.49991103  0.83780024  0.15952380  1
  Te  Te124  1  0.50122749  0.83332164  0.50055737  1
  Te  Te125  1  0.49507401  0.84351645  0.83630328  1
  Te  Te126  1  0.83445995  0.16631727  0.16853033  1
  Te  Te127  1  0.83369664  0.16832780  0.50011455  1
  Te  Te128  1  0.83409218  0.16961785  0.83285578  1
  Te  Te129  1  0.82931697  0.49588645  0.16576196  1
  Te  Te130  1  0.83376028  0.49494844  0.50044813  1
  Te  Te131  1  0.84043535  0.49562210  0.83352582  1
  Te  Te132  1  0.83439570  0.83891887  0.16582154  1
  Te  Te133  1  0.83482746  0.83709295  0.50557056  1
  Te  Te134  1  0.83397343  0.83336148  0.82889346  1
  Te  Te135  1  0.16867085  0.00352764  -0.00021279  1
  Te  Te136  1  0.17050502  0.00040463  0.33233488  1
  Te  Te137  1  0.16569104  -0.00719022  0.67016064  1
  Te  Te138  1  0.16773565  0.32760135  -0.00010133  1
  Te  Te139  1  0.16870500  0.33617304  0.33162343  1
  Te  Te140  1  0.17126111  0.33394468  0.67386403  1
  Te  Te141  1  0.16820431  0.66804864  0.00969861  1
  Te  Te142  1  0.16969141  0.66645159  0.33443101  1
  Te  Te143  1  0.17058690  0.66851158  0.66656484  1
  Te  Te144  1  0.49706834  0.00518732  -0.00074036  1
  Te  Te145  1  0.49807022  -0.00025118  0.33269368  1
  Te  Te146  1  0.50203617  -0.00288845  0.67056959  1
  Te  Te147  1  0.50002155  0.33607572  -0.00307591  1
  Te  Te148  1  0.50030989  0.33399338  0.32952444  1
  Te  Te149  1  0.49932156  0.33561115  0.66789844  1
  Te  Te150  1  0.50047464  0.65710591  -0.00452143  1
  Te  Te151  1  0.49154649  0.66507555  0.33338503  1
  Te  Te152  1  0.49724504  0.66124091  0.67076994  1
  Te  Te153  1  0.83477768  0.00642627  0.00027029  1
  Te  Te154  1  0.83131441  0.00510557  0.33136725  1
  Te  Te155  1  0.83324681  -0.00441299  0.67330328  1
  Te  Te156  1  0.83298274  0.32701969  0.00348408  1
  Te  Te157  1  0.83197678  0.32815858  0.33380210  1
  Te  Te158  1  0.83124237  0.33368424  0.66618869  1
  Te  Te159  1  0.83367439  0.67037865  0.00117765  1
  Te  Te160  1  0.83278566  0.67196029  0.33344124  1
  Te  Te161  1  0.83529581  0.67198709  0.66598965  1
  Te  Te162  1  -0.00427877  0.16676162  0.00305349  1
  Te  Te163  1  -0.00172492  0.16380001  0.33365424  1
  Te  Te164  1  0.00107063  0.16710526  0.65716233  1
  Te  Te165  1  -0.00048597  0.49993992  -0.00454635  1
  Te  Te166  1  0.00213278  0.50082312  0.33794094  1
  Te  Te167  1  0.00185403  0.50349791  0.66355331  1
  Te  Te168  1  -0.00144293  0.83146628  -0.00017965  1
  Te  Te169  1  0.00808012  0.84097816  0.33486648  1
  Te  Te170  1  0.00307846  0.82718785  0.66690863  1
  Te  Te171  1  0.33309592  0.16236563  -0.00284148  1
  Te  Te172  1  0.33354484  0.16750996  0.33434513  1
  Te  Te173  1  0.33345020  0.17202300  0.66781401  1
  Te  Te174  1  0.33879131  0.50073834  -0.00480447  1
  Te  Te175  1  0.33284587  0.49801851  0.33295368  1
  Te  Te176  1  0.33665932  0.49890966  0.66762506  1
  Te  Te177  1  0.33773226  0.83809008  -0.00688204  1
  Te  Te178  1  0.32914593  0.83943148  0.33441905  1
  Te  Te179  1  0.32998509  0.82947660  0.67062871  1
  Te  Te180  1  0.66784340  0.16121373  -0.00182250  1
  Te  Te181  1  0.66773933  0.16774350  0.33682512  1
  Te  Te182  1  0.66587788  0.17278919  0.65786587  1
  Te  Te183  1  0.66146501  0.50028639  -0.00369049  1
  Te  Te184  1  0.66568830  0.49620105  0.33605277  1
  Te  Te185  1  0.66503422  0.49782128  0.66740071  1
  Te  Te186  1  0.65897641  0.83979152  -0.00058089  1
  Te  Te187  1  0.66714592  0.83631982  0.33371861  1
  Te  Te188  1  0.66946167  0.82860445  0.66672396  1
  Te  Te189  1  0.00150990  0.00552744  0.17080483  1
  Te  Te190  1  -0.00453027  0.00421640  0.49499300  1
  Te  Te191  1  -0.00401159  0.00084860  0.83207635  1
  Te  Te192  1  -0.00026648  0.32826735  0.16722073  1
  Te  Te193  1  0.00056320  0.33346320  0.50081692  1
  Te  Te194  1  -0.00810432  0.33676044  0.83195667  1
  Te  Te195  1  0.00586192  0.66527468  0.16715600  1
  Te  Te196  1  0.00411154  0.66225681  0.50443422  1
  Te  Te197  1  0.00159266  0.66134443  0.82712860  1
  Te  Te198  1  0.33156290  0.00025858  0.16724343  1
  Te  Te199  1  0.33373633  0.00588026  0.49895097  1
  Te  Te200  1  0.33200859  0.00493747  0.83154856  1
  Te  Te201  1  0.32916145  0.33317166  0.17340772  1
  Te  Te202  1  0.33298689  0.33054003  0.49906915  1
  Te  Te203  1  0.33748091  0.33067629  0.83416606  1
  Te  Te204  1  0.32787868  0.66713364  0.17220206  1
  Te  Te205  1  0.32949376  0.66845588  0.50052950  1
  Te  Te206  1  0.33682768  0.66350950  0.83077847  1
  Te  Te207  1  0.66674181  0.00059687  0.16737476  1
  Te  Te208  1  0.67133775  0.00184896  0.49700221  1
  Te  Te209  1  0.67300901  0.00117311  0.83523799  1
  Te  Te210  1  0.66831504  0.33688705  0.16742237  1
  Te  Te211  1  0.66424477  0.33484473  0.49862115  1
  Te  Te212  1  0.66705615  0.33485472  0.83428336  1
  Te  Te213  1  0.66726634  0.66040954  0.16847210  1
  Te  Te214  1  0.66638514  0.66216352  0.50660043  1
  Te  Te215  1  0.66131761  0.66175243  0.82786735  1
