# generated using pymatgen
data_AgSbTe2
_symmetry_space_group_name_H-M   'P 1'
_cell_length_a   18.32150776
_cell_length_b   18.32514774
_cell_length_c   18.32156371
_cell_angle_alpha   90.00306197
_cell_angle_beta   90.00202552
_cell_angle_gamma   89.99797174
_symmetry_Int_Tables_number   1
_chemical_formula_structural   AgSbTe2
_chemical_formula_sum   'Ag54 Sb54 Te108'
_cell_volume   6151.36123328
_cell_formula_units_Z   54
loop_
 _symmetry_equiv_pos_site_id
 _symmetry_equiv_pos_as_xyz
  1  'x, y, z'
loop_
 _atom_site_type_symbol
 _atom_site_label
 _atom_site_symmetry_multiplicity
 _atom_site_fract_x
 _atom_site_fract_y
 _atom_site_fract_z
 _atom_site_occupancy
  Ag  Ag0  1  0.16991040  0.66374471  0.16437369  1
  Ag  Ag1  1  0.82823112  -0.00434439  0.50223521  1
  Ag  Ag2  1  0.48920139  0.66369643  0.82381777  1
  Ag  Ag3  1  0.83944501  -0.00548753  0.82584912  1
  Ag  Ag4  1  0.00507760  0.16138750  0.83249769  1
  Ag  Ag5  1  0.33791311  0.66366927  0.67233129  1
  Ag  Ag6  1  0.33411575  0.66309971  0.33228893  1
  Ag  Ag7  1  0.33487694  0.50197020  0.16576904  1
  Ag  Ag8  1  0.50862561  0.16640578  0.33311572  1
  Ag  Ag9  1  0.16419164  0.83388012  0.33053048  1
  Ag  Ag10  1  0.66526107  0.66879824  0.66549263  1
  Ag  Ag11  1  0.82747748  0.16568875  0.33639835  1
  Ag  Ag12  1  -0.00322011  0.50095658  0.50751831  1
  Ag  Ag13  1  0.17194517  0.66816152  0.83311264  1
  Ag  Ag14  1  0.50150090  0.34346017  0.17041280  1
  Ag  Ag15  1  0.83519611  0.66885998  0.82900096  1
  Ag  Ag16  1  0.66779594  0.50317772  0.16766865  1
  Ag  Ag17  1  0.83742558  0.50550406  0.66219143  1
  Ag  Ag18  1  0.32678056  0.82150803  0.83194828  1
  Ag  Ag19  1  0.66813762  0.16253668  0.17549263  1
  Ag  Ag20  1  -0.00231204  0.49972866  0.16651752  1
  Ag  Ag21  1  0.66948569  0.00163662  0.33829041  1
  Ag  Ag22  1  0.67412035  0.84215604  0.49661113  1
  Ag  Ag23  1  0.83223628  0.83356633  0.33975659  1
  Ag  Ag24  1  0.16534603  0.83947281  0.00281187  1
  Ag  Ag25  1  0.16117090  0.49874546  0.66976042  1
  Ag  Ag26  1  0.16573455  0.16765509  0.67281888  1
  Ag  Ag27  1  0.49900218  0.50509155  0.66865066  1
  Ag  Ag28  1  0.83850703  0.33409409  0.49463264  1
  Ag  Ag29  1  0.00467309  0.50050175  0.82622369  1
  Ag  Ag30  1  0.15899320  0.33175415  0.49968571  1
  Ag  Ag31  1  0.83091819  0.82963265  0.65933104  1
  Ag  Ag32  1  0.16257795  0.00087682  0.50219310  1
  Ag  Ag33  1  0.32306084  0.16424068  0.83156921  1
  Ag  Ag34  1  0.50096663  0.66781173  0.50517925  1
  Ag  Ag35  1  0.16244173  0.00381042  0.83504927  1
  Ag  Ag36  1  0.67017694  0.83340491  0.17356893  1
  Ag  Ag37  1  0.49917845  0.50266053  0.00751440  1
  Ag  Ag38  1  -0.00843463  0.83342036  0.49978849  1
  Ag  Ag39  1  0.50083006  0.65979123  0.16839412  1
  Ag  Ag40  1  0.00395480  0.00034849  -0.00255182  1
  Ag  Ag41  1  0.67028678  -0.00603792  0.65324490  1
  Ag  Ag42  1  0.16515874  -0.00250239  0.15877657  1
  Ag  Ag43  1  0.83346131  0.34456322  0.17561210  1
  Ag  Ag44  1  0.83427576  0.50101986  0.33187633  1
  Ag  Ag45  1  0.32664921  0.50464308  0.83129217  1
  Ag  Ag46  1  0.66973982  0.15490502  0.49274788  1
  Ag  Ag47  1  0.82803461  0.66118144  0.16903524  1
  Ag  Ag48  1  0.00180252  0.33801328  0.66444216  1
  Ag  Ag49  1  0.51567870  -0.00477944  0.49989647  1
  Ag  Ag50  1  0.33127118  0.34047838  0.33100695  1
  Ag  Ag51  1  0.16556436  0.15878893  -0.00845457  1
  Ag  Ag52  1  0.16664286  0.34067515  0.17215887  1
  Ag  Ag53  1  0.67145549  -0.00104355  0.00507471  1
  Sb  Sb54  1  0.50358482  0.49883280  0.33109890  1
  Sb  Sb55  1  0.16993633  0.66630577  0.50155341  1
  Sb  Sb56  1  0.00171327  0.66939998  -0.00004695  1
  Sb  Sb57  1  0.16343459  0.50346553  0.33312994  1
  Sb  Sb58  1  -0.00352681  -0.00108597  0.33297150  1
  Sb  Sb59  1  0.32985384  0.00021872  -0.00096638  1
  Sb  Sb60  1  0.16580062  0.33253043  0.83109791  1
  Sb  Sb61  1  0.50145409  0.33487548  0.49426969  1
  Sb  Sb62  1  0.67171763  0.33604465  0.66331317  1
  Sb  Sb63  1  -0.00130360  0.82950399  0.17087297  1
  Sb  Sb64  1  0.83122281  0.50072092  0.00273604  1
  Sb  Sb65  1  0.49942593  -0.00461101  0.82799693  1
  Sb  Sb66  1  0.49628500  0.34168346  0.83675376  1
  Sb  Sb67  1  0.00235293  0.33153574  -0.00192973  1
  Sb  Sb68  1  0.33504710  -0.00151340  0.33406292  1
  Sb  Sb69  1  0.83395999  -0.00199234  0.17090894  1
  Sb  Sb70  1  0.66617600  0.67034850  0.00104940  1
  Sb  Sb71  1  0.33011455  0.33498841  0.00521002  1
  Sb  Sb72  1  0.66652753  0.83214001  0.83190837  1
  Sb  Sb73  1  0.33422751  0.17230621  0.16529214  1
  Sb  Sb74  1  0.82898141  0.66907966  0.50088025  1
  Sb  Sb75  1  0.33475446  -0.00543981  0.66809648  1
  Sb  Sb76  1  0.32745809  0.33955226  0.66230388  1
  Sb  Sb77  1  -0.00163333  0.66098214  0.66733623  1
  Sb  Sb78  1  0.83661741  0.33491065  0.83062038  1
  Sb  Sb79  1  0.33329150  0.83155163  0.50298516  1
  Sb  Sb80  1  0.49692475  0.16982073  0.00444960  1
  Sb  Sb81  1  0.49703338  0.17079622  0.66325273  1
  Sb  Sb82  1  0.66938674  0.16056216  0.83288088  1
  Sb  Sb83  1  0.50629112  0.82532135  0.66566648  1
  Sb  Sb84  1  0.50122225  -0.00165785  0.17047632  1
  Sb  Sb85  1  0.49765523  0.82950454  -0.00003947  1
  Sb  Sb86  1  0.33201607  0.82554823  0.16462602  1
  Sb  Sb87  1  -0.00233967  0.17053822  0.16291953  1
  Sb  Sb88  1  -0.00309287  0.00326915  0.66859385  1
  Sb  Sb89  1  0.66783883  0.50389392  0.83483015  1
  Sb  Sb90  1  -0.00334211  0.16797107  0.50449650  1
  Sb  Sb91  1  0.16139469  0.83154766  0.66566837  1
  Sb  Sb92  1  0.33305237  0.66533163  -0.00308720  1
  Sb  Sb93  1  0.16538975  0.16389853  0.33423048  1
  Sb  Sb94  1  0.66463919  0.67176546  0.33452194  1
  Sb  Sb95  1  0.16919411  0.50053354  -0.00104657  1
  Sb  Sb96  1  0.83640077  0.16342789  0.00361689  1
  Sb  Sb97  1  0.67179081  0.50154706  0.49614432  1
  Sb  Sb98  1  0.00136230  0.66612567  0.33267192  1
  Sb  Sb99  1  0.83666529  0.83532537  0.00109685  1
  Sb  Sb100  1  0.32951532  0.50148983  0.50014117  1
  Sb  Sb101  1  0.66670383  0.33080088  0.00638147  1
  Sb  Sb102  1  0.00043564  0.33440356  0.33726941  1
  Sb  Sb103  1  0.33422116  0.16710133  0.50244043  1
  Sb  Sb104  1  0.00296528  0.83260131  0.82935543  1
  Sb  Sb105  1  0.50163249  0.83468487  0.33423277  1
  Sb  Sb106  1  0.66807302  0.32704119  0.33150733  1
  Sb  Sb107  1  0.83600449  0.16611921  0.66183716  1
  Te  Te108  1  0.16654688  0.16384551  0.16680880  1
  Te  Te109  1  0.16536645  0.16750780  0.50266800  1
  Te  Te110  1  0.16541979  0.16849000  0.83217927  1
  Te  Te111  1  0.16727693  0.50215942  0.16620075  1
  Te  Te112  1  0.16112234  0.49743560  0.50177743  1
  Te  Te113  1  0.16642573  0.49931352  0.83338857  1
  Te  Te114  1  0.16614605  0.83180724  0.16810732  1
  Te  Te115  1  0.16490514  0.83485691  0.49742368  1
  Te  Te116  1  0.16707356  0.83072422  0.83250508  1
  Te  Te117  1  0.50328940  0.16706879  0.17011261  1
  Te  Te118  1  0.50409348  0.16561044  0.49656519  1
  Te  Te119  1  0.49580989  0.16798828  0.83391394  1
  Te  Te120  1  0.49839730  0.50096449  0.16987202  1
  Te  Te121  1  0.50211889  0.50356486  0.50341928  1
  Te  Te122  1  0.50031680  0.50528763  0.83088081  1
  Te  Te123  1  0.50422523  0.82839391  0.16565440  1
  Te  Te124  1  0.50346076  0.83461288  0.49999570  1
  Te  Te125  1  0.49268580  0.82586746  0.83412630  1
  Te  Te126  1  0.82937339  0.16645888  0.17141882  1
  Te  Te127  1  0.83126271  0.16516597  0.49751096  1
  Te  Te128  1  0.83885523  0.16407769  0.83316505  1
  Te  Te129  1  0.83415781  0.50176653  0.16534132  1
  Te  Te130  1  0.83643318  0.50074625  0.49958068  1
  Te  Te131  1  0.83601529  0.50255913  0.83158192  1
  Te  Te132  1  0.83107337  0.82982857  0.16969180  1
  Te  Te133  1  0.83307672  0.83293339  0.49938024  1
  Te  Te134  1  0.83471219  0.83306357  0.83105180  1
  Te  Te135  1  0.16700417  -0.00016430  -0.00258587  1
  Te  Te136  1  0.16642750  -0.00385585  0.33596023  1
  Te  Te137  1  0.16681326  0.00098568  0.66889083  1
  Te  Te138  1  0.16578770  0.32785178  0.01106541  1
  Te  Te139  1  0.16974853  0.33219546  0.33335809  1
  Te  Te140  1  0.16397177  0.33589016  0.66300300  1
  Te  Te141  1  0.16619155  0.67069174  -0.00002723  1
  Te  Te142  1  0.17092248  0.67067806  0.33153209  1
  Te  Te143  1  0.17043067  0.66353955  0.66969034  1
  Te  Te144  1  0.50530770  0.00009485  -0.00101545  1
  Te  Te145  1  0.50258686  0.00387615  0.33867023  1
  Te  Te146  1  0.50567798  0.00155956  0.66020292  1
  Te  Te147  1  0.49961331  0.33898472  0.00838108  1
  Te  Te148  1  0.49463910  0.32961494  0.33025307  1
  Te  Te149  1  0.50070073  0.34175706  0.66512173  1
  Te  Te150  1  0.50113125  0.66218685  0.00508632  1
  Te  Te151  1  0.49611789  0.66668355  0.33069971  1
  Te  Te152  1  0.50117328  0.66413294  0.66663062  1
  Te  Te153  1  0.83462532  -0.00033351  -0.00478077  1
  Te  Te154  1  0.83074573  -0.00334974  0.33663207  1
  Te  Te155  1  0.83068238  0.00007847  0.66589607  1
  Te  Te156  1  0.83415319  0.33207600  0.00992497  1
  Te  Te157  1  0.83424920  0.33599073  0.33399262  1
  Te  Te158  1  0.83821824  0.33853384  0.66263103  1
  Te  Te159  1  0.83379025  0.66845459  -0.00289313  1
  Te  Te160  1  0.83203363  0.66767808  0.32942247  1
  Te  Te161  1  0.83128202  0.66608078  0.66703574  1
  Te  Te162  1  0.00486538  0.16221559  -0.00562938  1
  Te  Te163  1  -0.00911484  0.16648754  0.33233882  1
  Te  Te164  1  0.00487123  0.17184640  0.67192368  1
  Te  Te165  1  0.00002888  0.50001836  0.00049915  1
  Te  Te166  1  -0.00548286  0.50046159  0.33059363  1
  Te  Te167  1  0.00000423  0.49942673  0.66639690  1
  Te  Te168  1  0.00598822  0.84004793  0.00064632  1
  Te  Te169  1  -0.00083509  0.83265104  0.33914714  1
  Te  Te170  1  -0.00717592  0.83361781  0.65960647  1
  Te  Te171  1  0.32842095  0.16772319  -0.00599765  1
  Te  Te172  1  0.33610587  0.16786679  0.33378780  1
  Te  Te173  1  0.32870534  0.16780985  0.67091682  1
  Te  Te174  1  0.33780885  0.49907555  -0.00038604  1
  Te  Te175  1  0.33266942  0.50161240  0.33035733  1
  Te  Te176  1  0.33164416  0.50386641  0.66709302  1
  Te  Te177  1  0.32669903  0.83414383  -0.00615922  1
  Te  Te178  1  0.32875692  0.82880634  0.33339190  1
  Te  Te179  1  0.33327833  0.82638112  0.67117690  1
  Te  Te180  1  0.66537805  0.16051334  0.00336733  1
  Te  Te181  1  0.66732939  0.16417001  0.33227627  1
  Te  Te182  1  0.66569887  0.16328804  0.66379923  1
  Te  Te183  1  0.66086157  0.49962534  0.00638497  1
  Te  Te184  1  0.67323290  0.50157309  0.32804679  1
  Te  Te185  1  0.67013840  0.50396173  0.66678089  1
  Te  Te186  1  0.66644894  0.83888033  0.00460834  1
  Te  Te187  1  0.66806664  0.83752944  0.33408900  1
  Te  Te188  1  0.67117401  0.83313629  0.66540460  1
  Te  Te189  1  0.00479521  0.00033420  0.16160665  1
  Te  Te190  1  0.00266074  -0.00194947  0.50077990  1
  Te  Te191  1  0.00103721  -0.00069118  0.83439644  1
  Te  Te192  1  0.00030622  0.33807897  0.16606561  1
  Te  Te193  1  -0.00080015  0.33481480  0.50298205  1
  Te  Te194  1  -0.00067211  0.33928582  0.82892858  1
  Te  Te195  1  0.00192477  0.66101674  0.16606177  1
  Te  Te196  1  0.00121388  0.66316850  0.49956532  1
  Te  Te197  1  0.00001801  0.66261517  0.83402456  1
  Te  Te198  1  0.32691133  -0.00129703  0.16725127  1
  Te  Te199  1  0.32258636  -0.00043240  0.50126015  1
  Te  Te200  1  0.33026237  0.00408058  0.83200147  1
  Te  Te201  1  0.33169507  0.33764413  0.17092037  1
  Te  Te202  1  0.32907314  0.33349677  0.49243275  1
  Te  Te203  1  0.33323925  0.33846262  0.83197398  1
  Te  Te204  1  0.33208786  0.66298429  0.16813726  1
  Te  Te205  1  0.33967143  0.66672301  0.49710161  1
  Te  Te206  1  0.33145391  0.66250097  0.83260513  1
  Te  Te207  1  0.66655136  -0.00066305  0.16687385  1
  Te  Te208  1  0.67139879  -0.00116980  0.49739896  1
  Te  Te209  1  0.66889979  -0.00181192  0.83741798  1
  Te  Te210  1  0.66718240  0.33530652  0.16754450  1
  Te  Te211  1  0.67323264  0.33008703  0.49928736  1
  Te  Te212  1  0.66661906  0.33051083  0.83450740  1
  Te  Te213  1  0.66752987  0.66699793  0.16736706  1
  Te  Te214  1  0.66077128  0.66878605  0.50321028  1
  Te  Te215  1  0.67207112  0.66774664  0.82954586  1
