# generated using pymatgen
data_AgSbTe2
_symmetry_space_group_name_H-M   'P 1'
_cell_length_a   18.32237590
_cell_length_b   18.32260040
_cell_length_c   18.31631277
_cell_angle_alpha   90.00064710
_cell_angle_beta   89.99941916
_cell_angle_gamma   89.99954134
_symmetry_Int_Tables_number   1
_chemical_formula_structural   AgSbTe2
_chemical_formula_sum   'Ag54 Sb54 Te108'
_cell_volume   6149.03478481
_cell_formula_units_Z   54
loop_
 _symmetry_equiv_pos_site_id
 _symmetry_equiv_pos_as_xyz
  1  'x, y, z'
loop_
 _atom_site_type_symbol
 _atom_site_label
 _atom_site_symmetry_multiplicity
 _atom_site_fract_x
 _atom_site_fract_y
 _atom_site_fract_z
 _atom_site_occupancy
  Ag  Ag0  1  0.34487915  0.33883677  -0.00348418  1
  Ag  Ag1  1  0.66387995  0.66834246  0.33448030  1
  Ag  Ag2  1  -0.00085624  0.16245412  0.83451628  1
  Ag  Ag3  1  0.16035979  0.83789953  0.33062843  1
  Ag  Ag4  1  -0.00419921  0.33248192  -0.00179779  1
  Ag  Ag5  1  0.66093755  0.33374028  -0.00376777  1
  Ag  Ag6  1  0.33825231  0.16955526  0.82914839  1
  Ag  Ag7  1  0.65608152  0.50125630  0.83506675  1
  Ag  Ag8  1  0.50391228  0.17235407  0.66712002  1
  Ag  Ag9  1  0.33807586  0.49552781  0.51073313  1
  Ag  Ag10  1  0.83462917  0.83501459  0.33278311  1
  Ag  Ag11  1  0.33753097  0.65737014  0.67460218  1
  Ag  Ag12  1  0.00150751  0.49580042  0.50302743  1
  Ag  Ag13  1  0.49834907  0.49500184  -0.00796683  1
  Ag  Ag14  1  0.66328258  0.32838574  0.34431959  1
  Ag  Ag15  1  0.34000007  0.82826503  0.83126915  1
  Ag  Ag16  1  0.66720576  0.00073724  0.34117769  1
  Ag  Ag17  1  0.66423404  0.17090619  0.50299726  1
  Ag  Ag18  1  0.50178377  0.16904390  0.34468867  1
  Ag  Ag19  1  0.83688155  -0.00434131  0.16045959  1
  Ag  Ag20  1  0.16732115  0.67020536  0.16605457  1
  Ag  Ag21  1  0.33700897  0.50290268  0.15264864  1
  Ag  Ag22  1  -0.00184495  0.83947054  0.84008223  1
  Ag  Ag23  1  0.82239460  0.16622624  0.66969234  1
  Ag  Ag24  1  0.33898930  0.50182012  0.83233933  1
  Ag  Ag25  1  -0.00037166  0.83294129  0.16410262  1
  Ag  Ag26  1  0.49997851  0.65834040  0.50477244  1
  Ag  Ag27  1  0.66205843  0.00743717  0.66678696  1
  Ag  Ag28  1  0.33848868  0.65738753  -0.00548550  1
  Ag  Ag29  1  0.66268515  0.83506192  0.82881490  1
  Ag  Ag30  1  0.82841549  0.49315818  -0.00150138  1
  Ag  Ag31  1  0.17122729  0.16377891  0.33544597  1
  Ag  Ag32  1  0.82864295  0.00248602  0.83739141  1
  Ag  Ag33  1  0.49881784  0.65989865  0.16276438  1
  Ag  Ag34  1  0.34725757  0.17409758  0.50855282  1
  Ag  Ag35  1  0.18288268  0.49920009  0.66775427  1
  Ag  Ag36  1  0.17041773  0.33298826  0.83418991  1
  Ag  Ag37  1  -0.00363702  0.00035382  -0.00140159  1
  Ag  Ag38  1  0.82309399  0.33022423  0.49957320  1
  Ag  Ag39  1  0.16099321  -0.00631825  0.16843700  1
  Ag  Ag40  1  0.49897937  0.49612150  0.67483223  1
  Ag  Ag41  1  0.50335307  0.33198981  0.49981366  1
  Ag  Ag42  1  0.49661049  0.65940343  0.83345346  1
  Ag  Ag43  1  0.34132217  0.00517432  0.67198282  1
  Ag  Ag44  1  0.66316969  0.32660811  0.66562572  1
  Ag  Ag45  1  0.00083758  0.66681546  0.00108657  1
  Ag  Ag46  1  0.66863956  0.83837543  0.50028815  1
  Ag  Ag47  1  -0.00551466  0.16858924  0.50554500  1
  Ag  Ag48  1  0.83168341  0.17035696  -0.00646448  1
  Ag  Ag49  1  0.50432270  0.00038423  0.83256117  1
  Ag  Ag50  1  0.50059409  0.33788428  0.15759134  1
  Ag  Ag51  1  -0.00680910  0.83405183  0.49671685  1
  Ag  Ag52  1  0.83377892  0.67173708  0.16423282  1
  Ag  Ag53  1  0.50317516  0.17680118  -0.00877950  1
  Sb  Sb54  1  0.82924664  0.67104157  0.83825521  1
  Sb  Sb55  1  0.33773531  0.00243885  0.33748994  1
  Sb  Sb56  1  0.50031438  0.83469702  0.66888366  1
  Sb  Sb57  1  0.83131993  0.83939691  0.66465937  1
  Sb  Sb58  1  -0.00494725  -0.00145346  0.32961149  1
  Sb  Sb59  1  0.50388172  0.83663381  0.33507981  1
  Sb  Sb60  1  0.49774255  0.33403225  0.83453251  1
  Sb  Sb61  1  0.50305645  0.00517981  0.50773000  1
  Sb  Sb62  1  0.66537146  0.16708546  0.17071479  1
  Sb  Sb63  1  0.32825124  0.82709542  0.16026028  1
  Sb  Sb64  1  0.82744185  0.49323248  0.67077781  1
  Sb  Sb65  1  -0.00005351  0.16169757  0.16304444  1
  Sb  Sb66  1  0.17056877  0.66616235  0.49565618  1
  Sb  Sb67  1  0.83390056  0.32657193  0.83384550  1
  Sb  Sb68  1  0.33640774  0.83235156  0.50482334  1
  Sb  Sb69  1  0.83467189  0.83571052  0.00297204  1
  Sb  Sb70  1  0.17438766  0.66447892  0.83815321  1
  Sb  Sb71  1  0.33480386  0.16972502  0.16325649  1
  Sb  Sb72  1  0.16623771  0.00146486  0.49581137  1
  Sb  Sb73  1  -0.00115348  0.00189112  0.67129905  1
  Sb  Sb74  1  0.66101980  0.49997300  0.16124434  1
  Sb  Sb75  1  0.34004532  0.33201866  0.33101022  1
  Sb  Sb76  1  0.34124661  0.33457215  0.67290062  1
  Sb  Sb77  1  -0.00427550  0.33172497  0.66903590  1
  Sb  Sb78  1  0.82938733  0.16199825  0.33455229  1
  Sb  Sb79  1  0.16382392  0.83245478  0.00301018  1
  Sb  Sb80  1  0.17029397  0.33285410  0.50485949  1
  Sb  Sb81  1  0.83104037  0.50324687  0.32917862  1
  Sb  Sb82  1  -0.00300069  0.67003452  0.32953273  1
  Sb  Sb83  1  0.33926202  0.66688489  0.33142498  1
  Sb  Sb84  1  0.83036331  0.00508311  0.50178967  1
  Sb  Sb85  1  0.17291854  0.50006313  -0.00503170  1
  Sb  Sb86  1  -0.00455855  0.33058573  0.33142646  1
  Sb  Sb87  1  0.66476161  0.66180959  0.00119679  1
  Sb  Sb88  1  0.65937002  0.66668135  0.66441914  1
  Sb  Sb89  1  0.17136259  0.33461909  0.16234239  1
  Sb  Sb90  1  0.00415483  0.50555126  0.16548663  1
  Sb  Sb91  1  0.17109890  0.17042987  0.66438177  1
  Sb  Sb92  1  0.66267392  0.49544607  0.50529588  1
  Sb  Sb93  1  0.67069995  0.00697278  -0.00418949  1
  Sb  Sb94  1  0.16656595  0.00267816  0.83652995  1
  Sb  Sb95  1  0.66378979  0.16695654  0.82738770  1
  Sb  Sb96  1  0.16822486  0.83118500  0.66403959  1
  Sb  Sb97  1  0.00121374  0.49893380  0.83298714  1
  Sb  Sb98  1  0.16822580  0.49925893  0.33642066  1
  Sb  Sb99  1  0.67163064  0.83159406  0.16789062  1
  Sb  Sb100  1  0.50072726  0.49491063  0.33306342  1
  Sb  Sb101  1  0.50169228  0.00149966  0.16150524  1
  Sb  Sb102  1  0.33155483  0.00157866  -0.00579219  1
  Sb  Sb103  1  0.16609894  0.16757522  0.00084699  1
  Sb  Sb104  1  0.00533342  0.66623935  0.67092027  1
  Sb  Sb105  1  0.82735405  0.33287512  0.16530560  1
  Sb  Sb106  1  0.82892689  0.66350191  0.49628286  1
  Sb  Sb107  1  0.50023832  0.82888453  -0.00339615  1
  Te  Te108  1  0.16761955  0.16514242  0.17377322  1
  Te  Te109  1  0.16178420  0.16715578  0.49653683  1
  Te  Te110  1  0.16444228  0.17001952  0.83237502  1
  Te  Te111  1  0.17371219  0.50421684  0.16828427  1
  Te  Te112  1  0.16830687  0.49992824  0.50458255  1
  Te  Te113  1  0.16866607  0.49697613  0.82797261  1
  Te  Te114  1  0.16245955  0.83241305  0.16967674  1
  Te  Te115  1  0.16313498  0.83345587  0.49390888  1
  Te  Te116  1  0.16134674  0.83353455  0.83193156  1
  Te  Te117  1  0.49837594  0.16974536  0.16283905  1
  Te  Te118  1  0.50297278  0.16674357  0.50334165  1
  Te  Te119  1  0.49837416  0.16546991  0.83133809  1
  Te  Te120  1  0.49607715  0.49975824  0.16726790  1
  Te  Te121  1  0.49852070  0.49900580  0.49950588  1
  Te  Te122  1  0.49897679  0.49950468  0.83377964  1
  Te  Te123  1  0.49882684  0.82831443  0.16555302  1
  Te  Te124  1  0.50552616  0.82726455  0.49978833  1
  Te  Te125  1  0.50000115  0.83612229  0.83365163  1
  Te  Te126  1  0.83368909  0.16269136  0.16157221  1
  Te  Te127  1  0.83184339  0.16955908  0.50137891  1
  Te  Te128  1  0.83510309  0.16342561  0.83307529  1
  Te  Te129  1  0.83458492  0.50333851  0.16043645  1
  Te  Te130  1  0.83551700  0.49460317  0.50082628  1
  Te  Te131  1  0.83291215  0.50168542  0.83908778  1
  Te  Te132  1  0.83711707  0.83317522  0.16928775  1
  Te  Te133  1  0.83111163  0.83272300  0.49652053  1
  Te  Te134  1  0.83530830  0.83886859  0.83238265  1
  Te  Te135  1  0.16044547  0.00014452  0.00758362  1
  Te  Te136  1  0.16779938  0.00080298  0.32866195  1
  Te  Te137  1  0.17397229  0.00012634  0.66688330  1
  Te  Te138  1  0.16065847  0.33377979  -0.00408387  1
  Te  Te139  1  0.16576228  0.32765997  0.33186039  1
  Te  Te140  1  0.16415968  0.33823672  0.67233102  1
  Te  Te141  1  0.16530327  0.66585895  0.00577738  1
  Te  Te142  1  0.16697187  0.66903678  0.32700862  1
  Te  Te143  1  0.17392986  0.66126344  0.66556970  1
  Te  Te144  1  0.50021367  0.00606003  -0.00577381  1
  Te  Te145  1  0.50614174  0.00575232  0.32971180  1
  Te  Te146  1  0.50083424  0.00243224  0.67200923  1
  Te  Te147  1  0.50085087  0.33394817  -0.00047984  1
  Te  Te148  1  0.50457621  0.32851647  0.33650096  1
  Te  Te149  1  0.50424213  0.33342017  0.66249817  1
  Te  Te150  1  0.49809631  0.66239601  -0.00080207  1
  Te  Te151  1  0.50458280  0.66878454  0.33062527  1
  Te  Te152  1  0.49656649  0.66342757  0.66881219  1
  Te  Te153  1  0.83627726  0.00321879  -0.00086635  1
  Te  Te154  1  0.82784713  -0.00437326  0.33009093  1
  Te  Te155  1  0.82962283  0.00626112  0.67168061  1
  Te  Te156  1  0.83412604  0.33164226  0.00069521  1
  Te  Te157  1  0.82626614  0.33335699  0.33577730  1
  Te  Te158  1  0.82711359  0.32721120  0.66244414  1
  Te  Te159  1  0.83416279  0.66407997  0.00415932  1
  Te  Te160  1  0.82786521  0.67091684  0.32834513  1
  Te  Te161  1  0.83413289  0.66443186  0.66730301  1
  Te  Te162  1  -0.00133279  0.16690961  -0.00256624  1
  Te  Te163  1  0.00098582  0.16567892  0.33808191  1
  Te  Te164  1  0.00016287  0.16590960  0.66740736  1
  Te  Te165  1  -0.00141094  0.50090329  0.00034245  1
  Te  Te166  1  -0.00007308  0.49979640  0.34284477  1
  Te  Te167  1  -0.00317330  0.50013736  0.66178239  1
  Te  Te168  1  -0.00106386  0.83214608  0.00011820  1
  Te  Te169  1  -0.00090743  0.83396121  0.33472194  1
  Te  Te170  1  -0.00008884  0.83340429  0.66410306  1
  Te  Te171  1  0.33586045  0.17003851  -0.00484280  1
  Te  Te172  1  0.33606325  0.16585598  0.33773863  1
  Te  Te173  1  0.33624423  0.16711340  0.66752325  1
  Te  Te174  1  0.33486708  0.49917379  -0.00443630  1
  Te  Te175  1  0.33256578  0.49987010  0.34143688  1
  Te  Te176  1  0.33862389  0.49834041  0.66872534  1
  Te  Te177  1  0.33233556  0.82977541  -0.00890879  1
  Te  Te178  1  0.32766564  0.83543724  0.33440693  1
  Te  Te179  1  0.33224601  0.83417117  0.67225244  1
  Te  Te180  1  0.66639831  0.17240311  0.00068595  1
  Te  Te181  1  0.66402000  0.16713732  0.33752743  1
  Te  Te182  1  0.66518662  0.16640228  0.66493629  1
  Te  Te183  1  0.66500000  0.49617025  -0.00422448  1
  Te  Te184  1  0.66761251  0.50107205  0.33292004  1
  Te  Te185  1  0.66074157  0.49727946  0.67328778  1
  Te  Te186  1  0.66720637  0.83481536  -0.00802777  1
  Te  Te187  1  0.66898443  0.83473164  0.33474262  1
  Te  Te188  1  0.66763780  0.83672529  0.66680164  1
  Te  Te189  1  -0.00113675  -0.00412878  0.16361665  1
  Te  Te190  1  -0.00201419  -0.00050659  0.50130211  1
  Te  Te191  1  -0.00027619  0.00110019  0.83663311  1
  Te  Te192  1  0.00049711  0.33503516  0.16107771  1
  Te  Te193  1  0.00062528  0.33129779  0.49936099  1
  Te  Te194  1  0.00202923  0.33057636  0.83705873  1
  Te  Te195  1  -0.00121165  0.67031055  0.16324686  1
  Te  Te196  1  -0.00113454  0.66941074  0.50102443  1
  Te  Te197  1  -0.00007102  0.67095954  0.83907702  1
  Te  Te198  1  0.32977850  -0.00210560  0.16492591  1
  Te  Te199  1  0.33481282  0.00304063  0.50730634  1
  Te  Te200  1  0.33378791  0.00253934  0.83113377  1
  Te  Te201  1  0.33847092  0.33805017  0.16088604  1
  Te  Te202  1  0.33703972  0.33246394  0.49817465  1
  Te  Te203  1  0.33066691  0.33144463  0.83725440  1
  Te  Te204  1  0.33616871  0.66337533  0.16431076  1
  Te  Te205  1  0.33887573  0.66479433  0.50175310  1
  Te  Te206  1  0.33555292  0.66549051  0.83405125  1
  Te  Te207  1  0.67080531  -0.00143180  0.16814541  1
  Te  Te208  1  0.66666581  -0.00187701  0.50165826  1
  Te  Te209  1  0.66642325  -0.00085135  0.83066025  1
  Te  Te210  1  0.66070733  0.33393794  0.16264519  1
  Te  Te211  1  0.66484309  0.33307616  0.50206482  1
  Te  Te212  1  0.66942732  0.33714628  0.83427702  1
  Te  Te213  1  0.66595654  0.66639084  0.17026004  1
  Te  Te214  1  0.66213243  0.66804894  0.49692103  1
  Te  Te215  1  0.66124749  0.66912264  0.83257835  1
