# generated using pymatgen
data_AgSbTe2
_symmetry_space_group_name_H-M   'P 1'
_cell_length_a   18.34816791
_cell_length_b   18.35417207
_cell_length_c   18.34233956
_cell_angle_alpha   89.99860179
_cell_angle_beta   90.00057454
_cell_angle_gamma   90.00276393
_symmetry_Int_Tables_number   1
_chemical_formula_structural   AgSbTe2
_chemical_formula_sum   'Ag54 Sb54 Te108'
_cell_volume   6177.06587735
_cell_formula_units_Z   54
loop_
 _symmetry_equiv_pos_site_id
 _symmetry_equiv_pos_as_xyz
  1  'x, y, z'
loop_
 _atom_site_type_symbol
 _atom_site_label
 _atom_site_symmetry_multiplicity
 _atom_site_fract_x
 _atom_site_fract_y
 _atom_site_fract_z
 _atom_site_occupancy
  Ag  Ag0  1  0.82584546  0.65852558  0.83643345  1
  Ag  Ag1  1  0.17455574  0.83187524  0.33339118  1
  Ag  Ag2  1  0.50451368  0.82955335  -0.00237272  1
  Ag  Ag3  1  0.17706312  0.33668719  0.83592456  1
  Ag  Ag4  1  0.66093488  0.51412404  0.81954765  1
  Ag  Ag5  1  0.82947295  0.33637965  0.83502942  1
  Ag  Ag6  1  0.34716015  0.66662260  0.33383407  1
  Ag  Ag7  1  0.66332080  0.50788786  0.50485164  1
  Ag  Ag8  1  0.34188367  0.00116380  0.67659500  1
  Ag  Ag9  1  0.66650769  0.65906975  0.68015145  1
  Ag  Ag10  1  0.50541276  0.16540427  0.32961377  1
  Ag  Ag11  1  0.66802774  0.82675706  0.16860613  1
  Ag  Ag12  1  0.33799699  0.00851676  -0.00980440  1
  Ag  Ag13  1  0.82411052  0.50188177  0.33630619  1
  Ag  Ag14  1  0.83139043  0.00860138  0.83075800  1
  Ag  Ag15  1  -0.01295760  0.83892045  0.49466344  1
  Ag  Ag16  1  0.17475544  0.16730618  -0.00443823  1
  Ag  Ag17  1  0.50398430  0.50070658  -0.00910427  1
  Ag  Ag18  1  0.66596090  0.66870153  -0.00549978  1
  Ag  Ag19  1  0.83047194  0.16882468  0.67607256  1
  Ag  Ag20  1  0.34044622  -0.00146188  0.33447742  1
  Ag  Ag21  1  0.50104068  0.16770094  -0.00288255  1
  Ag  Ag22  1  0.34575201  0.49950178  0.50390339  1
  Ag  Ag23  1  0.34696072  0.49832019  0.83018992  1
  Ag  Ag24  1  0.50991853  0.49972578  0.67633605  1
  Ag  Ag25  1  0.83030944  0.16425443  -0.00667812  1
  Ag  Ag26  1  0.66823929  0.82801916  0.49749723  1
  Ag  Ag27  1  0.33873232  0.32643182  -0.00545116  1
  Ag  Ag28  1  0.50046746  0.34059235  0.83674507  1
  Ag  Ag29  1  0.33226437  0.17026371  0.83816860  1
  Ag  Ag30  1  0.83130049  0.33498610  0.16028710  1
  Ag  Ag31  1  0.66821717  0.34592945  0.67207919  1
  Ag  Ag32  1  0.66773267  0.50775456  0.16969731  1
  Ag  Ag33  1  0.66725853  -0.00943080  0.33844859  1
  Ag  Ag34  1  -0.00682480  0.16637624  0.16770255  1
  Ag  Ag35  1  0.82420232  0.49441586  0.67478241  1
  Ag  Ag36  1  -0.01206238  0.67414736  0.33365583  1
  Ag  Ag37  1  0.17205040  0.65912493  0.83445155  1
  Ag  Ag38  1  0.33757055  0.33791370  0.32886197  1
  Ag  Ag39  1  -0.01402381  0.49658938  0.83323833  1
  Ag  Ag40  1  0.66594174  -0.00331189  0.66508382  1
  Ag  Ag41  1  0.50998110  0.65491633  0.83671091  1
  Ag  Ag42  1  0.50523914  0.50528809  0.33489416  1
  Ag  Ag43  1  -0.00989149  0.17130505  0.83501164  1
  Ag  Ag44  1  0.82730701  0.66237562  0.16698370  1
  Ag  Ag45  1  -0.01260513  -0.00241827  0.33642705  1
  Ag  Ag46  1  0.50393803  0.82969510  0.32846894  1
  Ag  Ag47  1  0.83139750  0.00163052  0.49877656  1
  Ag  Ag48  1  0.34415169  0.83231996  0.83651507  1
  Ag  Ag49  1  0.66370783  0.82733278  0.83738783  1
  Ag  Ag50  1  0.83120876  0.16701048  0.33270541  1
  Ag  Ag51  1  0.82373106  0.83713482  -0.00469846  1
  Ag  Ag52  1  -0.00570919  0.16094446  0.49169491  1
  Ag  Ag53  1  0.66626099  0.66661000  0.33193383  1
  Sb  Sb54  1  0.50534671  0.17012322  0.66808623  1
  Sb  Sb55  1  0.67084577  0.16545051  0.49878173  1
  Sb  Sb56  1  0.16463672  0.16254122  0.32895755  1
  Sb  Sb57  1  0.66781996  0.16704961  0.83435270  1
  Sb  Sb58  1  0.34068531  0.83234819  0.16610278  1
  Sb  Sb59  1  0.50071134  0.33670479  0.50159103  1
  Sb  Sb60  1  -0.00839127  0.66614258  0.66596520  1
  Sb  Sb61  1  0.50268206  0.00040511  0.83487568  1
  Sb  Sb62  1  0.33781642  0.83113922  0.49856794  1
  Sb  Sb63  1  0.82860109  0.66995040  0.49924236  1
  Sb  Sb64  1  0.16669616  0.66723354  0.50104591  1
  Sb  Sb65  1  -0.00027037  0.33190356  -0.00398310  1
  Sb  Sb66  1  0.16184547  -0.00078502  0.49753076  1
  Sb  Sb67  1  0.17176747  0.83610772  0.00091829  1
  Sb  Sb68  1  -0.01084239  0.49763809  0.16336253  1
  Sb  Sb69  1  0.17123877  0.50492655  0.33356635  1
  Sb  Sb70  1  0.50204152  -0.00019707  0.16744733  1
  Sb  Sb71  1  -0.01023542  0.66626205  0.00072426  1
  Sb  Sb72  1  0.33161889  0.16764316  0.49989573  1
  Sb  Sb73  1  0.33949896  0.66756653  0.66908455  1
  Sb  Sb74  1  0.51030392  0.66610871  0.16402303  1
  Sb  Sb75  1  0.67029609  0.16724363  0.16748082  1
  Sb  Sb76  1  0.16224280  0.16619087  0.67339803  1
  Sb  Sb77  1  -0.00547158  0.00145629  0.66419534  1
  Sb  Sb78  1  0.16963235  0.33361042  0.50358286  1
  Sb  Sb79  1  0.82849016  0.83410611  0.67168171  1
  Sb  Sb80  1  -0.00116057  0.33212252  0.33286218  1
  Sb  Sb81  1  0.50425226  0.82932149  0.66936255  1
  Sb  Sb82  1  0.16632665  0.00050234  0.16800867  1
  Sb  Sb83  1  0.50565410  -0.00084231  0.49657554  1
  Sb  Sb84  1  -0.00729215  0.50066862  0.50149078  1
  Sb  Sb85  1  0.17009412  0.50071055  0.67128737  1
  Sb  Sb86  1  0.33229369  0.16608718  0.16196946  1
  Sb  Sb87  1  0.17585987  0.49610202  -0.00504487  1
  Sb  Sb88  1  0.16923036  0.83396057  0.66484876  1
  Sb  Sb89  1  0.16366891  0.33058759  0.16244201  1
  Sb  Sb90  1  0.16740818  0.00169177  0.83413132  1
  Sb  Sb91  1  0.50447485  0.33465754  0.16414867  1
  Sb  Sb92  1  -0.00560930  0.83278533  0.83092966  1
  Sb  Sb93  1  -0.00740902  0.83597466  0.17158185  1
  Sb  Sb94  1  0.16010815  0.66742818  0.16642848  1
  Sb  Sb95  1  0.83076660  0.32918531  0.50243013  1
  Sb  Sb96  1  0.00018684  0.00472339  0.00222455  1
  Sb  Sb97  1  0.50333908  0.66443098  0.49924485  1
  Sb  Sb98  1  0.66469154  0.33813618  0.33553681  1
  Sb  Sb99  1  0.33922030  0.33126024  0.67337611  1
  Sb  Sb100  1  0.34145591  0.50066382  0.16523869  1
  Sb  Sb101  1  0.66441302  -0.00634683  -0.00089717  1
  Sb  Sb102  1  0.82471277  0.49897350  -0.00428397  1
  Sb  Sb103  1  -0.00707068  0.33323182  0.67130948  1
  Sb  Sb104  1  0.66356222  0.33896429  -0.00459464  1
  Sb  Sb105  1  0.33943194  0.66637689  -0.00110894  1
  Sb  Sb106  1  0.82529973  0.83328053  0.33033931  1
  Sb  Sb107  1  0.83102205  0.00117074  0.16697180  1
  Te  Te108  1  0.15800706  0.16720549  0.15739128  1
  Te  Te109  1  0.15799424  0.16796392  0.50151629  1
  Te  Te110  1  0.17106933  0.16855714  0.83702590  1
  Te  Te111  1  0.16296387  0.49882687  0.16398983  1
  Te  Te112  1  0.16895395  0.49932634  0.50261116  1
  Te  Te113  1  0.16383709  0.49792315  0.83328789  1
  Te  Te114  1  0.16510965  0.83210369  0.17353349  1
  Te  Te115  1  0.16897474  0.83241653  0.49304261  1
  Te  Te116  1  0.16651892  0.83109104  0.83395753  1
  Te  Te117  1  0.49944314  0.16865567  0.16965430  1
  Te  Te118  1  0.49772111  0.16808354  0.49213630  1
  Te  Te119  1  0.49571974  0.16795347  0.83613806  1
  Te  Te120  1  0.50663397  0.49945158  0.17598121  1
  Te  Te121  1  0.50114144  0.49978689  0.49175214  1
  Te  Te122  1  0.50236265  0.49817853  0.83441863  1
  Te  Te123  1  0.50644297  0.83291820  0.16413882  1
  Te  Te124  1  0.50614742  0.83258620  0.49385159  1
  Te  Te125  1  0.50144843  0.83506855  0.83563922  1
  Te  Te126  1  0.83467251  0.16834726  0.17050073  1
  Te  Te127  1  0.83555064  0.16342541  0.49309392  1
  Te  Te128  1  0.83092267  0.16763312  0.83364177  1
  Te  Te129  1  0.82861229  0.49843539  0.16818353  1
  Te  Te130  1  0.82962794  0.50055375  0.49616299  1
  Te  Te131  1  0.82841254  0.49863832  0.83452995  1
  Te  Te132  1  0.82831106  0.82979927  0.15680730  1
  Te  Te133  1  0.83018741  0.83845309  0.50251243  1
  Te  Te134  1  0.83201468  0.83001509  0.83689370  1
  Te  Te135  1  0.17414763  0.00488557  0.00112953  1
  Te  Te136  1  0.17122088  -0.00579916  0.33374117  1
  Te  Te137  1  0.17821060  0.00004201  0.66513634  1
  Te  Te138  1  0.17238445  0.32896619  -0.00436616  1
  Te  Te139  1  0.17294621  0.33387118  0.33269822  1
  Te  Te140  1  0.16673586  0.33316176  0.67543210  1
  Te  Te141  1  0.16623244  0.66749722  -0.00480740  1
  Te  Te142  1  0.16275747  0.67291013  0.33375483  1
  Te  Te143  1  0.16549752  0.66733851  0.67433686  1
  Te  Te144  1  0.49586173  0.00327938  0.00101071  1
  Te  Te145  1  0.50396811  0.00215232  0.33328361  1
  Te  Te146  1  0.50109128  0.00131746  0.66471243  1
  Te  Te147  1  0.49829712  0.33074428  -0.00134384  1
  Te  Te148  1  0.49665227  0.32886992  0.33215732  1
  Te  Te149  1  0.50594247  0.33674923  0.67149302  1
  Te  Te150  1  0.50378594  0.66787608  -0.00214283  1
  Te  Te151  1  0.50250243  0.66753746  0.33278241  1
  Te  Te152  1  0.50553345  0.66188311  0.67157884  1
  Te  Te153  1  0.83367863  0.00072777  -0.00336968  1
  Te  Te154  1  0.83073501  0.00135608  0.33283402  1
  Te  Te155  1  0.83127444  0.00214958  0.66858408  1
  Te  Te156  1  0.83257291  0.32872007  -0.00105813  1
  Te  Te157  1  0.83472331  0.33097044  0.33369866  1
  Te  Te158  1  0.82777616  0.33151948  0.66776742  1
  Te  Te159  1  0.82773305  0.66615429  -0.00124929  1
  Te  Te160  1  0.83137368  0.66524121  0.33347236  1
  Te  Te161  1  0.82619471  0.66304491  0.67023369  1
  Te  Te162  1  -0.00893983  0.16636398  -0.00430880  1
  Te  Te163  1  -0.00029598  0.16537053  0.33305944  1
  Te  Te164  1  -0.00647314  0.16652294  0.67322705  1
  Te  Te165  1  0.00376681  0.50053437  -0.00684651  1
  Te  Te166  1  -0.00104602  0.50152892  0.33249628  1
  Te  Te167  1  -0.00370968  0.50088346  0.67118413  1
  Te  Te168  1  0.00054565  0.83473846  0.00105981  1
  Te  Te169  1  -0.00504950  0.83503536  0.33519017  1
  Te  Te170  1  0.00179776  0.83368821  0.65661253  1
  Te  Te171  1  0.33690895  0.16658367  0.00007388  1
  Te  Te172  1  0.33236439  0.16487001  0.33306049  1
  Te  Te173  1  0.33497587  0.16305455  0.66886019  1
  Te  Te174  1  0.34321760  0.49821850  -0.00345395  1
  Te  Te175  1  0.33483950  0.50180812  0.33200817  1
  Te  Te176  1  0.33900498  0.49936031  0.66635757  1
  Te  Te177  1  0.33810379  0.83557637  -0.00295256  1
  Te  Te178  1  0.33933347  0.83002592  0.33311529  1
  Te  Te179  1  0.33532656  0.83754659  0.66923013  1
  Te  Te180  1  0.66543943  0.16361291  0.00292095  1
  Te  Te181  1  0.66712723  0.16883012  0.33299937  1
  Te  Te182  1  0.67158909  0.15716337  0.66357290  1
  Te  Te183  1  0.66213026  0.50404796  0.00416131  1
  Te  Te184  1  0.66736178  0.49814754  0.33267867  1
  Te  Te185  1  0.66823484  0.50236545  0.66441451  1
  Te  Te186  1  0.66586867  0.83384698  -0.00314801  1
  Te  Te187  1  0.66615601  0.83235694  0.33415800  1
  Te  Te188  1  0.66569424  0.83729804  0.66325929  1
  Te  Te189  1  -0.00017195  0.00564368  0.17275034  1
  Te  Te190  1  -0.00380133  0.00032992  0.49782547  1
  Te  Te191  1  -0.00544033  0.00185050  0.83398463  1
  Te  Te192  1  -0.00686716  0.32783627  0.16524572  1
  Te  Te193  1  0.00244785  0.32819810  0.50137929  1
  Te  Te194  1  -0.00719919  0.33359323  0.83334867  1
  Te  Te195  1  -0.00794257  0.66613602  0.17198533  1
  Te  Te196  1  -0.00051380  0.66886684  0.49459500  1
  Te  Te197  1  -0.00048139  0.66485571  0.83287759  1
  Te  Te198  1  0.33341206  -0.00120575  0.17468993  1
  Te  Te199  1  0.33268643  0.00022131  0.49484269  1
  Te  Te200  1  0.33263240  -0.00150501  0.83341174  1
  Te  Te201  1  0.33238322  0.33391484  0.16740154  1
  Te  Te202  1  0.33314393  0.33756546  0.49500979  1
  Te  Te203  1  0.33667339  0.33407609  0.83351909  1
  Te  Te204  1  0.32725449  0.66635992  0.17374086  1
  Te  Te205  1  0.33247931  0.66212840  0.49755144  1
  Te  Te206  1  0.33280334  0.66698117  0.83367060  1
  Te  Te207  1  0.66724218  -0.00671473  0.17599619  1
  Te  Te208  1  0.67115836  -0.00032542  0.49913383  1
  Te  Te209  1  0.67147186  -0.00245715  0.83138969  1
  Te  Te210  1  0.67335595  0.33569712  0.16650837  1
  Te  Te211  1  0.66548023  0.33999300  0.50780605  1
  Te  Te212  1  0.66715214  0.33179377  0.83186025  1
  Te  Te213  1  0.67036938  0.66802986  0.17216681  1
  Te  Te214  1  0.66700859  0.66816299  0.49248542  1
  Te  Te215  1  0.66719751  0.66985357  0.83668841  1
