# generated using pymatgen
data_AgSbTe2
_symmetry_space_group_name_H-M   'P 1'
_cell_length_a   18.35770508
_cell_length_b   18.35547441
_cell_length_c   18.35421012
_cell_angle_alpha   89.99993562
_cell_angle_beta   90.00397393
_cell_angle_gamma   89.99897260
_symmetry_Int_Tables_number   1
_chemical_formula_structural   AgSbTe2
_chemical_formula_sum   'Ag54 Sb54 Te108'
_cell_volume   6184.71512333
_cell_formula_units_Z   54
loop_
 _symmetry_equiv_pos_site_id
 _symmetry_equiv_pos_as_xyz
  1  'x, y, z'
loop_
 _atom_site_type_symbol
 _atom_site_label
 _atom_site_symmetry_multiplicity
 _atom_site_fract_x
 _atom_site_fract_y
 _atom_site_fract_z
 _atom_site_occupancy
  Ag  Ag0  1  0.49798218  0.15940090  0.32242252  1
  Ag  Ag1  1  0.16121685  0.32980694  0.83265524  1
  Ag  Ag2  1  0.34370825  0.16248856  0.16463631  1
  Ag  Ag3  1  0.82994992  0.48774399  0.66967080  1
  Ag  Ag4  1  0.83480467  0.01126346  0.83481690  1
  Ag  Ag5  1  0.65717283  0.15883585  0.16472896  1
  Ag  Ag6  1  0.82877734  0.16362565  0.32027045  1
  Ag  Ag7  1  0.83260533  0.83725998  0.67162564  1
  Ag  Ag8  1  -0.00426302  0.16607140  0.84026326  1
  Ag  Ag9  1  0.65803343  0.00203123  0.32583177  1
  Ag  Ag10  1  0.34122403  0.48917080  0.84594144  1
  Ag  Ag11  1  0.33657224  0.33153279  -0.00094435  1
  Ag  Ag12  1  0.34311909  0.65313672  0.00325130  1
  Ag  Ag13  1  0.17928120  0.16827200  0.33457927  1
  Ag  Ag14  1  0.50017185  0.32524569  0.16946752  1
  Ag  Ag15  1  0.34066357  0.17038654  0.48944215  1
  Ag  Ag16  1  0.65962753  0.49669452  0.48972050  1
  Ag  Ag17  1  0.66177955  0.50128386  0.16551762  1
  Ag  Ag18  1  0.18385315  0.49069541  0.33078769  1
  Ag  Ag19  1  0.83820604  0.16618594  -0.00075039  1
  Ag  Ag20  1  0.50061888  0.49779622  0.32514430  1
  Ag  Ag21  1  0.49782199  0.16611591  0.66413203  1
  Ag  Ag22  1  0.50196733  0.00825969  0.16997794  1
  Ag  Ag23  1  -0.01023015  0.32794167  0.67520885  1
  Ag  Ag24  1  0.49993989  0.48990409  0.01025626  1
  Ag  Ag25  1  0.83360701  0.16844982  0.67607247  1
  Ag  Ag26  1  0.50151212  0.84514221  0.32846681  1
  Ag  Ag27  1  0.66764708  0.33167650  0.66883128  1
  Ag  Ag28  1  0.34318867  0.01113488  0.00598521  1
  Ag  Ag29  1  0.50220342  0.84266661  0.66147948  1
  Ag  Ag30  1  0.17026205  0.16670206  0.66734615  1
  Ag  Ag31  1  0.34291959  0.49135801  0.48474140  1
  Ag  Ag32  1  0.16215117  0.84113532  0.66980969  1
  Ag  Ag33  1  0.83742388  0.32883893  0.83187104  1
  Ag  Ag34  1  0.66239758  0.84007406  0.16693828  1
  Ag  Ag35  1  0.00144458  0.32543307  -0.00267197  1
  Ag  Ag36  1  0.34408322  0.00768708  0.32590371  1
  Ag  Ag37  1  0.49907402  0.32867849  0.48937222  1
  Ag  Ag38  1  0.49495603  0.16907023  0.00833775  1
  Ag  Ag39  1  -0.00308925  0.84727695  0.16295375  1
  Ag  Ag40  1  -0.00174956  0.49052488  0.16543599  1
  Ag  Ag41  1  0.49975733  0.01323643  0.48434546  1
  Ag  Ag42  1  0.33083826  0.16969839  0.84397936  1
  Ag  Ag43  1  0.66368116  0.66587689  0.00527828  1
  Ag  Ag44  1  -0.00384341  0.00854739  0.00335793  1
  Ag  Ag45  1  0.66466749  0.66842536  0.32254956  1
  Ag  Ag46  1  0.66055180  0.49687728  0.83765399  1
  Ag  Ag47  1  -0.00128417  0.00603931  0.32294138  1
  Ag  Ag48  1  -0.00039121  0.16632939  0.15889258  1
  Ag  Ag49  1  0.34456796  0.49804349  0.16481766  1
  Ag  Ag50  1  -0.00213100  0.84409486  0.83929381  1
  Ag  Ag51  1  0.66254561  0.00627004  0.00549802  1
  Ag  Ag52  1  0.34563632  0.84734470  0.16507957  1
  Ag  Ag53  1  0.82789971  0.66473633  0.16605036  1
  Sb  Sb54  1  0.83156889  0.84126245  -0.00027574  1
  Sb  Sb55  1  -0.00579472  0.66871556  0.32789113  1
  Sb  Sb56  1  0.17223203  0.33111344  0.16289194  1
  Sb  Sb57  1  0.50752635  0.66673555  0.16567407  1
  Sb  Sb58  1  0.82835204  0.00247242  0.16176308  1
  Sb  Sb59  1  -0.00100909  0.49556452  0.49682358  1
  Sb  Sb60  1  0.17048884  0.83730708  0.33220042  1
  Sb  Sb61  1  0.33666396  0.32916014  0.67238926  1
  Sb  Sb62  1  0.50118226  0.66320163  0.49803050  1
  Sb  Sb63  1  0.50026762  0.83784763  0.00483516  1
  Sb  Sb64  1  -0.00486184  0.66655778  0.00323319  1
  Sb  Sb65  1  0.82856128  0.00334756  0.50217335  1
  Sb  Sb66  1  0.16660459  0.83454363  -0.00068691  1
  Sb  Sb67  1  0.83327052  0.66439789  0.83777843  1
  Sb  Sb68  1  0.16957457  0.66550111  0.49874895  1
  Sb  Sb69  1  0.17361873  0.33078905  0.50350829  1
  Sb  Sb70  1  0.17313592  0.00232621  0.49806737  1
  Sb  Sb71  1  0.50395119  0.49513737  0.66527974  1
  Sb  Sb72  1  0.33965476  0.66557426  0.32629326  1
  Sb  Sb73  1  0.00088768  0.32673134  0.32751354  1
  Sb  Sb74  1  0.82648289  0.49349052  0.33273010  1
  Sb  Sb75  1  0.66950714  0.83150621  0.83653429  1
  Sb  Sb76  1  0.82972507  0.66533806  0.49622244  1
  Sb  Sb77  1  0.16273021  0.00754369  0.83401379  1
  Sb  Sb78  1  0.82801485  0.83917847  0.33091640  1
  Sb  Sb79  1  0.00234099  0.16833106  0.50055570  1
  Sb  Sb80  1  0.33442302  0.00414557  0.66793319  1
  Sb  Sb81  1  0.66403832  0.33040346  -0.00174716  1
  Sb  Sb82  1  0.50309382  0.00405693  0.83967198  1
  Sb  Sb83  1  0.66863300  0.16973407  0.83793096  1
  Sb  Sb84  1  0.50083389  0.33170071  0.83663760  1
  Sb  Sb85  1  -0.00118368  0.00520663  0.66857288  1
  Sb  Sb86  1  0.17484799  0.49646027  0.00603106  1
  Sb  Sb87  1  0.66546686  0.00474575  0.66773839  1
  Sb  Sb88  1  0.66412771  0.83179588  0.49584347  1
  Sb  Sb89  1  0.16874885  0.16778581  0.00075211  1
  Sb  Sb90  1  0.33521283  0.66603535  0.67057045  1
  Sb  Sb91  1  0.82632485  0.33152220  0.50697705  1
  Sb  Sb92  1  0.16754397  0.66261040  0.83488215  1
  Sb  Sb93  1  0.16507827  0.49423145  0.66439512  1
  Sb  Sb94  1  0.16564031  0.66406213  0.16703374  1
  Sb  Sb95  1  0.33613523  0.32696759  0.32604662  1
  Sb  Sb96  1  0.17061671  0.00400487  0.16654234  1
  Sb  Sb97  1  0.82957432  0.33078624  0.16214528  1
  Sb  Sb98  1  0.49996734  0.66593895  0.83601774  1
  Sb  Sb99  1  0.33689103  0.83632955  0.49598421  1
  Sb  Sb100  1  0.65873454  0.16940017  0.49520535  1
  Sb  Sb101  1  -0.00209250  0.66592862  0.66922636  1
  Sb  Sb102  1  0.82663845  0.49444554  -0.00160164  1
  Sb  Sb103  1  0.66317501  0.32887691  0.33405792  1
  Sb  Sb104  1  -0.00020863  0.49223447  0.83814781  1
  Sb  Sb105  1  0.66653793  0.66285689  0.66813882  1
  Sb  Sb106  1  -0.00046962  0.83715342  0.49919070  1
  Sb  Sb107  1  0.33020877  0.83745929  0.83849977  1
  Te  Te108  1  0.15724174  0.16893659  0.17546549  1
  Te  Te109  1  0.17583540  0.16617002  0.49963402  1
  Te  Te110  1  0.16848150  0.17011007  0.83071111  1
  Te  Te111  1  0.15979478  0.49754006  0.17279207  1
  Te  Te112  1  0.16909773  0.49908830  0.49231362  1
  Te  Te113  1  0.16980619  0.49328350  0.83282709  1
  Te  Te114  1  0.15715055  0.83142630  0.16796606  1
  Te  Te115  1  0.16783153  0.83323500  0.50766825  1
  Te  Te116  1  0.16290691  0.83220418  0.82855251  1
  Te  Te117  1  0.50066209  0.16806746  0.16519009  1
  Te  Te118  1  0.49953823  0.16892728  0.50496201  1
  Te  Te119  1  0.49651250  0.16599556  0.82632261  1
  Te  Te120  1  0.50233661  0.50374612  0.16508983  1
  Te  Te121  1  0.50069280  0.49591519  0.50269500  1
  Te  Te122  1  0.49950043  0.49990369  0.83351967  1
  Te  Te123  1  0.50220289  0.83659015  0.16873315  1
  Te  Te124  1  0.49957669  0.83423044  0.49883217  1
  Te  Te125  1  0.49848455  0.83488719  0.82922671  1
  Te  Te126  1  0.83880073  0.16751792  0.16272773  1
  Te  Te127  1  0.83030755  0.16626657  0.50709602  1
  Te  Te128  1  0.83181249  0.16835684  0.83726074  1
  Te  Te129  1  0.83400358  0.49988859  0.16699411  1
  Te  Te130  1  0.82924629  0.50020363  0.50528383  1
  Te  Te131  1  0.83342702  0.49730597  0.82963640  1
  Te  Te132  1  0.83478534  0.83020677  0.16704137  1
  Te  Te133  1  0.83300930  0.83411086  0.50816976  1
  Te  Te134  1  0.83679556  0.83153211  0.83132503  1
  Te  Te135  1  0.16326138  -0.00126379  -0.00077958  1
  Te  Te136  1  0.16160968  0.00417608  0.33388517  1
  Te  Te137  1  0.16678464  0.00129138  0.66549143  1
  Te  Te138  1  0.16282430  0.33402089  -0.00540083  1
  Te  Te139  1  0.16543090  0.33215073  0.33512324  1
  Te  Te140  1  0.16537988  0.32794714  0.67097094  1
  Te  Te141  1  0.17436206  0.66575124  -0.00032949  1
  Te  Te142  1  0.16526684  0.66326236  0.33466248  1
  Te  Te143  1  0.16677687  0.67141344  0.66667518  1
  Te  Te144  1  0.50174680  0.00400030  0.00554157  1
  Te  Te145  1  0.49947231  0.00055030  0.32961597  1
  Te  Te146  1  0.50013045  0.00130712  0.67014015  1
  Te  Te147  1  0.49838815  0.33029820  0.00286950  1
  Te  Te148  1  0.50000628  0.33679811  0.33129811  1
  Te  Te149  1  0.50496943  0.32905776  0.66829871  1
  Te  Te150  1  0.50160056  0.66578882  -0.00141229  1
  Te  Te151  1  0.50617530  0.65940867  0.33528861  1
  Te  Te152  1  0.50052934  0.67792451  0.66628735  1
  Te  Te153  1  0.83560819  0.00481669  -0.00451411  1
  Te  Te154  1  0.83677349  0.00607138  0.33588127  1
  Te  Te155  1  0.83220588  0.00156427  0.67130684  1
  Te  Te156  1  0.83728704  0.32785520  -0.00471532  1
  Te  Te157  1  0.83401828  0.32340360  0.33553861  1
  Te  Te158  1  0.83091254  0.33049311  0.66952913  1
  Te  Te159  1  0.82705839  0.66343334  0.00537548  1
  Te  Te160  1  0.82605836  0.66790442  0.32870671  1
  Te  Te161  1  0.83326848  0.67307894  0.66597351  1
  Te  Te162  1  0.00439180  0.16593672  -0.00320213  1
  Te  Te163  1  -0.00422930  0.16461694  0.33504817  1
  Te  Te164  1  -0.00120659  0.16960537  0.66626122  1
  Te  Te165  1  -0.00022701  0.50102965  0.00520419  1
  Te  Te166  1  -0.00538916  0.50005844  0.32737455  1
  Te  Te167  1  -0.00459988  0.49626682  0.66738421  1
  Te  Te168  1  -0.00084711  0.83392337  0.00019310  1
  Te  Te169  1  -0.00001248  0.83875453  0.32996631  1
  Te  Te170  1  -0.00110856  0.83411715  0.66702510  1
  Te  Te171  1  0.33273435  0.16893720  0.00385993  1
  Te  Te172  1  0.33607588  0.16720794  0.32870699  1
  Te  Te173  1  0.33249312  0.16577083  0.66753114  1
  Te  Te174  1  0.33743966  0.49609851  0.00266740  1
  Te  Te175  1  0.33884224  0.50099291  0.32991525  1
  Te  Te176  1  0.33100739  0.50150939  0.66980804  1
  Te  Te177  1  0.33339015  0.83700804  0.00569425  1
  Te  Te178  1  0.33678482  0.83362896  0.32737862  1
  Te  Te179  1  0.33561539  0.83393657  0.66816810  1
  Te  Te180  1  0.66240378  0.16535969  0.00356415  1
  Te  Te181  1  0.66340605  0.16365095  0.32876429  1
  Te  Te182  1  0.66849802  0.16928665  0.66849426  1
  Te  Te183  1  0.66220714  0.49796093  0.00110685  1
  Te  Te184  1  0.66415837  0.49773401  0.33161775  1
  Te  Te185  1  0.66937276  0.50005307  0.67348545  1
  Te  Te186  1  0.66635398  0.83174164  0.00450797  1
  Te  Te187  1  0.66367250  0.83558270  0.32938720  1
  Te  Te188  1  0.66642441  0.83413989  0.66749633  1
  Te  Te189  1  -0.00078160  0.00371983  0.16378456  1
  Te  Te190  1  -0.00042419  0.00073585  0.49354494  1
  Te  Te191  1  -0.00312671  0.00297972  0.83406893  1
  Te  Te192  1  -0.00088213  0.33027372  0.16065337  1
  Te  Te193  1  0.00109025  0.33376292  0.50724841  1
  Te  Te194  1  -0.00053228  0.33098421  0.83436538  1
  Te  Te195  1  -0.00651194  0.66423563  0.16669427  1
  Te  Te196  1  0.00014581  0.66561033  0.49864781  1
  Te  Te197  1  0.00074257  0.67717000  0.83468716  1
  Te  Te198  1  0.33273130  0.00161686  0.16665330  1
  Te  Te199  1  0.34027512  0.00357302  0.49642678  1
  Te  Te200  1  0.33281248  0.00656535  0.84121879  1
  Te  Te201  1  0.33533705  0.33590266  0.16067123  1
  Te  Te202  1  0.33924131  0.33259757  0.50368466  1
  Te  Te203  1  0.33461643  0.33081935  0.83677814  1
  Te  Te204  1  0.32994271  0.65950551  0.16192688  1
  Te  Te205  1  0.33339306  0.65814550  0.49960329  1
  Te  Te206  1  0.33222810  0.66441877  0.84134855  1
  Te  Te207  1  0.66786093  0.00006275  0.16605786  1
  Te  Te208  1  0.65954127  -0.00131909  0.49595885  1
  Te  Te209  1  0.67383298  -0.00284592  0.83959690  1
  Te  Te210  1  0.66223045  0.33609529  0.16644881  1
  Te  Te211  1  0.66030503  0.33775112  0.50466790  1
  Te  Te212  1  0.67058654  0.33696889  0.83069770  1
  Te  Te213  1  0.66738556  0.66447934  0.16580650  1
  Te  Te214  1  0.66694468  0.65894480  0.49763172  1
  Te  Te215  1  0.66726996  0.66111410  0.83917903  1
