# generated using pymatgen
data_AgSbTe2
_symmetry_space_group_name_H-M   'P 1'
_cell_length_a   18.34788795
_cell_length_b   18.35044873
_cell_length_c   18.33291614
_cell_angle_alpha   89.99824149
_cell_angle_beta   90.00261682
_cell_angle_gamma   90.00190051
_symmetry_Int_Tables_number   1
_chemical_formula_structural   AgSbTe2
_chemical_formula_sum   'Ag54 Sb54 Te108'
_cell_volume   6172.54577087
_cell_formula_units_Z   54
loop_
 _symmetry_equiv_pos_site_id
 _symmetry_equiv_pos_as_xyz
  1  'x, y, z'
loop_
 _atom_site_type_symbol
 _atom_site_label
 _atom_site_symmetry_multiplicity
 _atom_site_fract_x
 _atom_site_fract_y
 _atom_site_fract_z
 _atom_site_occupancy
  Ag  Ag0  1  0.65975612  0.17026589  0.17124952  1
  Ag  Ag1  1  0.16654649  0.32896017  0.49793582  1
  Ag  Ag2  1  0.33054942  0.16567747  0.50542349  1
  Ag  Ag3  1  0.00362829  0.16321813  0.82060661  1
  Ag  Ag4  1  0.66015932  0.66949152  -0.00078333  1
  Ag  Ag5  1  0.33576975  0.16554713  0.16825131  1
  Ag  Ag6  1  0.48942884  0.16438757  0.66052312  1
  Ag  Ag7  1  0.65687859  -0.00203182  -0.00452595  1
  Ag  Ag8  1  0.16840407  0.67090443  0.82742318  1
  Ag  Ag9  1  0.17401008  0.00391627  0.82409787  1
  Ag  Ag10  1  0.32761794  0.00266770  0.33503628  1
  Ag  Ag11  1  0.00589480  0.16785773  0.49908702  1
  Ag  Ag12  1  0.33129098  0.84558054  0.16489745  1
  Ag  Ag13  1  0.32881877  0.16337679  0.81789902  1
  Ag  Ag14  1  0.83411297  0.49844698  0.66405112  1
  Ag  Ag15  1  0.49806949  0.32574499  0.17098264  1
  Ag  Ag16  1  0.66459618  0.32779025  0.66137437  1
  Ag  Ag17  1  0.49470623  0.00337916  0.83301293  1
  Ag  Ag18  1  0.66748537  0.49364307  0.50436310  1
  Ag  Ag19  1  0.00235876  0.48812591  0.17464525  1
  Ag  Ag20  1  0.17302996  0.01008715  0.50385904  1
  Ag  Ag21  1  0.66550725  0.84752225  0.50430420  1
  Ag  Ag22  1  0.33824040  0.67361325  0.00247079  1
  Ag  Ag23  1  0.49501098  0.00577140  0.16423311  1
  Ag  Ag24  1  0.65636039  0.16769380  0.50407375  1
  Ag  Ag25  1  0.16500606  0.33245959  0.17516576  1
  Ag  Ag26  1  0.16401524  0.49038891  0.65683101  1
  Ag  Ag27  1  0.00826626  0.00460325  0.66091889  1
  Ag  Ag28  1  0.83481667  0.33329036  0.16529005  1
  Ag  Ag29  1  0.50060109  0.50316909  0.00515829  1
  Ag  Ag30  1  0.16411571  0.49910265  0.33896322  1
  Ag  Ag31  1  0.33816381  -0.00061656  0.00524021  1
  Ag  Ag32  1  0.16546884  0.83867665  0.33386231  1
  Ag  Ag33  1  0.49735969  0.32592414  0.49998373  1
  Ag  Ag34  1  0.66854226  0.66420368  0.66618317  1
  Ag  Ag35  1  0.00658151  0.00929519  0.33743969  1
  Ag  Ag36  1  0.83319302  0.65625324  0.16453194  1
  Ag  Ag37  1  0.49896710  0.84098325  0.00240127  1
  Ag  Ag38  1  0.83871298  0.16696470  0.33183009  1
  Ag  Ag39  1  0.66680400  0.48999845  0.16916761  1
  Ag  Ag40  1  0.16670188  0.65755958  0.50383030  1
  Ag  Ag41  1  0.49351118  0.00977106  0.50742874  1
  Ag  Ag42  1  0.00200018  0.16938755  0.17899926  1
  Ag  Ag43  1  0.33488112  0.31934776  0.66195129  1
  Ag  Ag44  1  0.00266444  0.32613662  0.33191753  1
  Ag  Ag45  1  0.17609294  0.16608125  0.66302670  1
  Ag  Ag46  1  0.33244848  0.00654413  0.66665523  1
  Ag  Ag47  1  0.83343328  0.32519677  0.82987368  1
  Ag  Ag48  1  0.01177381  0.49142760  0.49584817  1
  Ag  Ag49  1  0.33303636  0.49212272  0.16592044  1
  Ag  Ag50  1  0.83337865  0.00691856  0.82919366  1
  Ag  Ag51  1  0.82967776  0.84108855  0.66554880  1
  Ag  Ag52  1  0.00515392  0.84395904  0.17084898  1
  Ag  Ag53  1  0.66391658  0.00600597  0.66577345  1
  Sb  Sb54  1  0.49824328  0.66553003  0.50421825  1
  Sb  Sb55  1  0.66596369  0.00262808  0.33623860  1
  Sb  Sb56  1  0.33109712  0.49244271  0.49613610  1
  Sb  Sb57  1  0.82831826  0.50017203  0.00160466  1
  Sb  Sb58  1  0.49994408  0.16624740  0.33782195  1
  Sb  Sb59  1  0.66463596  0.33115850  0.00161517  1
  Sb  Sb60  1  0.67156747  0.33117678  0.33582656  1
  Sb  Sb61  1  0.33209259  0.49375190  0.83633487  1
  Sb  Sb62  1  0.66674933  0.49891605  0.83269128  1
  Sb  Sb63  1  0.16381697  0.83947307  0.66137683  1
  Sb  Sb64  1  0.83150667  0.00516691  0.16331211  1
  Sb  Sb65  1  0.17231336  0.83497188  0.00559959  1
  Sb  Sb66  1  0.00186670  0.84134719  0.83578746  1
  Sb  Sb67  1  0.32585355  0.32573713  0.33490617  1
  Sb  Sb68  1  0.66644309  0.16303419  0.83011063  1
  Sb  Sb69  1  0.00153672  0.66503198  0.33304429  1
  Sb  Sb70  1  -0.00030931  0.83829704  0.49777257  1
  Sb  Sb71  1  0.49640185  0.67285850  0.83565002  1
  Sb  Sb72  1  0.83785564  0.83959671  0.33575488  1
  Sb  Sb73  1  0.16270539  0.16571680  0.34088343  1
  Sb  Sb74  1  0.66524482  0.83589512  0.16963071  1
  Sb  Sb75  1  0.16896005  0.16523692  -0.00324062  1
  Sb  Sb76  1  0.16488475  0.66386537  0.16797299  1
  Sb  Sb77  1  0.33253958  0.84477614  0.83853523  1
  Sb  Sb78  1  0.66845086  0.66457827  0.33425041  1
  Sb  Sb79  1  0.00068703  0.49309694  0.83045444  1
  Sb  Sb80  1  0.50125527  0.66586974  0.16347026  1
  Sb  Sb81  1  0.50354110  0.84483687  0.66836723  1
  Sb  Sb82  1  0.17140914  0.00732403  0.17079661  1
  Sb  Sb83  1  0.50015361  0.49195209  0.66846731  1
  Sb  Sb84  1  0.83355668  0.33215460  0.50053336  1
  Sb  Sb85  1  0.83256745  0.16617125  0.00295001  1
  Sb  Sb86  1  0.00029102  0.33264953  0.00775637  1
  Sb  Sb87  1  0.83599261  0.66416399  0.49812009  1
  Sb  Sb88  1  0.16397006  0.32811423  0.82735036  1
  Sb  Sb89  1  0.32967248  0.67015432  0.32859098  1
  Sb  Sb90  1  0.33452700  0.84362712  0.49583999  1
  Sb  Sb91  1  -0.00213579  0.66925858  0.66571007  1
  Sb  Sb92  1  0.00026145  0.32802575  0.66007263  1
  Sb  Sb93  1  0.83840463  0.49419527  0.33471110  1
  Sb  Sb94  1  0.49486044  0.49641793  0.32906289  1
  Sb  Sb95  1  0.33555213  0.32910156  0.00170121  1
  Sb  Sb96  1  0.49557806  0.83903086  0.32951004  1
  Sb  Sb97  1  0.82757481  0.83515330  -0.00164505  1
  Sb  Sb98  1  0.83306855  0.16621410  0.66288287  1
  Sb  Sb99  1  0.83607361  0.66695415  0.83403688  1
  Sb  Sb100  1  0.33368745  0.66755299  0.67077403  1
  Sb  Sb101  1  0.49977829  0.16222597  0.00134082  1
  Sb  Sb102  1  0.17083862  0.50107934  0.00326886  1
  Sb  Sb103  1  0.00342423  0.00204065  0.00031767  1
  Sb  Sb104  1  0.83297102  0.00304405  0.50559318  1
  Sb  Sb105  1  0.50218320  0.32615810  0.83241794  1
  Sb  Sb106  1  0.66673606  0.83677864  0.82804156  1
  Sb  Sb107  1  0.00124812  0.66732190  0.00281916  1
  Te  Te108  1  0.16332642  0.17123983  0.16381736  1
  Te  Te109  1  0.16769854  0.16810543  0.50276178  1
  Te  Te110  1  0.16600061  0.16404195  0.82906322  1
  Te  Te111  1  0.16518498  0.49752714  0.16773435  1
  Te  Te112  1  0.16903453  0.49562290  0.49982863  1
  Te  Te113  1  0.16517180  0.49943389  0.83000475  1
  Te  Te114  1  0.16677846  0.83204944  0.17142056  1
  Te  Te115  1  0.16671639  0.83467434  0.49448297  1
  Te  Te116  1  0.16590777  0.83245601  0.83311186  1
  Te  Te117  1  0.50091795  0.16654488  0.16740464  1
  Te  Te118  1  0.49973968  0.16775619  0.50051102  1
  Te  Te119  1  0.49713339  0.16247138  0.82841059  1
  Te  Te120  1  0.50196661  0.49931915  0.16544952  1
  Te  Te121  1  0.50313059  0.49559386  0.49914527  1
  Te  Te122  1  0.49917562  0.49948415  0.84076575  1
  Te  Te123  1  0.49626803  0.83711890  0.16326038  1
  Te  Te124  1  0.50463412  0.83423783  0.49933258  1
  Te  Te125  1  0.49965850  0.84155137  0.84041597  1
  Te  Te126  1  0.83866859  0.17038106  0.16867325  1
  Te  Te127  1  0.83865353  0.16770485  0.49391799  1
  Te  Te128  1  0.83527889  0.16622564  0.83369044  1
  Te  Te129  1  0.83183957  0.49638326  0.16747683  1
  Te  Te130  1  0.82818397  0.49965280  0.50267575  1
  Te  Te131  1  0.83480562  0.49811688  0.82811896  1
  Te  Te132  1  0.83626830  0.83448637  0.16710157  1
  Te  Te133  1  0.82900525  0.83169239  0.50438179  1
  Te  Te134  1  0.83538266  0.83508947  0.82693649  1
  Te  Te135  1  0.17224151  -0.00171101  -0.01012853  1
  Te  Te136  1  0.16677611  -0.00119240  0.33527899  1
  Te  Te137  1  0.16664635  0.00124936  0.66426615  1
  Te  Te138  1  0.16837552  0.33429195  0.00766931  1
  Te  Te139  1  0.16378511  0.33715864  0.33529709  1
  Te  Te140  1  0.16696183  0.33125299  0.66345842  1
  Te  Te141  1  0.17246421  0.66760173  -0.00443582  1
  Te  Te142  1  0.16694988  0.66395340  0.33871820  1
  Te  Te143  1  0.16653800  0.66821676  0.66566152  1
  Te  Te144  1  0.49898247  0.00169260  0.00200013  1
  Te  Te145  1  0.49492886  0.00016237  0.33029324  1
  Te  Te146  1  0.50207805  0.00358517  0.66545502  1
  Te  Te147  1  0.50050979  0.33949853  0.00399633  1
  Te  Te148  1  0.49879133  0.33336683  0.33325050  1
  Te  Te149  1  0.50039644  0.32830874  0.66536443  1
  Te  Te150  1  0.49989287  0.66666971  -0.00106528  1
  Te  Te151  1  0.49922965  0.66809658  0.33460813  1
  Te  Te152  1  0.50666338  0.66596782  0.66960434  1
  Te  Te153  1  0.82881285  -0.00119368  -0.00851449  1
  Te  Te154  1  0.84029891  0.00445838  0.33243501  1
  Te  Te155  1  0.82659995  0.00056202  0.66948295  1
  Te  Te156  1  0.83226291  0.33415471  0.00009235  1
  Te  Te157  1  0.83989003  0.32959991  0.32669381  1
  Te  Te158  1  0.83187104  0.33666441  0.66788698  1
  Te  Te159  1  0.82653252  0.66788375  0.00258207  1
  Te  Te160  1  0.83366595  0.66845069  0.32463098  1
  Te  Te161  1  0.82929250  0.66174357  0.66719624  1
  Te  Te162  1  0.00069580  0.16593977  0.00062650  1
  Te  Te163  1  0.00120690  0.16633628  0.33694040  1
  Te  Te164  1  -0.00089333  0.16290575  0.66293510  1
  Te  Te165  1  -0.00040703  0.50119036  0.00747642  1
  Te  Te166  1  0.00320877  0.49890531  0.33484356  1
  Te  Te167  1  0.00159913  0.50034566  0.66229412  1
  Te  Te168  1  -0.00097320  0.83382707  0.01004974  1
  Te  Te169  1  0.00403453  0.83592043  0.33000736  1
  Te  Te170  1  -0.00675465  0.84009344  0.66672645  1
  Te  Te171  1  0.33414435  0.16150937  0.01035116  1
  Te  Te172  1  0.33330272  0.16054654  0.32583069  1
  Te  Te173  1  0.33316419  0.16369263  0.66202710  1
  Te  Te174  1  0.33775590  0.49899561  0.00420237  1
  Te  Te175  1  0.32728990  0.50135650  0.32643602  1
  Te  Te176  1  0.32829025  0.49966029  0.66737429  1
  Te  Te177  1  0.33752895  0.83514797  0.00420098  1
  Te  Te178  1  0.32841522  0.83819615  0.32735309  1
  Te  Te179  1  0.33425130  0.83731341  0.66643845  1
  Te  Te180  1  0.66651160  0.16108545  0.00757945  1
  Te  Te181  1  0.67406545  0.16608961  0.33176803  1
  Te  Te182  1  0.66822127  0.16752277  0.66443997  1
  Te  Te183  1  0.66327952  0.50209172  0.00376112  1
  Te  Te184  1  0.66696683  0.49922983  0.32978764  1
  Te  Te185  1  0.66519953  0.49622788  0.66604997  1
  Te  Te186  1  0.66137380  0.83453194  0.00134871  1
  Te  Te187  1  0.66838624  0.83320576  0.34262843  1
  Te  Te188  1  0.66892198  0.83566496  0.66252579  1
  Te  Te189  1  0.00112388  0.00400030  0.16841478  1
  Te  Te190  1  0.00053042  0.00185017  0.50026189  1
  Te  Te191  1  -0.00105517  0.00379543  0.83278167  1
  Te  Te192  1  0.00005209  0.33103735  0.16973088  1
  Te  Te193  1  0.00038649  0.33280445  0.49633755  1
  Te  Te194  1  -0.00471088  0.32596076  0.83485511  1
  Te  Te195  1  -0.00375958  0.66375801  0.16566362  1
  Te  Te196  1  0.00509988  0.66111274  0.50055091  1
  Te  Te197  1  0.00595329  0.66636474  0.83488644  1
  Te  Te198  1  0.33189091  0.00223490  0.16560484  1
  Te  Te199  1  0.33407992  0.00387175  0.50092643  1
  Te  Te200  1  0.33398507  0.00428331  0.82906079  1
  Te  Te201  1  0.33564888  0.33295835  0.16817703  1
  Te  Te202  1  0.33471399  0.32818342  0.50109588  1
  Te  Te203  1  0.33304003  0.32548641  0.82849478  1
  Te  Te204  1  0.33334910  0.66298809  0.16197788  1
  Te  Te205  1  0.32846017  0.66759774  0.50123101  1
  Te  Te206  1  0.32890473  0.66477483  0.83864170  1
  Te  Te207  1  0.66301345  0.00288801  0.16759521  1
  Te  Te208  1  0.66593142  0.00588648  0.50091275  1
  Te  Te209  1  0.66573610  0.00082321  0.83357072  1
  Te  Te210  1  0.66510024  0.33166130  0.16718928  1
  Te  Te211  1  0.66694935  0.33086667  0.50106169  1
  Te  Te212  1  0.67168631  0.33098214  0.82958618  1
  Te  Te213  1  0.66950829  0.66730839  0.16460035  1
  Te  Te214  1  0.66687438  0.65646953  0.50325089  1
  Te  Te215  1  0.66682592  0.66690815  0.83444233  1
