# generated using pymatgen
data_AgSbTe2
_symmetry_space_group_name_H-M   'P 1'
_cell_length_a   18.33258651
_cell_length_b   18.33313822
_cell_length_c   18.33088479
_cell_angle_alpha   90.00383411
_cell_angle_beta   89.99671512
_cell_angle_gamma   89.99838553
_symmetry_Int_Tables_number   1
_chemical_formula_structural   AgSbTe2
_chemical_formula_sum   'Ag54 Sb54 Te108'
_cell_volume   6160.89747740
_cell_formula_units_Z   54
loop_
 _symmetry_equiv_pos_site_id
 _symmetry_equiv_pos_as_xyz
  1  'x, y, z'
loop_
 _atom_site_type_symbol
 _atom_site_label
 _atom_site_symmetry_multiplicity
 _atom_site_fract_x
 _atom_site_fract_y
 _atom_site_fract_z
 _atom_site_occupancy
  Ag  Ag0  1  0.16767146  0.66750614  0.50753681  1
  Ag  Ag1  1  0.16406768  0.16315108  0.33793580  1
  Ag  Ag2  1  0.67096860  0.66752183  0.32896694  1
  Ag  Ag3  1  0.32324570  0.49564290  0.83413450  1
  Ag  Ag4  1  0.16634661  0.83148620  -0.01410047  1
  Ag  Ag5  1  0.67429166  0.33594448  0.33437295  1
  Ag  Ag6  1  0.16513478  0.65839438  0.82821239  1
  Ag  Ag7  1  0.16600235  0.82597314  0.66967924  1
  Ag  Ag8  1  0.32015782  0.33821036  0.67252240  1
  Ag  Ag9  1  0.00598287  -0.00093210  0.33685388  1
  Ag  Ag10  1  0.84640280  0.33200165  0.51091081  1
  Ag  Ag11  1  0.16425432  0.17520743  -0.00853558  1
  Ag  Ag12  1  0.82727780  0.66423367  0.16204399  1
  Ag  Ag13  1  0.67271190  0.33919533  0.00033892  1
  Ag  Ag14  1  0.84723479  0.17284368  -0.00706373  1
  Ag  Ag15  1  0.49004474  0.83139390  0.66568176  1
  Ag  Ag16  1  0.33119490  0.82894281  0.16327942  1
  Ag  Ag17  1  0.00233234  0.33084628  -0.01210489  1
  Ag  Ag18  1  0.50335297  0.66721766  0.17172518  1
  Ag  Ag19  1  0.16530815  -0.00140439  0.83484214  1
  Ag  Ag20  1  0.00044081  0.33319234  0.34282613  1
  Ag  Ag21  1  0.16205807  0.34419765  0.82889138  1
  Ag  Ag22  1  0.84552415  0.33857372  0.82842148  1
  Ag  Ag23  1  0.00201518  0.00296828  0.66601943  1
  Ag  Ag24  1  0.00337509  0.33288100  0.66721148  1
  Ag  Ag25  1  0.00099997  0.49979918  0.16128241  1
  Ag  Ag26  1  0.67048850  0.82983156  0.50283786  1
  Ag  Ag27  1  0.16419345  0.83648032  0.33850627  1
  Ag  Ag28  1  0.66990766  0.50451196  0.16459629  1
  Ag  Ag29  1  0.84229403  0.82944521  0.66735866  1
  Ag  Ag30  1  0.01001462  0.49710715  0.83521925  1
  Ag  Ag31  1  0.00314929  0.17370200  0.50120111  1
  Ag  Ag32  1  0.16618430  0.49384347  -0.01244505  1
  Ag  Ag33  1  0.16421090  0.49911814  0.67407384  1
  Ag  Ag34  1  0.32255062  0.83036863  0.83199571  1
  Ag  Ag35  1  0.00009049  0.66555457  0.33333148  1
  Ag  Ag36  1  0.49772096  0.33623584  0.50028392  1
  Ag  Ag37  1  0.83939111  0.17959588  0.67065257  1
  Ag  Ag38  1  0.84442639  0.49661951  0.67128193  1
  Ag  Ag39  1  0.00450756  0.00840452  -0.00796848  1
  Ag  Ag40  1  0.31839425  0.33546630  -0.01151670  1
  Ag  Ag41  1  0.66980324  0.66250270  0.00670392  1
  Ag  Ag42  1  0.66710660  0.83065868  0.82844496  1
  Ag  Ag43  1  0.00231841  0.83616964  0.50167586  1
  Ag  Ag44  1  0.49759134  -0.00837587  0.16919538  1
  Ag  Ag45  1  0.32057276  0.17144476  0.50562361  1
  Ag  Ag46  1  0.32143262  -0.00145075  0.33241933  1
  Ag  Ag47  1  0.49620706  0.66796965  0.49815066  1
  Ag  Ag48  1  0.84018006  0.66171881  0.83159239  1
  Ag  Ag49  1  0.32732680  0.50425689  0.16010651  1
  Ag  Ag50  1  0.32772291  0.66472148  0.66978590  1
  Ag  Ag51  1  0.32614788  0.17913968  0.82905044  1
  Ag  Ag52  1  0.16335439  0.33428229  0.51003425  1
  Ag  Ag53  1  0.66666447  -0.00605327  0.33307076  1
  Sb  Sb54  1  0.83204991  -0.00641351  0.16694288  1
  Sb  Sb55  1  0.84050490  0.16910832  0.33460898  1
  Sb  Sb56  1  0.16563972  0.33590258  0.16164384  1
  Sb  Sb57  1  0.66137341  0.82652203  0.16881231  1
  Sb  Sb58  1  0.16425630  0.00098050  0.50291173  1
  Sb  Sb59  1  0.49691877  0.83293480  0.33741315  1
  Sb  Sb60  1  0.66483412  0.66944761  0.66657994  1
  Sb  Sb61  1  0.33065982  0.16689817  0.16541584  1
  Sb  Sb62  1  0.67380715  -0.00545394  0.66282606  1
  Sb  Sb63  1  0.16739418  0.66652289  0.16577409  1
  Sb  Sb64  1  0.83503606  0.49991912  0.33517823  1
  Sb  Sb65  1  0.83505841  0.33930166  0.16373550  1
  Sb  Sb66  1  0.32792970  0.83490126  0.50224931  1
  Sb  Sb67  1  0.49565661  0.83128438  -0.00183759  1
  Sb  Sb68  1  0.49493086  0.50313531  0.66602953  1
  Sb  Sb69  1  0.49756604  0.66822301  0.83200910  1
  Sb  Sb70  1  0.49868126  -0.00287937  0.49715426  1
  Sb  Sb71  1  0.16376394  0.49946152  0.33436173  1
  Sb  Sb72  1  0.00539958  0.82919250  0.17092886  1
  Sb  Sb73  1  0.83630737  0.66409247  0.50396419  1
  Sb  Sb74  1  0.49470757  0.16861553  0.00022210  1
  Sb  Sb75  1  0.66922452  0.50358809  0.83869073  1
  Sb  Sb76  1  0.50000796  0.16348078  0.66412655  1
  Sb  Sb77  1  0.00639816  0.17379916  0.82912555  1
  Sb  Sb78  1  0.84196068  0.00096595  0.83113853  1
  Sb  Sb79  1  -0.00035287  0.66458369  0.00160960  1
  Sb  Sb80  1  0.16749053  -0.00195925  0.16600157  1
  Sb  Sb81  1  0.66808605  0.17173796  0.16814037  1
  Sb  Sb82  1  0.00418212  0.82833424  0.82688968  1
  Sb  Sb83  1  0.32489577  0.00055674  0.66510894  1
  Sb  Sb84  1  0.83916300  0.83280282  -0.00632414  1
  Sb  Sb85  1  0.66788129  0.50238667  0.49696777  1
  Sb  Sb86  1  0.33014345  0.49650171  0.50190733  1
  Sb  Sb87  1  0.49190982  -0.00378625  0.83656958  1
  Sb  Sb88  1  0.67085684  0.16582503  0.49816832  1
  Sb  Sb89  1  0.16199039  0.17059205  0.66770888  1
  Sb  Sb90  1  0.49450536  0.16563880  0.33551641  1
  Sb  Sb91  1  0.32485412  0.00237991  0.00244165  1
  Sb  Sb92  1  0.00674644  0.66459337  0.66287961  1
  Sb  Sb93  1  0.50026962  0.50124742  0.33245805  1
  Sb  Sb94  1  0.83776329  0.00312841  0.50071862  1
  Sb  Sb95  1  0.67159913  0.33440155  0.66535037  1
  Sb  Sb96  1  0.67254805  -0.00158588  0.00310473  1
  Sb  Sb97  1  0.33004767  0.67013727  0.33536160  1
  Sb  Sb98  1  0.50011743  0.33734669  0.17069733  1
  Sb  Sb99  1  0.00107582  0.17170938  0.16703102  1
  Sb  Sb100  1  0.32692286  0.33034359  0.33559158  1
  Sb  Sb101  1  0.49557798  0.33348832  0.82870289  1
  Sb  Sb102  1  0.33277411  0.66307059  -0.00429768  1
  Sb  Sb103  1  0.66683331  0.16409788  0.83471946  1
  Sb  Sb104  1  0.49494336  0.50027540  0.00110412  1
  Sb  Sb105  1  0.84060301  0.49614036  -0.00394084  1
  Sb  Sb106  1  0.83755868  0.83172457  0.33856163  1
  Sb  Sb107  1  0.00078659  0.49755886  0.50392047  1
  Te  Te108  1  0.16719783  0.16674043  0.16899832  1
  Te  Te109  1  0.16328237  0.16810035  0.50062407  1
  Te  Te110  1  0.16969946  0.16162129  0.83444918  1
  Te  Te111  1  0.16618679  0.50183239  0.16437387  1
  Te  Te112  1  0.16665091  0.50135150  0.50422408  1
  Te  Te113  1  0.16726216  0.50070519  0.83154058  1
  Te  Te114  1  0.17288413  0.83184557  0.17446902  1
  Te  Te115  1  0.16482782  0.83182961  0.49963019  1
  Te  Te116  1  0.16468121  0.83158018  0.83023794  1
  Te  Te117  1  0.49970157  0.16098782  0.16727376  1
  Te  Te118  1  0.49959235  0.17131742  0.50095385  1
  Te  Te119  1  0.48932945  0.16416869  0.83247518  1
  Te  Te120  1  0.50160939  0.50495615  0.16653581  1
  Te  Te121  1  0.49943498  0.50303486  0.49964153  1
  Te  Te122  1  0.48981790  0.50115178  0.83322658  1
  Te  Te123  1  0.49430529  0.82999553  0.16640213  1
  Te  Te124  1  0.50121101  0.82984942  0.50427686  1
  Te  Te125  1  0.50216413  0.83369027  0.82796252  1
  Te  Te126  1  0.83312577  0.16509648  0.15782744  1
  Te  Te127  1  0.83843182  0.17223501  0.50358463  1
  Te  Te128  1  0.83175900  0.17021956  0.83287601  1
  Te  Te129  1  0.83408572  0.50619300  0.16577796  1
  Te  Te130  1  0.83308972  0.49326459  0.50886485  1
  Te  Te131  1  0.83333587  0.49967692  0.83030168  1
  Te  Te132  1  0.83333345  0.82457724  0.16463543  1
  Te  Te133  1  0.83494473  0.83243298  0.50534546  1
  Te  Te134  1  0.83266815  0.83067649  0.82942390  1
  Te  Te135  1  0.16185305  -0.00208521  -0.00064643  1
  Te  Te136  1  0.16472914  -0.00012014  0.33333164  1
  Te  Te137  1  0.16145764  -0.00579637  0.67094206  1
  Te  Te138  1  0.16305472  0.33404684  -0.00147165  1
  Te  Te139  1  0.16210015  0.33146518  0.33647869  1
  Te  Te140  1  0.16480223  0.33263322  0.66878481  1
  Te  Te141  1  0.16727469  0.66945375  -0.00441084  1
  Te  Te142  1  0.16340323  0.66811410  0.33668225  1
  Te  Te143  1  0.16789418  0.66489684  0.66717812  1
  Te  Te144  1  0.50215853  -0.00005378  0.00780955  1
  Te  Te145  1  0.50609840  -0.00035267  0.32995400  1
  Te  Te146  1  0.50070481  -0.00702859  0.66650409  1
  Te  Te147  1  0.50968079  0.33281276  0.00146358  1
  Te  Te148  1  0.50304229  0.33293369  0.33926428  1
  Te  Te149  1  0.49992836  0.33307743  0.66059884  1
  Te  Te150  1  0.50717862  0.66720549  0.00555796  1
  Te  Te151  1  0.50224184  0.66756951  0.33571278  1
  Te  Te152  1  0.49487656  0.67041922  0.66266106  1
  Te  Te153  1  0.84181719  0.00598085  -0.00029115  1
  Te  Te154  1  0.83172322  0.00052034  0.33269184  1
  Te  Te155  1  0.84164822  -0.00756278  0.66657802  1
  Te  Te156  1  0.83526260  0.33177230  -0.00235975  1
  Te  Te157  1  0.83427876  0.33337907  0.33480210  1
  Te  Te158  1  0.83402401  0.33607987  0.66901306  1
  Te  Te159  1  0.83077574  0.66623586  -0.00311325  1
  Te  Te160  1  0.83391494  0.66620157  0.33398103  1
  Te  Te161  1  0.83240878  0.66704224  0.67000178  1
  Te  Te162  1  0.00418545  0.16895178  0.00111044  1
  Te  Te163  1  0.00339682  0.16836120  0.33590690  1
  Te  Te164  1  -0.00318840  0.16623194  0.66351226  1
  Te  Te165  1  0.00521864  0.49757848  -0.00081470  1
  Te  Te166  1  -0.00104003  0.49931125  0.32885056  1
  Te  Te167  1  0.00239861  0.49792086  0.66970715  1
  Te  Te168  1  0.00658722  0.83665986  0.00248050  1
  Te  Te169  1  0.00272993  0.83395100  0.33703401  1
  Te  Te170  1  0.00277468  0.83167056  0.66295718  1
  Te  Te171  1  0.32724983  0.17218399  -0.00367338  1
  Te  Te172  1  0.32712004  0.16219991  0.33502145  1
  Te  Te173  1  0.33509704  0.16909185  0.66583595  1
  Te  Te174  1  0.32887782  0.49709146  -0.00090057  1
  Te  Te175  1  0.33226310  0.49998693  0.32318049  1
  Te  Te176  1  0.32973538  0.49905017  0.66821819  1
  Te  Te177  1  0.32845248  0.83357024  -0.00077622  1
  Te  Te178  1  0.32925022  0.83738075  0.33228318  1
  Te  Te179  1  0.32933600  0.83356259  0.66791181  1
  Te  Te180  1  0.66671883  0.16942441  0.00006548  1
  Te  Te181  1  0.66799725  0.17012339  0.33330856  1
  Te  Te182  1  0.67589954  0.16345144  0.66715655  1
  Te  Te183  1  0.66643207  0.50071152  0.00349538  1
  Te  Te184  1  0.66832313  0.50071105  0.32905551  1
  Te  Te185  1  0.66778986  0.50123030  0.66873347  1
  Te  Te186  1  0.66833678  0.83108632  -0.00420161  1
  Te  Te187  1  0.66695990  0.83105553  0.33639729  1
  Te  Te188  1  0.67021408  0.83326664  0.66515926  1
  Te  Te189  1  -0.00138704  -0.00066813  0.17507792  1
  Te  Te190  1  -0.00031484  -0.00207317  0.49848389  1
  Te  Te191  1  0.00544274  -0.00125045  0.83293243  1
  Te  Te192  1  -0.00090325  0.33987255  0.17174254  1
  Te  Te193  1  0.00238321  0.33449757  0.50250202  1
  Te  Te194  1  0.00169995  0.33513615  0.83078557  1
  Te  Te195  1  -0.00213414  0.66178487  0.17101706  1
  Te  Te196  1  0.00265617  0.66834546  0.49406026  1
  Te  Te197  1  0.00016527  0.66024858  0.83456990  1
  Te  Te198  1  0.33652955  -0.00157166  0.17044795  1
  Te  Te199  1  0.33455371  0.00786150  0.49436714  1
  Te  Te200  1  0.32655546  -0.00825630  0.83383514  1
  Te  Te201  1  0.33571541  0.33797647  0.16388560  1
  Te  Te202  1  0.32998113  0.33101443  0.50061325  1
  Te  Te203  1  0.33285326  0.33481572  0.83221678  1
  Te  Te204  1  0.33680929  0.66691103  0.16652114  1
  Te  Te205  1  0.33193118  0.66638907  0.50340377  1
  Te  Te206  1  0.33111936  0.67066164  0.83038286  1
  Te  Te207  1  0.66378332  -0.00117714  0.17148095  1
  Te  Te208  1  0.66744040  -0.00503028  0.49392797  1
  Te  Te209  1  0.66565465  -0.00648871  0.83384028  1
  Te  Te210  1  0.66732862  0.33939467  0.16896156  1
  Te  Te211  1  0.66257988  0.33416941  0.49648515  1
  Te  Te212  1  0.66509205  0.33354215  0.83808526  1
  Te  Te213  1  0.66593383  0.66528963  0.16831013  1
  Te  Te214  1  0.66612678  0.66967562  0.49591783  1
  Te  Te215  1  0.66615172  0.67008152  0.83567763  1
