# generated using pymatgen
data_AgSbTe2
_symmetry_space_group_name_H-M   'P 1'
_cell_length_a   18.31964180
_cell_length_b   18.32700758
_cell_length_c   18.32779591
_cell_angle_alpha   89.99828396
_cell_angle_beta   89.99869164
_cell_angle_gamma   89.99543156
_symmetry_Int_Tables_number   1
_chemical_formula_structural   AgSbTe2
_chemical_formula_sum   'Ag54 Sb54 Te108'
_cell_volume   6153.45141062
_cell_formula_units_Z   54
loop_
 _symmetry_equiv_pos_site_id
 _symmetry_equiv_pos_as_xyz
  1  'x, y, z'
loop_
 _atom_site_type_symbol
 _atom_site_label
 _atom_site_symmetry_multiplicity
 _atom_site_fract_x
 _atom_site_fract_y
 _atom_site_fract_z
 _atom_site_occupancy
  Ag  Ag0  1  0.16953267  -0.00353757  0.16317306  1
  Ag  Ag1  1  0.49238620  -0.00512319  0.84623967  1
  Ag  Ag2  1  0.16518569  0.83463093  0.33184997  1
  Ag  Ag3  1  0.33148134  0.17355997  0.16272879  1
  Ag  Ag4  1  0.00484104  0.15917242  0.49010590  1
  Ag  Ag5  1  0.16437853  -0.00042940  0.50032371  1
  Ag  Ag6  1  0.00940141  0.32834695  0.01027239  1
  Ag  Ag7  1  0.00522077  0.66660825  0.32914671  1
  Ag  Ag8  1  0.49415748  0.33715136  0.49132683  1
  Ag  Ag9  1  0.66139303  -0.00342657  0.66992549  1
  Ag  Ag10  1  0.50098153  0.84020731  0.00188092  1
  Ag  Ag11  1  0.00231275  0.83640292  0.49435840  1
  Ag  Ag12  1  0.83325675  0.83125396  0.65954322  1
  Ag  Ag13  1  0.33281596  0.49903574  0.83564173  1
  Ag  Ag14  1  0.00146539  0.83139780  0.16990014  1
  Ag  Ag15  1  0.49331679  0.15495135  0.00027324  1
  Ag  Ag16  1  0.83172287  0.50570336  0.65864771  1
  Ag  Ag17  1  0.33530870  0.33585022  0.66546636  1
  Ag  Ag18  1  0.17309843  0.15628052  0.66118797  1
  Ag  Ag19  1  0.49336624  0.33385421  0.16994084  1
  Ag  Ag20  1  0.16861793  0.83751685  0.66150741  1
  Ag  Ag21  1  0.66207160  0.82439804  0.16560169  1
  Ag  Ag22  1  0.33426181  0.50058368  0.49474338  1
  Ag  Ag23  1  0.17397318  0.67207442  0.83934721  1
  Ag  Ag24  1  0.33795853  0.00765542  0.00129316  1
  Ag  Ag25  1  0.16926703  0.50383781  0.00232198  1
  Ag  Ag26  1  0.83254850  0.50186795  0.33385950  1
  Ag  Ag27  1  0.16612667  0.16204989  0.33223832  1
  Ag  Ag28  1  0.00354751  0.33425166  0.32873312  1
  Ag  Ag29  1  0.66370420  0.66212987  0.32793125  1
  Ag  Ag30  1  0.00657060  -0.00087718  0.00563400  1
  Ag  Ag31  1  0.49039333  0.16082403  0.67068367  1
  Ag  Ag32  1  0.33385461  0.16873012  0.84202758  1
  Ag  Ag33  1  0.17540639  -0.00406231  0.83903383  1
  Ag  Ag34  1  0.65950939  0.50840141  0.16876885  1
  Ag  Ag35  1  0.33309566  0.65994677  0.33002785  1
  Ag  Ag36  1  0.33641179  0.49612062  0.16655075  1
  Ag  Ag37  1  0.84471766  -0.00891524  0.50164712  1
  Ag  Ag38  1  0.83203350  0.66921603  0.49854509  1
  Ag  Ag39  1  0.49864944  0.66862108  0.16463807  1
  Ag  Ag40  1  0.49644682  0.66592833  0.49674901  1
  Ag  Ag41  1  0.49761592  0.83549819  0.67076534  1
  Ag  Ag42  1  0.00400099  0.66991907  0.01000162  1
  Ag  Ag43  1  0.65278424  -0.00680450  0.00018235  1
  Ag  Ag44  1  0.83621040  0.33519162  0.17027009  1
  Ag  Ag45  1  0.33181128  0.32914955  0.00894632  1
  Ag  Ag46  1  0.49275884  0.67477600  0.83827655  1
  Ag  Ag47  1  0.00943078  0.16612736  0.16954905  1
  Ag  Ag48  1  0.33518759  0.66264111  0.66502172  1
  Ag  Ag49  1  0.66317461  0.34066920  0.32846529  1
  Ag  Ag50  1  0.33288877  0.33935843  0.32721635  1
  Ag  Ag51  1  0.17086640  0.67239269  0.16572033  1
  Ag  Ag52  1  0.65758488  0.67132763  0.01091334  1
  Ag  Ag53  1  0.49196569  -0.00197660  0.15797428  1
  Sb  Sb54  1  0.00501259  0.66931057  0.66422316  1
  Sb  Sb55  1  0.49439186  0.82912866  0.33081551  1
  Sb  Sb56  1  0.32954635  0.00168588  0.32627270  1
  Sb  Sb57  1  0.49286362  0.17004149  0.33099072  1
  Sb  Sb58  1  0.84163664  0.17263893  0.33187256  1
  Sb  Sb59  1  0.49898982  0.50265197  0.66634406  1
  Sb  Sb60  1  0.17135818  0.83283672  0.00284570  1
  Sb  Sb61  1  0.83204651  0.16608399  0.00224856  1
  Sb  Sb62  1  0.83976516  0.82642745  0.33595482  1
  Sb  Sb63  1  0.00255490  -0.00174759  0.33105564  1
  Sb  Sb64  1  0.33425808  0.83166115  0.83397716  1
  Sb  Sb65  1  0.16975858  0.50317029  0.67040054  1
  Sb  Sb66  1  0.17373394  0.16468729  0.00390774  1
  Sb  Sb67  1  0.49487899  0.33120328  0.83705392  1
  Sb  Sb68  1  0.01158954  0.16375560  0.83810591  1
  Sb  Sb69  1  0.00342188  0.83358400  0.83702883  1
  Sb  Sb70  1  0.83077842  0.33596744  0.49319839  1
  Sb  Sb71  1  0.65845696  0.33064861  0.66012017  1
  Sb  Sb72  1  0.00503978  0.50036641  0.16737068  1
  Sb  Sb73  1  0.00704236  0.50190323  0.83552787  1
  Sb  Sb74  1  0.16922646  0.67211138  0.49583192  1
  Sb  Sb75  1  0.33332838  0.66389959  0.00206469  1
  Sb  Sb76  1  0.32874086  0.82848041  0.50152823  1
  Sb  Sb77  1  0.00224100  -0.00123478  0.66650651  1
  Sb  Sb78  1  0.66197013  0.50186969  0.49308701  1
  Sb  Sb79  1  0.83431748  0.16404041  0.66288558  1
  Sb  Sb80  1  0.83740257  0.50182143  0.00455480  1
  Sb  Sb81  1  0.32921553  0.17113938  0.49908116  1
  Sb  Sb82  1  0.65907218  0.50322784  0.83916557  1
  Sb  Sb83  1  0.17024276  0.33032621  0.16658958  1
  Sb  Sb84  1  0.16786958  0.50269261  0.32746969  1
  Sb  Sb85  1  0.66991705  0.83172365  0.49567756  1
  Sb  Sb86  1  0.49593431  -0.00174933  0.50191297  1
  Sb  Sb87  1  0.83205595  0.66193099  0.17285330  1
  Sb  Sb88  1  0.50069084  0.50117839  0.33025521  1
  Sb  Sb89  1  0.83579993  0.00297359  0.17021163  1
  Sb  Sb90  1  0.83152857  -0.00128839  0.83022548  1
  Sb  Sb91  1  0.66073223  0.33440642  0.00938085  1
  Sb  Sb92  1  0.00383061  0.50211873  0.49726953  1
  Sb  Sb93  1  0.65625239  0.16428108  0.83415563  1
  Sb  Sb94  1  0.33445936  0.00125188  0.67265742  1
  Sb  Sb95  1  0.66276093  0.83310316  0.83792926  1
  Sb  Sb96  1  0.66855115  0.16595426  0.49814041  1
  Sb  Sb97  1  0.17195162  0.33130809  0.83539350  1
  Sb  Sb98  1  0.33227414  0.83136532  0.16604259  1
  Sb  Sb99  1  0.83077868  0.83227632  -0.00011836  1
  Sb  Sb100  1  0.49222854  0.50253532  0.00333139  1
  Sb  Sb101  1  0.66009599  0.16590211  0.16636958  1
  Sb  Sb102  1  0.66597068  -0.00303856  0.33010074  1
  Sb  Sb103  1  0.83559555  0.33579356  0.83901169  1
  Sb  Sb104  1  0.17230057  0.32830739  0.49766446  1
  Sb  Sb105  1  0.65996830  0.67162052  0.66541137  1
  Sb  Sb106  1  0.83332050  0.66737016  0.82856829  1
  Sb  Sb107  1  0.00504257  0.33170339  0.66334902  1
  Te  Te108  1  0.16859106  0.16204894  0.16826587  1
  Te  Te109  1  0.16357031  0.16239268  0.49938367  1
  Te  Te110  1  0.17424126  0.16093171  0.82831119  1
  Te  Te111  1  0.17147697  0.50971847  0.16287212  1
  Te  Te112  1  0.17400277  0.50056339  0.50121829  1
  Te  Te113  1  0.17353253  0.50550482  0.83772912  1
  Te  Te114  1  0.16397419  0.83321124  0.16780587  1
  Te  Te115  1  0.16289452  0.83710834  0.50008592  1
  Te  Te116  1  0.16644260  0.83474942  0.82833923  1
  Te  Te117  1  0.49508049  0.16506480  0.16519243  1
  Te  Te118  1  0.49997959  0.16808035  0.50387041  1
  Te  Te119  1  0.49293256  0.16385303  0.83220064  1
  Te  Te120  1  0.49894939  0.50156625  0.16546038  1
  Te  Te121  1  0.49442966  0.50181664  0.50133577  1
  Te  Te122  1  0.49292844  0.50601631  0.83425047  1
  Te  Te123  1  0.50125708  0.83146037  0.16612163  1
  Te  Te124  1  0.50075735  0.82835943  0.50371739  1
  Te  Te125  1  0.50031948  0.83438730  0.83202644  1
  Te  Te126  1  0.84097139  0.17317649  0.16673983  1
  Te  Te127  1  0.84107527  0.16411061  0.49965574  1
  Te  Te128  1  0.83497136  0.16756310  0.83208616  1
  Te  Te129  1  0.83015577  0.49455437  0.17002835  1
  Te  Te130  1  0.83354127  0.50347414  0.49804733  1
  Te  Te131  1  0.83245461  0.50106840  0.82824048  1
  Te  Te132  1  0.83900840  0.83422445  0.16763867  1
  Te  Te133  1  0.83652234  0.83188268  0.50145467  1
  Te  Te134  1  0.83365650  0.83330597  0.82061008  1
  Te  Te135  1  0.16572497  -0.00072516  0.00130699  1
  Te  Te136  1  0.16674137  -0.00162805  0.32982790  1
  Te  Te137  1  0.16766876  -0.00211580  0.66764061  1
  Te  Te138  1  0.16815163  0.33721562  -0.00023906  1
  Te  Te139  1  0.16670938  0.33172952  0.33322237  1
  Te  Te140  1  0.17298893  0.33141143  0.66717276  1
  Te  Te141  1  0.16647949  0.66850210  0.00169656  1
  Te  Te142  1  0.16620727  0.66802535  0.32972107  1
  Te  Te143  1  0.17238932  0.67026918  0.66899121  1
  Te  Te144  1  0.49793953  -0.00109193  0.00160185  1
  Te  Te145  1  0.49911773  -0.00004534  0.32768269  1
  Te  Te146  1  0.50061206  -0.00182104  0.66476962  1
  Te  Te147  1  0.49450320  0.33056622  0.00493684  1
  Te  Te148  1  0.49547862  0.33309902  0.33177618  1
  Te  Te149  1  0.49580407  0.32971860  0.66574684  1
  Te  Te150  1  0.49955064  0.66845511  0.00313768  1
  Te  Te151  1  0.49779551  0.66683551  0.33187199  1
  Te  Te152  1  0.49622861  0.66975781  0.66619196  1
  Te  Te153  1  0.83734071  -0.00057245  -0.00097036  1
  Te  Te154  1  0.83151680  0.00050231  0.34193285  1
  Te  Te155  1  0.82971399  -0.00324694  0.66233637  1
  Te  Te156  1  0.83554968  0.33423656  0.00722106  1
  Te  Te157  1  0.83500718  0.33869556  0.33021176  1
  Te  Te158  1  0.83202070  0.33660843  0.66596201  1
  Te  Te159  1  0.83879899  0.66685163  -0.00353110  1
  Te  Te160  1  0.83428587  0.66274413  0.33804760  1
  Te  Te161  1  0.83259677  0.66825632  0.66190186  1
  Te  Te162  1  0.00018519  0.16806433  0.00511345  1
  Te  Te163  1  0.00579173  0.16900481  0.33085862  1
  Te  Te164  1  0.00692567  0.16775016  0.66533862  1
  Te  Te165  1  0.00522617  0.50227743  -0.00012316  1
  Te  Te166  1  -0.00297236  0.50027598  0.33381602  1
  Te  Te167  1  -0.00645535  0.49906526  0.66682278  1
  Te  Te168  1  -0.00119874  0.83253188  0.00452096  1
  Te  Te169  1  0.00416540  0.83024527  0.33242130  1
  Te  Te170  1  0.00257095  0.83321716  0.66204295  1
  Te  Te171  1  0.33388106  0.16845093  0.00158667  1
  Te  Te172  1  0.32644480  0.17122804  0.32891878  1
  Te  Te173  1  0.33250177  0.16761602  0.66459662  1
  Te  Te174  1  0.32936090  0.49724483  0.00226955  1
  Te  Te175  1  0.33207551  0.50013511  0.33113679  1
  Te  Te176  1  0.33329324  0.50061489  0.66926227  1
  Te  Te177  1  0.34051888  0.84439440  0.00027945  1
  Te  Te178  1  0.32537164  0.82479017  0.33402725  1
  Te  Te179  1  0.33406934  0.82800244  0.66705755  1
  Te  Te180  1  0.66029543  0.16198558  -0.00046276  1
  Te  Te181  1  0.66815987  0.17228624  0.33287019  1
  Te  Te182  1  0.66228193  0.16094476  0.66630660  1
  Te  Te183  1  0.66881019  0.50407128  0.00686948  1
  Te  Te184  1  0.67037779  0.50117659  0.32889000  1
  Te  Te185  1  0.67230438  0.49973210  0.66797623  1
  Te  Te186  1  0.66481006  0.83256748  0.00435058  1
  Te  Te187  1  0.66722166  0.82806101  0.32587589  1
  Te  Te188  1  0.66446993  0.83653265  0.66560191  1
  Te  Te189  1  0.00052907  -0.00019634  0.16500391  1
  Te  Te190  1  0.00299852  -0.00118118  0.50106290  1
  Te  Te191  1  0.00337088  0.00034965  0.84122902  1
  Te  Te192  1  0.00313089  0.33411314  0.16779590  1
  Te  Te193  1  -0.00052935  0.33036968  0.49416779  1
  Te  Te194  1  0.00167395  0.33294053  0.84062683  1
  Te  Te195  1  -0.00156067  0.66693536  0.16860668  1
  Te  Te196  1  -0.00175264  0.66985530  0.49608930  1
  Te  Te197  1  0.00653554  0.66674500  0.83692651  1
  Te  Te198  1  0.33241441  0.00048405  0.16384949  1
  Te  Te199  1  0.32608796  -0.00029519  0.49766556  1
  Te  Te200  1  0.33388990  0.00372185  0.83596466  1
  Te  Te201  1  0.33281673  0.33422781  0.16773365  1
  Te  Te202  1  0.33695451  0.33763397  0.50030877  1
  Te  Te203  1  0.33445802  0.33393284  0.83009085  1
  Te  Te204  1  0.33482094  0.66486479  0.16748333  1
  Te  Te205  1  0.33550987  0.66295318  0.49885972  1
  Te  Te206  1  0.33320049  0.66473501  0.83606883  1
  Te  Te207  1  0.66663158  -0.00203761  0.16256498  1
  Te  Te208  1  0.66641023  -0.00022224  0.50250012  1
  Te  Te209  1  0.66331582  -0.00030073  0.83500294  1
  Te  Te210  1  0.66115997  0.33331834  0.17087762  1
  Te  Te211  1  0.65864473  0.33383302  0.49145972  1
  Te  Te212  1  0.66680294  0.33404988  0.83395234  1
  Te  Te213  1  0.66879497  0.66683422  0.16768986  1
  Te  Te214  1  0.66407603  0.66581970  0.49565166  1
  Te  Te215  1  0.66062703  0.66595464  0.83869481  1
