# generated using pymatgen
data_AgSbTe2
_symmetry_space_group_name_H-M   'P 1'
_cell_length_a   18.33295699
_cell_length_b   18.33190578
_cell_length_c   18.33500391
_cell_angle_alpha   89.99911557
_cell_angle_beta   89.99950133
_cell_angle_gamma   90.00285077
_symmetry_Int_Tables_number   1
_chemical_formula_structural   AgSbTe2
_chemical_formula_sum   'Ag54 Sb54 Te108'
_cell_volume   6161.99217123
_cell_formula_units_Z   54
loop_
 _symmetry_equiv_pos_site_id
 _symmetry_equiv_pos_as_xyz
  1  'x, y, z'
loop_
 _atom_site_type_symbol
 _atom_site_label
 _atom_site_symmetry_multiplicity
 _atom_site_fract_x
 _atom_site_fract_y
 _atom_site_fract_z
 _atom_site_occupancy
  Ag  Ag0  1  -0.00359822  0.49693859  0.82879846  1
  Ag  Ag1  1  0.66401417  0.65697466  0.34173452  1
  Ag  Ag2  1  0.65603893  0.65774525  0.66091137  1
  Ag  Ag3  1  0.16678795  0.16500903  0.67041026  1
  Ag  Ag4  1  0.66027751  0.49650138  0.83049837  1
  Ag  Ag5  1  0.00777371  -0.00043550  0.66659792  1
  Ag  Ag6  1  0.33304303  0.00861851  0.00372205  1
  Ag  Ag7  1  0.66462381  0.33745069  0.66301556  1
  Ag  Ag8  1  0.49343778  0.49567636  -0.00602713  1
  Ag  Ag9  1  0.66374250  0.17279039  0.50605582  1
  Ag  Ag10  1  0.66597817  0.34090910  0.34420228  1
  Ag  Ag11  1  0.17298595  0.49934457  0.00043259  1
  Ag  Ag12  1  0.33381095  0.33013339  -0.00159804  1
  Ag  Ag13  1  0.33501839  0.66146656  0.66117267  1
  Ag  Ag14  1  0.50634848  0.50133468  0.66254985  1
  Ag  Ag15  1  0.33292267  0.17117715  0.16535020  1
  Ag  Ag16  1  0.82452569  0.33749748  0.50267978  1
  Ag  Ag17  1  -0.00970691  0.49752805  0.49703056  1
  Ag  Ag18  1  0.49662397  0.00625041  0.50462364  1
  Ag  Ag19  1  -0.00205908  0.17523415  0.83208517  1
  Ag  Ag20  1  0.82440192  0.50094967  0.65802821  1
  Ag  Ag21  1  0.49335438  0.17394706  -0.00134809  1
  Ag  Ag22  1  0.00454421  0.50084741  0.17955711  1
  Ag  Ag23  1  0.83928491  0.83774134  0.00393421  1
  Ag  Ag24  1  0.49709696  0.65464199  0.82629072  1
  Ag  Ag25  1  0.50351698  0.65557183  0.50084506  1
  Ag  Ag26  1  0.33573364  0.65889894  0.33694090  1
  Ag  Ag27  1  0.16590033  0.82388546  -0.00556948  1
  Ag  Ag28  1  0.34505334  0.49993578  0.49466326  1
  Ag  Ag29  1  0.17575105  0.17005010  -0.00159032  1
  Ag  Ag30  1  0.33299229  -0.00119253  0.66450052  1
  Ag  Ag31  1  0.17081252  0.66224778  0.16497673  1
  Ag  Ag32  1  0.49788317  0.01049554  0.82656535  1
  Ag  Ag33  1  0.50432870  0.50001382  0.34311990  1
  Ag  Ag34  1  0.16775551  0.82924748  0.67181697  1
  Ag  Ag35  1  0.49320508  0.66030370  0.18028642  1
  Ag  Ag36  1  0.50529213  0.33649768  0.82699917  1
  Ag  Ag37  1  0.82445032  0.33555406  0.82828094  1
  Ag  Ag38  1  0.00476392  0.66149493  0.66234898  1
  Ag  Ag39  1  0.82415757  0.65612677  0.49801904  1
  Ag  Ag40  1  0.83379799  0.81885177  0.33170243  1
  Ag  Ag41  1  0.83067687  0.16698206  -0.00182465  1
  Ag  Ag42  1  0.17142150  0.66158324  0.83285833  1
  Ag  Ag43  1  0.33590011  0.00268758  0.33464217  1
  Ag  Ag44  1  0.50560143  0.33590573  0.50117859  1
  Ag  Ag45  1  0.83103450  0.50062049  0.34035517  1
  Ag  Ag46  1  0.66470167  0.17655600  0.82975005  1
  Ag  Ag47  1  0.16983352  0.33514998  0.50056053  1
  Ag  Ag48  1  0.83661384  0.00189253  0.16637354  1
  Ag  Ag49  1  0.17528397  0.16972966  0.33510829  1
  Ag  Ag50  1  0.49632103  0.17678595  0.33444322  1
  Ag  Ag51  1  0.33287792  0.49918756  0.17140415  1
  Ag  Ag52  1  -0.00476306  0.65764701  0.34003205  1
  Ag  Ag53  1  -0.00585502  0.34074558  0.33890946  1
  Sb  Sb54  1  -0.00321590  0.33840405  0.66357598  1
  Sb  Sb55  1  0.66271924  0.50051181  0.16601624  1
  Sb  Sb56  1  0.83040816  0.17215109  0.33116709  1
  Sb  Sb57  1  0.83521295  0.17333758  0.66967112  1
  Sb  Sb58  1  0.16725641  0.49794670  0.33210841  1
  Sb  Sb59  1  0.49766687  -0.00067932  0.16779340  1
  Sb  Sb60  1  0.66218024  0.00070546  0.33424853  1
  Sb  Sb61  1  0.33693589  0.33523985  0.66867702  1
  Sb  Sb62  1  0.00238958  0.66319037  -0.00082689  1
  Sb  Sb63  1  0.33217149  0.66336073  0.00083997  1
  Sb  Sb64  1  0.00039249  0.82727007  0.16733049  1
  Sb  Sb65  1  0.83821178  0.82436345  0.66555684  1
  Sb  Sb66  1  0.16928641  0.65851620  0.50212344  1
  Sb  Sb67  1  0.83090194  0.00290841  0.49944272  1
  Sb  Sb68  1  0.49577138  0.82576944  0.66614056  1
  Sb  Sb69  1  0.66803729  0.83130025  0.16783469  1
  Sb  Sb70  1  0.66175661  0.33341315  -0.00620972  1
  Sb  Sb71  1  0.00381818  0.17081482  0.16386008  1
  Sb  Sb72  1  0.16761771  0.49971428  0.66825779  1
  Sb  Sb73  1  0.16874923  0.33734107  0.16903678  1
  Sb  Sb74  1  0.83220982  0.65893538  0.82806434  1
  Sb  Sb75  1  0.33596121  0.17265563  0.49733686  1
  Sb  Sb76  1  0.00261475  0.33510473  0.00059389  1
  Sb  Sb77  1  0.33588877  0.50076728  0.83356028  1
  Sb  Sb78  1  0.00130439  0.83006507  0.83273252  1
  Sb  Sb79  1  0.16742152  0.33626537  0.83138919  1
  Sb  Sb80  1  0.00267607  0.00324163  -0.00424379  1
  Sb  Sb81  1  0.16591070  0.83179434  0.33457457  1
  Sb  Sb82  1  0.50171923  0.82543289  0.33514558  1
  Sb  Sb83  1  0.83330958  0.66612480  0.17428006  1
  Sb  Sb84  1  0.49872394  0.33798793  0.16861162  1
  Sb  Sb85  1  0.49822180  0.17147291  0.66752372  1
  Sb  Sb86  1  0.66689112  0.82961553  0.83176165  1
  Sb  Sb87  1  0.49587624  0.83267268  -0.00225195  1
  Sb  Sb88  1  0.66361478  0.00174721  -0.00096535  1
  Sb  Sb89  1  0.83397156  0.33236802  0.16773974  1
  Sb  Sb90  1  0.16623765  -0.00159089  0.16527807  1
  Sb  Sb91  1  -0.00062093  0.17419512  0.50272875  1
  Sb  Sb92  1  -0.00020467  0.82280031  0.50033847  1
  Sb  Sb93  1  0.33478766  0.16586836  0.83715379  1
  Sb  Sb94  1  0.83389627  0.49877511  -0.00117477  1
  Sb  Sb95  1  0.66596971  0.83114943  0.49996645  1
  Sb  Sb96  1  0.16976166  -0.00034379  0.83188102  1
  Sb  Sb97  1  0.17257419  0.00776182  0.50314149  1
  Sb  Sb98  1  0.66684068  0.49440279  0.50621846  1
  Sb  Sb99  1  0.83115414  0.00744886  0.83479426  1
  Sb  Sb100  1  0.00214576  0.00144028  0.33840077  1
  Sb  Sb101  1  0.33208969  0.83272323  0.83245830  1
  Sb  Sb102  1  0.66286213  0.00305762  0.66739994  1
  Sb  Sb103  1  0.33239160  0.82994396  0.16642348  1
  Sb  Sb104  1  0.66378923  0.66488791  -0.00103947  1
  Sb  Sb105  1  0.66203344  0.16839430  0.16519768  1
  Sb  Sb106  1  0.33467136  0.33565215  0.33231285  1
  Sb  Sb107  1  0.33313920  0.82741151  0.50127902  1
  Te  Te108  1  0.17172490  0.16588004  0.16315969  1
  Te  Te109  1  0.16628710  0.17478121  0.49795748  1
  Te  Te110  1  0.16428664  0.16768569  0.83364962  1
  Te  Te111  1  0.16929643  0.50199105  0.16356439  1
  Te  Te112  1  0.16576850  0.49289903  0.50120688  1
  Te  Te113  1  0.16513644  0.50227455  0.83843711  1
  Te  Te114  1  0.16628094  0.82647649  0.16199215  1
  Te  Te115  1  0.16623046  0.83704971  0.50583359  1
  Te  Te116  1  0.16593634  0.82780119  0.83331535  1
  Te  Te117  1  0.49420260  0.16466593  0.16454579  1
  Te  Te118  1  0.50190896  0.17039397  0.49993905  1
  Te  Te119  1  0.50163225  0.17023978  0.83467563  1
  Te  Te120  1  0.49729479  0.50406560  0.16325934  1
  Te  Te121  1  0.50118089  0.49737514  0.50152593  1
  Te  Te122  1  0.49908507  0.49763117  0.83343238  1
  Te  Te123  1  0.50048170  0.82302026  0.16614981  1
  Te  Te124  1  0.49896095  0.84326261  0.50024602  1
  Te  Te125  1  0.50245062  0.83526455  0.83341521  1
  Te  Te126  1  0.83454312  0.16309804  0.16115489  1
  Te  Te127  1  0.82741877  0.17234343  0.49992330  1
  Te  Te128  1  0.83299979  0.17214003  0.83582667  1
  Te  Te129  1  0.83902080  0.50015692  0.16763965  1
  Te  Te130  1  0.83192023  0.49890485  0.49948271  1
  Te  Te131  1  0.83630223  0.49385565  0.83568360  1
  Te  Te132  1  0.83420889  0.83662809  0.16574722  1
  Te  Te133  1  0.83345792  0.83312434  0.49488236  1
  Te  Te134  1  0.83319892  0.83444452  0.83874188  1
  Te  Te135  1  0.17067112  0.00717403  -0.00083702  1
  Te  Te136  1  0.17170640  0.00307342  0.33352160  1
  Te  Te137  1  0.16859599  0.00344957  0.66733174  1
  Te  Te138  1  0.17097906  0.33380437  -0.00117806  1
  Te  Te139  1  0.16622093  0.32813880  0.33702737  1
  Te  Te140  1  0.16771260  0.32769840  0.66259350  1
  Te  Te141  1  0.16729162  0.66411280  -0.00296985  1
  Te  Te142  1  0.17226035  0.66993838  0.33116631  1
  Te  Te143  1  0.16856046  0.66675168  0.66771338  1
  Te  Te144  1  0.49443148  0.00063665  -0.00005204  1
  Te  Te145  1  0.49574040  0.00036981  0.33401550  1
  Te  Te146  1  0.49752196  -0.00228515  0.66704822  1
  Te  Te147  1  0.49838748  0.33380351  0.00145354  1
  Te  Te148  1  0.50148403  0.33544946  0.33527954  1
  Te  Te149  1  0.50268570  0.33680254  0.66538094  1
  Te  Te150  1  0.49982129  0.66496295  -0.01059917  1
  Te  Te151  1  0.49772478  0.66357429  0.33887443  1
  Te  Te152  1  0.49674934  0.66464654  0.66418111  1
  Te  Te153  1  0.83416811  0.00180414  0.00163773  1
  Te  Te154  1  0.83233891  0.00269905  0.33060842  1
  Te  Te155  1  0.83372293  -0.00417173  0.66588725  1
  Te  Te156  1  0.83201900  0.32850943  -0.00185836  1
  Te  Te157  1  0.83377045  0.33720268  0.33429551  1
  Te  Te158  1  0.83026890  0.33840137  0.66656912  1
  Te  Te159  1  0.83236184  0.66947254  0.00069026  1
  Te  Te160  1  0.83487055  0.66216872  0.33568681  1
  Te  Te161  1  0.83962392  0.66156611  0.66170616  1
  Te  Te162  1  -0.00015259  0.16797955  -0.00425828  1
  Te  Te163  1  0.00342975  0.16958363  0.33308629  1
  Te  Te164  1  0.00257308  0.16681064  0.67054661  1
  Te  Te165  1  0.00375520  0.49888375  -0.00562835  1
  Te  Te166  1  0.00311706  0.49969186  0.33511773  1
  Te  Te167  1  0.00210678  0.50355542  0.66800753  1
  Te  Te168  1  0.00207245  0.83471216  -0.00004684  1
  Te  Te169  1  -0.00555514  0.83169973  0.33370460  1
  Te  Te170  1  0.00619200  0.83213739  0.66660203  1
  Te  Te171  1  0.33582118  0.16787439  0.00111892  1
  Te  Te172  1  0.33547780  0.16876903  0.33079972  1
  Te  Te173  1  0.32730376  0.16374090  0.66450526  1
  Te  Te174  1  0.33389572  0.49922255  0.00128939  1
  Te  Te175  1  0.33466883  0.50170335  0.33258181  1
  Te  Te176  1  0.33587116  0.50318736  0.66243724  1
  Te  Te177  1  0.32696140  0.84133442  0.00042215  1
  Te  Te178  1  0.33404006  0.83778964  0.33403896  1
  Te  Te179  1  0.32720145  0.83540049  0.66588565  1
  Te  Te180  1  0.66612789  0.16743738  -0.00285500  1
  Te  Te181  1  0.66121291  0.16861140  0.33326216  1
  Te  Te182  1  0.66659917  0.17071027  0.66809510  1
  Te  Te183  1  0.66112637  0.49903739  -0.00511526  1
  Te  Te184  1  0.66465296  0.50061102  0.32852742  1
  Te  Te185  1  0.66709427  0.49981795  0.66971750  1
  Te  Te186  1  0.67336584  0.83379402  -0.00054156  1
  Te  Te187  1  0.67340894  0.83032678  0.33450762  1
  Te  Te188  1  0.66830472  0.82528915  0.66701246  1
  Te  Te189  1  -0.00485508  0.00053676  0.16876139  1
  Te  Te190  1  -0.00006714  0.00100160  0.50732927  1
  Te  Te191  1  -0.00126707  0.00288812  0.82590878  1
  Te  Te192  1  0.00140535  0.33931895  0.17330823  1
  Te  Te193  1  -0.00234193  0.33725472  0.49750340  1
  Te  Te194  1  -0.00062746  0.33364673  0.83373836  1
  Te  Te195  1  0.00362333  0.66013076  0.16899936  1
  Te  Te196  1  0.00167249  0.65929433  0.49969002  1
  Te  Te197  1  0.00072534  0.66286077  0.83017629  1
  Te  Te198  1  0.33268058  0.00184096  0.16932564  1
  Te  Te199  1  0.33792514  0.00062885  0.49967143  1
  Te  Te200  1  0.33752295  -0.00119665  0.82837354  1
  Te  Te201  1  0.33349256  0.33456040  0.15983549  1
  Te  Te202  1  0.33558200  0.34048749  0.50069470  1
  Te  Te203  1  0.34002955  0.33334242  0.83803985  1
  Te  Te204  1  0.33256453  0.66371434  0.16743581  1
  Te  Te205  1  0.33612853  0.66222513  0.49946462  1
  Te  Te206  1  0.33368211  0.66786724  0.82911403  1
  Te  Te207  1  0.67362170  -0.00076927  0.16600164  1
  Te  Te208  1  0.66059783  0.00715907  0.50101726  1
  Te  Te209  1  0.65986921  0.00396181  0.83342568  1
  Te  Te210  1  0.66777943  0.33345680  0.18016698  1
  Te  Te211  1  0.66545347  0.33199637  0.50224019  1
  Te  Te212  1  0.66584456  0.33427174  0.83237517  1
  Te  Te213  1  0.66151814  0.66652657  0.17076868  1
  Te  Te214  1  0.66527114  0.66936384  0.50027348  1
  Te  Te215  1  0.66417301  0.66117256  0.82931739  1
