# generated using pymatgen
data_AgSbTe2
_symmetry_space_group_name_H-M   'P 1'
_cell_length_a   18.32506151
_cell_length_b   18.31991838
_cell_length_c   18.32165272
_cell_angle_alpha   89.99948475
_cell_angle_beta   90.00072787
_cell_angle_gamma   90.00169567
_symmetry_Int_Tables_number   1
_chemical_formula_structural   AgSbTe2
_chemical_formula_sum   'Ag54 Sb54 Te108'
_cell_volume   6150.82855942
_cell_formula_units_Z   54
loop_
 _symmetry_equiv_pos_site_id
 _symmetry_equiv_pos_as_xyz
  1  'x, y, z'
loop_
 _atom_site_type_symbol
 _atom_site_label
 _atom_site_symmetry_multiplicity
 _atom_site_fract_x
 _atom_site_fract_y
 _atom_site_fract_z
 _atom_site_occupancy
  Ag  Ag0  1  0.83212158  -0.00098675  0.50104902  1
  Ag  Ag1  1  0.16918529  0.33303834  0.82769738  1
  Ag  Ag2  1  0.16146630  0.83767642  0.32975385  1
  Ag  Ag3  1  0.49348850  -0.00005302  0.82881937  1
  Ag  Ag4  1  0.32597542  0.33262424  0.66866939  1
  Ag  Ag5  1  0.83532241  0.17236460  0.00695638  1
  Ag  Ag6  1  0.33393617  0.49736074  0.83018141  1
  Ag  Ag7  1  0.83742271  0.33306346  0.50667979  1
  Ag  Ag8  1  -0.00463428  0.33264569  -0.00312561  1
  Ag  Ag9  1  0.67456130  0.83668681  0.16345751  1
  Ag  Ag10  1  0.66989066  0.66568706  -0.00101738  1
  Ag  Ag11  1  0.67701644  0.16280349  0.16755950  1
  Ag  Ag12  1  0.67362416  0.50143454  0.83320670  1
  Ag  Ag13  1  -0.00071563  0.67003629  0.66780187  1
  Ag  Ag14  1  0.33294694  0.00047003  0.33358683  1
  Ag  Ag15  1  0.50274283  0.33366562  0.15987483  1
  Ag  Ag16  1  0.16785147  -0.00173840  0.82865446  1
  Ag  Ag17  1  0.50255939  0.66729782  0.50074066  1
  Ag  Ag18  1  0.66898877  0.50210290  0.50592909  1
  Ag  Ag19  1  0.83885842  0.16343784  0.66819165  1
  Ag  Ag20  1  -0.00810302  -0.00299274  0.33641861  1
  Ag  Ag21  1  0.67652056  0.83314949  0.83786738  1
  Ag  Ag22  1  0.83265156  0.66689831  0.50200458  1
  Ag  Ag23  1  0.50249285  -0.00434696  0.50227534  1
  Ag  Ag24  1  0.49826344  0.33648332  0.83628965  1
  Ag  Ag25  1  0.16738558  0.83500342  -0.00279604  1
  Ag  Ag26  1  -0.00736136  0.16104069  0.16661656  1
  Ag  Ag27  1  0.16402800  0.49410820  0.66910306  1
  Ag  Ag28  1  0.32746898  0.00013588  0.67495272  1
  Ag  Ag29  1  0.67747118  -0.00111294  0.33332692  1
  Ag  Ag30  1  0.83076817  0.32754498  0.16049133  1
  Ag  Ag31  1  0.83626393  0.83758515  0.66842030  1
  Ag  Ag32  1  0.33287917  -0.00250855  -0.00885506  1
  Ag  Ag33  1  0.33224388  0.16126944  0.16834814  1
  Ag  Ag34  1  0.32576945  0.66644377  0.66697482  1
  Ag  Ag35  1  0.83443663  0.16110402  0.32712827  1
  Ag  Ag36  1  0.16290006  0.17287684  0.66851455  1
  Ag  Ag37  1  -0.00280672  0.83568512  0.83341528  1
  Ag  Ag38  1  0.33270418  0.32844463  0.33499236  1
  Ag  Ag39  1  0.83714711  0.84313181  0.33345773  1
  Ag  Ag40  1  0.32945451  0.84221653  0.83406288  1
  Ag  Ag41  1  0.16522127  0.66481303  0.50590426  1
  Ag  Ag42  1  0.16381426  0.33766062  0.51114963  1
  Ag  Ag43  1  -0.00484975  -0.00413593  0.66968164  1
  Ag  Ag44  1  0.50048563  0.49666174  0.33285360  1
  Ag  Ag45  1  0.50814972  0.49756556  -0.00543927  1
  Ag  Ag46  1  0.83243685  0.67291954  0.16913011  1
  Ag  Ag47  1  -0.00597792  0.83757969  0.16531389  1
  Ag  Ag48  1  0.83643371  -0.00180641  0.82602715  1
  Ag  Ag49  1  0.83573274  0.33745959  0.83447359  1
  Ag  Ag50  1  0.33053960  0.83873011  0.16304998  1
  Ag  Ag51  1  -0.00922791  0.49848258  0.83015302  1
  Ag  Ag52  1  0.83866098  0.49773351  0.67294898  1
  Ag  Ag53  1  0.82943341  0.49462636  -0.01005902  1
  Sb  Sb54  1  0.49748457  0.00382634  0.16660028  1
  Sb  Sb55  1  0.16045166  0.67160838  0.17151296  1
  Sb  Sb56  1  0.16687103  0.66875727  0.82790103  1
  Sb  Sb57  1  0.33402848  0.66881033  0.33761863  1
  Sb  Sb58  1  0.50310711  0.83393622  0.66867678  1
  Sb  Sb59  1  0.33514789  0.49959072  0.16144905  1
  Sb  Sb60  1  0.17054079  0.50157677  0.34293531  1
  Sb  Sb61  1  0.67148175  0.83101413  0.49979892  1
  Sb  Sb62  1  0.67385239  0.33828421  -0.00070134  1
  Sb  Sb63  1  0.49970104  0.16493363  0.66803028  1
  Sb  Sb64  1  0.16457928  -0.00060488  0.50525193  1
  Sb  Sb65  1  -0.00207117  0.67482191  0.33920277  1
  Sb  Sb66  1  0.49727317  0.83127086  -0.00184710  1
  Sb  Sb67  1  0.83415483  0.00172391  0.16837189  1
  Sb  Sb68  1  0.66983836  0.33446827  0.66831399  1
  Sb  Sb69  1  0.50004679  0.66497719  0.82878607  1
  Sb  Sb70  1  -0.00198092  0.83415431  0.50336005  1
  Sb  Sb71  1  0.33699256  0.67100007  -0.00569117  1
  Sb  Sb72  1  0.49955189  0.49968843  0.66992793  1
  Sb  Sb73  1  -0.00261184  0.16676601  0.50015202  1
  Sb  Sb74  1  0.00185736  0.33282849  0.67354174  1
  Sb  Sb75  1  -0.00574373  0.66557244  -0.00484848  1
  Sb  Sb76  1  0.67193290  0.16780750  0.49546058  1
  Sb  Sb77  1  0.66575644  0.33068648  0.33156562  1
  Sb  Sb78  1  0.16610231  0.33157226  0.16435181  1
  Sb  Sb79  1  0.00072866  0.00120655  -0.00306044  1
  Sb  Sb80  1  0.16205050  0.83320914  0.66873360  1
  Sb  Sb81  1  -0.00398577  0.50029181  0.15942609  1
  Sb  Sb82  1  -0.00278477  0.16550055  0.83463328  1
  Sb  Sb83  1  0.82981183  0.49766117  0.33540663  1
  Sb  Sb84  1  0.33226813  0.83460581  0.50304600  1
  Sb  Sb85  1  0.66853875  0.67087673  0.33133756  1
  Sb  Sb86  1  0.83346871  0.66565217  0.82993642  1
  Sb  Sb87  1  0.16514233  0.50277539  -0.01051748  1
  Sb  Sb88  1  0.16807762  -0.00135743  0.16289590  1
  Sb  Sb89  1  0.33760712  0.50013316  0.50767829  1
  Sb  Sb90  1  0.83638735  0.83407473  -0.00081255  1
  Sb  Sb91  1  0.66511580  -0.00408309  0.00162363  1
  Sb  Sb92  1  0.33231939  0.16438258  0.83496474  1
  Sb  Sb93  1  0.50066559  0.33379937  0.50174272  1
  Sb  Sb94  1  0.50398656  0.17072884  0.00124956  1
  Sb  Sb95  1  0.16333093  0.16082308  0.33711943  1
  Sb  Sb96  1  0.50405080  0.66328724  0.16956359  1
  Sb  Sb97  1  0.16323081  0.16329281  -0.00457236  1
  Sb  Sb98  1  -0.00626866  0.50063198  0.50810373  1
  Sb  Sb99  1  0.67230229  -0.00087252  0.66539160  1
  Sb  Sb100  1  0.33261378  0.16626806  0.49845228  1
  Sb  Sb101  1  0.50238198  0.16827364  0.33153039  1
  Sb  Sb102  1  0.00101119  0.32797303  0.32878731  1
  Sb  Sb103  1  0.67131508  0.66636480  0.66893008  1
  Sb  Sb104  1  0.66849977  0.49985558  0.16400964  1
  Sb  Sb105  1  0.50115402  0.83385133  0.33257894  1
  Sb  Sb106  1  0.67249798  0.16514481  0.83863522  1
  Sb  Sb107  1  0.33074366  0.32869125  -0.00294158  1
  Te  Te108  1  0.16980776  0.16666256  0.16690801  1
  Te  Te109  1  0.16557407  0.17349466  0.50703932  1
  Te  Te110  1  0.16537762  0.16702404  0.82841041  1
  Te  Te111  1  0.16623010  0.50245282  0.16681579  1
  Te  Te112  1  0.16680730  0.49954784  0.50752117  1
  Te  Te113  1  0.17023232  0.49825312  0.82826055  1
  Te  Te114  1  0.16766139  0.83355903  0.16868400  1
  Te  Te115  1  0.16545092  0.82962555  0.49359828  1
  Te  Te116  1  0.16765753  0.83536332  0.83394624  1
  Te  Te117  1  0.49446532  0.17371749  0.16647693  1
  Te  Te118  1  0.50352390  0.15834869  0.50016051  1
  Te  Te119  1  0.50373190  0.16849385  0.83471917  1
  Te  Te120  1  0.50052468  0.49486573  0.16657033  1
  Te  Te121  1  0.50526428  0.50142517  0.49875153  1
  Te  Te122  1  0.50011739  0.49824846  0.83522257  1
  Te  Te123  1  0.49933862  0.83232505  0.16610776  1
  Te  Te124  1  0.50296351  0.83417212  0.50028023  1
  Te  Te125  1  0.49536325  0.83741494  0.83390943  1
  Te  Te126  1  0.83469761  0.16616666  0.16643264  1
  Te  Te127  1  0.83343642  0.16771514  0.50258135  1
  Te  Te128  1  0.83332944  0.17077175  0.82908743  1
  Te  Te129  1  0.83315396  0.49384542  0.16680770  1
  Te  Te130  1  0.82941254  0.49989173  0.50010315  1
  Te  Te131  1  0.83219347  0.50098005  0.83321322  1
  Te  Te132  1  0.83391703  0.83400980  0.16583052  1
  Te  Te133  1  0.83244425  0.83384747  0.49955185  1
  Te  Te134  1  0.83530544  0.83357311  0.83306204  1
  Te  Te135  1  0.17053980  -0.00340163  -0.00769838  1
  Te  Te136  1  0.16934543  -0.00360450  0.33705171  1
  Te  Te137  1  0.16712180  -0.00069788  0.66836540  1
  Te  Te138  1  0.16043150  0.33309847  -0.00692893  1
  Te  Te139  1  0.17200102  0.33271328  0.33589903  1
  Te  Te140  1  0.16510047  0.33305332  0.66882506  1
  Te  Te141  1  0.16675014  0.67310534  0.00224824  1
  Te  Te142  1  0.16614439  0.67107372  0.34222634  1
  Te  Te143  1  0.16581933  0.66707679  0.66351660  1
  Te  Te144  1  0.49474236  0.00139184  -0.00572323  1
  Te  Te145  1  0.49397571  0.00047818  0.33617456  1
  Te  Te146  1  0.49608686  0.00065872  0.66706920  1
  Te  Te147  1  0.49772661  0.33765927  -0.00210986  1
  Te  Te148  1  0.49493704  0.33557747  0.33431903  1
  Te  Te149  1  0.49268937  0.33137387  0.67162893  1
  Te  Te150  1  0.50500856  0.65860715  0.00100858  1
  Te  Te151  1  0.50063467  0.66100934  0.33940442  1
  Te  Te152  1  0.49435122  0.66708420  0.65983614  1
  Te  Te153  1  0.83255362  0.00454426  -0.01097124  1
  Te  Te154  1  0.83435394  0.00029863  0.33283380  1
  Te  Te155  1  0.83372509  -0.00137968  0.66598850  1
  Te  Te156  1  0.83408868  0.33344530  -0.00142105  1
  Te  Te157  1  0.83442284  0.32859607  0.33330796  1
  Te  Te158  1  0.83520597  0.33640975  0.66645039  1
  Te  Te159  1  0.83057000  0.66394559  0.00582565  1
  Te  Te160  1  0.83325376  0.66879634  0.33482990  1
  Te  Te161  1  0.83609573  0.66456647  0.66300248  1
  Te  Te162  1  -0.00336347  0.16854809  0.00688346  1
  Te  Te163  1  -0.00376374  0.16038056  0.32729247  1
  Te  Te164  1  -0.00084023  0.15912174  0.66667894  1
  Te  Te165  1  -0.00352545  0.49763959  -0.00835196  1
  Te  Te166  1  0.00189970  0.50060272  0.33181191  1
  Te  Te167  1  -0.00021134  0.50135822  0.67143989  1
  Te  Te168  1  0.00520212  0.83321944  -0.00070572  1
  Te  Te169  1  -0.00207349  0.83757279  0.32984197  1
  Te  Te170  1  -0.00324252  0.83495865  0.67058223  1
  Te  Te171  1  0.33230929  0.16056443  0.00675942  1
  Te  Te172  1  0.33153390  0.16659639  0.32993590  1
  Te  Te173  1  0.33095798  0.16502358  0.66624825  1
  Te  Te174  1  0.33429193  0.50083841  -0.00755791  1
  Te  Te175  1  0.33759546  0.49773471  0.33154187  1
  Te  Te176  1  0.33236628  0.49858783  0.67095420  1
  Te  Te177  1  0.33081289  0.83609665  -0.00148619  1
  Te  Te178  1  0.33316041  0.83550913  0.33097216  1
  Te  Te179  1  0.33289956  0.83646379  0.67118893  1
  Te  Te180  1  0.67302564  0.16440609  0.00765440  1
  Te  Te181  1  0.67131693  0.16173226  0.32792093  1
  Te  Te182  1  0.67555670  0.16726329  0.66690905  1
  Te  Te183  1  0.66846025  0.50375181  -0.00253528  1
  Te  Te184  1  0.66156831  0.49959025  0.33454539  1
  Te  Te185  1  0.67146651  0.50070616  0.66966480  1
  Te  Te186  1  0.66590708  0.82870502  -0.00064719  1
  Te  Te187  1  0.67008845  0.83820961  0.32922145  1
  Te  Te188  1  0.67451620  0.83226498  0.67588073  1
  Te  Te189  1  0.00144987  -0.00223675  0.16843534  1
  Te  Te190  1  -0.00491146  0.00038797  0.49989867  1
  Te  Te191  1  -0.00143527  -0.00230272  0.83137050  1
  Te  Te192  1  -0.00355897  0.33055258  0.16121255  1
  Te  Te193  1  -0.00172114  0.33416369  0.49720874  1
  Te  Te194  1  -0.00386841  0.33401118  0.83648489  1
  Te  Te195  1  -0.00711038  0.67204931  0.16695570  1
  Te  Te196  1  -0.00279064  0.66647376  0.50714675  1
  Te  Te197  1  0.00065539  0.66953252  0.82778419  1
  Te  Te198  1  0.33400388  -0.00182329  0.17082008  1
  Te  Te199  1  0.33533742  -0.00006826  0.49761892  1
  Te  Te200  1  0.33339221  0.00133916  0.83235675  1
  Te  Te201  1  0.33474723  0.33252504  0.16759853  1
  Te  Te202  1  0.33133440  0.33342778  0.50105541  1
  Te  Te203  1  0.33184642  0.33159086  0.83151119  1
  Te  Te204  1  0.33315092  0.67390293  0.16695758  1
  Te  Te205  1  0.33339726  0.66726241  0.50582463  1
  Te  Te206  1  0.33391793  0.66565360  0.82707400  1
  Te  Te207  1  0.66361250  -0.00193135  0.16954333  1
  Te  Te208  1  0.66790658  -0.00074874  0.49525882  1
  Te  Te209  1  0.66756825  -0.00386856  0.83323907  1
  Te  Te210  1  0.66704576  0.32915226  0.16647810  1
  Te  Te211  1  0.67093236  0.33962524  0.50005690  1
  Te  Te212  1  0.66555483  0.33707117  0.83307757  1
  Te  Te213  1  0.67141892  0.67178885  0.16347785  1
  Te  Te214  1  0.66823345  0.66367383  0.50065906  1
  Te  Te215  1  0.66567146  0.66789210  0.83678207  1
