# generated using pymatgen
data_AgSbTe2
_symmetry_space_group_name_H-M   'P 1'
_cell_length_a   18.32522616
_cell_length_b   18.32497076
_cell_length_c   18.32522029
_cell_angle_alpha   90.00078960
_cell_angle_beta   89.99726024
_cell_angle_gamma   89.99673522
_symmetry_Int_Tables_number   1
_chemical_formula_structural   AgSbTe2
_chemical_formula_sum   'Ag54 Sb54 Te108'
_cell_volume   6153.77816235
_cell_formula_units_Z   54
loop_
 _symmetry_equiv_pos_site_id
 _symmetry_equiv_pos_as_xyz
  1  'x, y, z'
loop_
 _atom_site_type_symbol
 _atom_site_label
 _atom_site_symmetry_multiplicity
 _atom_site_fract_x
 _atom_site_fract_y
 _atom_site_fract_z
 _atom_site_occupancy
  Ag  Ag0  1  0.00375603  0.66570231  0.67155604  1
  Ag  Ag1  1  0.00286743  0.33726955  0.32035326  1
  Ag  Ag2  1  0.32534241  0.66942514  0.00644904  1
  Ag  Ag3  1  0.17045010  0.16992649  0.67383652  1
  Ag  Ag4  1  0.66618584  0.33091638  0.67761524  1
  Ag  Ag5  1  0.82025431  0.33442183  0.83026863  1
  Ag  Ag6  1  0.66593929  0.17009368  0.50912004  1
  Ag  Ag7  1  0.32956934  0.33945487  0.33001577  1
  Ag  Ag8  1  0.66818144  0.83170304  0.16828109  1
  Ag  Ag9  1  0.50248547  0.83390384  0.66732008  1
  Ag  Ag10  1  0.66588541  0.49611605  0.49906001  1
  Ag  Ag11  1  0.50354909  0.49910601  0.66855606  1
  Ag  Ag12  1  0.66721841  0.83419801  0.49841671  1
  Ag  Ag13  1  0.66568407  0.00612740  0.00244432  1
  Ag  Ag14  1  0.33758195  -0.00151816  0.66885955  1
  Ag  Ag15  1  0.66187754  0.00363767  0.66758707  1
  Ag  Ag16  1  0.66234599  0.16729926  0.16199608  1
  Ag  Ag17  1  0.66091097  0.17838579  0.83356469  1
  Ag  Ag18  1  0.50781475  0.33531132  0.83173214  1
  Ag  Ag19  1  0.01040533  0.82586556  0.16399878  1
  Ag  Ag20  1  0.50206045  0.49883448  0.00108723  1
  Ag  Ag21  1  0.67069254  0.33277720  -0.00894601  1
  Ag  Ag22  1  0.32295932  0.83348125  0.16294799  1
  Ag  Ag23  1  0.33362721  0.16999689  0.83379589  1
  Ag  Ag24  1  0.50751676  0.50005501  0.32855136  1
  Ag  Ag25  1  -0.00239217  0.33513526  0.67256236  1
  Ag  Ag26  1  0.33302860  0.83472063  0.83632657  1
  Ag  Ag27  1  0.33519802  0.66452243  0.32321215  1
  Ag  Ag28  1  0.66887736  0.50022701  0.16788097  1
  Ag  Ag29  1  0.66428121  0.49131565  0.83736076  1
  Ag  Ag30  1  0.16598447  0.33443389  0.15853210  1
  Ag  Ag31  1  0.82501731  0.50412461  0.32932349  1
  Ag  Ag32  1  0.33148143  0.16341072  0.16077082  1
  Ag  Ag33  1  0.33471432  0.33111638  0.67148366  1
  Ag  Ag34  1  0.00333697  0.34030117  0.00094284  1
  Ag  Ag35  1  0.33149179  0.66961251  0.66988813  1
  Ag  Ag36  1  0.83426538  0.83088056  0.00754579  1
  Ag  Ag37  1  0.82953072  0.33535997  0.50652726  1
  Ag  Ag38  1  0.66553806  0.66366647  0.32935951  1
  Ag  Ag39  1  0.00604296  0.66200296  0.00684967  1
  Ag  Ag40  1  0.16514320  0.83130631  0.32079608  1
  Ag  Ag41  1  -0.00093407  0.50676435  0.16404390  1
  Ag  Ag42  1  0.16317056  0.67388959  0.16232307  1
  Ag  Ag43  1  0.49856888  -0.00249951  0.16791110  1
  Ag  Ag44  1  0.16870350  0.17567543  -0.00002626  1
  Ag  Ag45  1  0.50388436  -0.00165686  0.50416343  1
  Ag  Ag46  1  0.83742658  0.66952715  0.16680957  1
  Ag  Ag47  1  0.16839386  0.33058038  0.84017763  1
  Ag  Ag48  1  0.83111200  0.82516055  0.32221440  1
  Ag  Ag49  1  0.16598241  0.82851663  0.00716979  1
  Ag  Ag50  1  0.82732136  0.83240006  0.66771806  1
  Ag  Ag51  1  0.17269444  -0.01378655  0.16380319  1
  Ag  Ag52  1  0.16803764  0.49786910  0.00383715  1
  Ag  Ag53  1  0.00197176  -0.00356343  0.66628860  1
  Sb  Sb54  1  0.00083764  0.00028592  0.33406782  1
  Sb  Sb55  1  0.00256508  0.16833036  0.16516737  1
  Sb  Sb56  1  0.49904440  0.16665195  0.66825548  1
  Sb  Sb57  1  0.82841992  0.50031943  0.66345085  1
  Sb  Sb58  1  0.49893554  0.17191358  0.00005941  1
  Sb  Sb59  1  -0.00684043  0.83234522  0.49716282  1
  Sb  Sb60  1  -0.00540688  0.16912947  0.50327742  1
  Sb  Sb61  1  -0.00400942  0.49622268  0.83857904  1
  Sb  Sb62  1  0.17203024  -0.00043041  0.49955652  1
  Sb  Sb63  1  0.33598143  -0.00305546  -0.00016751  1
  Sb  Sb64  1  0.50246192  0.82848120  0.33415674  1
  Sb  Sb65  1  0.83232923  0.50272878  0.00557412  1
  Sb  Sb66  1  0.82976196  -0.00976038  0.16579659  1
  Sb  Sb67  1  0.34033526  0.49858955  0.49998896  1
  Sb  Sb68  1  0.33318857  0.50221623  0.16506893  1
  Sb  Sb69  1  0.49850066  0.66089427  0.83277471  1
  Sb  Sb70  1  0.16992622  0.49511141  0.67449322  1
  Sb  Sb71  1  0.16311324  0.33276313  0.50108061  1
  Sb  Sb72  1  0.83201065  0.16777455  0.66819547  1
  Sb  Sb73  1  -0.00063921  -0.00173803  -0.00144884  1
  Sb  Sb74  1  -0.00621411  0.49820975  0.49539126  1
  Sb  Sb75  1  -0.00100569  0.66356169  0.32707179  1
  Sb  Sb76  1  0.50142014  0.66826737  0.49998883  1
  Sb  Sb77  1  0.50008862  0.00409604  0.83348424  1
  Sb  Sb78  1  0.83081066  0.16999578  0.33227163  1
  Sb  Sb79  1  0.16637913  0.50262143  0.32428647  1
  Sb  Sb80  1  0.49828873  0.33329984  0.16292498  1
  Sb  Sb81  1  0.83341139  0.66380673  0.83738463  1
  Sb  Sb82  1  0.16896904  0.00419093  0.83797419  1
  Sb  Sb83  1  0.66606050  -0.00527733  0.33220365  1
  Sb  Sb84  1  0.33899009  0.83346836  0.49923526  1
  Sb  Sb85  1  0.49938170  0.82948765  -0.00157014  1
  Sb  Sb86  1  0.16891571  0.66241619  0.84176742  1
  Sb  Sb87  1  0.16931804  0.83531566  0.66954124  1
  Sb  Sb88  1  0.33009237  0.33614076  -0.00207578  1
  Sb  Sb89  1  0.66716562  0.66380281  0.00651074  1
  Sb  Sb90  1  0.66556382  0.66592201  0.66273923  1
  Sb  Sb91  1  0.33872117  0.49560013  0.83442393  1
  Sb  Sb92  1  0.33848035  0.16769748  0.50286274  1
  Sb  Sb93  1  0.49860598  0.66960289  0.16702723  1
  Sb  Sb94  1  0.16855360  0.16570924  0.32816311  1
  Sb  Sb95  1  0.50090416  0.17333726  0.33174195  1
  Sb  Sb96  1  0.66701488  0.34110527  0.33279805  1
  Sb  Sb97  1  0.00396195  0.83237448  0.83780578  1
  Sb  Sb98  1  0.00231406  0.17074734  0.83299381  1
  Sb  Sb99  1  0.83153692  0.66453013  0.49482002  1
  Sb  Sb100  1  0.82558489  0.00140561  0.50298498  1
  Sb  Sb101  1  0.83496700  0.33920562  0.16521575  1
  Sb  Sb102  1  0.33483301  -0.00198467  0.33154608  1
  Sb  Sb103  1  0.83097503  0.00313530  0.83212465  1
  Sb  Sb104  1  0.83217961  0.16598164  0.00038180  1
  Sb  Sb105  1  0.16658049  0.66774346  0.49494939  1
  Sb  Sb106  1  0.50654540  0.33170583  0.50532994  1
  Sb  Sb107  1  0.66328309  0.83304747  0.83368493  1
  Te  Te108  1  0.16920769  0.17522866  0.16416469  1
  Te  Te109  1  0.16730051  0.16484127  0.50459444  1
  Te  Te110  1  0.16924047  0.16923085  0.83468186  1
  Te  Te111  1  0.16486861  0.49437648  0.16183554  1
  Te  Te112  1  0.16636139  0.50048162  0.49923858  1
  Te  Te113  1  0.16635953  0.49279689  0.84190875  1
  Te  Te114  1  0.16657471  0.83118195  0.16457233  1
  Te  Te115  1  0.16542563  0.83454141  0.49238256  1
  Te  Te116  1  0.17295852  0.83402002  0.83863092  1
  Te  Te117  1  0.49911811  0.16213182  0.16554991  1
  Te  Te118  1  0.50768198  0.16033185  0.49860028  1
  Te  Te119  1  0.49822997  0.17317511  0.83464310  1
  Te  Te120  1  0.50321460  0.50059985  0.16590669  1
  Te  Te121  1  0.50683475  0.49985384  0.50345928  1
  Te  Te122  1  0.50404455  0.49558667  0.83192796  1
  Te  Te123  1  0.50735924  0.83739825  0.16618390  1
  Te  Te124  1  0.50586266  0.83769134  0.50450544  1
  Te  Te125  1  0.49412226  0.83321228  0.82844780  1
  Te  Te126  1  0.82670389  0.16389741  0.16664116  1
  Te  Te127  1  0.82433763  0.17280427  0.49949510  1
  Te  Te128  1  0.82499837  0.17372942  0.83444229  1
  Te  Te129  1  0.83250027  0.50477488  0.16972822  1
  Te  Te130  1  0.82682791  0.49651996  0.49362965  1
  Te  Te131  1  0.82650893  0.49517155  0.83319163  1
  Te  Te132  1  0.82710083  0.83023996  0.16601005  1
  Te  Te133  1  0.82683237  0.83327753  0.50576624  1
  Te  Te134  1  0.83385173  0.83284851  0.82908018  1
  Te  Te135  1  0.16625448  -0.00277442  0.00509696  1
  Te  Te136  1  0.16701071  -0.00502339  0.32692771  1
  Te  Te137  1  0.16914858  0.00377774  0.66694563  1
  Te  Te138  1  0.16811474  0.33443727  0.00006148  1
  Te  Te139  1  0.16711787  0.33412530  0.33378710  1
  Te  Te140  1  0.16873117  0.33076285  0.66643282  1
  Te  Te141  1  0.16561925  0.66677890  0.00265381  1
  Te  Te142  1  0.16993478  0.67011190  0.32793748  1
  Te  Te143  1  0.16877558  0.66516401  0.66638236  1
  Te  Te144  1  0.50635268  -0.00132553  0.00475958  1
  Te  Te145  1  0.49897835  0.00017467  0.33002516  1
  Te  Te146  1  0.50139673  -0.00138345  0.66786945  1
  Te  Te147  1  0.50377485  0.33864983  -0.00412266  1
  Te  Te148  1  0.49270953  0.34071414  0.33444831  1
  Te  Te149  1  0.50147357  0.33531540  0.66927759  1
  Te  Te150  1  0.49375964  0.65951037  -0.00031243  1
  Te  Te151  1  0.49718766  0.66036263  0.33388048  1
  Te  Te152  1  0.49576493  0.66691152  0.66628213  1
  Te  Te153  1  0.82786202  -0.00659847  -0.00157470  1
  Te  Te154  1  0.83530568  -0.00861142  0.33498315  1
  Te  Te155  1  0.83054135  -0.00433234  0.66637765  1
  Te  Te156  1  0.83420180  0.33361279  -0.00354434  1
  Te  Te157  1  0.83822505  0.33720141  0.33335624  1
  Te  Te158  1  0.83087098  0.33396502  0.66815322  1
  Te  Te159  1  0.83904634  0.67114630  0.00431697  1
  Te  Te160  1  0.83327316  0.66619707  0.32897725  1
  Te  Te161  1  0.83654842  0.67087031  0.66767535  1
  Te  Te162  1  0.00563763  0.16906533  -0.00011512  1
  Te  Te163  1  -0.00037967  0.17585963  0.33473236  1
  Te  Te164  1  0.00369947  0.17050504  0.66716787  1
  Te  Te165  1  -0.00005095  0.50073582  0.00410110  1
  Te  Te166  1  -0.00209121  0.49621816  0.32817185  1
  Te  Te167  1  0.00044996  0.49760921  0.66598110  1
  Te  Te168  1  -0.00034857  0.83346521  0.00320820  1
  Te  Te169  1  -0.00255363  0.83313661  0.32927884  1
  Te  Te170  1  0.00076646  0.83382770  0.66636897  1
  Te  Te171  1  0.32979368  0.16514162  0.00034740  1
  Te  Te172  1  0.33304518  0.17143407  0.32939902  1
  Te  Te173  1  0.33194680  0.16970482  0.66794760  1
  Te  Te174  1  0.33411335  0.50603514  -0.00079042  1
  Te  Te175  1  0.33565252  0.50128548  0.33317457  1
  Te  Te176  1  0.33825114  0.49842263  0.66717742  1
  Te  Te177  1  0.33263520  0.83095939  0.00143460  1
  Te  Te178  1  0.33335350  0.82995127  0.32974429  1
  Te  Te179  1  0.33457525  0.83432605  0.66649443  1
  Te  Te180  1  0.66599847  0.16811349  0.00047294  1
  Te  Te181  1  0.66706326  0.16701257  0.32649394  1
  Te  Te182  1  0.66664605  0.16788662  0.66826805  1
  Te  Te183  1  0.66592947  0.49836394  0.00334751  1
  Te  Te184  1  0.66543231  0.50150197  0.33001722  1
  Te  Te185  1  0.66401668  0.49828634  0.66313895  1
  Te  Te186  1  0.66884665  0.83237966  0.00114820  1
  Te  Te187  1  0.66833317  0.82829515  0.33277179  1
  Te  Te188  1  0.66505492  0.83324893  0.66739273  1
  Te  Te189  1  0.00478404  -0.00247202  0.16704989  1
  Te  Te190  1  0.00057828  0.00111822  0.50720561  1
  Te  Te191  1  -0.00064038  0.00097985  0.82480627  1
  Te  Te192  1  0.00139675  0.33329019  0.16267192  1
  Te  Te193  1  -0.00691632  0.33380095  0.50778312  1
  Te  Te194  1  0.00700568  0.33324188  0.83381122  1
  Te  Te195  1  0.00102732  0.66644207  0.16618120  1
  Te  Te196  1  -0.00049900  0.66562845  0.51163654  1
  Te  Te197  1  0.00106261  0.66440758  0.83131017  1
  Te  Te198  1  0.33389269  -0.00023726  0.16636572  1
  Te  Te199  1  0.34043978  0.00085157  0.50612947  1
  Te  Te200  1  0.33434239  0.00274559  0.82870037  1
  Te  Te201  1  0.33123418  0.33080056  0.16754800  1
  Te  Te202  1  0.33378800  0.33245809  0.50163543  1
  Te  Te203  1  0.32915873  0.33046918  0.83161321  1
  Te  Te204  1  0.33118866  0.66923595  0.16624627  1
  Te  Te205  1  0.33257844  0.66658977  0.50410466  1
  Te  Te206  1  0.33323925  0.67007451  0.82996870  1
  Te  Te207  1  0.66538070  -0.00017969  0.16546350  1
  Te  Te208  1  0.66247343  -0.00172383  0.50232207  1
  Te  Te209  1  0.66579323  0.00224011  0.83182744  1
  Te  Te210  1  0.66686374  0.33366136  0.16413143  1
  Te  Te211  1  0.67007226  0.33354931  0.49871460  1
  Te  Te212  1  0.66468882  0.33443712  0.83466668  1
  Te  Te213  1  0.66664069  0.66576472  0.16949375  1
  Te  Te214  1  0.66714316  0.66861390  0.49344213  1
  Te  Te215  1  0.66680101  0.65920804  0.83468608  1
