# generated using pymatgen
data_AgSbTe2
_symmetry_space_group_name_H-M   'P 1'
_cell_length_a   18.32755138
_cell_length_b   18.33101812
_cell_length_c   18.33268106
_cell_angle_alpha   90.00013342
_cell_angle_beta   90.00101425
_cell_angle_gamma   89.99773424
_symmetry_Int_Tables_number   1
_chemical_formula_structural   AgSbTe2
_chemical_formula_sum   'Ag54 Sb54 Te108'
_cell_volume   6159.09658990
_cell_formula_units_Z   54
loop_
 _symmetry_equiv_pos_site_id
 _symmetry_equiv_pos_as_xyz
  1  'x, y, z'
loop_
 _atom_site_type_symbol
 _atom_site_label
 _atom_site_symmetry_multiplicity
 _atom_site_fract_x
 _atom_site_fract_y
 _atom_site_fract_z
 _atom_site_occupancy
  Ag  Ag0  1  0.15873259  0.65907133  0.83397916  1
  Ag  Ag1  1  0.50231377  0.17484073  0.66815215  1
  Ag  Ag2  1  0.66696920  0.33548017  0.66711767  1
  Ag  Ag3  1  0.33107667  0.83312852  0.49778122  1
  Ag  Ag4  1  0.66317649  0.65158834  0.66756157  1
  Ag  Ag5  1  0.66536323  0.49581327  0.51024588  1
  Ag  Ag6  1  0.33805676  0.16937355  0.50649182  1
  Ag  Ag7  1  0.82444456  0.49146408  0.66903592  1
  Ag  Ag8  1  0.50243639  0.00772815  0.16279436  1
  Ag  Ag9  1  0.33254860  0.16856941  0.17222656  1
  Ag  Ag10  1  0.33499576  -0.00176868  0.34123597  1
  Ag  Ag11  1  0.50913906  0.33287499  0.82684932  1
  Ag  Ag12  1  0.51020608  0.49260702  0.66399857  1
  Ag  Ag13  1  0.50021731  0.65830634  0.82749624  1
  Ag  Ag14  1  0.66559804  0.83149911  0.16701061  1
  Ag  Ag15  1  0.00258620  0.82822867  0.49953329  1
  Ag  Ag16  1  0.34818696  0.49763655  0.50137659  1
  Ag  Ag17  1  0.66536032  0.33633460  -0.01468367  1
  Ag  Ag18  1  0.50147001  0.83431336  -0.00112217  1
  Ag  Ag19  1  0.34461099  0.32912464  0.66522712  1
  Ag  Ag20  1  0.33080806  0.67019481  0.33723164  1
  Ag  Ag21  1  0.66196343  0.17866171  0.51091478  1
  Ag  Ag22  1  0.16362411  0.33240215  0.83213706  1
  Ag  Ag23  1  0.16232056  0.32998211  0.16265807  1
  Ag  Ag24  1  0.00025926  0.83937649  0.82969046  1
  Ag  Ag25  1  0.66963796  0.49486487  0.16715883  1
  Ag  Ag26  1  0.16228132  0.16867557  -0.00906254  1
  Ag  Ag27  1  -0.00685381  0.49257881  0.16975912  1
  Ag  Ag28  1  0.84049270  0.00275943  0.83411528  1
  Ag  Ag29  1  0.66809332  0.17668547  0.82814395  1
  Ag  Ag30  1  0.83138117  0.17378971  0.66877245  1
  Ag  Ag31  1  0.84014020  0.83484921  0.33347067  1
  Ag  Ag32  1  0.00306569  0.65983391  0.33348816  1
  Ag  Ag33  1  0.83239005  0.00075896  0.16247791  1
  Ag  Ag34  1  0.50377058  0.00625724  0.83339658  1
  Ag  Ag35  1  -0.00249274  0.00132899  -0.00857181  1
  Ag  Ag36  1  -0.00446478  0.49753201  0.50255128  1
  Ag  Ag37  1  0.16071538  0.83096885  0.33358182  1
  Ag  Ag38  1  -0.00841186  0.49435818  0.82853602  1
  Ag  Ag39  1  0.33284753  0.01105847  0.66189402  1
  Ag  Ag40  1  0.50216867  0.33041146  0.16387287  1
  Ag  Ag41  1  0.67120002  0.49271515  0.82205742  1
  Ag  Ag42  1  0.83070484  0.33460048  0.50428901  1
  Ag  Ag43  1  -0.00210789  0.16891911  0.82820068  1
  Ag  Ag44  1  0.00347439  0.17260765  0.15917152  1
  Ag  Ag45  1  0.50385400  0.49777635  0.34585923  1
  Ag  Ag46  1  -0.00269215  0.33942545  0.33804956  1
  Ag  Ag47  1  0.49774159  0.66123701  0.50454295  1
  Ag  Ag48  1  0.00059733  0.66553905  -0.00547597  1
  Ag  Ag49  1  0.16514499  0.17110889  0.67083597  1
  Ag  Ag50  1  0.00019895  0.01306648  0.67392556  1
  Ag  Ag51  1  0.66821513  0.33664573  0.33956673  1
  Ag  Ag52  1  -0.00519900  0.33115240  0.66912205  1
  Ag  Ag53  1  0.83399581  0.49761712  -0.00945836  1
  Sb  Sb54  1  -0.00337142  0.83450513  0.16766168  1
  Sb  Sb55  1  0.66686474  0.82911320  0.49669207  1
  Sb  Sb56  1  -0.00263583  0.66029248  0.66709822  1
  Sb  Sb57  1  0.49998109  0.66312952  0.16675234  1
  Sb  Sb58  1  0.67034371  0.00522359  -0.00069994  1
  Sb  Sb59  1  0.83188358  0.50048913  0.33654264  1
  Sb  Sb60  1  0.66996087  0.66085864  -0.00356682  1
  Sb  Sb61  1  0.83421377  0.16551423  0.33727293  1
  Sb  Sb62  1  0.66717114  0.17196677  0.16450037  1
  Sb  Sb63  1  0.49711354  0.16542221  -0.00493976  1
  Sb  Sb64  1  0.83302624  0.33077523  0.17049751  1
  Sb  Sb65  1  0.66647769  0.00792746  0.66863888  1
  Sb  Sb66  1  0.16919787  0.66595960  0.50370582  1
  Sb  Sb67  1  0.50699415  0.33906100  0.50438582  1
  Sb  Sb68  1  0.83191272  0.33067433  0.82544781  1
  Sb  Sb69  1  0.33019336  0.83444546  0.82664666  1
  Sb  Sb70  1  0.16602383  0.50153979  0.33383897  1
  Sb  Sb71  1  0.33390692  0.33335698  0.33945660  1
  Sb  Sb72  1  0.15691146  0.49277105  -0.00169565  1
  Sb  Sb73  1  0.33619642  0.49279477  0.17433553  1
  Sb  Sb74  1  0.00239354  0.00036235  0.33415810  1
  Sb  Sb75  1  0.16272977  0.00464125  0.83211149  1
  Sb  Sb76  1  -0.00569075  0.33339852  -0.00319986  1
  Sb  Sb77  1  0.83398737  0.66699447  0.16793607  1
  Sb  Sb78  1  0.83489047  0.00406551  0.50331675  1
  Sb  Sb79  1  0.66875672  0.83233664  0.83566390  1
  Sb  Sb80  1  0.50051121  0.82943758  0.33109403  1
  Sb  Sb81  1  0.33762887  0.49825827  0.82669991  1
  Sb  Sb82  1  0.83569746  0.83456521  0.66463061  1
  Sb  Sb83  1  0.83215029  0.83200707  0.00196879  1
  Sb  Sb84  1  0.50690041  0.50094922  -0.00507040  1
  Sb  Sb85  1  0.16775154  0.00041614  0.50064562  1
  Sb  Sb86  1  0.16582048  0.49331185  0.66795128  1
  Sb  Sb87  1  0.16480614  0.83814730  0.66406165  1
  Sb  Sb88  1  0.33746675  0.66307354  0.66141791  1
  Sb  Sb89  1  0.83682408  0.17154266  -0.00642617  1
  Sb  Sb90  1  0.33637272  0.33200940  -0.00464546  1
  Sb  Sb91  1  0.83189429  0.66047405  0.50061290  1
  Sb  Sb92  1  0.83427849  0.66570888  0.83238617  1
  Sb  Sb93  1  0.16307739  0.33346809  0.50369898  1
  Sb  Sb94  1  0.16595346  0.00690441  0.16676756  1
  Sb  Sb95  1  0.49741971  -0.00206022  0.50175788  1
  Sb  Sb96  1  0.16336518  0.66000076  0.16436894  1
  Sb  Sb97  1  0.16657846  0.83705892  0.00263650  1
  Sb  Sb98  1  0.33205635  0.00331468  -0.00253464  1
  Sb  Sb99  1  0.49984829  0.17313725  0.33794731  1
  Sb  Sb100  1  0.66285002  0.00444671  0.33112289  1
  Sb  Sb101  1  0.33751173  0.84040410  0.17392316  1
  Sb  Sb102  1  0.66673482  0.66020746  0.33629436  1
  Sb  Sb103  1  0.16701735  0.16557095  0.33645965  1
  Sb  Sb104  1  0.33300966  0.16683346  0.82714669  1
  Sb  Sb105  1  0.49955799  0.83383490  0.66999508  1
  Sb  Sb106  1  0.33084801  0.66704739  0.00269929  1
  Sb  Sb107  1  -0.00013580  0.16998941  0.50584797  1
  Te  Te108  1  0.16391047  0.17101309  0.16993522  1
  Te  Te109  1  0.17309978  0.16718583  0.50682678  1
  Te  Te110  1  0.16530022  0.16972843  0.83189395  1
  Te  Te111  1  0.16239912  0.49133816  0.16566888  1
  Te  Te112  1  0.15563519  0.50086157  0.50038977  1
  Te  Te113  1  0.16563816  0.49780444  0.83430757  1
  Te  Te114  1  0.16788579  0.83285595  0.17148682  1
  Te  Te115  1  0.16504952  0.83218213  0.49541917  1
  Te  Te116  1  0.16126836  0.83032175  0.83413422  1
  Te  Te117  1  0.49967995  0.16776445  0.16618346  1
  Te  Te118  1  0.49941494  0.16412036  0.50481066  1
  Te  Te119  1  0.50004099  0.16945792  0.83048492  1
  Te  Te120  1  0.50322411  0.49529340  0.16306998  1
  Te  Te121  1  0.50420750  0.50105122  0.50248545  1
  Te  Te122  1  0.50426646  0.49735296  0.82933791  1
  Te  Te123  1  0.50410108  0.83432263  0.16295970  1
  Te  Te124  1  0.49756783  0.82605702  0.49944315  1
  Te  Te125  1  0.49910580  0.83578690  0.83717962  1
  Te  Te126  1  0.83616845  0.16095206  0.16596081  1
  Te  Te127  1  0.82954351  0.17049968  0.50564768  1
  Te  Te128  1  0.83544189  0.16232803  0.83008663  1
  Te  Te129  1  0.83425547  0.49971158  0.16816269  1
  Te  Te130  1  0.83468070  0.49657729  0.50314743  1
  Te  Te131  1  0.83158721  0.50131560  0.83063699  1
  Te  Te132  1  0.82866172  0.83802836  0.16920547  1
  Te  Te133  1  0.83674021  0.83419552  0.49592688  1
  Te  Te134  1  0.83877340  0.83943672  0.83367689  1
  Te  Te135  1  0.15980084  0.00556042  0.00003898  1
  Te  Te136  1  0.17399162  -0.00580586  0.33241394  1
  Te  Te137  1  0.16659565  0.00641658  0.66723325  1
  Te  Te138  1  0.16877215  0.32751529  -0.00163014  1
  Te  Te139  1  0.16150874  0.33344429  0.32769909  1
  Te  Te140  1  0.15932822  0.32940532  0.66989615  1
  Te  Te141  1  0.16248548  0.66833061  -0.00531357  1
  Te  Te142  1  0.16478889  0.66963938  0.33304202  1
  Te  Te143  1  0.16864644  0.66722878  0.67531593  1
  Te  Te144  1  0.50033949  -0.00182920  0.00024841  1
  Te  Te145  1  0.49536677  0.00027988  0.32912107  1
  Te  Te146  1  0.49809227  0.00157970  0.66948284  1
  Te  Te147  1  0.50415480  0.33292878  -0.00026562  1
  Te  Te148  1  0.50026852  0.33844581  0.32700260  1
  Te  Te149  1  0.50231968  0.33309851  0.66701554  1
  Te  Te150  1  0.49929985  0.67082393  -0.00415425  1
  Te  Te151  1  0.49837948  0.66101802  0.33486268  1
  Te  Te152  1  0.50146053  0.66709780  0.66749677  1
  Te  Te153  1  0.83754950  0.00002942  -0.00054985  1
  Te  Te154  1  0.83271443  -0.00347160  0.33058674  1
  Te  Te155  1  0.83710353  0.00264638  0.67088176  1
  Te  Te156  1  0.82486512  0.33846904  0.00420810  1
  Te  Te157  1  0.83583267  0.33283005  0.33983216  1
  Te  Te158  1  0.83385279  0.33344025  0.66471409  1
  Te  Te159  1  0.84053767  0.66146047  0.00037512  1
  Te  Te160  1  0.83978997  0.67336595  0.33410844  1
  Te  Te161  1  0.82706876  0.66271778  0.66611838  1
  Te  Te162  1  0.00095342  0.16658439  -0.00106080  1
  Te  Te163  1  0.00053203  0.17058427  0.33246561  1
  Te  Te164  1  -0.00094972  0.16943571  0.66652122  1
  Te  Te165  1  -0.00507228  0.50147473  -0.00308223  1
  Te  Te166  1  -0.00092554  0.49958115  0.33321319  1
  Te  Te167  1  -0.00061824  0.49608136  0.66732096  1
  Te  Te168  1  0.00025267  0.83309618  -0.00236384  1
  Te  Te169  1  0.00087702  0.83453048  0.33460305  1
  Te  Te170  1  0.00011484  0.83302424  0.66628756  1
  Te  Te171  1  0.32616633  0.16687615  0.00890458  1
  Te  Te172  1  0.33361436  0.16416335  0.33524195  1
  Te  Te173  1  0.33552878  0.16828057  0.66607301  1
  Te  Te174  1  0.33212985  0.50115703  0.00197780  1
  Te  Te175  1  0.33702619  0.50234218  0.34046870  1
  Te  Te176  1  0.33457115  0.49516425  0.65992659  1
  Te  Te177  1  0.33757144  0.83460089  0.00060773  1
  Te  Te178  1  0.33402412  0.83344230  0.33806047  1
  Te  Te179  1  0.33169833  0.83832482  0.65821844  1
  Te  Te180  1  0.66612041  0.17357161  -0.00739154  1
  Te  Te181  1  0.66717465  0.17379311  0.33825811  1
  Te  Te182  1  0.66641749  0.16859399  0.66875978  1
  Te  Te183  1  0.67198259  0.49682637  0.00587495  1
  Te  Te184  1  0.66526548  0.49725686  0.32881082  1
  Te  Te185  1  0.66664805  0.49618938  0.66632086  1
  Te  Te186  1  0.66397141  0.83188931  0.00491500  1
  Te  Te187  1  0.66975027  0.83267262  0.32890066  1
  Te  Te188  1  0.66854037  0.83118498  0.66497546  1
  Te  Te189  1  -0.00236953  0.00304498  0.16640924  1
  Te  Te190  1  -0.00024516  -0.00390995  0.50390944  1
  Te  Te191  1  0.00099385  0.00299355  0.83167971  1
  Te  Te192  1  -0.00101395  0.33283869  0.16291891  1
  Te  Te193  1  -0.00256026  0.33454655  0.49886886  1
  Te  Te194  1  0.00100079  0.33300873  0.83248102  1
  Te  Te195  1  0.00078357  0.66206944  0.16929994  1
  Te  Te196  1  0.00068107  0.66691451  0.49825913  1
  Te  Te197  1  -0.00017282  0.66148974  0.83297524  1
  Te  Te198  1  0.33699638  0.00677440  0.16561611  1
  Te  Te199  1  0.33362694  0.00072653  0.50111494  1
  Te  Te200  1  0.34019905  -0.00106747  0.82913447  1
  Te  Te201  1  0.33628239  0.32898270  0.16769876  1
  Te  Te202  1  0.32980321  0.33359269  0.50460107  1
  Te  Te203  1  0.32990793  0.33400810  0.82752624  1
  Te  Te204  1  0.33129269  0.66586818  0.17463996  1
  Te  Te205  1  0.33533470  0.66400484  0.49685369  1
  Te  Te206  1  0.33846244  0.66686031  0.83368893  1
  Te  Te207  1  0.66516803  0.00083469  0.16648408  1
  Te  Te208  1  0.66625880  0.00296447  0.49874157  1
  Te  Te209  1  0.66338739  0.00050482  0.83455029  1
  Te  Te210  1  0.66549819  0.33409097  0.17588788  1
  Te  Te211  1  0.66747775  0.33544479  0.50085459  1
  Te  Te212  1  0.66740734  0.33424243  0.82953231  1
  Te  Te213  1  0.66602555  0.66443106  0.16638429  1
  Te  Te214  1  0.66196504  0.66103004  0.50337091  1
  Te  Te215  1  0.66229940  0.66514693  0.83023319  1
