# generated using pymatgen
data_AgSbTe2
_symmetry_space_group_name_H-M   'P 1'
_cell_length_a   18.31641794
_cell_length_b   18.31113447
_cell_length_c   18.31123226
_cell_angle_alpha   89.99962782
_cell_angle_beta   89.99911077
_cell_angle_gamma   90.00049325
_symmetry_Int_Tables_number   1
_chemical_formula_structural   AgSbTe2
_chemical_formula_sum   'Ag54 Sb54 Te108'
_cell_volume   6141.48461013
_cell_formula_units_Z   54
loop_
 _symmetry_equiv_pos_site_id
 _symmetry_equiv_pos_as_xyz
  1  'x, y, z'
loop_
 _atom_site_type_symbol
 _atom_site_label
 _atom_site_symmetry_multiplicity
 _atom_site_fract_x
 _atom_site_fract_y
 _atom_site_fract_z
 _atom_site_occupancy
  Ag  Ag0  1  0.83416759  0.49184609  0.33114554  1
  Ag  Ag1  1  0.49772408  0.49465672  0.67399873  1
  Ag  Ag2  1  0.83630713  0.33478329  0.49958358  1
  Ag  Ag3  1  0.16419911  0.17008800  -0.00414210  1
  Ag  Ag4  1  0.82957738  0.17132321  0.32572841  1
  Ag  Ag5  1  0.83092761  0.83188732  0.66386269  1
  Ag  Ag6  1  0.16719121  0.01027099  0.83794723  1
  Ag  Ag7  1  0.82664769  0.00505290  0.16370768  1
  Ag  Ag8  1  0.66546012  0.83930591  0.50447559  1
  Ag  Ag9  1  0.33540540  0.48851344  0.83688651  1
  Ag  Ag10  1  0.33364355  0.33384943  -0.01073524  1
  Ag  Ag11  1  0.49302705  0.49076686  0.33486860  1
  Ag  Ag12  1  0.50164099  0.83514272  0.66768053  1
  Ag  Ag13  1  0.50235408  0.65668426  0.82866177  1
  Ag  Ag14  1  0.49407935  0.16843554  0.66404513  1
  Ag  Ag15  1  0.00965668  0.33168046  0.66746351  1
  Ag  Ag16  1  0.17103648  0.83643356  0.33721095  1
  Ag  Ag17  1  0.66407900  0.16362208  0.49422227  1
  Ag  Ag18  1  0.66081897  0.83003856  0.83020241  1
  Ag  Ag19  1  0.33058889  0.17689367  0.83188764  1
  Ag  Ag20  1  0.49659999  0.32807793  0.16492652  1
  Ag  Ag21  1  0.66141688  0.50188949  0.83533560  1
  Ag  Ag22  1  0.16755351  0.49036471  -0.00271400  1
  Ag  Ag23  1  0.49930898  0.17159703  0.33304271  1
  Ag  Ag24  1  0.17684441  0.32871765  0.82976548  1
  Ag  Ag25  1  0.83467754  0.16850533  0.00594599  1
  Ag  Ag26  1  0.33139267  0.83357767  0.50163444  1
  Ag  Ag27  1  0.16785927  0.00472317  0.16215057  1
  Ag  Ag28  1  0.66073899  0.84432856  0.16398441  1
  Ag  Ag29  1  0.33818994  0.83366892  0.83001751  1
  Ag  Ag30  1  0.67116546  0.00635629  0.00350003  1
  Ag  Ag31  1  0.33268344  0.33420741  0.33321633  1
  Ag  Ag32  1  0.16200488  0.66463194  0.49993155  1
  Ag  Ag33  1  0.00190075  0.83241342  0.50419894  1
  Ag  Ag34  1  0.83649830  0.49235839  -0.00158024  1
  Ag  Ag35  1  0.33380847  0.49227665  0.16397504  1
  Ag  Ag36  1  0.00413565  0.49869380  0.83273070  1
  Ag  Ag37  1  -0.00074958  0.00402032  -0.00165304  1
  Ag  Ag38  1  0.50378772  0.00708677  0.16954852  1
  Ag  Ag39  1  -0.00078422  0.66793141  0.66597790  1
  Ag  Ag40  1  0.17077804  0.49080541  0.33096993  1
  Ag  Ag41  1  0.16735930  0.33263264  0.50608804  1
  Ag  Ag42  1  0.66378325  0.32843539  -0.00151175  1
  Ag  Ag43  1  0.66898785  0.16256330  0.16725498  1
  Ag  Ag44  1  0.16958044  0.17043496  0.33121096  1
  Ag  Ag45  1  -0.00324727  0.16453126  0.16456201  1
  Ag  Ag46  1  0.16985124  0.17072389  0.67325078  1
  Ag  Ag47  1  0.82891668  0.66431464  0.82766017  1
  Ag  Ag48  1  0.83776960  0.66694569  0.50600586  1
  Ag  Ag49  1  0.00224184  0.00150843  0.67032032  1
  Ag  Ag50  1  0.50207229  0.00150898  0.49893803  1
  Ag  Ag51  1  0.48981263  0.33687083  0.83292645  1
  Ag  Ag52  1  0.33085634  0.33115891  0.67597520  1
  Ag  Ag53  1  0.33770036  0.83534205  0.16743336  1
  Sb  Sb54  1  0.49800318  0.32842192  0.50172180  1
  Sb  Sb55  1  0.66121485  0.16695001  0.83635911  1
  Sb  Sb56  1  0.00063535  0.50197522  0.50547083  1
  Sb  Sb57  1  0.32998112  0.66315625  0.66758512  1
  Sb  Sb58  1  0.66206615  0.33030419  0.33049120  1
  Sb  Sb59  1  0.83122862  0.83609223  -0.00413949  1
  Sb  Sb60  1  0.50002635  0.83572876  -0.00477690  1
  Sb  Sb61  1  0.00499864  0.33270648  0.33827659  1
  Sb  Sb62  1  0.00169998  0.00236363  0.33270511  1
  Sb  Sb63  1  0.00019021  0.83133548  0.82639084  1
  Sb  Sb64  1  0.33492748  0.16973968  0.16367565  1
  Sb  Sb65  1  0.66746430  0.66475656  -0.00367778  1
  Sb  Sb66  1  0.16960250  0.49187659  0.66844862  1
  Sb  Sb67  1  0.00081875  0.84299123  0.17114151  1
  Sb  Sb68  1  0.33191459  0.65950594  -0.00280872  1
  Sb  Sb69  1  0.33249109  0.50013422  0.50064055  1
  Sb  Sb70  1  0.83375725  0.33786247  0.83172804  1
  Sb  Sb71  1  -0.00051233  0.66849317  -0.00731186  1
  Sb  Sb72  1  0.66326196  0.33251418  0.67085514  1
  Sb  Sb73  1  0.00671550  0.16946329  0.83606425  1
  Sb  Sb74  1  0.16678654  0.66930999  0.17180538  1
  Sb  Sb75  1  0.33272576  0.66185427  0.33420171  1
  Sb  Sb76  1  0.49595932  0.00271634  0.83321633  1
  Sb  Sb77  1  0.00084323  0.66603838  0.34017178  1
  Sb  Sb78  1  0.16841146  0.83799898  0.00278812  1
  Sb  Sb79  1  0.66644605  0.66589562  0.33424855  1
  Sb  Sb80  1  0.17369938  0.32766995  0.16516907  1
  Sb  Sb81  1  0.33595034  0.16544471  0.50307410  1
  Sb  Sb82  1  0.49798308  0.49492822  -0.00474448  1
  Sb  Sb83  1  0.66223861  0.49523318  0.16172409  1
  Sb  Sb84  1  0.00310843  0.32771845  -0.00509878  1
  Sb  Sb85  1  0.66590809  0.00285747  0.32689011  1
  Sb  Sb86  1  0.82938050  0.00086936  0.49689527  1
  Sb  Sb87  1  0.66782339  -0.00171340  0.67080566  1
  Sb  Sb88  1  0.83213078  0.50297694  0.66899645  1
  Sb  Sb89  1  0.83209920  0.66979501  0.16650162  1
  Sb  Sb90  1  0.16755224  0.83756660  0.66312177  1
  Sb  Sb91  1  0.83445578  0.16443563  0.66721016  1
  Sb  Sb92  1  0.49982345  0.16913349  0.00210014  1
  Sb  Sb93  1  0.16780546  0.66226164  0.82791155  1
  Sb  Sb94  1  0.33101896  0.00358059  0.66799477  1
  Sb  Sb95  1  0.16904971  0.00225073  0.50025949  1
  Sb  Sb96  1  0.83469076  0.83503794  0.33853255  1
  Sb  Sb97  1  0.49906258  0.66557297  0.16362816  1
  Sb  Sb98  1  0.49566596  0.83646313  0.33709867  1
  Sb  Sb99  1  0.66755543  0.49853048  0.50359942  1
  Sb  Sb100  1  0.50044777  0.67153601  0.50617818  1
  Sb  Sb101  1  0.83762257  -0.00316783  0.83735309  1
  Sb  Sb102  1  0.00399040  0.49179043  0.16181195  1
  Sb  Sb103  1  0.33232613  0.00647614  0.00022228  1
  Sb  Sb104  1  0.82770629  0.32642502  0.16889738  1
  Sb  Sb105  1  0.67096884  0.66905131  0.66834113  1
  Sb  Sb106  1  0.33325117  0.00521396  0.33198339  1
  Sb  Sb107  1  -0.00157140  0.16466952  0.49811430  1
  Te  Te108  1  0.16909904  0.16361752  0.16879216  1
  Te  Te109  1  0.16678609  0.17065647  0.49599382  1
  Te  Te110  1  0.16762217  0.16824779  0.83364573  1
  Te  Te111  1  0.17072639  0.50093625  0.16883634  1
  Te  Te112  1  0.16577429  0.49797504  0.49528741  1
  Te  Te113  1  0.17062696  0.49850524  0.83521469  1
  Te  Te114  1  0.16926289  0.83712920  0.17122585  1
  Te  Te115  1  0.16791292  0.83500471  0.49749547  1
  Te  Te116  1  0.17022324  0.83206243  0.83345522  1
  Te  Te117  1  0.50130829  0.16722294  0.16900762  1
  Te  Te118  1  0.50252884  0.16356963  0.49945011  1
  Te  Te119  1  0.49437104  0.17067384  0.82929342  1
  Te  Te120  1  0.49614698  0.49871090  0.17017961  1
  Te  Te121  1  0.50139360  0.50125397  0.49786476  1
  Te  Te122  1  0.49807829  0.49764586  0.83367076  1
  Te  Te123  1  0.49962617  0.83352218  0.16871231  1
  Te  Te124  1  0.50222245  0.83584897  0.50341125  1
  Te  Te125  1  0.50089834  0.83749126  0.82896192  1
  Te  Te126  1  0.83021905  0.16564656  0.16607067  1
  Te  Te127  1  0.82915709  0.16947950  0.49903422  1
  Te  Te128  1  0.83231476  0.16667673  0.83846921  1
  Te  Te129  1  0.83312686  0.50011463  0.16720682  1
  Te  Te130  1  0.83323889  0.49923275  0.49681660  1
  Te  Te131  1  0.82978509  0.50277883  0.83520733  1
  Te  Te132  1  0.83007223  0.83934561  0.16832013  1
  Te  Te133  1  0.83084447  0.83205836  0.50227038  1
  Te  Te134  1  0.83069486  0.82851520  0.82826540  1
  Te  Te135  1  0.16566356  0.00344249  -0.00028237  1
  Te  Te136  1  0.16716144  0.00380025  0.32926560  1
  Te  Te137  1  0.16328148  0.00664977  0.66967420  1
  Te  Te138  1  0.16794559  0.33178729  -0.00134587  1
  Te  Te139  1  0.16960002  0.33263868  0.33242562  1
  Te  Te140  1  0.16898668  0.33108195  0.66635580  1
  Te  Te141  1  0.16471335  0.65833627  0.00026536  1
  Te  Te142  1  0.16663529  0.66738404  0.33960241  1
  Te  Te143  1  0.16074452  0.66543592  0.65959349  1
  Te  Te144  1  0.50362659  0.00205206  0.00692337  1
  Te  Te145  1  0.49947216  0.00549481  0.33240340  1
  Te  Te146  1  0.50026856  0.00141747  0.66446494  1
  Te  Te147  1  0.49765464  0.33266973  -0.00092602  1
  Te  Te148  1  0.49686351  0.33211717  0.33469669  1
  Te  Te149  1  0.49681183  0.33100274  0.66798503  1
  Te  Te150  1  0.49968601  0.66678264  -0.00993129  1
  Te  Te151  1  0.50027042  0.65646358  0.33353254  1
  Te  Te152  1  0.49769457  0.66861642  0.67095282  1
  Te  Te153  1  0.83440831  0.00284337  0.00378011  1
  Te  Te154  1  0.83428076  0.00632824  0.32634239  1
  Te  Te155  1  0.83990024  -0.00474905  0.66734351  1
  Te  Te156  1  0.83328119  0.33176030  0.00033395  1
  Te  Te157  1  0.83422460  0.33168009  0.33684442  1
  Te  Te158  1  0.83508724  0.33295236  0.66105936  1
  Te  Te159  1  0.83427211  0.66098905  -0.00481289  1
  Te  Te160  1  0.83396795  0.66291300  0.33735266  1
  Te  Te161  1  0.83762440  0.66914662  0.66659132  1
  Te  Te162  1  0.00123978  0.16299433  0.00230116  1
  Te  Te163  1  0.00157901  0.16735913  0.32873473  1
  Te  Te164  1  0.00310945  0.16694408  0.66638795  1
  Te  Te165  1  0.00012007  0.50026071  -0.00484486  1
  Te  Te166  1  -0.00010087  0.49977431  0.33062668  1
  Te  Te167  1  -0.00017409  0.49659111  0.67244226  1
  Te  Te168  1  -0.00004024  0.84173634  0.00010813  1
  Te  Te169  1  0.00561078  0.83370278  0.34054566  1
  Te  Te170  1  -0.00011266  0.83429326  0.66291560  1
  Te  Te171  1  0.32805631  0.17280151  -0.00545680  1
  Te  Te172  1  0.33353307  0.17205373  0.33426321  1
  Te  Te173  1  0.33269924  0.16967624  0.66905288  1
  Te  Te174  1  0.33024242  0.49451519  0.00089953  1
  Te  Te175  1  0.33204788  0.49661067  0.33314662  1
  Te  Te176  1  0.33848880  0.49514613  0.66984663  1
  Te  Te177  1  0.33262143  0.83234111  0.00163724  1
  Te  Te178  1  0.33039431  0.83292981  0.33286305  1
  Te  Te179  1  0.33637775  0.83378644  0.66669691  1
  Te  Te180  1  0.66797810  0.16766804  0.00187936  1
  Te  Te181  1  0.66590938  0.16746136  0.33369669  1
  Te  Te182  1  0.66335637  0.16538457  0.66345031  1
  Te  Te183  1  0.67159104  0.49586997  -0.00365736  1
  Te  Te184  1  0.67040585  0.49811196  0.33162524  1
  Te  Te185  1  0.65873123  0.50005847  0.67332184  1
  Te  Te186  1  0.66709204  0.83635977  -0.00043404  1
  Te  Te187  1  0.66546654  0.83349907  0.33656975  1
  Te  Te188  1  0.66548169  0.83449419  0.66760421  1
  Te  Te189  1  0.00425218  0.00541036  0.16475569  1
  Te  Te190  1  -0.00087737  -0.00530765  0.50541471  1
  Te  Te191  1  0.00550384  -0.00054177  0.83330901  1
  Te  Te192  1  -0.00069486  0.32454703  0.16628581  1
  Te  Te193  1  0.00146581  0.33322663  0.50582909  1
  Te  Te194  1  0.00221668  0.33862580  0.82801662  1
  Te  Te195  1  -0.00110719  0.66755220  0.16494803  1
  Te  Te196  1  -0.00096787  0.66911467  0.50542098  1
  Te  Te197  1  -0.00313492  0.66212143  0.82718493  1
  Te  Te198  1  0.33435597  -0.00380013  0.16566342  1
  Te  Te199  1  0.33928450  -0.00701077  0.49981934  1
  Te  Te200  1  0.32780731  -0.00672351  0.83477384  1
  Te  Te201  1  0.33891637  0.33550423  0.17149578  1
  Te  Te202  1  0.32857473  0.33302605  0.49651644  1
  Te  Te203  1  0.33293174  0.33277448  0.83309696  1
  Te  Te204  1  0.33360186  0.67065197  0.16552936  1
  Te  Te205  1  0.32926890  0.67373187  0.50051017  1
  Te  Te206  1  0.33749495  0.67375229  0.83267174  1
  Te  Te207  1  0.66420363  0.00123838  0.16355814  1
  Te  Te208  1  0.66310357  0.00074068  0.50230986  1
  Te  Te209  1  0.66665019  -0.00353395  0.84096347  1
  Te  Te210  1  0.65868277  0.32845454  0.16059734  1
  Te  Te211  1  0.67178182  0.32979947  0.50074517  1
  Te  Te212  1  0.66479899  0.33528240  0.83850388  1
  Te  Te213  1  0.66613490  0.67759264  0.16528228  1
  Te  Te214  1  0.67253907  0.67089437  0.50068578  1
  Te  Te215  1  0.66588964  0.66822137  0.83367611  1
