# generated using pymatgen
data_AgSbTe2
_symmetry_space_group_name_H-M   'P 1'
_cell_length_a   18.35168026
_cell_length_b   18.33595262
_cell_length_c   18.34675034
_cell_angle_alpha   89.99858004
_cell_angle_beta   89.99798782
_cell_angle_gamma   89.99843045
_symmetry_Int_Tables_number   1
_chemical_formula_structural   AgSbTe2
_chemical_formula_sum   'Ag54 Sb54 Te108'
_cell_volume   6173.59965073
_cell_formula_units_Z   54
loop_
 _symmetry_equiv_pos_site_id
 _symmetry_equiv_pos_as_xyz
  1  'x, y, z'
loop_
 _atom_site_type_symbol
 _atom_site_label
 _atom_site_symmetry_multiplicity
 _atom_site_fract_x
 _atom_site_fract_y
 _atom_site_fract_z
 _atom_site_occupancy
  Ag  Ag0  1  0.00274674  0.00309008  0.68052569  1
  Ag  Ag1  1  0.50123448  0.15758444  0.00052963  1
  Ag  Ag2  1  0.17162487  0.32966020  0.83694762  1
  Ag  Ag3  1  0.49684328  0.00614094  0.84634542  1
  Ag  Ag4  1  0.82540741  0.16668146  0.67602662  1
  Ag  Ag5  1  0.49777250  0.49505428  0.67887958  1
  Ag  Ag6  1  0.17349390  0.66068143  0.49511711  1
  Ag  Ag7  1  0.33142242  0.83293966  0.83919417  1
  Ag  Ag8  1  0.84345319  0.00176629  0.83844291  1
  Ag  Ag9  1  0.18039925  0.66919397  0.16618961  1
  Ag  Ag10  1  0.00325900  0.32771466  -0.00155388  1
  Ag  Ag11  1  0.49726522  0.66201578  0.49201195  1
  Ag  Ag12  1  0.65530939  0.49794681  0.84157425  1
  Ag  Ag13  1  0.16675299  0.16874091  0.67385576  1
  Ag  Ag14  1  0.65707254  0.83505201  0.16204283  1
  Ag  Ag15  1  0.33845613  0.00144376  0.00231947  1
  Ag  Ag16  1  0.17353013  0.16184112  0.32269442  1
  Ag  Ag17  1  0.33299443  -0.00378718  0.32334558  1
  Ag  Ag18  1  0.82774547  0.33373056  0.16066132  1
  Ag  Ag19  1  0.49984832  0.16206761  0.32008033  1
  Ag  Ag20  1  0.00883962  0.00051436  0.32080383  1
  Ag  Ag21  1  0.33585625  0.33720918  -0.00231602  1
  Ag  Ag22  1  0.65272030  0.00252268  0.00136557  1
  Ag  Ag23  1  0.16989020  0.16154298  -0.00191007  1
  Ag  Ag24  1  0.49955818  0.84389950  0.00141269  1
  Ag  Ag25  1  0.82434804  0.66156249  0.49971684  1
  Ag  Ag26  1  0.82129416  0.49426215  -0.00130613  1
  Ag  Ag27  1  0.66369676  0.17285973  0.49686587  1
  Ag  Ag28  1  0.34147436  0.50759816  0.15568682  1
  Ag  Ag29  1  0.33702178  0.66832712  0.32189495  1
  Ag  Ag30  1  0.33911557  0.65743587  0.00466708  1
  Ag  Ag31  1  0.00456680  0.00307261  -0.00100462  1
  Ag  Ag32  1  0.17244458  0.49642160  0.67058932  1
  Ag  Ag33  1  0.82976001  0.16706356  -0.00211496  1
  Ag  Ag34  1  0.50297603  0.17230270  0.67258869  1
  Ag  Ag35  1  0.49728851  0.83921193  0.31765941  1
  Ag  Ag36  1  0.33944292  0.50386839  0.50105421  1
  Ag  Ag37  1  0.17538747  -0.00137915  0.15836476  1
  Ag  Ag38  1  0.66419312  0.33324638  0.66501409  1
  Ag  Ag39  1  0.00532882  0.84581943  0.84056421  1
  Ag  Ag40  1  0.65646160  0.65604932  0.00357213  1
  Ag  Ag41  1  0.16631204  0.00663387  0.84298413  1
  Ag  Ag42  1  0.65835847  0.49863641  0.15699229  1
  Ag  Ag43  1  0.49717177  0.33468099  0.83636168  1
  Ag  Ag44  1  0.66330892  0.16910016  0.16391813  1
  Ag  Ag45  1  0.49769703  0.67111313  0.16243444  1
  Ag  Ag46  1  0.66338902  0.33158767  0.33195314  1
  Ag  Ag47  1  0.33886760  0.50106402  0.83877057  1
  Ag  Ag48  1  0.66263311  0.49671136  0.50145315  1
  Ag  Ag49  1  0.50177640  0.49910336  -0.00251777  1
  Ag  Ag50  1  0.00356893  0.50043708  0.83450566  1
  Ag  Ag51  1  0.00411627  0.50225154  0.50689716  1
  Ag  Ag52  1  0.49447489  -0.00750275  0.15821800  1
  Ag  Ag53  1  -0.00218822  0.83713767  0.15877506  1
  Sb  Sb54  1  -0.00225352  0.33099082  0.67463633  1
  Sb  Sb55  1  0.82955575  0.83664352  0.00068926  1
  Sb  Sb56  1  0.83112931  0.49993024  0.33030506  1
  Sb  Sb57  1  0.65836933  0.66170047  0.32818236  1
  Sb  Sb58  1  0.33080291  0.00327878  0.67394774  1
  Sb  Sb59  1  0.49867312  0.66322625  0.84183459  1
  Sb  Sb60  1  0.16737429  -0.00113596  0.49943503  1
  Sb  Sb61  1  0.82907813  0.83484113  0.33083554  1
  Sb  Sb62  1  0.33492293  0.82810103  0.50137756  1
  Sb  Sb63  1  0.16900630  0.66512806  0.83737093  1
  Sb  Sb64  1  0.16894307  0.49669104  0.33643571  1
  Sb  Sb65  1  0.33769052  0.17154574  0.49763298  1
  Sb  Sb66  1  0.16650745  0.83265984  0.66944996  1
  Sb  Sb67  1  0.50139491  0.33873972  0.50526996  1
  Sb  Sb68  1  0.66376294  0.65785997  0.66900369  1
  Sb  Sb69  1  0.50043678  -0.00008836  0.49811312  1
  Sb  Sb70  1  0.66317896  0.83077504  0.49228236  1
  Sb  Sb71  1  0.00189052  0.16540405  0.83641933  1
  Sb  Sb72  1  0.17133308  0.49517526  -0.00487989  1
  Sb  Sb73  1  0.00096567  0.82996260  0.49945811  1
  Sb  Sb74  1  0.16694160  0.33686918  0.50752076  1
  Sb  Sb75  1  0.00312538  0.66870288  0.00068922  1
  Sb  Sb76  1  0.83416454  0.83931756  0.66910083  1
  Sb  Sb77  1  0.66294278  0.17286941  0.83788804  1
  Sb  Sb78  1  0.17400840  0.83741694  0.32821471  1
  Sb  Sb79  1  0.82821030  0.66321409  0.16667307  1
  Sb  Sb80  1  0.66835555  0.00911748  0.67609518  1
  Sb  Sb81  1  0.83340722  -0.00066702  0.50471022  1
  Sb  Sb82  1  0.50374458  0.33289434  0.15972219  1
  Sb  Sb83  1  0.82997745  0.16535209  0.33015631  1
  Sb  Sb84  1  0.33845925  0.16583845  0.16379868  1
  Sb  Sb85  1  0.16502020  0.33011434  0.15963732  1
  Sb  Sb86  1  0.82982018  0.33663523  0.49770033  1
  Sb  Sb87  1  0.66348224  0.33215716  0.00057102  1
  Sb  Sb88  1  -0.00098498  0.32934144  0.32752473  1
  Sb  Sb89  1  0.83223160  0.32997729  0.84008309  1
  Sb  Sb90  1  0.33859053  0.33447037  0.32550388  1
  Sb  Sb91  1  0.66172863  0.00486038  0.32404221  1
  Sb  Sb92  1  0.66356597  0.83190307  0.84140738  1
  Sb  Sb93  1  0.33364435  0.66189967  0.66892344  1
  Sb  Sb94  1  0.50041473  0.83206598  0.67381952  1
  Sb  Sb95  1  0.00747284  0.67162043  0.33297906  1
  Sb  Sb96  1  -0.00242099  0.16096691  0.16310526  1
  Sb  Sb97  1  0.33752522  0.83031416  0.15921406  1
  Sb  Sb98  1  0.83012863  0.49417784  0.67135070  1
  Sb  Sb99  1  0.00068546  0.66691721  0.66604605  1
  Sb  Sb100  1  0.33394912  0.16815783  0.83825282  1
  Sb  Sb101  1  0.83107317  0.00433819  0.15866119  1
  Sb  Sb102  1  0.83330904  0.66774764  0.83277169  1
  Sb  Sb103  1  0.50024773  0.49837531  0.32940031  1
  Sb  Sb104  1  0.33749441  0.33513753  0.67522936  1
  Sb  Sb105  1  0.17358101  0.84071805  0.00114611  1
  Sb  Sb106  1  0.00084293  0.50376630  0.16249642  1
  Sb  Sb107  1  -0.00271097  0.17018257  0.50172001  1
  Te  Te108  1  0.16637892  0.16192119  0.16356934  1
  Te  Te109  1  0.16710232  0.16806624  0.50738835  1
  Te  Te110  1  0.16767520  0.16725511  0.83537964  1
  Te  Te111  1  0.16858544  0.50337987  0.16811343  1
  Te  Te112  1  0.16652536  0.50135728  0.50336601  1
  Te  Te113  1  0.16624643  0.49983378  0.82984767  1
  Te  Te114  1  0.16000700  0.83613046  0.16698792  1
  Te  Te115  1  0.16682707  0.82278359  0.50017298  1
  Te  Te116  1  0.16568673  0.83666634  0.83314823  1
  Te  Te117  1  0.50359875  0.16646401  0.16297455  1
  Te  Te118  1  0.50428997  0.16764771  0.50856367  1
  Te  Te119  1  0.49948356  0.16770317  0.83485424  1
  Te  Te120  1  0.50018810  0.49966165  0.16493697  1
  Te  Te121  1  0.50035788  0.50222057  0.49561664  1
  Te  Te122  1  0.49874640  0.50072107  0.83479347  1
  Te  Te123  1  0.50041530  0.83298102  0.16191089  1
  Te  Te124  1  0.50009711  0.82597816  0.50182306  1
  Te  Te125  1  0.49713934  0.83803162  0.83874312  1
  Te  Te126  1  0.82731991  0.17134863  0.16244206  1
  Te  Te127  1  0.82705732  0.16770643  0.50193238  1
  Te  Te128  1  0.83083595  0.16278320  0.83612139  1
  Te  Te129  1  0.83267736  0.49631192  0.16105099  1
  Te  Te130  1  0.82961361  0.50254369  0.50183594  1
  Te  Te131  1  0.83825633  0.49991524  0.83731105  1
  Te  Te132  1  0.83377848  0.83214793  0.16741827  1
  Te  Te133  1  0.83216661  0.82425108  0.49995402  1
  Te  Te134  1  0.83870117  0.83863754  0.83307307  1
  Te  Te135  1  0.16492398  0.00157021  0.00092953  1
  Te  Te136  1  0.16963367  0.00325610  0.33438327  1
  Te  Te137  1  0.16367907  0.00258283  0.66744624  1
  Te  Te138  1  0.16637763  0.32737675  -0.00325185  1
  Te  Te139  1  0.16665115  0.32322448  0.33286458  1
  Te  Te140  1  0.16548306  0.33337830  0.67399910  1
  Te  Te141  1  0.17163164  0.66797550  0.00601983  1
  Te  Te142  1  0.17421238  0.66648656  0.32994811  1
  Te  Te143  1  0.16620282  0.66007003  0.66331550  1
  Te  Te144  1  0.49746757  0.00176842  0.00182851  1
  Te  Te145  1  0.49694321  0.00137193  0.33232695  1
  Te  Te146  1  0.49949099  0.00347036  0.66732648  1
  Te  Te147  1  0.49670559  0.33812413  -0.00436123  1
  Te  Te148  1  0.50276152  0.32300940  0.33336378  1
  Te  Te149  1  0.50266752  0.33425906  0.67193539  1
  Te  Te150  1  0.49910912  0.65845379  0.00164369  1
  Te  Te151  1  0.49616401  0.66622774  0.32922340  1
  Te  Te152  1  0.50041228  0.66179634  0.66120879  1
  Te  Te153  1  0.84350188  0.00313702  -0.00365295  1
  Te  Te154  1  0.84064139  0.00007264  0.33490684  1
  Te  Te155  1  0.83744239  0.00689503  0.67271715  1
  Te  Te156  1  0.83538912  0.33131492  0.00057033  1
  Te  Te157  1  0.82938872  0.33195620  0.32544496  1
  Te  Te158  1  0.82931394  0.32553489  0.66721600  1
  Te  Te159  1  0.83120019  0.66124591  -0.00040486  1
  Te  Te160  1  0.83424705  0.66735501  0.33933760  1
  Te  Te161  1  0.83247671  0.66621738  0.66063148  1
  Te  Te162  1  -0.00112146  0.16785526  0.00077357  1
  Te  Te163  1  0.00352735  0.16158383  0.33399414  1
  Te  Te164  1  0.00423508  0.16417503  0.66512927  1
  Te  Te165  1  0.00191256  0.50048039  -0.00243738  1
  Te  Te166  1  -0.00022419  0.49940986  0.33772595  1
  Te  Te167  1  -0.00050425  0.49905462  0.66736008  1
  Te  Te168  1  -0.00242064  0.83472925  -0.00168098  1
  Te  Te169  1  0.00046274  0.83974301  0.33141812  1
  Te  Te170  1  -0.00007437  0.83996452  0.67155042  1
  Te  Te171  1  0.33499194  0.16397666  0.00151884  1
  Te  Te172  1  0.33512841  0.16405186  0.33222035  1
  Te  Te173  1  0.33274476  0.16815152  0.66371001  1
  Te  Te174  1  0.33212106  0.49884437  -0.00151237  1
  Te  Te175  1  0.33360956  0.50334130  0.33730568  1
  Te  Te176  1  0.33516639  0.49829283  0.66591313  1
  Te  Te177  1  0.33872193  0.83926964  -0.00389974  1
  Te  Te178  1  0.33954070  0.83257345  0.33579844  1
  Te  Te179  1  0.33362553  0.83400473  0.67679252  1
  Te  Te180  1  0.66549874  0.16555289  0.00242964  1
  Te  Te181  1  0.66357017  0.16903238  0.33288689  1
  Te  Te182  1  0.66484055  0.17090208  0.66640693  1
  Te  Te183  1  0.66601603  0.49685123  0.00029157  1
  Te  Te184  1  0.66713534  0.49403820  0.33912917  1
  Te  Te185  1  0.66303057  0.49494132  0.66241047  1
  Te  Te186  1  0.66316021  0.83616871  0.00393922  1
  Te  Te187  1  0.65911258  0.83409362  0.32453409  1
  Te  Te188  1  0.66711279  0.83352853  0.66656214  1
  Te  Te189  1  -0.00206704  -0.00245219  0.16428155  1
  Te  Te190  1  -0.00065318  -0.00064641  0.50023777  1
  Te  Te191  1  0.00388411  0.00236905  0.83718305  1
  Te  Te192  1  -0.00430545  0.33470609  0.16053850  1
  Te  Te193  1  -0.00117044  0.34150405  0.49733343  1
  Te  Te194  1  0.00264340  0.33882530  0.83825271  1
  Te  Te195  1  -0.00053792  0.67373921  0.16782458  1
  Te  Te196  1  0.00614077  0.66217928  0.49912473  1
  Te  Te197  1  0.00046012  0.66309794  0.83269801  1
  Te  Te198  1  0.33376679  0.00036173  0.16590719  1
  Te  Te199  1  0.33346051  -0.00124057  0.49539050  1
  Te  Te200  1  0.33190842  -0.00023440  0.83693228  1
  Te  Te201  1  0.33196519  0.34342016  0.15981991  1
  Te  Te202  1  0.33321353  0.34217380  0.49649823  1
  Te  Te203  1  0.33330002  0.33908452  0.83844497  1
  Te  Te204  1  0.33709634  0.66759239  0.16468124  1
  Te  Te205  1  0.33430170  0.66390547  0.50271931  1
  Te  Te206  1  0.33251448  0.66633968  0.83945836  1
  Te  Te207  1  0.66456759  0.00097989  0.16194281  1
  Te  Te208  1  0.66811040  0.00259577  0.50034282  1
  Te  Te209  1  0.66087226  -0.00138488  0.84076331  1
  Te  Te210  1  0.66744888  0.33604561  0.16805094  1
  Te  Te211  1  0.66660070  0.33301357  0.49901207  1
  Te  Te212  1  0.66449334  0.33929047  0.82793212  1
  Te  Te213  1  0.66359078  0.66167836  0.16300639  1
  Te  Te214  1  0.66277644  0.66318799  0.49837293  1
  Te  Te215  1  0.66824848  0.66055374  0.83963457  1
