# generated using pymatgen
data_AgSbTe2
_symmetry_space_group_name_H-M   'P 1'
_cell_length_a   18.33521079
_cell_length_b   18.33303474
_cell_length_c   18.33201857
_cell_angle_alpha   89.99732310
_cell_angle_beta   90.00311324
_cell_angle_gamma   90.00314501
_symmetry_Int_Tables_number   1
_chemical_formula_structural   AgSbTe2
_chemical_formula_sum   'Ag54 Sb54 Te108'
_cell_volume   6162.12573096
_cell_formula_units_Z   54
loop_
 _symmetry_equiv_pos_site_id
 _symmetry_equiv_pos_as_xyz
  1  'x, y, z'
loop_
 _atom_site_type_symbol
 _atom_site_label
 _atom_site_symmetry_multiplicity
 _atom_site_fract_x
 _atom_site_fract_y
 _atom_site_fract_z
 _atom_site_occupancy
  Ag  Ag0  1  0.33293297  0.83539117  0.50292881  1
  Ag  Ag1  1  -0.00174678  0.17592829  0.16643856  1
  Ag  Ag2  1  0.49058947  0.33161548  0.49148870  1
  Ag  Ag3  1  0.17037535  -0.00361712  0.84422338  1
  Ag  Ag4  1  0.66419282  0.33031618  0.32646139  1
  Ag  Ag5  1  0.33482673  0.66193300  -0.00239205  1
  Ag  Ag6  1  0.66530161  0.83921795  0.16859097  1
  Ag  Ag7  1  0.33493352  0.17511342  0.50306356  1
  Ag  Ag8  1  0.16777673  0.49800197  0.67643958  1
  Ag  Ag9  1  0.17162200  0.65692257  0.16280237  1
  Ag  Ag10  1  0.00849955  0.83337763  0.49387606  1
  Ag  Ag11  1  0.49761113  0.16914736  0.67235283  1
  Ag  Ag12  1  0.83830942  0.49607404  0.67612610  1
  Ag  Ag13  1  0.33361492  0.66049636  0.67991730  1
  Ag  Ag14  1  0.16817993  0.17129383  0.32733147  1
  Ag  Ag15  1  0.00812136  0.33225592  0.32212014  1
  Ag  Ag16  1  0.82725852  0.17654478  0.00622343  1
  Ag  Ag17  1  0.65593961  0.33004862  0.66284900  1
  Ag  Ag18  1  0.49303779  0.49818630  0.00333610  1
  Ag  Ag19  1  0.16142571  0.33429561  0.16694426  1
  Ag  Ag20  1  0.33342932  0.16615924  0.83791831  1
  Ag  Ag21  1  0.49822891  0.66108259  0.16209007  1
  Ag  Ag22  1  -0.00061869  0.66874395  0.32922738  1
  Ag  Ag23  1  0.50388322  0.83268462  0.33259641  1
  Ag  Ag24  1  0.84617124  0.32842636  0.16397140  1
  Ag  Ag25  1  0.00345461  0.33779594  0.00949446  1
  Ag  Ag26  1  0.33326958  0.82718497  0.83568939  1
  Ag  Ag27  1  0.33352245  0.00189800  -0.00071906  1
  Ag  Ag28  1  0.83316110  0.33549770  0.84949906  1
  Ag  Ag29  1  0.17116379  0.50126642  0.00105976  1
  Ag  Ag30  1  0.49744035  0.83573305  0.66344018  1
  Ag  Ag31  1  0.66388745  0.00536921  0.66935748  1
  Ag  Ag32  1  0.82702821  0.83474428  0.32929344  1
  Ag  Ag33  1  0.32728651  0.49513059  0.16189266  1
  Ag  Ag34  1  0.49742940  0.33663064  0.16633300  1
  Ag  Ag35  1  0.49828405  0.17259118  0.00036738  1
  Ag  Ag36  1  0.00244288  0.49818982  0.84549029  1
  Ag  Ag37  1  0.83046883  0.00811023  0.16609899  1
  Ag  Ag38  1  0.16339389  0.00319148  0.16317438  1
  Ag  Ag39  1  0.66610285  0.67806981  0.32466264  1
  Ag  Ag40  1  0.32989722  0.33153396  0.32502969  1
  Ag  Ag41  1  0.33174147  0.33934433  0.00599196  1
  Ag  Ag42  1  0.67006205  -0.00091865  0.32242166  1
  Ag  Ag43  1  0.48957377  0.66774875  0.84571551  1
  Ag  Ag44  1  -0.00268547  -0.00178999  0.32763903  1
  Ag  Ag45  1  0.17370334  0.33406046  0.48596532  1
  Ag  Ag46  1  0.67076040  0.16528202  0.16529770  1
  Ag  Ag47  1  0.65529297  0.66850107  0.00712075  1
  Ag  Ag48  1  0.33677409  0.33490853  0.66667898  1
  Ag  Ag49  1  0.17278088  0.66550729  0.84542988  1
  Ag  Ag50  1  0.66159878  0.00003897  0.00655706  1
  Ag  Ag51  1  0.16968501  0.82334823  0.00157346  1
  Ag  Ag52  1  0.84181612  0.49213941  0.00009709  1
  Ag  Ag53  1  0.00645961  0.48893819  0.16239546  1
  Sb  Sb54  1  0.00332216  0.50066050  0.49531558  1
  Sb  Sb55  1  -0.00429128  -0.00028483  0.66356454  1
  Sb  Sb56  1  0.00674498  0.65856803  0.00650217  1
  Sb  Sb57  1  0.83566279  0.66108291  0.83703023  1
  Sb  Sb58  1  0.00297233  0.33428438  0.66655593  1
  Sb  Sb59  1  0.33630245  0.00187712  0.67350828  1
  Sb  Sb60  1  0.49400025  -0.00341490  0.83513829  1
  Sb  Sb61  1  0.49774477  0.16784726  0.32920579  1
  Sb  Sb62  1  0.16892006  0.00344107  0.49689211  1
  Sb  Sb63  1  0.67107563  0.49700790  0.83728743  1
  Sb  Sb64  1  0.83598348  0.16434108  0.32503407  1
  Sb  Sb65  1  0.00650037  0.16511688  0.48928451  1
  Sb  Sb66  1  0.16724759  0.33606418  0.83966615  1
  Sb  Sb67  1  0.66121507  0.16799912  0.49479132  1
  Sb  Sb68  1  0.50080513  0.49931398  0.32575404  1
  Sb  Sb69  1  0.49682357  0.66359345  0.49600440  1
  Sb  Sb70  1  0.66576420  0.33294229  0.00575569  1
  Sb  Sb71  1  0.83457597  0.50099229  0.32799785  1
  Sb  Sb72  1  0.17175180  0.17036078  0.00603894  1
  Sb  Sb73  1  0.16616988  0.49425918  0.32483051  1
  Sb  Sb74  1  -0.00180612  0.83344030  0.17060091  1
  Sb  Sb75  1  0.00602922  0.17264101  0.84203752  1
  Sb  Sb76  1  0.17573637  0.82913013  0.67029664  1
  Sb  Sb77  1  0.83400104  0.66649577  0.49803189  1
  Sb  Sb78  1  0.33376590  0.00365335  0.32684619  1
  Sb  Sb79  1  0.83250015  -0.00058978  0.49062413  1
  Sb  Sb80  1  0.33170219  0.49493563  0.49776733  1
  Sb  Sb81  1  0.32856955  0.50148384  0.84093930  1
  Sb  Sb82  1  0.00796211  0.82818704  0.83173236  1
  Sb  Sb83  1  0.49771346  0.00412188  0.50066521  1
  Sb  Sb84  1  0.16834083  0.83656159  0.32769824  1
  Sb  Sb85  1  0.82370578  0.17454187  0.67622201  1
  Sb  Sb86  1  0.65993412  0.83339666  0.83897005  1
  Sb  Sb87  1  0.83549985  0.83303671  0.00622246  1
  Sb  Sb88  1  0.66672962  0.49823669  0.16406282  1
  Sb  Sb89  1  0.66641896  0.49786421  0.50003494  1
  Sb  Sb90  1  0.65945702  0.16755871  0.84166411  1
  Sb  Sb91  1  0.33339915  0.17403094  0.16334128  1
  Sb  Sb92  1  0.83470120  0.33226230  0.49374497  1
  Sb  Sb93  1  0.49546710  0.49731942  0.67376463  1
  Sb  Sb94  1  0.17408185  0.17214235  0.66492240  1
  Sb  Sb95  1  0.00702606  0.66429436  0.66371200  1
  Sb  Sb96  1  0.50083076  0.33682307  0.83853690  1
  Sb  Sb97  1  0.33638894  0.83005373  0.16350470  1
  Sb  Sb98  1  0.83230383  0.66307729  0.16533789  1
  Sb  Sb99  1  0.83696499  0.00517273  0.84204042  1
  Sb  Sb100  1  0.82590670  0.83056936  0.66031748  1
  Sb  Sb101  1  0.66142340  0.83493708  0.49116373  1
  Sb  Sb102  1  0.50150312  0.00147732  0.16503018  1
  Sb  Sb103  1  0.33344589  0.66378713  0.32819903  1
  Sb  Sb104  1  0.65855164  0.66481646  0.66909104  1
  Sb  Sb105  1  0.00305984  0.00661820  0.00779464  1
  Sb  Sb106  1  0.16939733  0.66220809  0.49591528  1
  Sb  Sb107  1  0.49418161  0.83055952  0.00256707  1
  Te  Te108  1  0.16599936  0.16823376  0.16856885  1
  Te  Te109  1  0.17338622  0.17173508  0.49641224  1
  Te  Te110  1  0.17225456  0.16251587  0.83310179  1
  Te  Te111  1  0.16688149  0.49744408  0.16376128  1
  Te  Te112  1  0.16631754  0.49438724  0.50926795  1
  Te  Te113  1  0.16314876  0.50202880  0.83676311  1
  Te  Te114  1  0.16717383  0.83728819  0.16183803  1
  Te  Te115  1  0.16947510  0.83318716  0.50069971  1
  Te  Te116  1  0.17196270  0.83121102  0.83704526  1
  Te  Te117  1  0.50330120  0.16987230  0.16238932  1
  Te  Te118  1  0.49512728  0.17235119  0.50294717  1
  Te  Te119  1  0.49380818  0.16609123  0.83542387  1
  Te  Te120  1  0.49872424  0.50100107  0.16199408  1
  Te  Te121  1  0.49952030  0.49074460  0.50107580  1
  Te  Te122  1  0.50198091  0.50750735  0.84104209  1
  Te  Te123  1  0.50384936  0.83004762  0.16992536  1
  Te  Te124  1  0.49500825  0.83211223  0.49949707  1
  Te  Te125  1  0.49460583  0.82860371  0.82961304  1
  Te  Te126  1  0.83252689  0.16721727  0.16450996  1
  Te  Te127  1  0.83482499  0.16578416  0.50520843  1
  Te  Te128  1  0.83590717  0.17307500  0.84346284  1
  Te  Te129  1  0.83830224  0.49518632  0.16183861  1
  Te  Te130  1  0.83526315  0.49888376  0.50828825  1
  Te  Te131  1  0.83852936  0.49650598  0.83708531  1
  Te  Te132  1  0.82831030  0.83538263  0.17070019  1
  Te  Te133  1  0.83651572  0.83339849  0.49217793  1
  Te  Te134  1  0.83648829  0.83426994  0.83089581  1
  Te  Te135  1  0.16795560  0.00457373  0.00220127  1
  Te  Te136  1  0.16508246  0.00463153  0.32857616  1
  Te  Te137  1  0.16448507  -0.00048900  0.66936955  1
  Te  Te138  1  0.16884952  0.33628288  0.00394174  1
  Te  Te139  1  0.16798394  0.33286012  0.32885353  1
  Te  Te140  1  0.17090679  0.33723280  0.67054689  1
  Te  Te141  1  0.16797097  0.66409139  0.00333131  1
  Te  Te142  1  0.16364858  0.66734300  0.32745705  1
  Te  Te143  1  0.17353519  0.66215121  0.66586680  1
  Te  Te144  1  0.49988879  0.00284139  -0.00109012  1
  Te  Te145  1  0.50414898  -0.00405522  0.33340977  1
  Te  Te146  1  0.50381512  0.00132187  0.66788392  1
  Te  Te147  1  0.49849832  0.33460925  0.00197135  1
  Te  Te148  1  0.50043355  0.33282713  0.33145556  1
  Te  Te149  1  0.49747923  0.33253947  0.67201902  1
  Te  Te150  1  0.49666663  0.66993691  0.00288567  1
  Te  Te151  1  0.50287807  0.66860828  0.32857035  1
  Te  Te152  1  0.49506457  0.66790120  0.66511743  1
  Te  Te153  1  0.83126335  0.00085184  0.00629468  1
  Te  Te154  1  0.83171732  -0.00242567  0.32656795  1
  Te  Te155  1  0.82692573  0.00072859  0.66891525  1
  Te  Te156  1  0.82728886  0.33565866  0.00514003  1
  Te  Te157  1  0.82867723  0.33316194  0.32777458  1
  Te  Te158  1  0.83365995  0.33799749  0.66133297  1
  Te  Te159  1  0.82710037  0.66406240  -0.00070459  1
  Te  Te160  1  0.83204921  0.66996764  0.33251464  1
  Te  Te161  1  0.83094346  0.66061074  0.66731923  1
  Te  Te162  1  -0.00440510  0.17410062  0.00558063  1
  Te  Te163  1  0.00306048  0.16791677  0.32730685  1
  Te  Te164  1  -0.00182626  0.16563581  0.66641869  1
  Te  Te165  1  0.00038319  0.49783000  0.00247304  1
  Te  Te166  1  -0.00105420  0.49888638  0.32784496  1
  Te  Te167  1  0.00144285  0.50050502  0.66538583  1
  Te  Te168  1  0.00689854  0.83290699  -0.00208823  1
  Te  Te169  1  0.00202838  0.83479232  0.33480000  1
  Te  Te170  1  -0.00354919  0.83222912  0.65841757  1
  Te  Te171  1  0.33692605  0.16712699  -0.00178817  1
  Te  Te172  1  0.33096275  0.17023975  0.33715825  1
  Te  Te173  1  0.33776793  0.16863660  0.66543228  1
  Te  Te174  1  0.33273255  0.49940384  0.00213447  1
  Te  Te175  1  0.33372048  0.49390756  0.32644843  1
  Te  Te176  1  0.33070039  0.49808759  0.66510093  1
  Te  Te177  1  0.32972040  0.83423675  -0.00267848  1
  Te  Te178  1  0.33757226  0.83368579  0.33611904  1
  Te  Te179  1  0.33809586  0.83462661  0.66903246  1
  Te  Te180  1  0.66437568  0.16439439  0.00385111  1
  Te  Te181  1  0.66669263  0.16503618  0.32832784  1
  Te  Te182  1  0.65976539  0.16792451  0.66669373  1
  Te  Te183  1  0.66225222  0.50599326  -0.00014847  1
  Te  Te184  1  0.66869314  0.49396782  0.33334697  1
  Te  Te185  1  0.66824704  0.49543842  0.66778824  1
  Te  Te186  1  0.66679225  0.83496255  0.00556617  1
  Te  Te187  1  0.66567824  0.83596328  0.33047790  1
  Te  Te188  1  0.66019425  0.83440391  0.66587174  1
  Te  Te189  1  0.00175439  -0.00000546  0.17008814  1
  Te  Te190  1  0.00050906  -0.00409451  0.49226099  1
  Te  Te191  1  0.00686757  -0.00026012  0.83326452  1
  Te  Te192  1  0.00122470  0.33243450  0.16588949  1
  Te  Te193  1  0.00667749  0.33206298  0.49335689  1
  Te  Te194  1  -0.00428663  0.33783124  0.83478595  1
  Te  Te195  1  0.00245581  0.66619213  0.17099105  1
  Te  Te196  1  0.00155414  0.67119985  0.49232247  1
  Te  Te197  1  0.00658084  0.66027028  0.83224161  1
  Te  Te198  1  0.32931500  0.00027608  0.16054533  1
  Te  Te199  1  0.33280511  -0.00312076  0.49825081  1
  Te  Te200  1  0.32920322  0.00018552  0.83873309  1
  Te  Te201  1  0.33668723  0.33354770  0.16550822  1
  Te  Te202  1  0.33283938  0.33403388  0.50112297  1
  Te  Te203  1  0.33437120  0.32966363  0.83276243  1
  Te  Te204  1  0.33305962  0.66306381  0.16380089  1
  Te  Te205  1  0.33322629  0.67169218  0.50015123  1
  Te  Te206  1  0.33167879  0.66513720  0.83563329  1
  Te  Te207  1  0.66378218  0.00113158  0.16500696  1
  Te  Te208  1  0.66607668  0.00061262  0.50466490  1
  Te  Te209  1  0.66897473  -0.00015707  0.83268137  1
  Te  Te210  1  0.65743084  0.33160030  0.16765044  1
  Te  Te211  1  0.66377075  0.33210133  0.50039986  1
  Te  Te212  1  0.67225423  0.33100028  0.82492643  1
  Te  Te213  1  0.66597074  0.66450041  0.16696352  1
  Te  Te214  1  0.66563405  0.66616619  0.49159770  1
  Te  Te215  1  0.66372713  0.66762421  0.83693965  1
