# generated using pymatgen
data_AgSbTe2
_symmetry_space_group_name_H-M   'P 1'
_cell_length_a   18.34036781
_cell_length_b   18.34268638
_cell_length_c   18.34968250
_cell_angle_alpha   89.99934528
_cell_angle_beta   90.00233024
_cell_angle_gamma   89.99672582
_symmetry_Int_Tables_number   1
_chemical_formula_structural   AgSbTe2
_chemical_formula_sum   'Ag54 Sb54 Te108'
_cell_volume   6173.04630314
_cell_formula_units_Z   54
loop_
 _symmetry_equiv_pos_site_id
 _symmetry_equiv_pos_as_xyz
  1  'x, y, z'
loop_
 _atom_site_type_symbol
 _atom_site_label
 _atom_site_symmetry_multiplicity
 _atom_site_fract_x
 _atom_site_fract_y
 _atom_site_fract_z
 _atom_site_occupancy
  Ag  Ag0  1  0.49668247  0.00148211  0.50216747  1
  Ag  Ag1  1  0.16972270  0.17644583  0.01104101  1
  Ag  Ag2  1  0.49813418  0.50005977  -0.00420276  1
  Ag  Ag3  1  0.49679923  -0.00491803  0.83204514  1
  Ag  Ag4  1  0.33413780  0.17282614  0.49869653  1
  Ag  Ag5  1  0.83873379  0.81974407  0.32959864  1
  Ag  Ag6  1  0.16926732  0.18314839  0.32550256  1
  Ag  Ag7  1  0.16847426  0.50120351  0.32535832  1
  Ag  Ag8  1  0.49863257  0.82252856  0.66773050  1
  Ag  Ag9  1  0.49699220  0.34244466  0.83115058  1
  Ag  Ag10  1  0.66510013  0.33390782  0.00412510  1
  Ag  Ag11  1  0.83088810  0.66028483  0.83542649  1
  Ag  Ag12  1  0.33223093  0.33401364  0.33748508  1
  Ag  Ag13  1  0.17343447  0.50066420  0.66715046  1
  Ag  Ag14  1  0.33445984  0.16970866  0.83440910  1
  Ag  Ag15  1  0.66831822  0.82956317  0.16646614  1
  Ag  Ag16  1  0.17475522  0.34128924  0.48702430  1
  Ag  Ag17  1  0.65973785  0.00187805  0.00158382  1
  Ag  Ag18  1  0.00290238  -0.01485589  0.33071711  1
  Ag  Ag19  1  0.33257485  0.65228322  0.66796863  1
  Ag  Ag20  1  0.16161720  0.81948761  0.32619831  1
  Ag  Ag21  1  0.84141453  0.66379390  0.48474369  1
  Ag  Ag22  1  0.33509795  0.00371421  -0.00211083  1
  Ag  Ag23  1  0.01283856  0.16274692  0.16744972  1
  Ag  Ag24  1  -0.00857226  0.66768748  0.32480886  1
  Ag  Ag25  1  0.65746933  0.34468172  0.32648954  1
  Ag  Ag26  1  0.50006239  0.82197401  0.33261025  1
  Ag  Ag27  1  -0.00246764  0.50223917  0.83449438  1
  Ag  Ag28  1  0.50209439  0.66311220  0.83457749  1
  Ag  Ag29  1  0.49726997  0.50266155  0.33048142  1
  Ag  Ag30  1  0.82984801  0.34290493  0.83597597  1
  Ag  Ag31  1  0.16950229  0.34016552  0.16817037  1
  Ag  Ag32  1  0.33542471  0.00357889  0.66986515  1
  Ag  Ag33  1  0.17820660  0.33832829  0.83856618  1
  Ag  Ag34  1  0.49803906  0.66390775  0.17095654  1
  Ag  Ag35  1  0.16386610  0.66130588  0.17087566  1
  Ag  Ag36  1  0.32959894  0.49770650  0.16780082  1
  Ag  Ag37  1  0.00251546  0.66429273  0.00781702  1
  Ag  Ag38  1  0.84433938  0.66629180  0.17295664  1
  Ag  Ag39  1  0.83729206  0.50353485  -0.00210531  1
  Ag  Ag40  1  0.00309754  0.82748016  0.16971405  1
  Ag  Ag41  1  0.16656170  0.82062951  0.00691668  1
  Ag  Ag42  1  0.00390661  0.66294548  0.66674092  1
  Ag  Ag43  1  0.16884633  0.49968253  0.00605432  1
  Ag  Ag44  1  0.49121767  0.50337850  0.67299162  1
  Ag  Ag45  1  0.16347991  0.65949065  0.48724893  1
  Ag  Ag46  1  0.83953403  0.50464065  0.68104746  1
  Ag  Ag47  1  0.33334770  0.33608476  0.65939529  1
  Ag  Ag48  1  0.49109760  0.33441164  0.49891334  1
  Ag  Ag49  1  0.67930952  0.66331909  0.32883292  1
  Ag  Ag50  1  0.66424221  0.16893843  0.16497391  1
  Ag  Ag51  1  0.83646606  0.50736416  0.32899203  1
  Ag  Ag52  1  0.66269396  0.83018098  0.84331139  1
  Ag  Ag53  1  0.32797040  0.17432137  0.16615356  1
  Sb  Sb54  1  0.66750035  0.50431889  0.83542334  1
  Sb  Sb55  1  0.33094810  0.66696151  -0.00299293  1
  Sb  Sb56  1  0.00340046  0.50290577  0.50295651  1
  Sb  Sb57  1  0.49530725  0.66243958  0.49872385  1
  Sb  Sb58  1  0.66015490  0.16876121  0.49102970  1
  Sb  Sb59  1  0.65837237  0.33577773  0.66900077  1
  Sb  Sb60  1  0.49684891  0.16923541  0.66736280  1
  Sb  Sb61  1  0.66722528  -0.00433457  0.32734070  1
  Sb  Sb62  1  0.33211321  0.49514079  0.83545198  1
  Sb  Sb63  1  0.83418635  0.82438108  0.00660394  1
  Sb  Sb64  1  0.82719061  -0.00632662  0.49751866  1
  Sb  Sb65  1  0.00848503  0.17556880  0.84050178  1
  Sb  Sb66  1  0.00168862  0.34256278  0.00187485  1
  Sb  Sb67  1  0.83233231  0.34316597  0.50169538  1
  Sb  Sb68  1  0.49796248  0.82938561  0.00025173  1
  Sb  Sb69  1  0.83713658  0.17350707  0.00256823  1
  Sb  Sb70  1  0.49405987  0.17121556  0.33111101  1
  Sb  Sb71  1  0.66530376  0.50107122  0.49587602  1
  Sb  Sb72  1  0.49907781  -0.00505812  0.16584394  1
  Sb  Sb73  1  0.17337825  -0.00001854  0.49671462  1
  Sb  Sb74  1  0.83545625  0.34314114  0.16468458  1
  Sb  Sb75  1  0.49351051  0.17086284  0.00117052  1
  Sb  Sb76  1  0.01045608  0.16728322  0.49044479  1
  Sb  Sb77  1  0.00640388  -0.00941440  0.66307801  1
  Sb  Sb78  1  0.66341323  0.83037255  0.49352062  1
  Sb  Sb79  1  0.16692151  0.65962461  0.83645833  1
  Sb  Sb80  1  0.17392728  0.82202391  0.66676634  1
  Sb  Sb81  1  0.33048072  0.82989991  0.16803227  1
  Sb  Sb82  1  0.16826474  0.00022524  0.16792091  1
  Sb  Sb83  1  0.66190014  0.50334277  0.16717541  1
  Sb  Sb84  1  0.33474035  0.83559151  0.49917893  1
  Sb  Sb85  1  0.00462287  0.34156455  0.33045301  1
  Sb  Sb86  1  -0.00432896  0.82247077  0.83967528  1
  Sb  Sb87  1  0.66479491  0.66461863  0.66446332  1
  Sb  Sb88  1  0.66049248  0.16638696  0.84019730  1
  Sb  Sb89  1  0.83870620  0.17220497  0.33019595  1
  Sb  Sb90  1  0.00188336  0.82811367  0.49057431  1
  Sb  Sb91  1  0.83303651  -0.00656069  0.16659684  1
  Sb  Sb92  1  0.33072779  0.00559665  0.33143853  1
  Sb  Sb93  1  0.32952853  0.65994218  0.33572151  1
  Sb  Sb94  1  0.33336166  0.33139666  0.00016942  1
  Sb  Sb95  1  0.17129570  0.17660002  0.66548154  1
  Sb  Sb96  1  0.66847854  0.66369175  0.00512586  1
  Sb  Sb97  1  0.00596808  0.50516297  0.16323047  1
  Sb  Sb98  1  0.33756890  0.83618876  0.83306915  1
  Sb  Sb99  1  0.00300129  -0.00503908  0.00380820  1
  Sb  Sb100  1  0.00803854  0.34316909  0.66987564  1
  Sb  Sb101  1  0.83734392  0.17878153  0.66814037  1
  Sb  Sb102  1  0.82794575  0.82313948  0.66363490  1
  Sb  Sb103  1  0.49554077  0.34032986  0.16668579  1
  Sb  Sb104  1  0.33172378  0.49417235  0.49576359  1
  Sb  Sb105  1  0.65637377  -0.00354746  0.67337609  1
  Sb  Sb106  1  0.82714947  -0.00241231  0.83426029  1
  Sb  Sb107  1  0.17411993  0.00576645  0.83512182  1
  Te  Te108  1  0.16980835  0.16406077  0.16703754  1
  Te  Te109  1  0.17409550  0.17038073  0.49607248  1
  Te  Te110  1  0.17219728  0.17459638  0.83585925  1
  Te  Te111  1  0.16698511  0.50020892  0.16541388  1
  Te  Te112  1  0.16661533  0.49994673  0.50377682  1
  Te  Te113  1  0.16500756  0.49654294  0.83311062  1
  Te  Te114  1  0.16605205  0.83023382  0.16726684  1
  Te  Te115  1  0.16762961  0.82738655  0.49656816  1
  Te  Te116  1  0.16474631  0.83437019  0.83838939  1
  Te  Te117  1  0.50390188  0.16632774  0.16589794  1
  Te  Te118  1  0.49445750  0.16937950  0.49867100  1
  Te  Te119  1  0.49512310  0.16547090  0.83455798  1
  Te  Te120  1  0.49482878  0.50359534  0.16927386  1
  Te  Te121  1  0.49898353  0.49526471  0.49861997  1
  Te  Te122  1  0.50009099  0.50092328  0.83333091  1
  Te  Te123  1  0.50069937  0.82756274  0.16891898  1
  Te  Te124  1  0.50005890  0.83481185  0.50166804  1
  Te  Te125  1  0.50256042  0.83159653  0.83336296  1
  Te  Te126  1  0.82629987  0.16695930  0.16650324  1
  Te  Te127  1  0.83446110  0.16731634  0.50043095  1
  Te  Te128  1  0.83478953  0.17257211  0.83376972  1
  Te  Te129  1  0.83473681  0.50640686  0.16547005  1
  Te  Te130  1  0.83423944  0.50566953  0.49310570  1
  Te  Te131  1  0.83103458  0.49970865  0.83726097  1
  Te  Te132  1  0.83257110  0.82744189  0.17043706  1
  Te  Te133  1  0.83163922  0.82572496  0.49381053  1
  Te  Te134  1  0.82645356  0.82946141  0.83345029  1
  Te  Te135  1  0.16962805  0.00298171  -0.00092948  1
  Te  Te136  1  0.16277872  -0.00798733  0.33517786  1
  Te  Te137  1  0.17298062  -0.00356632  0.66590423  1
  Te  Te138  1  0.16587603  0.33658316  0.00073470  1
  Te  Te139  1  0.16725213  0.33956580  0.33018826  1
  Te  Te140  1  0.17189390  0.33993565  0.67339094  1
  Te  Te141  1  0.16542250  0.66249732  0.00196022  1
  Te  Te142  1  0.17050202  0.66341080  0.33158601  1
  Te  Te143  1  0.16834564  0.66157277  0.67018330  1
  Te  Te144  1  0.49882950  -0.00103475  -0.00206810  1
  Te  Te145  1  0.49929780  -0.00165210  0.33691773  1
  Te  Te146  1  0.49493203  0.00211227  0.66902517  1
  Te  Te147  1  0.50416540  0.33756204  -0.00216302  1
  Te  Te148  1  0.49895953  0.33598546  0.33310532  1
  Te  Te149  1  0.49571150  0.33634304  0.66848639  1
  Te  Te150  1  0.49990015  0.66192003  -0.00163007  1
  Te  Te151  1  0.49406111  0.66361514  0.33464811  1
  Te  Te152  1  0.49856686  0.66401189  0.66532967  1
  Te  Te153  1  0.82877200  0.00009383  -0.00166065  1
  Te  Te154  1  0.83929911  -0.00145299  0.33457783  1
  Te  Te155  1  0.83562796  -0.00018622  0.66513283  1
  Te  Te156  1  0.83028210  0.34042288  -0.00279867  1
  Te  Te157  1  0.83029290  0.34123830  0.33433766  1
  Te  Te158  1  0.83310295  0.34392435  0.67018052  1
  Te  Te159  1  0.83495988  0.66225275  -0.00408079  1
  Te  Te160  1  0.83535034  0.66415867  0.32883436  1
  Te  Te161  1  0.83195288  0.66228715  0.67530053  1
  Te  Te162  1  0.00574966  0.16397481  0.00582900  1
  Te  Te163  1  0.00662039  0.16855592  0.32711982  1
  Te  Te164  1  0.00259822  0.16167474  0.66684497  1
  Te  Te165  1  0.00108698  0.50511035  -0.00374118  1
  Te  Te166  1  0.00172635  0.50707169  0.33352299  1
  Te  Te167  1  -0.00140879  0.50513079  0.67160803  1
  Te  Te168  1  0.00430128  0.82780300  0.00645368  1
  Te  Te169  1  0.00129171  0.82778840  0.32905748  1
  Te  Te170  1  -0.00050725  0.82532417  0.66858048  1
  Te  Te171  1  0.32960090  0.16475442  0.00124226  1
  Te  Te172  1  0.32855579  0.17121538  0.32977845  1
  Te  Te173  1  0.33244194  0.16826556  0.66905760  1
  Te  Te174  1  0.33366554  0.50105976  0.00479373  1
  Te  Te175  1  0.33261677  0.49489057  0.33013354  1
  Te  Te176  1  0.33412826  0.49568219  0.66963223  1
  Te  Te177  1  0.32727802  0.83992396  0.00065849  1
  Te  Te178  1  0.33814101  0.83685306  0.33253283  1
  Te  Te179  1  0.34018475  0.84162111  0.66619222  1
  Te  Te180  1  0.66842411  0.16840337  0.00402527  1
  Te  Te181  1  0.66883397  0.16649455  0.32606495  1
  Te  Te182  1  0.67028240  0.16543824  0.66579901  1
  Te  Te183  1  0.66161643  0.49565300  0.00114384  1
  Te  Te184  1  0.66215985  0.50242050  0.33206141  1
  Te  Te185  1  0.66402671  0.49928459  0.66486672  1
  Te  Te186  1  0.66640816  0.83414557  0.00374066  1
  Te  Te187  1  0.66147273  0.83112926  0.32768824  1
  Te  Te188  1  0.65947667  0.83275197  0.67044249  1
  Te  Te189  1  -0.00136541  -0.00213596  0.17073927  1
  Te  Te190  1  -0.00197415  -0.00047266  0.49521437  1
  Te  Te191  1  -0.00254437  0.00003148  0.83251587  1
  Te  Te192  1  0.00416164  0.32401825  0.16675433  1
  Te  Te193  1  0.00665246  0.33197570  0.50124099  1
  Te  Te194  1  -0.00479421  0.33981902  0.83470220  1
  Te  Te195  1  0.00282891  0.66687745  0.16660278  1
  Te  Te196  1  0.00223547  0.66678906  0.50458942  1
  Te  Te197  1  -0.00185941  0.66184017  0.83140358  1
  Te  Te198  1  0.33521504  0.00773402  0.16202398  1
  Te  Te199  1  0.33798205  0.00698790  0.50139662  1
  Te  Te200  1  0.33785795  0.00423292  0.83404034  1
  Te  Te201  1  0.33020269  0.33430171  0.16799779  1
  Te  Te202  1  0.33161622  0.33129173  0.49952490  1
  Te  Te203  1  0.33691548  0.33034769  0.83418357  1
  Te  Te204  1  0.33387193  0.66277253  0.16535245  1
  Te  Te205  1  0.32771305  0.66854634  0.50972139  1
  Te  Te206  1  0.33969639  0.66864342  0.82776226  1
  Te  Te207  1  0.66620992  -0.00341149  0.16108762  1
  Te  Te208  1  0.65837643  0.00070838  0.50038818  1
  Te  Te209  1  0.65973483  -0.00334622  0.84003622  1
  Te  Te210  1  0.66789040  0.33322154  0.16722900  1
  Te  Te211  1  0.66252390  0.33183262  0.49411219  1
  Te  Te212  1  0.66263827  0.33133125  0.83656911  1
  Te  Te213  1  0.65971745  0.66964377  0.16958395  1
  Te  Te214  1  0.67129476  0.66712702  0.49059930  1
  Te  Te215  1  0.66289164  0.67031754  0.83409383  1
