# generated using pymatgen
data_AgSbTe2
_symmetry_space_group_name_H-M   'P 1'
_cell_length_a   18.30758251
_cell_length_b   18.31176928
_cell_length_c   18.31177000
_cell_angle_alpha   90.00037754
_cell_angle_beta   89.99932655
_cell_angle_gamma   89.99851545
_symmetry_Int_Tables_number   1
_chemical_formula_structural   AgSbTe2
_chemical_formula_sum   'Ag54 Sb54 Te108'
_cell_volume   6138.91517859
_cell_formula_units_Z   54
loop_
 _symmetry_equiv_pos_site_id
 _symmetry_equiv_pos_as_xyz
  1  'x, y, z'
loop_
 _atom_site_type_symbol
 _atom_site_label
 _atom_site_symmetry_multiplicity
 _atom_site_fract_x
 _atom_site_fract_y
 _atom_site_fract_z
 _atom_site_occupancy
  Ag  Ag0  1  0.33337062  0.33363821  0.67173753  1
  Ag  Ag1  1  0.66946872  0.83365297  0.49833571  1
  Ag  Ag2  1  0.50065381  0.33372466  0.50232291  1
  Ag  Ag3  1  0.66534299  -0.00925741  0.33463315  1
  Ag  Ag4  1  0.01108379  0.83207027  0.16661891  1
  Ag  Ag5  1  0.17092040  0.83024989  0.00276415  1
  Ag  Ag6  1  0.16388609  0.67029422  0.50065682  1
  Ag  Ag7  1  0.33233223  0.16466559  0.83220543  1
  Ag  Ag8  1  0.66320269  0.33502837  0.33191505  1
  Ag  Ag9  1  0.49956291  0.49823592  0.66153825  1
  Ag  Ag10  1  0.66449582  0.50464875  0.49809069  1
  Ag  Ag11  1  0.16924331  0.51087740  -0.00398903  1
  Ag  Ag12  1  -0.00014189  0.33558637  0.33907147  1
  Ag  Ag13  1  0.00293124  0.16192319  0.50672631  1
  Ag  Ag14  1  0.00191310  0.66893569  0.66625575  1
  Ag  Ag15  1  0.66285917  0.33404783  0.00145421  1
  Ag  Ag16  1  0.32866202  0.16681117  0.50550556  1
  Ag  Ag17  1  0.82866623  0.83041137  -0.00194284  1
  Ag  Ag18  1  0.83265087  0.51041882  -0.00616947  1
  Ag  Ag19  1  -0.00143125  0.67112886  -0.00209632  1
  Ag  Ag20  1  0.33388217  0.50739515  0.16306673  1
  Ag  Ag21  1  0.32565763  0.67360300  0.00314436  1
  Ag  Ag22  1  0.49798098  0.33260455  0.83163827  1
  Ag  Ag23  1  0.66696697  0.67123189  0.33304030  1
  Ag  Ag24  1  0.16571700  0.15936793  0.33723932  1
  Ag  Ag25  1  0.16509839  0.82958226  0.66691025  1
  Ag  Ag26  1  0.83981510  0.16974617  0.67098815  1
  Ag  Ag27  1  0.50224539  0.49813142  0.33889862  1
  Ag  Ag28  1  0.49976700  0.33591886  0.16425187  1
  Ag  Ag29  1  0.00334862  0.66966718  0.33743479  1
  Ag  Ag30  1  0.16938510  -0.00223956  0.83702451  1
  Ag  Ag31  1  0.83346029  0.66901921  0.83609404  1
  Ag  Ag32  1  0.33857675  0.33416668  -0.00457961  1
  Ag  Ag33  1  0.66445872  0.83685691  0.84271132  1
  Ag  Ag34  1  0.32812636  0.66829310  0.32837207  1
  Ag  Ag35  1  0.00095156  0.83407465  0.50091272  1
  Ag  Ag36  1  0.49621529  0.83052893  0.66526771  1
  Ag  Ag37  1  0.16801293  -0.00611228  0.16189372  1
  Ag  Ag38  1  0.16416188  0.83265581  0.32868526  1
  Ag  Ag39  1  0.00099469  0.00061865  0.66420458  1
  Ag  Ag40  1  0.83666355  0.49792225  0.67036071  1
  Ag  Ag41  1  -0.00441117  0.16520834  0.82491640  1
  Ag  Ag42  1  0.32743182  0.82978743  0.15727278  1
  Ag  Ag43  1  0.16390481  0.50459645  0.66966318  1
  Ag  Ag44  1  0.33160750  0.83712146  0.84004073  1
  Ag  Ag45  1  0.50471232  0.00082289  0.50085332  1
  Ag  Ag46  1  0.67153255  0.16274480  0.83630977  1
  Ag  Ag47  1  0.00329407  0.32962515  0.66269613  1
  Ag  Ag48  1  0.66440437  0.83351776  0.15890759  1
  Ag  Ag49  1  0.83183520  0.16253247  -0.00946578  1
  Ag  Ag50  1  0.66578240  -0.01087817  0.00037266  1
  Ag  Ag51  1  0.83129775  -0.00123535  0.50234034  1
  Ag  Ag52  1  0.67380061  0.67442755  0.00140841  1
  Ag  Ag53  1  0.33152494  -0.01001869  -0.00215745  1
  Sb  Sb54  1  0.67033907  -0.00200062  0.66728066  1
  Sb  Sb55  1  0.82887473  0.33233681  0.83336168  1
  Sb  Sb56  1  0.00290640  0.83599042  0.83212996  1
  Sb  Sb57  1  0.66412419  0.33468176  0.66797271  1
  Sb  Sb58  1  -0.00084559  -0.00403224  0.33912541  1
  Sb  Sb59  1  0.16506116  0.16191910  -0.00038117  1
  Sb  Sb60  1  0.33500013  0.33644491  0.33280978  1
  Sb  Sb61  1  0.32852236  0.00186550  0.67052987  1
  Sb  Sb62  1  0.49843615  0.83260240  -0.00406667  1
  Sb  Sb63  1  0.33760823  0.49768308  0.49886094  1
  Sb  Sb64  1  0.33332030  0.50058121  0.83727164  1
  Sb  Sb65  1  0.83576515  -0.00331311  0.16753067  1
  Sb  Sb66  1  0.16983545  0.33066118  0.16632544  1
  Sb  Sb67  1  0.33492508  -0.00423680  0.33089932  1
  Sb  Sb68  1  0.83664162  0.16510777  0.33657678  1
  Sb  Sb69  1  0.32742487  0.66450624  0.66864086  1
  Sb  Sb70  1  0.33236151  0.16463682  0.16321585  1
  Sb  Sb71  1  0.66748789  0.16270144  0.16151154  1
  Sb  Sb72  1  0.66657599  0.50075186  0.83239455  1
  Sb  Sb73  1  0.16787092  0.67390856  0.16772043  1
  Sb  Sb74  1  0.16887142  0.33606508  0.50123078  1
  Sb  Sb75  1  0.50286616  0.66554662  0.83306117  1
  Sb  Sb76  1  0.83271085  0.66810539  0.15888879  1
  Sb  Sb77  1  0.16172703  0.16477040  0.66449861  1
  Sb  Sb78  1  -0.00105996  0.33693395  -0.00174148  1
  Sb  Sb79  1  0.33134908  0.83616454  0.50068004  1
  Sb  Sb80  1  0.49863853  0.66557943  0.49984974  1
  Sb  Sb81  1  0.83046707  0.33079527  0.50238899  1
  Sb  Sb82  1  0.82885256  0.33379427  0.16500944  1
  Sb  Sb83  1  0.66864575  0.16427987  0.50318489  1
  Sb  Sb84  1  0.83565970  -0.00118180  0.83110971  1
  Sb  Sb85  1  0.83694959  0.83263545  0.67053324  1
  Sb  Sb86  1  0.49845335  0.00076157  0.16972801  1
  Sb  Sb87  1  0.83469594  0.83202900  0.33022614  1
  Sb  Sb88  1  0.66219788  0.50394323  0.16880424  1
  Sb  Sb89  1  0.67179258  0.66752249  0.66701327  1
  Sb  Sb90  1  0.00120697  0.16160025  0.16746232  1
  Sb  Sb91  1  0.50351197  0.16836036  -0.00319504  1
  Sb  Sb92  1  0.16576795  -0.00429030  0.50142579  1
  Sb  Sb93  1  0.82864275  0.50187785  0.33509425  1
  Sb  Sb94  1  0.16969526  0.50604535  0.33384860  1
  Sb  Sb95  1  0.49734275  0.17137947  0.33685221  1
  Sb  Sb96  1  0.83680320  0.67114222  0.50516275  1
  Sb  Sb97  1  -0.00366726  0.50235621  0.50242384  1
  Sb  Sb98  1  0.00043044  -0.00636052  -0.00432611  1
  Sb  Sb99  1  0.49907765  0.49791657  0.00025763  1
  Sb  Sb100  1  0.00576763  0.50672495  0.16489774  1
  Sb  Sb101  1  0.17144291  0.32805119  0.83226196  1
  Sb  Sb102  1  0.49841590  0.66435138  0.16758008  1
  Sb  Sb103  1  0.16255116  0.67278929  0.83340638  1
  Sb  Sb104  1  0.50019567  0.82856577  0.33823870  1
  Sb  Sb105  1  0.49754376  0.00099619  0.82946279  1
  Sb  Sb106  1  -0.00014276  0.49733469  0.83090195  1
  Sb  Sb107  1  0.50130527  0.16800492  0.66677088  1
  Te  Te108  1  0.16636789  0.15853252  0.17325006  1
  Te  Te109  1  0.16538389  0.16682838  0.49684800  1
  Te  Te110  1  0.17050403  0.15993039  0.83266426  1
  Te  Te111  1  0.17331453  0.49865701  0.16135384  1
  Te  Te112  1  0.16670884  0.50652519  0.50419137  1
  Te  Te113  1  0.16662437  0.49944559  0.83317515  1
  Te  Te114  1  0.16799897  0.83574001  0.16552241  1
  Te  Te115  1  0.16425478  0.83078496  0.50162800  1
  Te  Te116  1  0.16947423  0.83679022  0.83443262  1
  Te  Te117  1  0.49959301  0.17531937  0.16850738  1
  Te  Te118  1  0.49684263  0.16741024  0.50146473  1
  Te  Te119  1  0.49605753  0.17081476  0.83112611  1
  Te  Te120  1  0.49510597  0.49518027  0.17018794  1
  Te  Te121  1  0.50367060  0.49832517  0.50139756  1
  Te  Te122  1  0.50026733  0.49420412  0.82461917  1
  Te  Te123  1  0.50223157  0.83534019  0.16947727  1
  Te  Te124  1  0.50184561  0.83563343  0.50518118  1
  Te  Te125  1  0.50123278  0.83335272  0.82535198  1
  Te  Te126  1  0.83492496  0.16528021  0.15695862  1
  Te  Te127  1  0.83856728  0.16214140  0.50451371  1
  Te  Te128  1  0.83303683  0.16570401  0.83231818  1
  Te  Te129  1  0.83542240  0.49975019  0.15811462  1
  Te  Te130  1  0.82571107  0.50038270  0.50462732  1
  Te  Te131  1  0.83315206  0.50238362  0.83305663  1
  Te  Te132  1  0.82784488  0.83420597  0.15909871  1
  Te  Te133  1  0.83438249  0.83777980  0.50108512  1
  Te  Te134  1  0.82817933  0.83200204  0.83760648  1
  Te  Te135  1  0.16805386  -0.00314998  -0.00094642  1
  Te  Te136  1  0.16703233  -0.00486645  0.33189065  1
  Te  Te137  1  0.16164066  -0.00569966  0.66913824  1
  Te  Te138  1  0.16931577  0.33583025  0.00023289  1
  Te  Te139  1  0.16182330  0.33415912  0.33309724  1
  Te  Te140  1  0.16695300  0.33921718  0.66678193  1
  Te  Te141  1  0.16668236  0.66874858  -0.00092680  1
  Te  Te142  1  0.16485990  0.67022620  0.33672547  1
  Te  Te143  1  0.16272249  0.66715604  0.66601608  1
  Te  Te144  1  0.50137150  0.00102249  0.00084404  1
  Te  Te145  1  0.50568757  0.00028188  0.33793565  1
  Te  Te146  1  0.49890357  -0.00348822  0.66098200  1
  Te  Te147  1  0.50022139  0.33405763  -0.00194510  1
  Te  Te148  1  0.50202269  0.33716251  0.33877346  1
  Te  Te149  1  0.49737739  0.33460541  0.66462743  1
  Te  Te150  1  0.50249131  0.66432283  -0.00022940  1
  Te  Te151  1  0.50413694  0.66022084  0.33387841  1
  Te  Te152  1  0.49858375  0.66459984  0.66656704  1
  Te  Te153  1  0.82937910  -0.00261939  -0.00059754  1
  Te  Te154  1  0.82533653  0.00042546  0.33853481  1
  Te  Te155  1  0.83939094  0.00268193  0.66360703  1
  Te  Te156  1  0.83048998  0.33418026  -0.00069597  1
  Te  Te157  1  0.83329688  0.33328943  0.33299304  1
  Te  Te158  1  0.83779131  0.33609324  0.66780840  1
  Te  Te159  1  0.83301440  0.66867276  -0.00343170  1
  Te  Te160  1  0.83283814  0.66570996  0.33445949  1
  Te  Te161  1  0.83960188  0.66207927  0.67243720  1
  Te  Te162  1  -0.00453892  0.16675578  -0.00243524  1
  Te  Te163  1  0.00290076  0.16774604  0.33600921  1
  Te  Te164  1  0.00045171  0.16857810  0.66514860  1
  Te  Te165  1  0.00123493  0.50588241  -0.00019969  1
  Te  Te166  1  -0.00092493  0.50090290  0.33296178  1
  Te  Te167  1  0.00077797  0.50068383  0.66652144  1
  Te  Te168  1  0.00347932  0.83016579  -0.00053546  1
  Te  Te169  1  0.00139942  0.83049044  0.33532501  1
  Te  Te170  1  0.00287285  0.83112645  0.66558224  1
  Te  Te171  1  0.33175228  0.17108891  -0.00488369  1
  Te  Te172  1  0.32729563  0.16605206  0.33532561  1
  Te  Te173  1  0.33081610  0.17097069  0.66829279  1
  Te  Te174  1  0.33231090  0.49892422  0.00249492  1
  Te  Te175  1  0.33704379  0.50530088  0.32890352  1
  Te  Te176  1  0.33241317  0.49657433  0.66713807  1
  Te  Te177  1  0.33387266  0.83280225  -0.00076796  1
  Te  Te178  1  0.33036536  0.82831175  0.33245851  1
  Te  Te179  1  0.33032313  0.83326468  0.66923713  1
  Te  Te180  1  0.66988280  0.17116503  -0.00332753  1
  Te  Te181  1  0.66815317  0.17132255  0.33280849  1
  Te  Te182  1  0.67413058  0.16681195  0.67354130  1
  Te  Te183  1  0.66871729  0.49871452  0.00071215  1
  Te  Te184  1  0.66433894  0.49899536  0.33550572  1
  Te  Te185  1  0.66740459  0.50034903  0.66246593  1
  Te  Te186  1  0.66313030  0.83231596  -0.00074212  1
  Te  Te187  1  0.66725758  0.83177494  0.33823034  1
  Te  Te188  1  0.66589357  0.83261889  0.66205270  1
  Te  Te189  1  0.00457946  -0.00762357  0.16840969  1
  Te  Te190  1  -0.00117436  -0.00191332  0.50350207  1
  Te  Te191  1  0.00377237  0.00481855  0.82833948  1
  Te  Te192  1  0.00001842  0.33293103  0.17206029  1
  Te  Te193  1  -0.00037135  0.33181952  0.49999297  1
  Te  Te194  1  0.00095309  0.32558854  0.82914228  1
  Te  Te195  1  -0.00085271  0.67360981  0.16722316  1
  Te  Te196  1  0.00151783  0.66926147  0.50025588  1
  Te  Te197  1  -0.00434335  0.66680770  0.83432121  1
  Te  Te198  1  0.33119288  -0.00408575  0.16147028  1
  Te  Te199  1  0.33777227  0.00547270  0.49967383  1
  Te  Te200  1  0.33197220  -0.00046051  0.83732586  1
  Te  Te201  1  0.33738496  0.33306098  0.16330137  1
  Te  Te202  1  0.33685089  0.32933704  0.50177934  1
  Te  Te203  1  0.33615344  0.33259556  0.83385390  1
  Te  Te204  1  0.33388244  0.66901540  0.16519332  1
  Te  Te205  1  0.32778356  0.66666082  0.49626682  1
  Te  Te206  1  0.33406326  0.67273048  0.83846389  1
  Te  Te207  1  0.66633465  -0.00513286  0.16573906  1
  Te  Te208  1  0.66618902  -0.00147903  0.49970293  1
  Te  Te209  1  0.66546800  -0.00071154  0.83763285  1
  Te  Te210  1  0.66168223  0.33428687  0.16622762  1
  Te  Te211  1  0.66278272  0.33299794  0.49734310  1
  Te  Te212  1  0.66174207  0.33010413  0.83737417  1
  Te  Te213  1  0.66541259  0.67148648  0.16770396  1
  Te  Te214  1  0.66746533  0.66908387  0.49751103  1
  Te  Te215  1  0.67047360  0.67092016  0.83699535  1
