# generated using pymatgen
data_AgSbTe2
_symmetry_space_group_name_H-M   'P 1'
_cell_length_a   18.32039184
_cell_length_b   18.32516658
_cell_length_c   18.32876842
_cell_angle_alpha   90.00251467
_cell_angle_beta   89.99971699
_cell_angle_gamma   89.99908338
_symmetry_Int_Tables_number   1
_chemical_formula_structural   AgSbTe2
_chemical_formula_sum   'Ag54 Sb54 Te108'
_cell_volume   6153.41170084
_cell_formula_units_Z   54
loop_
 _symmetry_equiv_pos_site_id
 _symmetry_equiv_pos_as_xyz
  1  'x, y, z'
loop_
 _atom_site_type_symbol
 _atom_site_label
 _atom_site_symmetry_multiplicity
 _atom_site_fract_x
 _atom_site_fract_y
 _atom_site_fract_z
 _atom_site_occupancy
  Ag  Ag0  1  0.16137905  0.66821345  0.82604175  1
  Ag  Ag1  1  0.16429284  0.67651149  0.50729588  1
  Ag  Ag2  1  -0.00380246  0.50500894  0.15866618  1
  Ag  Ag3  1  0.67269498  -0.00505617  0.66654141  1
  Ag  Ag4  1  0.00555975  0.83235903  0.16954213  1
  Ag  Ag5  1  0.16495272  0.15690283  0.33576480  1
  Ag  Ag6  1  0.16019186  0.50542142  0.66911472  1
  Ag  Ag7  1  0.16283474  0.33386610  0.50593806  1
  Ag  Ag8  1  0.15914620  -0.00549083  0.83244618  1
  Ag  Ag9  1  0.67109398  0.66968653  0.66196532  1
  Ag  Ag10  1  0.00040078  -0.00439156  0.00129594  1
  Ag  Ag11  1  0.50491625  0.66847284  0.16975705  1
  Ag  Ag12  1  0.32599834  0.83127956  0.82876530  1
  Ag  Ag13  1  0.16965038  0.83513088  0.34403346  1
  Ag  Ag14  1  0.32394931  0.83213810  0.49768432  1
  Ag  Ag15  1  0.83841820  0.34275087  0.17132743  1
  Ag  Ag16  1  0.16530701  -0.01122304  0.50027189  1
  Ag  Ag17  1  0.83930104  0.50290348  0.00658624  1
  Ag  Ag18  1  0.16380943  0.16614086  0.00206700  1
  Ag  Ag19  1  0.31980208  0.33995948  0.66243008  1
  Ag  Ag20  1  0.00077913  0.33359007  0.33903820  1
  Ag  Ag21  1  0.00334774  0.33588947  0.66092533  1
  Ag  Ag22  1  0.32374129  0.82962262  0.17748241  1
  Ag  Ag23  1  0.83183816  -0.00422460  0.82926464  1
  Ag  Ag24  1  0.67186587  0.15637733  0.83456005  1
  Ag  Ag25  1  0.83939515  0.50139827  0.66578870  1
  Ag  Ag26  1  0.66880169  0.83715301  0.82973993  1
  Ag  Ag27  1  0.15613944  0.50250389  -0.00726454  1
  Ag  Ag28  1  0.83472133  0.66480964  0.50433373  1
  Ag  Ag29  1  0.16179672  -0.00359431  0.16839897  1
  Ag  Ag30  1  0.67494652  0.00087909  -0.00677238  1
  Ag  Ag31  1  0.00129482  0.50288663  0.83851878  1
  Ag  Ag32  1  0.83398051  0.66013746  0.16554089  1
  Ag  Ag33  1  0.32171276  0.66833995  0.66404797  1
  Ag  Ag34  1  0.00256265  0.66370790  0.00139429  1
  Ag  Ag35  1  0.83802472  0.33706278  0.50163926  1
  Ag  Ag36  1  0.83329913  -0.00169630  0.50735373  1
  Ag  Ag37  1  0.32148091  0.66935463  -0.00120864  1
  Ag  Ag38  1  0.67205608  0.50511753  0.49857960  1
  Ag  Ag39  1  0.66595726  0.67110050  0.33747793  1
  Ag  Ag40  1  0.49419346  0.32972838  0.50052810  1
  Ag  Ag41  1  0.66827692  -0.00575870  0.33739826  1
  Ag  Ag42  1  0.67466257  0.16356987  0.16580940  1
  Ag  Ag43  1  0.67854570  0.50469442  0.16987066  1
  Ag  Ag44  1  0.16893018  0.82337028  0.65698560  1
  Ag  Ag45  1  0.16377999  0.34402101  0.82314758  1
  Ag  Ag46  1  0.83910408  0.66743286  0.82987700  1
  Ag  Ag47  1  0.83241404  0.16748053  0.66517430  1
  Ag  Ag48  1  -0.00223072  0.16728929  0.16459597  1
  Ag  Ag49  1  0.33246667  0.67321904  0.33573445  1
  Ag  Ag50  1  0.49232009  0.83090472  0.33425622  1
  Ag  Ag51  1  0.32679614  0.15987784  0.50123776  1
  Ag  Ag52  1  0.00983333  0.83225231  0.49707327  1
  Ag  Ag53  1  0.50078093  -0.00083854  0.49880019  1
  Sb  Sb54  1  0.49871309  0.66840126  0.83654426  1
  Sb  Sb55  1  0.33078584  0.16141351  0.82810091  1
  Sb  Sb56  1  0.49660555  0.16009713  0.33565374  1
  Sb  Sb57  1  0.66904925  0.32984084  0.00063264  1
  Sb  Sb58  1  -0.00348263  0.50158975  0.50178671  1
  Sb  Sb59  1  0.32615640  -0.00623789  -0.00119286  1
  Sb  Sb60  1  0.49937123  0.66966846  0.49586498  1
  Sb  Sb61  1  0.16387637  0.50404896  0.33597612  1
  Sb  Sb62  1  0.33175174  -0.00827456  0.33728250  1
  Sb  Sb63  1  0.33219141  0.50431477  0.50199732  1
  Sb  Sb64  1  0.66965152  0.83193651  0.16590105  1
  Sb  Sb65  1  0.66778389  0.16494190  0.49921260  1
  Sb  Sb66  1  0.66707605  0.83197186  0.50268921  1
  Sb  Sb67  1  0.83828256  0.16897615  -0.00177432  1
  Sb  Sb68  1  0.00042631  0.33781557  0.00034594  1
  Sb  Sb69  1  0.00042687  0.00130028  0.33102282  1
  Sb  Sb70  1  0.00447619  0.16662558  0.49656476  1
  Sb  Sb71  1  0.33279625  -0.00287434  0.66377934  1
  Sb  Sb72  1  0.32121306  0.50944215  0.83125558  1
  Sb  Sb73  1  0.16581180  0.83120580  -0.00088783  1
  Sb  Sb74  1  0.32685025  0.33968807  -0.00574614  1
  Sb  Sb75  1  0.83624623  0.83299392  0.33493873  1
  Sb  Sb76  1  0.50527843  0.16591424  0.66381080  1
  Sb  Sb77  1  0.50764101  0.33828748  0.17501949  1
  Sb  Sb78  1  0.50552165  -0.00290007  0.82754045  1
  Sb  Sb79  1  0.49934391  0.83220175  0.00534734  1
  Sb  Sb80  1  0.67785885  0.50385606  0.83182097  1
  Sb  Sb81  1  0.16204595  0.16861427  0.66449941  1
  Sb  Sb82  1  -0.00060390  0.66503992  0.33034419  1
  Sb  Sb83  1  0.49813781  0.16435151  0.00202964  1
  Sb  Sb84  1  0.83811216  0.83054419  0.66601365  1
  Sb  Sb85  1  -0.00288388  0.00288166  0.66810177  1
  Sb  Sb86  1  0.00281287  0.83012033  0.83261445  1
  Sb  Sb87  1  0.83727186  -0.00138697  0.16505035  1
  Sb  Sb88  1  0.49524546  0.83235134  0.66075741  1
  Sb  Sb89  1  0.83481904  0.50142324  0.33323239  1
  Sb  Sb90  1  0.00023669  0.66248087  0.66967639  1
  Sb  Sb91  1  0.83522140  0.82915853  -0.00111423  1
  Sb  Sb92  1  0.16292591  0.67169259  0.16583916  1
  Sb  Sb93  1  0.67209642  0.33425644  0.33614563  1
  Sb  Sb94  1  0.15910450  0.32970069  0.16917641  1
  Sb  Sb95  1  0.67250067  0.67037682  -0.00032937  1
  Sb  Sb96  1  0.50107803  0.50158718  0.66434211  1
  Sb  Sb97  1  0.32677589  0.16127766  0.17171001  1
  Sb  Sb98  1  0.83934194  0.33475280  0.82928278  1
  Sb  Sb99  1  0.50188729  0.50633880  0.33564085  1
  Sb  Sb100  1  0.50288529  0.50318671  0.00265896  1
  Sb  Sb101  1  0.83774115  0.16594222  0.33622972  1
  Sb  Sb102  1  0.49416919  0.33210160  0.82428356  1
  Sb  Sb103  1  0.49946617  -0.00590737  0.17204022  1
  Sb  Sb104  1  0.67187771  0.33530072  0.66401717  1
  Sb  Sb105  1  0.32849434  0.50804340  0.16492856  1
  Sb  Sb106  1  0.32664895  0.33689535  0.34009574  1
  Sb  Sb107  1  -0.00050760  0.16830228  0.83689140  1
  Te  Te108  1  0.16462752  0.16255228  0.16801627  1
  Te  Te109  1  0.16788607  0.17114207  0.49834593  1
  Te  Te110  1  0.16793700  0.15701405  0.83683007  1
  Te  Te111  1  0.16079445  0.49875295  0.16317700  1
  Te  Te112  1  0.16471591  0.49554189  0.50411203  1
  Te  Te113  1  0.16205913  0.50335078  0.83157916  1
  Te  Te114  1  0.16578749  0.83655713  0.16550571  1
  Te  Te115  1  0.16659833  0.83277700  0.50084012  1
  Te  Te116  1  0.16625261  0.83197273  0.83202040  1
  Te  Te117  1  0.50505266  0.16816131  0.16794128  1
  Te  Te118  1  0.49366614  0.16512471  0.49901816  1
  Te  Te119  1  0.50711689  0.16608970  0.83396175  1
  Te  Te120  1  0.50524091  0.50578596  0.16777049  1
  Te  Te121  1  0.50873530  0.49487940  0.50059240  1
  Te  Te122  1  0.50194164  0.49819029  0.83417788  1
  Te  Te123  1  0.49704289  0.82838690  0.17266727  1
  Te  Te124  1  0.49571981  0.83741364  0.49444279  1
  Te  Te125  1  0.49898017  0.83290479  0.83280295  1
  Te  Te126  1  0.83394049  0.16694092  0.16632951  1
  Te  Te127  1  0.83480433  0.16510150  0.50392308  1
  Te  Te128  1  0.83019278  0.16545794  0.83065408  1
  Te  Te129  1  0.83505865  0.50020391  0.16831785  1
  Te  Te130  1  0.83287143  0.50258695  0.50254950  1
  Te  Te131  1  0.83906388  0.50277160  0.82900784  1
  Te  Te132  1  0.84048735  0.82779632  0.16703397  1
  Te  Te133  1  0.83721399  0.83269672  0.50066187  1
  Te  Te134  1  0.83231612  0.83353304  0.83234231  1
  Te  Te135  1  0.16403738  0.00153867  -0.00170737  1
  Te  Te136  1  0.16592816  -0.00161992  0.33634242  1
  Te  Te137  1  0.16561630  0.00096702  0.66590982  1
  Te  Te138  1  0.16706397  0.33389732  -0.00373492  1
  Te  Te139  1  0.16190291  0.33350089  0.33726100  1
  Te  Te140  1  0.16445093  0.32958387  0.66743520  1
  Te  Te141  1  0.16379809  0.66377112  -0.00034888  1
  Te  Te142  1  0.16804004  0.67069795  0.33912564  1
  Te  Te143  1  0.16433539  0.66439361  0.66673810  1
  Te  Te144  1  0.50581134  0.00016735  0.00067890  1
  Te  Te145  1  0.50580487  -0.00627630  0.33816329  1
  Te  Te146  1  0.50867003  -0.00084290  0.65896668  1
  Te  Te147  1  0.49684959  0.33396631  0.00055909  1
  Te  Te148  1  0.49865508  0.33298428  0.34203559  1
  Te  Te149  1  0.49540555  0.33367064  0.65850453  1
  Te  Te150  1  0.49512210  0.66647088  0.00759005  1
  Te  Te151  1  0.50240089  0.67156440  0.32998046  1
  Te  Te152  1  0.50555197  0.66646918  0.66729235  1
  Te  Te153  1  0.83473743  0.00127998  -0.00380726  1
  Te  Te154  1  0.82809679  -0.00026047  0.33890954  1
  Te  Te155  1  0.83155227  -0.00199559  0.66823590  1
  Te  Te156  1  0.83313596  0.33997098  0.00331054  1
  Te  Te157  1  0.83921257  0.33165793  0.33559728  1
  Te  Te158  1  0.83627191  0.33648100  0.66440354  1
  Te  Te159  1  0.83653603  0.66273353  -0.00242513  1
  Te  Te160  1  0.82837024  0.66828607  0.33789835  1
  Te  Te161  1  0.83335930  0.66523651  0.66669124  1
  Te  Te162  1  0.00438612  0.16299535  0.00433359  1
  Te  Te163  1  0.00494712  0.16971240  0.32680215  1
  Te  Te164  1  -0.00812429  0.17333789  0.66791146  1
  Te  Te165  1  -0.00042858  0.50117448  -0.00052773  1
  Te  Te166  1  0.00161839  0.49414288  0.32236746  1
  Te  Te167  1  0.00030200  0.49628807  0.66745399  1
  Te  Te168  1  -0.00064698  0.83434685  0.00468761  1
  Te  Te169  1  0.00619408  0.83351011  0.33309740  1
  Te  Te170  1  0.00858399  0.83543382  0.66053094  1
  Te  Te171  1  0.32640645  0.16653201  0.00076035  1
  Te  Te172  1  0.32640346  0.16778289  0.33943444  1
  Te  Te173  1  0.33520211  0.16847385  0.66091128  1
  Te  Te174  1  0.33033567  0.50797524  -0.00098545  1
  Te  Te175  1  0.33316144  0.51088535  0.33195548  1
  Te  Te176  1  0.32994658  0.50265851  0.66714354  1
  Te  Te177  1  0.33458561  0.82725189  -0.00352690  1
  Te  Te178  1  0.33063553  0.83036646  0.33515024  1
  Te  Te179  1  0.32952034  0.83054615  0.66515250  1
  Te  Te180  1  0.66603076  0.16228570  0.00146051  1
  Te  Te181  1  0.66528020  0.16356894  0.32843415  1
  Te  Te182  1  0.67218913  0.16452616  0.66805159  1
  Te  Te183  1  0.67261892  0.50010596  0.00418433  1
  Te  Te184  1  0.66690319  0.50399519  0.33263557  1
  Te  Te185  1  0.67140579  0.50436314  0.66437256  1
  Te  Te186  1  0.66705416  0.84017834  -0.00545259  1
  Te  Te187  1  0.66562624  0.83201437  0.33326283  1
  Te  Te188  1  0.66567382  0.83097594  0.66907961  1
  Te  Te189  1  0.00207059  -0.00065561  0.16452222  1
  Te  Te190  1  -0.00028930  -0.00158960  0.49954007  1
  Te  Te191  1  -0.00146291  -0.00085753  0.83772437  1
  Te  Te192  1  -0.00337479  0.32929875  0.16622370  1
  Te  Te193  1  -0.00125323  0.33367386  0.49944715  1
  Te  Te194  1  0.00553600  0.33681164  0.83072478  1
  Te  Te195  1  -0.00388027  0.66763252  0.16418755  1
  Te  Te196  1  -0.00101583  0.66846130  0.49806580  1
  Te  Te197  1  -0.00066733  0.66583204  0.83757664  1
  Te  Te198  1  0.32856070  -0.00711182  0.16648964  1
  Te  Te199  1  0.32848316  -0.00112665  0.49999325  1
  Te  Te200  1  0.33173590  -0.00669178  0.83219079  1
  Te  Te201  1  0.33704126  0.33347360  0.16774377  1
  Te  Te202  1  0.33001694  0.33736172  0.50285467  1
  Te  Te203  1  0.32667157  0.33095138  0.82569924  1
  Te  Te204  1  0.33129052  0.67032934  0.16766670  1
  Te  Te205  1  0.33260125  0.66900896  0.50281274  1
  Te  Te206  1  0.33199819  0.67231666  0.83021511  1
  Te  Te207  1  0.66784660  0.00104846  0.16914512  1
  Te  Te208  1  0.67135542  -0.00024587  0.50096512  1
  Te  Te209  1  0.66822806  -0.00164228  0.83127740  1
  Te  Te210  1  0.67279101  0.33398715  0.16837601  1
  Te  Te211  1  0.67486186  0.33588776  0.49962076  1
  Te  Te212  1  0.66442534  0.32880648  0.83255919  1
  Te  Te213  1  0.67125494  0.66644678  0.16621908  1
  Te  Te214  1  0.66724776  0.66645546  0.49995174  1
  Te  Te215  1  0.66917814  0.67081353  0.83079065  1
