# generated using pymatgen
data_AgSbTe2
_symmetry_space_group_name_H-M   'P 1'
_cell_length_a   18.29875872
_cell_length_b   18.29841037
_cell_length_c   18.30340585
_cell_angle_alpha   89.99966678
_cell_angle_beta   89.99758224
_cell_angle_gamma   89.99830562
_symmetry_Int_Tables_number   1
_chemical_formula_structural   AgSbTe2
_chemical_formula_sum   'Ag54 Sb54 Te108'
_cell_volume   6128.67939421
_cell_formula_units_Z   54
loop_
 _symmetry_equiv_pos_site_id
 _symmetry_equiv_pos_as_xyz
  1  'x, y, z'
loop_
 _atom_site_type_symbol
 _atom_site_label
 _atom_site_symmetry_multiplicity
 _atom_site_fract_x
 _atom_site_fract_y
 _atom_site_fract_z
 _atom_site_occupancy
  Ag  Ag0  1  0.00061152  0.00435778  0.66792608  1
  Ag  Ag1  1  -0.00422980  0.33830129  -0.00200834  1
  Ag  Ag2  1  0.50282816  0.17101504  0.33752641  1
  Ag  Ag3  1  0.83109989  0.83236717  0.00103202  1
  Ag  Ag4  1  0.33758581  0.83917986  0.83196648  1
  Ag  Ag5  1  0.50528902  0.66669837  0.50643909  1
  Ag  Ag6  1  0.83022254  -0.00139921  0.16215932  1
  Ag  Ag7  1  0.66184967  0.83110185  0.49938236  1
  Ag  Ag8  1  0.83265606  0.66094439  0.16621481  1
  Ag  Ag9  1  -0.00115069  0.50065578  0.49826449  1
  Ag  Ag10  1  0.16640949  0.00401128  0.16817605  1
  Ag  Ag11  1  0.83873519  0.50229960  0.33352865  1
  Ag  Ag12  1  0.67097877  0.66149866  0.66707171  1
  Ag  Ag13  1  0.16062883  0.49808215  0.32834776  1
  Ag  Ag14  1  -0.00672367  0.49954925  0.82883772  1
  Ag  Ag15  1  0.16751493  0.83578743  0.33359679  1
  Ag  Ag16  1  0.50117370  0.49693561  0.33133276  1
  Ag  Ag17  1  0.34118194  0.15871339  0.83251522  1
  Ag  Ag18  1  0.66545580  0.16650568  0.16790885  1
  Ag  Ag19  1  0.83154632  0.66457411  0.50594111  1
  Ag  Ag20  1  0.33317507  -0.00447304  -0.00342418  1
  Ag  Ag21  1  0.66974801  0.33542348  0.67103613  1
  Ag  Ag22  1  0.16484399  0.16456170  0.66274163  1
  Ag  Ag23  1  0.17261254  0.00252767  0.83293472  1
  Ag  Ag24  1  0.66942423  0.33479089  -0.00271660  1
  Ag  Ag25  1  0.66607135  0.16629759  0.50210021  1
  Ag  Ag26  1  0.33552092  0.66678346  -0.00196549  1
  Ag  Ag27  1  0.66886158  0.49516887  0.83090654  1
  Ag  Ag28  1  -0.00902929  0.65757690  0.66263018  1
  Ag  Ag29  1  0.50634212  0.33095751  0.83276765  1
  Ag  Ag30  1  -0.00586840  0.33799839  0.66966150  1
  Ag  Ag31  1  0.16860443  0.16688330  0.33612989  1
  Ag  Ag32  1  0.50124398  0.83453943  0.66803963  1
  Ag  Ag33  1  0.32823759  0.50043391  0.16853979  1
  Ag  Ag34  1  0.83176329  -0.00421152  0.83595822  1
  Ag  Ag35  1  0.50283267  0.16366963  0.67056429  1
  Ag  Ag36  1  0.83557742  0.50354704  0.66635198  1
  Ag  Ag37  1  0.33106499  0.50611456  0.49468678  1
  Ag  Ag38  1  0.50265337  0.00220645  0.16128207  1
  Ag  Ag39  1  0.50554585  0.66465456  0.82696615  1
  Ag  Ag40  1  0.16627803  0.00221287  0.49972995  1
  Ag  Ag41  1  0.83428481  0.33948800  0.16561725  1
  Ag  Ag42  1  0.49728456  0.00427880  0.83440629  1
  Ag  Ag43  1  0.00198868  0.49737508  0.16986626  1
  Ag  Ag44  1  -0.00248278  0.66006409  0.33883845  1
  Ag  Ag45  1  0.16025735  0.33890176  0.16736049  1
  Ag  Ag46  1  0.16836641  0.49847749  0.00720588  1
  Ag  Ag47  1  0.66926396  0.83852091  0.16964160  1
  Ag  Ag48  1  -0.00040281  0.17104604  0.50261559  1
  Ag  Ag49  1  0.66607596  0.33305155  0.33058537  1
  Ag  Ag50  1  0.49636911  0.50088784  0.00083783  1
  Ag  Ag51  1  0.82804134  0.66495732  0.82915674  1
  Ag  Ag52  1  0.66061905  0.17381164  0.82874908  1
  Ag  Ag53  1  0.33758323  0.82932521  0.50437881  1
  Sb  Sb54  1  0.33589359  0.83092201  0.16579101  1
  Sb  Sb55  1  -0.00189826  0.17182816  0.17271287  1
  Sb  Sb56  1  0.16715872  0.66858264  0.83248718  1
  Sb  Sb57  1  0.83222884  0.17302852  0.33330965  1
  Sb  Sb58  1  -0.00376377  0.82917858  0.16762826  1
  Sb  Sb59  1  0.33605364  0.50159117  0.83521532  1
  Sb  Sb60  1  0.00175086  0.00569205  -0.00364096  1
  Sb  Sb61  1  0.50112276  0.16988394  -0.00604417  1
  Sb  Sb62  1  0.16534716  0.66755053  0.49934849  1
  Sb  Sb63  1  0.83507153  0.82605432  0.32988866  1
  Sb  Sb64  1  0.67116431  0.66098833  0.33887020  1
  Sb  Sb65  1  0.16182306  0.66198059  0.16784475  1
  Sb  Sb66  1  0.50266459  0.83031577  -0.00484205  1
  Sb  Sb67  1  0.16729528  0.33015416  0.83624348  1
  Sb  Sb68  1  0.33513596  0.33632282  -0.00008994  1
  Sb  Sb69  1  0.33044799  0.66341238  0.33153277  1
  Sb  Sb70  1  0.33346619  0.16451631  0.50351871  1
  Sb  Sb71  1  0.50513799  0.33100811  0.16340569  1
  Sb  Sb72  1  0.50605856  0.50010485  0.66806656  1
  Sb  Sb73  1  0.15774201  0.49408781  0.66444389  1
  Sb  Sb74  1  0.00217582  -0.00122092  0.33564232  1
  Sb  Sb75  1  0.82819869  0.82606306  0.66981956  1
  Sb  Sb76  1  -0.00311571  0.34013001  0.33283389  1
  Sb  Sb77  1  0.33422279  0.33323101  0.66827228  1
  Sb  Sb78  1  0.16505421  0.83159126  0.00281385  1
  Sb  Sb79  1  0.66294588  0.83211278  0.83217126  1
  Sb  Sb80  1  0.33653230  0.16876857  0.16346644  1
  Sb  Sb81  1  0.83602114  -0.00448426  0.50093281  1
  Sb  Sb82  1  0.00021606  0.82939136  0.50093291  1
  Sb  Sb83  1  0.17074764  0.83925759  0.66363296  1
  Sb  Sb84  1  0.66372420  0.00399527  0.00045173  1
  Sb  Sb85  1  0.66956943  0.00234129  0.66870599  1
  Sb  Sb86  1  0.83304724  0.34090731  0.49774776  1
  Sb  Sb87  1  0.82781000  0.33663490  0.83666283  1
  Sb  Sb88  1  0.83135930  0.17267730  0.66670761  1
  Sb  Sb89  1  0.33698262  0.66706828  0.66875565  1
  Sb  Sb90  1  0.83410309  0.50215238  -0.00010278  1
  Sb  Sb91  1  0.66909744  0.49754504  0.16485195  1
  Sb  Sb92  1  0.50521990  0.66708479  0.16700027  1
  Sb  Sb93  1  0.16783995  0.17025481  0.00151259  1
  Sb  Sb94  1  0.83115210  0.16514213  -0.00018048  1
  Sb  Sb95  1  0.33159736  -0.00038674  0.32905447  1
  Sb  Sb96  1  0.49616847  -0.00250235  0.50302222  1
  Sb  Sb97  1  0.50302828  0.33667323  0.50375653  1
  Sb  Sb98  1  -0.00011976  0.65869472  -0.00122861  1
  Sb  Sb99  1  0.49831060  0.83204274  0.33769551  1
  Sb  Sb100  1  0.16374315  0.33021233  0.49528882  1
  Sb  Sb101  1  0.00066560  0.83005518  0.83172429  1
  Sb  Sb102  1  0.33002293  0.00100184  0.67391573  1
  Sb  Sb103  1  -0.00146101  0.17028734  0.82607086  1
  Sb  Sb104  1  0.66549713  0.66145836  -0.00583859  1
  Sb  Sb105  1  0.66896193  0.50047332  0.50373157  1
  Sb  Sb106  1  0.66641909  0.00609127  0.33067782  1
  Sb  Sb107  1  0.33716614  0.33581590  0.33209368  1
  Te  Te108  1  0.16737128  0.16401757  0.17014753  1
  Te  Te109  1  0.16802720  0.16372264  0.49992461  1
  Te  Te110  1  0.16694539  0.16263126  0.83063259  1
  Te  Te111  1  0.16534917  0.50044079  0.16784869  1
  Te  Te112  1  0.16471255  0.49880329  0.49628309  1
  Te  Te113  1  0.16567143  0.49928178  0.83546637  1
  Te  Te114  1  0.16679214  0.83833146  0.17194524  1
  Te  Te115  1  0.16936495  0.83743467  0.49606401  1
  Te  Te116  1  0.17299166  0.83932878  0.83400636  1
  Te  Te117  1  0.50315964  0.16351998  0.17010455  1
  Te  Te118  1  0.50232056  0.16612047  0.49973832  1
  Te  Te119  1  0.50195794  0.16512990  0.83212045  1
  Te  Te120  1  0.49856486  0.49970611  0.16810791  1
  Te  Te121  1  0.49917109  0.50400545  0.49741547  1
  Te  Te122  1  0.50079514  0.50316080  0.83409061  1
  Te  Te123  1  0.50540071  0.83789066  0.16807032  1
  Te  Te124  1  0.50037286  0.82999500  0.50305840  1
  Te  Te125  1  0.49761356  0.83230054  0.83014084  1
  Te  Te126  1  0.82983417  0.16476092  0.16740699  1
  Te  Te127  1  0.83192479  0.16404368  0.49927571  1
  Te  Te128  1  0.82817989  0.15895770  0.83259257  1
  Te  Te129  1  0.83503731  0.50012831  0.16661690  1
  Te  Te130  1  0.83620739  0.50530104  0.49935363  1
  Te  Te131  1  0.83257937  0.50263221  0.83324146  1
  Te  Te132  1  0.83051072  0.83530878  0.16467396  1
  Te  Te133  1  0.82760059  0.82645006  0.49887540  1
  Te  Te134  1  0.83306772  0.83344816  0.83715800  1
  Te  Te135  1  0.16968217  -0.00044861  -0.00053605  1
  Te  Te136  1  0.16612654  0.00329325  0.33207680  1
  Te  Te137  1  0.16277585  0.00402985  0.66800319  1
  Te  Te138  1  0.16424160  0.33804760  0.00402978  1
  Te  Te139  1  0.16676851  0.33440169  0.32789273  1
  Te  Te140  1  0.16237689  0.32508451  0.66725218  1
  Te  Te141  1  0.17219051  0.66180728  0.00018822  1
  Te  Te142  1  0.16127529  0.66197844  0.33329486  1
  Te  Te143  1  0.15803265  0.66729162  0.66707580  1
  Te  Te144  1  0.49613595  -0.00126366  -0.00103809  1
  Te  Te145  1  0.49914297  0.00416346  0.33041180  1
  Te  Te146  1  0.50170519  0.00199197  0.67064565  1
  Te  Te147  1  0.50356603  0.33923838  -0.00440310  1
  Te  Te148  1  0.50504876  0.33363328  0.33316511  1
  Te  Te149  1  0.50459477  0.32999541  0.67169458  1
  Te  Te150  1  0.49758155  0.66198679  -0.00210054  1
  Te  Te151  1  0.50118981  0.66163369  0.33672008  1
  Te  Te152  1  0.50256064  0.66745563  0.66692744  1
  Te  Te153  1  0.83412784  -0.00349738  0.00013628  1
  Te  Te154  1  0.83487471  -0.00100506  0.32730062  1
  Te  Te155  1  0.83919634  -0.00256510  0.66968821  1
  Te  Te156  1  0.83229954  0.33329844  0.00468912  1
  Te  Te157  1  0.82769230  0.34019328  0.32844793  1
  Te  Te158  1  0.83258314  0.34013593  0.66700265  1
  Te  Te159  1  0.83337135  0.67059210  -0.00076535  1
  Te  Te160  1  0.83690220  0.66120002  0.33179069  1
  Te  Te161  1  0.83204182  0.66464195  0.66850215  1
  Te  Te162  1  -0.00015606  0.17694160  -0.00065892  1
  Te  Te163  1  0.00440430  0.16851655  0.34200502  1
  Te  Te164  1  -0.00071812  0.16832760  0.66179558  1
  Te  Te165  1  0.00273384  0.49608098  0.00164991  1
  Te  Te166  1  -0.00048656  0.49988976  0.33456497  1
  Te  Te167  1  -0.00299375  0.49840014  0.66585033  1
  Te  Te168  1  -0.00522317  0.83299113  -0.00035678  1
  Te  Te169  1  0.00664604  0.82617740  0.33420361  1
  Te  Te170  1  0.00141737  0.83381399  0.66617374  1
  Te  Te171  1  0.33394643  0.16129322  -0.00577452  1
  Te  Te172  1  0.33304513  0.16767061  0.33378396  1
  Te  Te173  1  0.33671191  0.16771456  0.67135728  1
  Te  Te174  1  0.33362258  0.50207233  0.00109776  1
  Te  Te175  1  0.33446859  0.50046164  0.33345012  1
  Te  Te176  1  0.32956999  0.50035333  0.65973471  1
  Te  Te177  1  0.33261696  0.83178950  -0.00273225  1
  Te  Te178  1  0.32822351  0.83186558  0.33684130  1
  Te  Te179  1  0.33873798  0.83338389  0.66578347  1
  Te  Te180  1  0.66573531  0.17349753  0.00208203  1
  Te  Te181  1  0.66548289  0.17177753  0.33437746  1
  Te  Te182  1  0.66498871  0.16909145  0.66604328  1
  Te  Te183  1  0.66212380  0.49492916  -0.00535440  1
  Te  Te184  1  0.66464224  0.49424287  0.33376906  1
  Te  Te185  1  0.67128876  0.49893941  0.67021727  1
  Te  Te186  1  0.67081868  0.83283444  0.00480686  1
  Te  Te187  1  0.66620820  0.83296546  0.33445066  1
  Te  Te188  1  0.66145809  0.83054104  0.66266132  1
  Te  Te189  1  0.00047839  0.00194483  0.16561235  1
  Te  Te190  1  0.00321071  0.00107970  0.50383148  1
  Te  Te191  1  -0.00171911  0.00063224  0.83007317  1
  Te  Te192  1  -0.00162862  0.33625134  0.16554673  1
  Te  Te193  1  -0.00167866  0.33465944  0.50588659  1
  Te  Te194  1  -0.00074310  0.33843492  0.83294787  1
  Te  Te195  1  -0.00641378  0.66134001  0.16745641  1
  Te  Te196  1  -0.00224237  0.66323080  0.50124191  1
  Te  Te197  1  -0.00306359  0.66188571  0.83024126  1
  Te  Te198  1  0.33365605  -0.00036014  0.16064264  1
  Te  Te199  1  0.32755654  -0.00450451  0.50008951  1
  Te  Te200  1  0.33516103  -0.00067957  0.83529054  1
  Te  Te201  1  0.32650326  0.33905492  0.16510630  1
  Te  Te202  1  0.33340620  0.34153773  0.50046240  1
  Te  Te203  1  0.34037547  0.32863461  0.83405034  1
  Te  Te204  1  0.33587859  0.66190230  0.16104979  1
  Te  Te205  1  0.33591366  0.66711553  0.50041363  1
  Te  Te206  1  0.33659506  0.67023717  0.83594577  1
  Te  Te207  1  0.66703061  0.00209468  0.16543022  1
  Te  Te208  1  0.66672022  0.00083661  0.49987384  1
  Te  Te209  1  0.66608346  0.00262739  0.83508245  1
  Te  Te210  1  0.66984395  0.33028958  0.16563873  1
  Te  Te211  1  0.66783172  0.32761361  0.50368233  1
  Te  Te212  1  0.66690807  0.33405628  0.83200195  1
  Te  Te213  1  0.67306888  0.66981646  0.16651372  1
  Te  Te214  1  0.66662059  0.66770855  0.50420882  1
  Te  Te215  1  0.66650303  0.66503730  0.82877761  1
