# generated using pymatgen
data_AgSbTe2
_symmetry_space_group_name_H-M   'P 1'
_cell_length_a   18.31483669
_cell_length_b   18.30701793
_cell_length_c   18.31612523
_cell_angle_alpha   90.00201102
_cell_angle_beta   90.00189328
_cell_angle_gamma   90.00120925
_symmetry_Int_Tables_number   1
_chemical_formula_structural   AgSbTe2
_chemical_formula_sum   'Ag54 Sb54 Te108'
_cell_volume   6141.21441998
_cell_formula_units_Z   54
loop_
 _symmetry_equiv_pos_site_id
 _symmetry_equiv_pos_as_xyz
  1  'x, y, z'
loop_
 _atom_site_type_symbol
 _atom_site_label
 _atom_site_symmetry_multiplicity
 _atom_site_fract_x
 _atom_site_fract_y
 _atom_site_fract_z
 _atom_site_occupancy
  Ag  Ag0  1  0.34317118  -0.00267249  0.33749886  1
  Ag  Ag1  1  0.33492611  0.16324398  0.83369459  1
  Ag  Ag2  1  0.17414345  0.16449336  -0.00654344  1
  Ag  Ag3  1  -0.00421444  0.49825375  0.16840268  1
  Ag  Ag4  1  0.49326753  0.84207440  0.67025617  1
  Ag  Ag5  1  0.83111123  0.83937941  0.32916297  1
  Ag  Ag6  1  0.67079982  0.49263406  0.50792806  1
  Ag  Ag7  1  0.66600863  0.49156660  0.16643639  1
  Ag  Ag8  1  0.33433785  0.67643683  0.00042637  1
  Ag  Ag9  1  0.49880673  0.66519630  0.16510314  1
  Ag  Ag10  1  0.83471433  0.66466647  0.83351515  1
  Ag  Ag11  1  0.83029128  0.00023040  0.17119434  1
  Ag  Ag12  1  0.49526952  0.16380053  -0.00575170  1
  Ag  Ag13  1  0.66279218  0.33181280  0.33255866  1
  Ag  Ag14  1  -0.01200346  -0.00488151  0.33269968  1
  Ag  Ag15  1  0.83039125  0.49686127  0.66725687  1
  Ag  Ag16  1  0.66603810  -0.00143952  0.00558843  1
  Ag  Ag17  1  0.49609440  0.16079899  0.67445478  1
  Ag  Ag18  1  0.82218933  0.33359587  0.16572707  1
  Ag  Ag19  1  0.66488683  0.17294684  0.16442851  1
  Ag  Ag20  1  0.17314410  0.83791681  -0.00753632  1
  Ag  Ag21  1  0.49171131  0.83985630  -0.00149187  1
  Ag  Ag22  1  0.33903454  0.49779857  0.16415836  1
  Ag  Ag23  1  0.49894309  0.83948626  0.33167051  1
  Ag  Ag24  1  0.49922645  0.32696762  0.83568892  1
  Ag  Ag25  1  0.33806295  0.83335232  0.15799278  1
  Ag  Ag26  1  0.50118532  0.00015949  0.50445622  1
  Ag  Ag27  1  0.00547517  -0.00175511  0.66930970  1
  Ag  Ag28  1  0.00913043  0.83542376  0.83617638  1
  Ag  Ag29  1  0.66829095  0.49664134  0.82682058  1
  Ag  Ag30  1  0.00259057  0.32904780  -0.00202046  1
  Ag  Ag31  1  0.49960788  0.00333646  0.83020233  1
  Ag  Ag32  1  0.83473919  0.83802547  0.00073278  1
  Ag  Ag33  1  0.33520227  0.33216548  -0.00003325  1
  Ag  Ag34  1  0.33666918  -0.00356325  0.66719132  1
  Ag  Ag35  1  -0.00448342  -0.00129636  -0.00142560  1
  Ag  Ag36  1  0.50652320  0.32856271  0.50041483  1
  Ag  Ag37  1  0.33736730  0.83718979  0.50443918  1
  Ag  Ag38  1  0.34416110  0.32842644  0.32516030  1
  Ag  Ag39  1  -0.00906238  0.49765840  0.49985342  1
  Ag  Ag40  1  0.50519943  0.33619091  0.16619330  1
  Ag  Ag41  1  0.66721263  0.00144477  0.32928450  1
  Ag  Ag42  1  0.82471081  0.33540311  0.50056310  1
  Ag  Ag43  1  0.17472680  0.83664140  0.67520029  1
  Ag  Ag44  1  0.82853040  0.00072655  0.49327404  1
  Ag  Ag45  1  0.66512258  0.33713794  0.66312018  1
  Ag  Ag46  1  0.66579343  0.65652189  0.66953322  1
  Ag  Ag47  1  0.33058296  0.83779497  0.83598646  1
  Ag  Ag48  1  0.16357697  0.49905788  0.66928855  1
  Ag  Ag49  1  0.82703957  0.33867232  0.83441008  1
  Ag  Ag50  1  0.17534726  0.16320887  0.67612365  1
  Ag  Ag51  1  0.16938093  0.33341144  0.83443154  1
  Ag  Ag52  1  0.16524959  0.67465637  0.83338667  1
  Ag  Ag53  1  -0.00231260  0.67210657  0.33138197  1
  Sb  Sb54  1  -0.00268952  0.50129102  0.83309529  1
  Sb  Sb55  1  0.83237513  0.66576004  0.50405234  1
  Sb  Sb56  1  0.50472707  0.00038170  0.16569583  1
  Sb  Sb57  1  0.16989500  0.16604897  0.33123788  1
  Sb  Sb58  1  0.66189571  0.00320368  0.66490907  1
  Sb  Sb59  1  0.66200909  0.67125618  -0.00249998  1
  Sb  Sb60  1  -0.00497604  0.16860792  0.16388283  1
  Sb  Sb61  1  0.33725350  0.16145743  0.50671069  1
  Sb  Sb62  1  0.16885592  0.33442904  0.50772000  1
  Sb  Sb63  1  0.50320854  0.49844325  0.66708504  1
  Sb  Sb64  1  0.00286321  0.66881362  0.00127702  1
  Sb  Sb65  1  0.66173693  0.83398445  0.16658204  1
  Sb  Sb66  1  0.17097597  0.66639880  0.16044389  1
  Sb  Sb67  1  0.83220964  0.50134473  0.33621062  1
  Sb  Sb68  1  0.00243107  0.83359503  0.50234476  1
  Sb  Sb69  1  0.83067240  0.16407511  0.00021026  1
  Sb  Sb70  1  0.00738927  0.16153063  0.83472493  1
  Sb  Sb71  1  0.16560838  0.49929873  0.33610462  1
  Sb  Sb72  1  0.66349995  0.83146900  0.83324282  1
  Sb  Sb73  1  0.49993403  0.66888460  0.83695223  1
  Sb  Sb74  1  0.16963419  0.83478971  0.33206338  1
  Sb  Sb75  1  0.33604899  0.50016826  0.49753396  1
  Sb  Sb76  1  0.17404670  -0.00192117  0.83298435  1
  Sb  Sb77  1  0.83237828  0.83162291  0.66852470  1
  Sb  Sb78  1  0.50173840  0.49835532  0.33093600  1
  Sb  Sb79  1  0.33972714  0.32881457  0.67061192  1
  Sb  Sb80  1  0.83139674  0.16132476  0.33196022  1
  Sb  Sb81  1  0.16919762  -0.00071786  0.50361089  1
  Sb  Sb82  1  0.16403776  -0.00071744  0.16350920  1
  Sb  Sb83  1  -0.00052923  0.16838875  0.50137871  1
  Sb  Sb84  1  0.65858202  0.17121885  0.83770870  1
  Sb  Sb85  1  0.82919727  0.17067036  0.66817177  1
  Sb  Sb86  1  0.50111686  0.16450916  0.33158602  1
  Sb  Sb87  1  0.34015261  0.16642496  0.15982398  1
  Sb  Sb88  1  0.66842494  0.66680307  0.33506490  1
  Sb  Sb89  1  0.16982207  0.33437332  0.15927035  1
  Sb  Sb90  1  0.33237586  0.67051972  0.32542490  1
  Sb  Sb91  1  0.49945597  0.49715955  0.00160897  1
  Sb  Sb92  1  0.00175651  0.83209272  0.16230608  1
  Sb  Sb93  1  -0.00472927  0.33200703  0.32910460  1
  Sb  Sb94  1  0.66361687  0.32889230  0.00226124  1
  Sb  Sb95  1  0.82912735  -0.00011983  0.83405860  1
  Sb  Sb96  1  -0.00334076  0.33094767  0.67178834  1
  Sb  Sb97  1  -0.00204768  0.66865696  0.66614891  1
  Sb  Sb98  1  0.16764496  0.49908789  -0.00535054  1
  Sb  Sb99  1  0.66249625  0.83451222  0.50037564  1
  Sb  Sb100  1  0.33585277  -0.00088739  -0.00215640  1
  Sb  Sb101  1  0.33623421  0.49910560  0.83614159  1
  Sb  Sb102  1  0.66438770  0.17198497  0.49644428  1
  Sb  Sb103  1  0.16590296  0.66738338  0.50679442  1
  Sb  Sb104  1  0.33652130  0.67452090  0.67363908  1
  Sb  Sb105  1  0.82941842  0.66634184  0.16289859  1
  Sb  Sb106  1  0.83232182  0.50016939  -0.00356277  1
  Sb  Sb107  1  0.50102483  0.66962031  0.49780373  1
  Te  Te108  1  0.16724022  0.16734131  0.15711161  1
  Te  Te109  1  0.16798633  0.16802496  0.50971328  1
  Te  Te110  1  0.17171954  0.16948124  0.83434893  1
  Te  Te111  1  0.16649144  0.50055284  0.16696303  1
  Te  Te112  1  0.16335680  0.50037562  0.50811920  1
  Te  Te113  1  0.16628607  0.49678756  0.82773577  1
  Te  Te114  1  0.17419359  0.83168776  0.16056215  1
  Te  Te115  1  0.17318323  0.83278273  0.50629505  1
  Te  Te116  1  0.16784232  0.83476453  0.83397556  1
  Te  Te117  1  0.50448433  0.17224519  0.16147891  1
  Te  Te118  1  0.49966899  0.16667096  0.50585915  1
  Te  Te119  1  0.49715405  0.16693384  0.83434157  1
  Te  Te120  1  0.49855084  0.49732768  0.16700573  1
  Te  Te121  1  0.50505866  0.49539533  0.49893542  1
  Te  Te122  1  0.50570483  0.49466946  0.83418825  1
  Te  Te123  1  0.49769638  0.83370195  0.16483174  1
  Te  Te124  1  0.49700435  0.83641210  0.49936638  1
  Te  Te125  1  0.49749386  0.83415786  0.83494563  1
  Te  Te126  1  0.82729283  0.16824092  0.16566692  1
  Te  Te127  1  0.83285704  0.16740481  0.50033235  1
  Te  Te128  1  0.83502373  0.17625878  0.83389692  1
  Te  Te129  1  0.83251731  0.49781213  0.16707823  1
  Te  Te130  1  0.83217576  0.49861841  0.50277562  1
  Te  Te131  1  0.83101698  0.49900986  0.83032045  1
  Te  Te132  1  0.83377002  0.83515755  0.16567276  1
  Te  Te133  1  0.83391266  0.83799228  0.49680842  1
  Te  Te134  1  0.83317236  0.83118869  0.83610350  1
  Te  Te135  1  0.16038962  -0.00055718  -0.00059283  1
  Te  Te136  1  0.16756665  0.00090801  0.33362313  1
  Te  Te137  1  0.16720297  -0.00097680  0.66713834  1
  Te  Te138  1  0.16784316  0.33184875  -0.00506934  1
  Te  Te139  1  0.17032249  0.33183011  0.33501810  1
  Te  Te140  1  0.16721747  0.33195323  0.67281936  1
  Te  Te141  1  0.17052102  0.67036323  -0.00666788  1
  Te  Te142  1  0.15954601  0.66694641  0.33350959  1
  Te  Te143  1  0.16648750  0.66947211  0.67389816  1
  Te  Te144  1  0.50216358  -0.00064162  -0.00012311  1
  Te  Te145  1  0.50200446  -0.00085193  0.33398192  1
  Te  Te146  1  0.50011760  -0.00008166  0.66547796  1
  Te  Te147  1  0.49756106  0.33093007  -0.00060276  1
  Te  Te148  1  0.50142809  0.33157873  0.33216543  1
  Te  Te149  1  0.50344076  0.33259828  0.66753680  1
  Te  Te150  1  0.49547692  0.67272297  0.00412476  1
  Te  Te151  1  0.49966480  0.67601095  0.32822296  1
  Te  Te152  1  0.50538734  0.67116573  0.66687207  1
  Te  Te153  1  0.83384994  -0.00187908  -0.00025804  1
  Te  Te154  1  0.82962059  -0.00161361  0.33332089  1
  Te  Te155  1  0.83351178  0.00149731  0.66332746  1
  Te  Te156  1  0.83581316  0.33233656  0.00081118  1
  Te  Te157  1  0.82938434  0.33260641  0.33231381  1
  Te  Te158  1  0.82945781  0.33613080  0.66626257  1
  Te  Te159  1  0.83359280  0.67327531  -0.00570310  1
  Te  Te160  1  0.83663314  0.67505230  0.33231788  1
  Te  Te161  1  0.82954029  0.66279589  0.67168624  1
  Te  Te162  1  0.00445474  0.16598906  0.00001441  1
  Te  Te163  1  0.00329142  0.15672470  0.33268227  1
  Te  Te164  1  0.00340452  0.15924050  0.66746216  1
  Te  Te165  1  0.00001688  0.49568302  0.00509186  1
  Te  Te166  1  -0.00050831  0.50016671  0.33294148  1
  Te  Te167  1  -0.00183100  0.49977034  0.66409677  1
  Te  Te168  1  -0.00066166  0.83516210  -0.00258015  1
  Te  Te169  1  0.00041417  0.83576147  0.33330065  1
  Te  Te170  1  0.00090656  0.83718665  0.67026899  1
  Te  Te171  1  0.33414622  0.16664031  -0.00548223  1
  Te  Te172  1  0.33301200  0.16604718  0.33281025  1
  Te  Te173  1  0.33504508  0.16219103  0.67243800  1
  Te  Te174  1  0.33280864  0.49534089  0.00486104  1
  Te  Te175  1  0.33299552  0.49680358  0.32803474  1
  Te  Te176  1  0.32780810  0.50222544  0.66499086  1
  Te  Te177  1  0.33294899  0.83667586  -0.00131904  1
  Te  Te178  1  0.33502255  0.83608401  0.33213578  1
  Te  Te179  1  0.33467656  0.83553878  0.67044028  1
  Te  Te180  1  0.66165693  0.15887708  0.00394317  1
  Te  Te181  1  0.66547308  0.16676379  0.32610827  1
  Te  Te182  1  0.66031881  0.17404119  0.66836179  1
  Te  Te183  1  0.66688743  0.50229058  0.00364567  1
  Te  Te184  1  0.66714041  0.49706994  0.32950240  1
  Te  Te185  1  0.66669186  0.49711027  0.66732492  1
  Te  Te186  1  0.66966321  0.83876278  0.00018610  1
  Te  Te187  1  0.66604129  0.83533228  0.33374062  1
  Te  Te188  1  0.66248227  0.83025661  0.66560261  1
  Te  Te189  1  -0.00621323  0.00022792  0.16577858  1
  Te  Te190  1  -0.00395581  0.00007799  0.49968427  1
  Te  Te191  1  -0.00436644  -0.00470802  0.83445911  1
  Te  Te192  1  -0.00148387  0.33641612  0.16307954  1
  Te  Te193  1  -0.00388813  0.33744188  0.49948883  1
  Te  Te194  1  0.00089583  0.33297087  0.83781455  1
  Te  Te195  1  -0.00054919  0.66104090  0.17016125  1
  Te  Te196  1  -0.00054305  0.66133766  0.49446791  1
  Te  Te197  1  -0.00016505  0.67116634  0.83362224  1
  Te  Te198  1  0.33315810  -0.00257109  0.17313300  1
  Te  Te199  1  0.33693766  -0.00331523  0.49988591  1
  Te  Te200  1  0.33953904  -0.00112083  0.83074792  1
  Te  Te201  1  0.33610125  0.33327007  0.16495537  1
  Te  Te202  1  0.33880848  0.33405729  0.49603700  1
  Te  Te203  1  0.33577707  0.33314973  0.83620608  1
  Te  Te204  1  0.33738938  0.66558378  0.16174091  1
  Te  Te205  1  0.33362798  0.67195847  0.49788496  1
  Te  Te206  1  0.33098041  0.66814795  0.83999371  1
  Te  Te207  1  0.67079143  -0.00127890  0.16852248  1
  Te  Te208  1  0.66573662  0.00170193  0.49629635  1
  Te  Te209  1  0.66008006  0.00022809  0.83586413  1
  Te  Te210  1  0.66600054  0.33304374  0.16555815  1
  Te  Te211  1  0.66642057  0.33382097  0.49734021  1
  Te  Te212  1  0.66639341  0.33632054  0.83610381  1
  Te  Te213  1  0.66065357  0.65928657  0.16723774  1
  Te  Te214  1  0.66665962  0.65686759  0.50436090  1
  Te  Te215  1  0.66873808  0.66097361  0.83070159  1
