# generated using pymatgen
data_AgSbTe2
_symmetry_space_group_name_H-M   'P 1'
_cell_length_a   18.33263061
_cell_length_b   18.34294176
_cell_length_c   18.33899081
_cell_angle_alpha   89.99914453
_cell_angle_beta   90.00121700
_cell_angle_gamma   89.99514081
_symmetry_Int_Tables_number   1
_chemical_formula_structural   AgSbTe2
_chemical_formula_sum   'Ag54 Sb54 Te108'
_cell_volume   6166.93265907
_cell_formula_units_Z   54
loop_
 _symmetry_equiv_pos_site_id
 _symmetry_equiv_pos_as_xyz
  1  'x, y, z'
loop_
 _atom_site_type_symbol
 _atom_site_label
 _atom_site_symmetry_multiplicity
 _atom_site_fract_x
 _atom_site_fract_y
 _atom_site_fract_z
 _atom_site_occupancy
  Ag  Ag0  1  0.34560964  0.16494016  0.16605457  1
  Ag  Ag1  1  -0.01216915  0.82991731  0.16482712  1
  Ag  Ag2  1  0.83660881  0.83351464  0.32357750  1
  Ag  Ag3  1  0.50387189  0.16061307  0.32434297  1
  Ag  Ag4  1  0.50045281  0.00019178  0.84072172  1
  Ag  Ag5  1  0.83198095  0.66499044  0.16506526  1
  Ag  Ag6  1  0.32938336  0.00444225  0.66901991  1
  Ag  Ag7  1  0.83251125  0.50507222  0.01010440  1
  Ag  Ag8  1  0.82890884  0.16942880  0.32855748  1
  Ag  Ag9  1  0.33881331  0.83696332  0.16915385  1
  Ag  Ag10  1  0.16362305  0.82870248  0.32729019  1
  Ag  Ag11  1  0.00665673  -0.00556773  0.66661993  1
  Ag  Ag12  1  0.16355063  0.33586720  0.82550420  1
  Ag  Ag13  1  0.16793128  0.17036635  0.66894852  1
  Ag  Ag14  1  0.00124821  0.83067325  0.50048999  1
  Ag  Ag15  1  -0.00226659  0.17446044  0.50343008  1
  Ag  Ag16  1  0.33288362  0.33435938  0.32674651  1
  Ag  Ag17  1  0.33304575  0.33053771  0.00810176  1
  Ag  Ag18  1  0.66720083  -0.00015073  0.32473273  1
  Ag  Ag19  1  0.49914080  0.66817339  0.48645251  1
  Ag  Ag20  1  0.84002945  0.33660753  0.83605429  1
  Ag  Ag21  1  0.65994384  0.15579843  0.16787613  1
  Ag  Ag22  1  0.16048664  0.66878340  0.83021167  1
  Ag  Ag23  1  0.16314868  0.33546596  0.50591585  1
  Ag  Ag24  1  0.00286277  0.67351048  0.67211101  1
  Ag  Ag25  1  0.00181892  0.49985908  0.49573294  1
  Ag  Ag26  1  0.50256723  0.32255708  0.16561348  1
  Ag  Ag27  1  0.50450286  0.49615690  0.00723121  1
  Ag  Ag28  1  0.33497404  0.66758657  0.33014690  1
  Ag  Ag29  1  0.82036078  -0.01992616  0.16689367  1
  Ag  Ag30  1  0.66533016  -0.00001372  0.01325702  1
  Ag  Ag31  1  0.32787061  0.32483129  0.66625510  1
  Ag  Ag32  1  0.16340289  0.83433560  0.66732998  1
  Ag  Ag33  1  0.49858597  0.83601841  0.32780618  1
  Ag  Ag34  1  0.16383365  0.49014436  0.66257763  1
  Ag  Ag35  1  0.84187509  0.33110080  0.49236164  1
  Ag  Ag36  1  -0.00916402  0.50905727  0.17080195  1
  Ag  Ag37  1  -0.00293268  0.67054290  -0.00224377  1
  Ag  Ag38  1  0.82796308  0.34837717  0.16772757  1
  Ag  Ag39  1  0.49285680  0.15917158  0.66478611  1
  Ag  Ag40  1  0.67610360  0.50041362  0.16629168  1
  Ag  Ag41  1  0.00166136  0.82853435  0.83372187  1
  Ag  Ag42  1  0.49426385  0.16764945  0.01398203  1
  Ag  Ag43  1  0.16204317  0.50250107  0.33537462  1
  Ag  Ag44  1  0.84281292  0.16864838  0.65904798  1
  Ag  Ag45  1  0.84181284  0.82394864  0.01149430  1
  Ag  Ag46  1  0.84059163  0.49837995  0.32111638  1
  Ag  Ag47  1  0.17043920  0.16682815  -0.00111152  1
  Ag  Ag48  1  0.49315595  0.83999858  0.66013795  1
  Ag  Ag49  1  0.50460568  0.67258548  0.16792247  1
  Ag  Ag50  1  0.67438017  0.84476631  0.16800295  1
  Ag  Ag51  1  0.51035501  0.00789786  0.16479289  1
  Ag  Ag52  1  0.16007947  0.83370587  0.00447488  1
  Ag  Ag53  1  0.84224986  0.66599140  0.84561382  1
  Sb  Sb54  1  0.16311803  0.50055331  0.00139042  1
  Sb  Sb55  1  0.84100750  0.49574608  0.66595197  1
  Sb  Sb56  1  0.33775021  -0.00036211  0.33253775  1
  Sb  Sb57  1  0.83977168  0.83824539  0.66574034  1
  Sb  Sb58  1  0.49278124  0.49970615  0.66941878  1
  Sb  Sb59  1  0.66602030  0.16596628  0.83971211  1
  Sb  Sb60  1  0.67158884  0.66954864  0.66717215  1
  Sb  Sb61  1  0.32928558  0.16806909  0.49903810  1
  Sb  Sb62  1  0.33288611  0.16644377  0.83633758  1
  Sb  Sb63  1  0.00067032  0.33567718  0.33444190  1
  Sb  Sb64  1  0.00542797  0.33208549  0.66533485  1
  Sb  Sb65  1  0.32880795  0.83260589  0.49517615  1
  Sb  Sb66  1  0.66353232  0.67191989  0.32776914  1
  Sb  Sb67  1  -0.00487381  -0.00425879  0.33506354  1
  Sb  Sb68  1  0.49669608  0.32730310  0.83943411  1
  Sb  Sb69  1  0.49724226  0.33548581  0.49413846  1
  Sb  Sb70  1  -0.00391554  0.16502347  0.17057854  1
  Sb  Sb71  1  0.67060025  0.16742920  0.49417432  1
  Sb  Sb72  1  0.83290295  0.16859609  0.00636984  1
  Sb  Sb73  1  0.16402274  0.00223370  0.50229525  1
  Sb  Sb74  1  0.66343750  0.32954970  0.00492465  1
  Sb  Sb75  1  0.16706303  -0.00333191  0.16566921  1
  Sb  Sb76  1  0.33127040  0.49841980  0.83441216  1
  Sb  Sb77  1  0.49970167  -0.00273712  0.49618508  1
  Sb  Sb78  1  0.67014755  0.49985571  0.84195142  1
  Sb  Sb79  1  0.83106122  -0.00057507  0.83775452  1
  Sb  Sb80  1  0.00274535  0.66680549  0.33079364  1
  Sb  Sb81  1  0.32787843  0.83390947  0.83686500  1
  Sb  Sb82  1  0.16894570  -0.00113263  0.83134868  1
  Sb  Sb83  1  0.32720734  0.49966260  0.49775174  1
  Sb  Sb84  1  0.83675414  0.00476363  0.49317446  1
  Sb  Sb85  1  0.66730313  0.32860398  0.32814261  1
  Sb  Sb86  1  0.66961691  0.83341485  0.49248580  1
  Sb  Sb87  1  0.33305686  0.49804647  0.16826874  1
  Sb  Sb88  1  0.00045583  0.16256964  0.82845352  1
  Sb  Sb89  1  0.50041904  0.83607861  0.00914100  1
  Sb  Sb90  1  -0.00375060  -0.00705007  -0.00232944  1
  Sb  Sb91  1  0.67468849  0.67212727  0.00546728  1
  Sb  Sb92  1  0.32709233  0.66890154  0.66217293  1
  Sb  Sb93  1  0.33770674  0.00390958  -0.00071760  1
  Sb  Sb94  1  0.67352937  0.49954370  0.49004555  1
  Sb  Sb95  1  0.16773597  0.33349380  0.16760489  1
  Sb  Sb96  1  0.16535649  0.66379700  0.50217000  1
  Sb  Sb97  1  0.16738991  0.16777839  0.33407213  1
  Sb  Sb98  1  0.67041370  0.83512787  0.83994197  1
  Sb  Sb99  1  0.50117444  0.50027497  0.32558657  1
  Sb  Sb100  1  0.83482918  0.66335049  0.49548651  1
  Sb  Sb101  1  0.66568416  0.00099730  0.66589162  1
  Sb  Sb102  1  0.66466640  0.33073430  0.66730359  1
  Sb  Sb103  1  0.32923217  0.66455199  0.00646544  1
  Sb  Sb104  1  0.00066402  0.50751004  0.83315781  1
  Sb  Sb105  1  0.49920933  0.67222046  0.83930012  1
  Sb  Sb106  1  0.16357838  0.66925719  0.16526927  1
  Sb  Sb107  1  0.00194265  0.33782097  0.00053705  1
  Te  Te108  1  0.16606249  0.16517140  0.16362137  1
  Te  Te109  1  0.16061918  0.17159112  0.50262576  1
  Te  Te110  1  0.16625290  0.16989004  0.83262470  1
  Te  Te111  1  0.16116770  0.50102762  0.17211939  1
  Te  Te112  1  0.16181812  0.49804091  0.49822734  1
  Te  Te113  1  0.16525323  0.49810584  0.83123940  1
  Te  Te114  1  0.17235667  0.83257328  0.16733425  1
  Te  Te115  1  0.16222407  0.83205667  0.50164672  1
  Te  Te116  1  0.16314346  0.83260396  0.83131214  1
  Te  Te117  1  0.50114160  0.16717429  0.16904127  1
  Te  Te118  1  0.50118513  0.16891386  0.50422747  1
  Te  Te119  1  0.50041215  0.16206263  0.82394246  1
  Te  Te120  1  0.49859259  0.50302262  0.16435740  1
  Te  Te121  1  0.50287846  0.50507256  0.50024918  1
  Te  Te122  1  0.50179633  0.50069638  0.84112689  1
  Te  Te123  1  0.49825456  0.83158716  0.16717776  1
  Te  Te124  1  0.50054307  0.82989426  0.49737711  1
  Te  Te125  1  0.50056897  0.83631875  0.83207188  1
  Te  Te126  1  0.83258299  0.17273298  0.16960462  1
  Te  Te127  1  0.83677745  0.17049382  0.49904648  1
  Te  Te128  1  0.83312837  0.17002759  0.83358873  1
  Te  Te129  1  0.83527196  0.50421143  0.16599435  1
  Te  Te130  1  0.84020555  0.49497765  0.49785795  1
  Te  Te131  1  0.83447241  0.49977972  0.83415196  1
  Te  Te132  1  0.83213849  0.82584490  0.16760177  1
  Te  Te133  1  0.83764949  0.83303814  0.49578733  1
  Te  Te134  1  0.83758873  0.83072770  0.83398897  1
  Te  Te135  1  0.16798449  0.00025882  -0.00278775  1
  Te  Te136  1  0.16798377  -0.00808518  0.33447603  1
  Te  Te137  1  0.16692524  -0.00010703  0.66762341  1
  Te  Te138  1  0.17092588  0.33201285  -0.00119099  1
  Te  Te139  1  0.17170424  0.33451571  0.33549090  1
  Te  Te140  1  0.16806561  0.33195722  0.66660039  1
  Te  Te141  1  0.16178724  0.66902673  -0.00503331  1
  Te  Te142  1  0.17212514  0.66811169  0.33494098  1
  Te  Te143  1  0.16382695  0.67296648  0.66872247  1
  Te  Te144  1  0.50205100  0.00319298  0.00257112  1
  Te  Te145  1  0.50130438  -0.00012888  0.32983508  1
  Te  Te146  1  0.50085660  -0.00120555  0.66279903  1
  Te  Te147  1  0.49598419  0.32944993  0.00210287  1
  Te  Te148  1  0.49569283  0.33140436  0.32988204  1
  Te  Te149  1  0.49350382  0.33245611  0.66734957  1
  Te  Te150  1  0.49860544  0.66283956  0.00376994  1
  Te  Te151  1  0.49767238  0.66702755  0.32849115  1
  Te  Te152  1  0.49928637  0.66927076  0.67189214  1
  Te  Te153  1  0.82891186  -0.00007836  0.00473875  1
  Te  Te154  1  0.83068189  -0.00209512  0.32776411  1
  Te  Te155  1  0.83399113  0.00717296  0.66773941  1
  Te  Te156  1  0.83365243  0.33678145  0.00161831  1
  Te  Te157  1  0.83348746  0.33278167  0.33102061  1
  Te  Te158  1  0.83249449  0.32850315  0.66928701  1
  Te  Te159  1  0.83570122  0.66629590  0.00168523  1
  Te  Te160  1  0.83259839  0.66793223  0.33026731  1
  Te  Te161  1  0.83930043  0.66622257  0.66530425  1
  Te  Te162  1  0.00689859  0.16540966  -0.00020063  1
  Te  Te163  1  -0.00294982  0.16389467  0.34055297  1
  Te  Te164  1  0.00157797  0.16435276  0.66372492  1
  Te  Te165  1  -0.00377887  0.50522018  0.00454032  1
  Te  Te166  1  0.00052986  0.50103175  0.33323377  1
  Te  Te167  1  0.00575203  0.50513879  0.66336136  1
  Te  Te168  1  0.00057916  0.83221987  0.00229407  1
  Te  Te169  1  0.00085838  0.83215784  0.33188996  1
  Te  Te170  1  0.00045250  0.83401463  0.66588908  1
  Te  Te171  1  0.33335260  0.16889879  0.00308409  1
  Te  Te172  1  0.33566793  0.16864361  0.32988281  1
  Te  Te173  1  0.32983670  0.16585616  0.66551036  1
  Te  Te174  1  0.33526138  0.49365633  0.00114485  1
  Te  Te175  1  0.33001259  0.49846207  0.33343698  1
  Te  Te176  1  0.32483671  0.49700588  0.66610803  1
  Te  Te177  1  0.32723250  0.83348792  0.00505716  1
  Te  Te178  1  0.33599888  0.83290191  0.33051918  1
  Te  Te179  1  0.33264326  0.83526218  0.66634082  1
  Te  Te180  1  0.66272395  0.16198818  0.00632629  1
  Te  Te181  1  0.66619011  0.16355180  0.32852178  1
  Te  Te182  1  0.66429881  0.16630295  0.66671719  1
  Te  Te183  1  0.66720126  0.49943111  0.00609788  1
  Te  Te184  1  0.67419199  0.49973011  0.32682260  1
  Te  Te185  1  0.66423725  0.50037915  0.66616583  1
  Te  Te186  1  0.66937776  0.83831396  0.00618099  1
  Te  Te187  1  0.66523298  0.83705776  0.32847592  1
  Te  Te188  1  0.65959126  0.83417690  0.66594012  1
  Te  Te189  1  -0.00367118  -0.00598790  0.16631484  1
  Te  Te190  1  -0.00054435  -0.00610326  0.50662172  1
  Te  Te191  1  -0.00131329  -0.00827611  0.82746827  1
  Te  Te192  1  -0.00543901  0.33448844  0.16672314  1
  Te  Te193  1  0.00122309  0.33462083  0.49986265  1
  Te  Te194  1  0.00089965  0.33298815  0.83318047  1
  Te  Te195  1  -0.00184862  0.66925544  0.16489428  1
  Te  Te196  1  -0.00068955  0.66680038  0.50375417  1
  Te  Te197  1  -0.00010079  0.66888966  0.83420609  1
  Te  Te198  1  0.33571402  0.00232635  0.16663964  1
  Te  Te199  1  0.33236930  -0.00001407  0.51034920  1
  Te  Te200  1  0.34183125  -0.00085377  0.82692040  1
  Te  Te201  1  0.33454108  0.33071917  0.16715170  1
  Te  Te202  1  0.32932860  0.33359891  0.50166556  1
  Te  Te203  1  0.32887483  0.33299368  0.82968232  1
  Te  Te204  1  0.33501981  0.66943995  0.17063174  1
  Te  Te205  1  0.34025710  0.66615214  0.49359445  1
  Te  Te206  1  0.32601133  0.66620229  0.83425307  1
  Te  Te207  1  0.66599234  0.00037977  0.16906557  1
  Te  Te208  1  0.66823598  0.00021604  0.49149552  1
  Te  Te209  1  0.66001046  -0.00039817  0.83665275  1
  Te  Te210  1  0.66498254  0.33879133  0.16654840  1
  Te  Te211  1  0.67557459  0.33476463  0.49939925  1
  Te  Te212  1  0.67661423  0.33361700  0.83468948  1
  Te  Te213  1  0.66592243  0.66217286  0.16594609  1
  Te  Te214  1  0.65829641  0.66575516  0.49986032  1
  Te  Te215  1  0.67552141  0.66721893  0.83403218  1
