# generated using pymatgen
data_AgSbTe2
_symmetry_space_group_name_H-M   'P 1'
_cell_length_a   18.34887765
_cell_length_b   18.35412134
_cell_length_c   18.34893999
_cell_angle_alpha   90.00207886
_cell_angle_beta   90.00329236
_cell_angle_gamma   89.99390799
_symmetry_Int_Tables_number   1
_chemical_formula_structural   AgSbTe2
_chemical_formula_sum   'Ag54 Sb54 Te108'
_cell_volume   6179.51058252
_cell_formula_units_Z   54
loop_
 _symmetry_equiv_pos_site_id
 _symmetry_equiv_pos_as_xyz
  1  'x, y, z'
loop_
 _atom_site_type_symbol
 _atom_site_label
 _atom_site_symmetry_multiplicity
 _atom_site_fract_x
 _atom_site_fract_y
 _atom_site_fract_z
 _atom_site_occupancy
  Ag  Ag0  1  0.32411275  0.50409071  0.16653042  1
  Ag  Ag1  1  0.84576076  0.00436869  0.49951563  1
  Ag  Ag2  1  0.32406421  0.67166716  0.01091530  1
  Ag  Ag3  1  0.16171134  -0.00049172  0.50326158  1
  Ag  Ag4  1  0.16849081  0.00273167  0.15416862  1
  Ag  Ag5  1  0.00529847  0.84229386  0.83540680  1
  Ag  Ag6  1  -0.00079079  -0.00175663  0.33387282  1
  Ag  Ag7  1  0.00220025  0.49954300  0.49476642  1
  Ag  Ag8  1  0.32401652  0.83552726  0.84477764  1
  Ag  Ag9  1  0.32714081  0.50659526  0.49790455  1
  Ag  Ag10  1  -0.00206196  0.16179671  0.50007461  1
  Ag  Ag11  1  0.33156842  0.33392011  0.32942745  1
  Ag  Ag12  1  0.49407668  0.66955684  0.49692888  1
  Ag  Ag13  1  0.16388868  0.00367641  0.84276185  1
  Ag  Ag14  1  0.31950137  -0.00711622  0.00705302  1
  Ag  Ag15  1  0.66778807  0.66753063  0.00509919  1
  Ag  Ag16  1  0.16500892  0.50108803  0.00405071  1
  Ag  Ag17  1  0.49421399  -0.00519147  0.49873089  1
  Ag  Ag18  1  0.66423803  0.00504933  0.66747230  1
  Ag  Ag19  1  0.00331814  0.17355896  0.16028437  1
  Ag  Ag20  1  0.16361120  0.66030592  0.16058612  1
  Ag  Ag21  1  0.67586949  0.50437509  0.15983945  1
  Ag  Ag22  1  0.48631709  -0.00399657  0.16679105  1
  Ag  Ag23  1  0.84479491  0.33700403  0.16869262  1
  Ag  Ag24  1  0.00828883  0.66541696  0.00811148  1
  Ag  Ag25  1  0.16215501  0.16401944  0.67399521  1
  Ag  Ag26  1  0.16066700  0.32499933  0.84368362  1
  Ag  Ag27  1  0.67970098  0.32986169  0.66744617  1
  Ag  Ag28  1  0.16199336  0.15688374  0.00164592  1
  Ag  Ag29  1  0.33328625  0.67486406  0.66343279  1
  Ag  Ag30  1  0.84017709  0.16383953  0.33993172  1
  Ag  Ag31  1  0.00314360  0.84281822  0.50051042  1
  Ag  Ag32  1  0.48923079  0.66664606  0.16762452  1
  Ag  Ag33  1  0.00384405  0.16806292  0.83256436  1
  Ag  Ag34  1  0.84512156  0.33199056  0.82123742  1
  Ag  Ag35  1  0.66728343  0.49883747  0.83758071  1
  Ag  Ag36  1  -0.00237729  0.32849000  0.67448408  1
  Ag  Ag37  1  0.33100541  -0.00493985  0.66528675  1
  Ag  Ag38  1  0.32570247  0.83340648  0.49917410  1
  Ag  Ag39  1  0.84272286  0.66900951  0.49575822  1
  Ag  Ag40  1  0.84604266  0.17026218  0.66124275  1
  Ag  Ag41  1  0.00380049  0.49804682  0.16655460  1
  Ag  Ag42  1  0.84089833  0.83550299  0.33431191  1
  Ag  Ag43  1  0.00408019  0.32761551  0.00127203  1
  Ag  Ag44  1  0.49885462  0.50075956  0.66425806  1
  Ag  Ag45  1  0.16627628  0.84330236  0.00187445  1
  Ag  Ag46  1  0.16195842  0.33149958  0.16105502  1
  Ag  Ag47  1  0.83985734  0.32424611  0.50164848  1
  Ag  Ag48  1  -0.00316932  0.67186196  0.32404275  1
  Ag  Ag49  1  0.84728581  0.66266915  0.17046835  1
  Ag  Ag50  1  0.32906521  0.83224637  0.16138063  1
  Ag  Ag51  1  0.31936621  0.15684227  0.16625944  1
  Ag  Ag52  1  0.66716452  -0.00297507  -0.00078755  1
  Ag  Ag53  1  0.00995108  0.00343295  0.00542261  1
  Sb  Sb54  1  0.84062820  0.50037643  0.00328467  1
  Sb  Sb55  1  0.67572998  0.16456889  0.50219298  1
  Sb  Sb56  1  0.32213693  0.15998539  0.83889006  1
  Sb  Sb57  1  0.33340113  0.50442540  0.83486762  1
  Sb  Sb58  1  0.32722016  0.66603639  0.33037636  1
  Sb  Sb59  1  0.15967472  0.33039248  0.49777929  1
  Sb  Sb60  1  0.00702040  0.83258630  0.16711402  1
  Sb  Sb61  1  0.83554396  0.66259454  0.83484925  1
  Sb  Sb62  1  0.67210803  0.16922530  0.16312203  1
  Sb  Sb63  1  0.16819125  0.83911302  0.67138212  1
  Sb  Sb64  1  0.15868980  0.16461630  0.32645451  1
  Sb  Sb65  1  0.49769351  0.66706636  0.83568845  1
  Sb  Sb66  1  0.84095371  0.00521322  0.82821178  1
  Sb  Sb67  1  0.16571988  0.66969346  0.49559278  1
  Sb  Sb68  1  0.48993482  0.16244355  0.00268873  1
  Sb  Sb69  1  0.66921020  0.50131577  0.50065578  1
  Sb  Sb70  1  0.67794862  0.33573012  -0.00388231  1
  Sb  Sb71  1  0.32486998  0.00163173  0.33019529  1
  Sb  Sb72  1  0.67329111  -0.00017856  0.33397568  1
  Sb  Sb73  1  0.00458590  0.66166074  0.66650558  1
  Sb  Sb74  1  0.32157979  0.33341626  0.00490285  1
  Sb  Sb75  1  0.16481019  0.49940554  0.32540297  1
  Sb  Sb76  1  -0.00138947  0.49470998  0.83728973  1
  Sb  Sb77  1  0.67334115  0.66571952  0.32722974  1
  Sb  Sb78  1  0.49606873  0.83041844  0.66399920  1
  Sb  Sb79  1  0.67014330  0.83400626  0.50114083  1
  Sb  Sb80  1  0.66987594  0.83250467  0.83548865  1
  Sb  Sb81  1  0.84393750  0.83252379  0.00549365  1
  Sb  Sb82  1  0.49515401  0.33680370  0.16610751  1
  Sb  Sb83  1  0.49727170  0.16669191  0.66432194  1
  Sb  Sb84  1  0.83201298  0.49368006  0.66533038  1
  Sb  Sb85  1  0.83825926  0.84143177  0.66016122  1
  Sb  Sb86  1  0.67633912  0.16959806  0.83286153  1
  Sb  Sb87  1  0.16252978  0.83527887  0.32826392  1
  Sb  Sb88  1  0.66319459  0.66541268  0.66879442  1
  Sb  Sb89  1  0.16702445  0.67081051  0.84141306  1
  Sb  Sb90  1  0.50145988  0.83333128  0.33363939  1
  Sb  Sb91  1  0.84357927  0.16604936  -0.00001498  1
  Sb  Sb92  1  0.00179787  0.33014280  0.32874734  1
  Sb  Sb93  1  0.49649497  0.50264949  0.00023299  1
  Sb  Sb94  1  0.66898994  0.33439252  0.33558638  1
  Sb  Sb95  1  0.83965557  -0.00022724  0.16961471  1
  Sb  Sb96  1  0.16839051  0.49520576  0.67044254  1
  Sb  Sb97  1  0.49746645  0.50300410  0.33530685  1
  Sb  Sb98  1  0.50036849  0.33485830  0.83179854  1
  Sb  Sb99  1  0.66348224  0.82961246  0.16315135  1
  Sb  Sb100  1  0.83737256  0.49976599  0.33240457  1
  Sb  Sb101  1  0.49243694  -0.00055463  0.83430401  1
  Sb  Sb102  1  0.32434511  0.16280457  0.49497060  1
  Sb  Sb103  1  0.48934586  0.83272436  0.00238128  1
  Sb  Sb104  1  0.50147484  0.16332090  0.33276551  1
  Sb  Sb105  1  0.00524158  0.00896020  0.66538870  1
  Sb  Sb106  1  0.50287390  0.33462138  0.50149187  1
  Sb  Sb107  1  0.32844320  0.33117556  0.66365999  1
  Te  Te108  1  0.16292647  0.16448631  0.16579576  1
  Te  Te109  1  0.15996997  0.16446539  0.50269653  1
  Te  Te110  1  0.16266650  0.16523681  0.83491733  1
  Te  Te111  1  0.16418017  0.50037192  0.16443067  1
  Te  Te112  1  0.16681641  0.49920494  0.50170517  1
  Te  Te113  1  0.16715419  0.49348219  0.83897134  1
  Te  Te114  1  0.17123621  0.83960237  0.16329014  1
  Te  Te115  1  0.16438046  0.83496546  0.50042808  1
  Te  Te116  1  0.16544494  0.83614591  0.83688000  1
  Te  Te117  1  0.49939504  0.16181157  0.16755817  1
  Te  Te118  1  0.49887004  0.16045726  0.49888028  1
  Te  Te119  1  0.50054981  0.16717264  0.83353104  1
  Te  Te120  1  0.49361267  0.50496985  0.16776464  1
  Te  Te121  1  0.49867260  0.50303000  0.50211097  1
  Te  Te122  1  0.50472637  0.50005439  0.82776351  1
  Te  Te123  1  0.49319981  0.83314436  0.16823526  1
  Te  Te124  1  0.49864376  0.83203862  0.49873095  1
  Te  Te125  1  0.49164836  0.83345149  0.83211165  1
  Te  Te126  1  0.83934205  0.16923147  0.16806867  1
  Te  Te127  1  0.83705835  0.16484424  0.50159066  1
  Te  Te128  1  0.84217649  0.17282857  0.82879423  1
  Te  Te129  1  0.83690964  0.50153434  0.16728631  1
  Te  Te130  1  0.83629468  0.50612625  0.49908130  1
  Te  Te131  1  0.82784187  0.49345601  0.83385677  1
  Te  Te132  1  0.83157763  0.82750947  0.17235324  1
  Te  Te133  1  0.83677524  0.83208218  0.49611290  1
  Te  Te134  1  0.84153774  0.83239590  0.83225726  1
  Te  Te135  1  0.16507387  -0.00025926  -0.00171700  1
  Te  Te136  1  0.15825210  -0.00004639  0.34374952  1
  Te  Te137  1  0.17074788  0.00295391  0.66187411  1
  Te  Te138  1  0.16370862  0.33532538  0.00284886  1
  Te  Te139  1  0.17166842  0.33200409  0.32670735  1
  Te  Te140  1  0.16199546  0.32717202  0.66757558  1
  Te  Te141  1  0.16762053  0.66364108  0.00141121  1
  Te  Te142  1  0.15814323  0.66814383  0.32514290  1
  Te  Te143  1  0.17384805  0.66460283  0.66855237  1
  Te  Te144  1  0.50424470  -0.00145613  0.00451458  1
  Te  Te145  1  0.50359359  -0.00063180  0.33136376  1
  Te  Te146  1  0.49745703  -0.00007896  0.66386631  1
  Te  Te147  1  0.50249593  0.33150522  -0.00104574  1
  Te  Te148  1  0.49527505  0.33119049  0.33458777  1
  Te  Te149  1  0.50136452  0.33764105  0.66589442  1
  Te  Te150  1  0.50283683  0.66685852  0.00556807  1
  Te  Te151  1  0.50199784  0.66798494  0.33376706  1
  Te  Te152  1  0.49611607  0.66298870  0.66270412  1
  Te  Te153  1  0.82808727  -0.00091919  -0.00156378  1
  Te  Te154  1  0.83844179  0.00047915  0.33714849  1
  Te  Te155  1  0.82853910  0.00645459  0.66196841  1
  Te  Te156  1  0.84183690  0.33304013  0.00869222  1
  Te  Te157  1  0.83291981  0.32877715  0.33402367  1
  Te  Te158  1  0.83660168  0.33092866  0.66349191  1
  Te  Te159  1  0.83057297  0.66684292  0.00418217  1
  Te  Te160  1  0.83773151  0.66716742  0.33376458  1
  Te  Te161  1  0.83216253  0.66757367  0.66210525  1
  Te  Te162  1  0.00291954  0.16569802  0.00062577  1
  Te  Te163  1  -0.00306756  0.16375020  0.33698797  1
  Te  Te164  1  0.00227077  0.16954881  0.66621144  1
  Te  Te165  1  0.00427507  0.50356191  0.00319512  1
  Te  Te166  1  0.00012097  0.50654981  0.33337762  1
  Te  Te167  1  0.00015262  0.49287044  0.66313821  1
  Te  Te168  1  0.00489503  0.83406874  -0.00188275  1
  Te  Te169  1  -0.00091882  0.83453336  0.33784202  1
  Te  Te170  1  0.00107790  0.83025159  0.66390491  1
  Te  Te171  1  0.32457735  0.16141852  0.00589933  1
  Te  Te172  1  0.33411420  0.17108001  0.32651279  1
  Te  Te173  1  0.32901370  0.16183524  0.66637658  1
  Te  Te174  1  0.32959591  0.50534725  0.00235560  1
  Te  Te175  1  0.33223983  0.49760579  0.33542205  1
  Te  Te176  1  0.33610219  0.49955870  0.66465762  1
  Te  Te177  1  0.32827213  0.83262316  0.00199505  1
  Te  Te178  1  0.33404745  0.83398289  0.33961026  1
  Te  Te179  1  0.33248945  0.83405761  0.65710950  1
  Te  Te180  1  0.66467227  0.16204897  -0.00149098  1
  Te  Te181  1  0.67612046  0.16811237  0.33236522  1
  Te  Te182  1  0.66520083  0.16711388  0.66779384  1
  Te  Te183  1  0.66433098  0.50170983  0.00053317  1
  Te  Te184  1  0.66546841  0.49867768  0.32187574  1
  Te  Te185  1  0.66262750  0.49840373  0.66849182  1
  Te  Te186  1  0.66737564  0.83289264  -0.00266260  1
  Te  Te187  1  0.67735778  0.83337715  0.33286065  1
  Te  Te188  1  0.66707731  0.84092942  0.66980825  1
  Te  Te189  1  0.00248235  -0.00080308  0.16565035  1
  Te  Te190  1  0.00018365  0.00082060  0.50330922  1
  Te  Te191  1  0.00334851  0.00180867  0.83411548  1
  Te  Te192  1  0.00216204  0.33408744  0.16760358  1
  Te  Te193  1  -0.00255802  0.33658196  0.49495074  1
  Te  Te194  1  0.00080185  0.33372897  0.83592552  1
  Te  Te195  1  0.00339197  0.66941946  0.16423519  1
  Te  Te196  1  -0.00005368  0.66219745  0.50319796  1
  Te  Te197  1  -0.00102121  0.66705290  0.83665168  1
  Te  Te198  1  0.32956607  -0.00144108  0.16766998  1
  Te  Te199  1  0.33459366  -0.00069547  0.49755820  1
  Te  Te200  1  0.32858676  -0.00468627  0.83199189  1
  Te  Te201  1  0.33097859  0.34039464  0.16772647  1
  Te  Te202  1  0.33332097  0.33558600  0.49660818  1
  Te  Te203  1  0.32859312  0.33307235  0.83352495  1
  Te  Te204  1  0.33021718  0.66729902  0.16854338  1
  Te  Te205  1  0.33219306  0.66600472  0.49815241  1
  Te  Te206  1  0.33417513  0.67285951  0.82817276  1
  Te  Te207  1  0.66787783  -0.00079419  0.16388483  1
  Te  Te208  1  0.65811125  -0.00080301  0.50274168  1
  Te  Te209  1  0.66580950  0.00032869  0.83188294  1
  Te  Te210  1  0.66716491  0.33884991  0.16605428  1
  Te  Te211  1  0.67361545  0.33438483  0.50586249  1
  Te  Te212  1  0.66898575  0.33708126  0.82853221  1
  Te  Te213  1  0.66446643  0.66397535  0.16334295  1
  Te  Te214  1  0.66179905  0.66615366  0.50021536  1
  Te  Te215  1  0.66641828  0.66355209  0.83819895  1
