# generated using pymatgen
data_AgSbTe2
_symmetry_space_group_name_H-M   'P 1'
_cell_length_a   18.32666846
_cell_length_b   18.32628260
_cell_length_c   18.32305979
_cell_angle_alpha   90.00381989
_cell_angle_beta   89.99958829
_cell_angle_gamma   90.00148561
_symmetry_Int_Tables_number   1
_chemical_formula_structural   AgSbTe2
_chemical_formula_sum   'Ag54 Sb54 Te108'
_cell_volume   6153.97744522
_cell_formula_units_Z   54
loop_
 _symmetry_equiv_pos_site_id
 _symmetry_equiv_pos_as_xyz
  1  'x, y, z'
loop_
 _atom_site_type_symbol
 _atom_site_label
 _atom_site_symmetry_multiplicity
 _atom_site_fract_x
 _atom_site_fract_y
 _atom_site_fract_z
 _atom_site_occupancy
  Ag  Ag0  1  0.49990844  0.49760089  0.66602653  1
  Ag  Ag1  1  0.16086656  0.66210130  0.16711834  1
  Ag  Ag2  1  0.17025238  -0.00029873  0.49939354  1
  Ag  Ag3  1  -0.00415304  0.49573410  0.16584351  1
  Ag  Ag4  1  -0.00609382  0.33404638  0.00260423  1
  Ag  Ag5  1  0.16523577  0.66706186  0.83200427  1
  Ag  Ag6  1  0.32537024  0.83406288  0.48880144  1
  Ag  Ag7  1  0.67374199  0.84475624  0.83746278  1
  Ag  Ag8  1  0.66467448  0.15780969  0.83854188  1
  Ag  Ag9  1  0.83095382  0.83100653  -0.00500751  1
  Ag  Ag10  1  0.83870501  0.49471329  0.00428292  1
  Ag  Ag11  1  0.34295567  0.16347610  0.83778756  1
  Ag  Ag12  1  0.17162514  0.17014172  0.00283243  1
  Ag  Ag13  1  0.66780085  0.83548958  0.16636129  1
  Ag  Ag14  1  0.83565158  0.66135736  0.16643255  1
  Ag  Ag15  1  0.50692343  0.16856752  0.67511952  1
  Ag  Ag16  1  0.32493920  0.66546877  0.65974668  1
  Ag  Ag17  1  0.67562820  0.32461340  -0.00297560  1
  Ag  Ag18  1  0.15810781  0.33563569  0.16487718  1
  Ag  Ag19  1  -0.00510044  0.17675797  0.16417968  1
  Ag  Ag20  1  0.17606027  0.83189573  0.33436390  1
  Ag  Ag21  1  0.33073565  0.16120181  0.49913620  1
  Ag  Ag22  1  0.00489847  0.50405351  0.50188389  1
  Ag  Ag23  1  0.33665837  -0.00851581  0.33026076  1
  Ag  Ag24  1  0.67021850  0.16506378  0.15592487  1
  Ag  Ag25  1  0.32359329  0.50474009  0.50322608  1
  Ag  Ag26  1  0.33765315  0.00506708  0.00379018  1
  Ag  Ag27  1  -0.00954358  0.83206713  0.82788435  1
  Ag  Ag28  1  0.82520134  0.00269534  0.83261338  1
  Ag  Ag29  1  0.32509711  0.67875359  0.33737444  1
  Ag  Ag30  1  0.67639054  0.50048391  0.16420662  1
  Ag  Ag31  1  0.66530794  0.00739480  -0.00876562  1
  Ag  Ag32  1  0.66896068  0.67487944  0.32803133  1
  Ag  Ag33  1  0.16514737  0.50267530  0.66448090  1
  Ag  Ag34  1  0.33468068  0.83715851  0.17623352  1
  Ag  Ag35  1  0.16583023  0.33412346  0.49817968  1
  Ag  Ag36  1  0.83123160  0.16499542  0.32643772  1
  Ag  Ag37  1  0.66868462  0.00517811  0.67858744  1
  Ag  Ag38  1  0.00086862  0.66274497  0.66263877  1
  Ag  Ag39  1  0.83207233  0.32679262  0.84048601  1
  Ag  Ag40  1  0.16091055  0.49414625  0.00270973  1
  Ag  Ag41  1  0.83820024  0.33595360  0.15810322  1
  Ag  Ag42  1  0.48824591  0.83448685  0.33237919  1
  Ag  Ag43  1  0.66309896  -0.00556163  0.32931384  1
  Ag  Ag44  1  0.00318400  0.66751488  0.33366104  1
  Ag  Ag45  1  0.67120036  0.66921946  0.66721995  1
  Ag  Ag46  1  0.33180187  0.16025214  0.16277267  1
  Ag  Ag47  1  0.51258765  0.00309530  0.83316471  1
  Ag  Ag48  1  0.67497076  0.32224744  0.67394856  1
  Ag  Ag49  1  0.00520262  0.82610302  0.50286683  1
  Ag  Ag50  1  0.50018672  0.16443004  -0.00541931  1
  Ag  Ag51  1  0.83123617  0.83424621  0.67387208  1
  Ag  Ag52  1  -0.00483310  0.33908533  0.67061593  1
  Ag  Ag53  1  0.82577663  0.16626694  0.66957214  1
  Sb  Sb54  1  0.50216088  0.15902952  0.33216024  1
  Sb  Sb55  1  0.16672141  0.17180196  0.66959197  1
  Sb  Sb56  1  0.32948838  0.50206888  0.17094126  1
  Sb  Sb57  1  0.33773986  -0.00203450  0.66540530  1
  Sb  Sb58  1  0.82810605  0.00173049  0.16086412  1
  Sb  Sb59  1  0.50050812  0.00034614  0.16080285  1
  Sb  Sb60  1  0.33136082  0.33615525  0.66628072  1
  Sb  Sb61  1  0.49810455  0.67244563  0.82943995  1
  Sb  Sb62  1  0.49577423  0.00018397  0.50330284  1
  Sb  Sb63  1  0.33446769  0.83762597  0.83326915  1
  Sb  Sb64  1  0.83383993  0.49861348  0.32544996  1
  Sb  Sb65  1  0.66980559  0.66940037  0.00120784  1
  Sb  Sb66  1  0.50519155  0.83439475  0.66376384  1
  Sb  Sb67  1  0.67018305  0.33094357  0.32979476  1
  Sb  Sb68  1  0.33112185  0.49721386  0.82906537  1
  Sb  Sb69  1  -0.00015063  0.50383839  0.83477989  1
  Sb  Sb70  1  0.82957934  0.16965142  -0.00075151  1
  Sb  Sb71  1  0.66761118  0.83408043  0.49905223  1
  Sb  Sb72  1  0.49646052  0.66765581  0.50059228  1
  Sb  Sb73  1  0.16107632  0.33627245  0.83560749  1
  Sb  Sb74  1  0.32885733  0.32502783  0.00117635  1
  Sb  Sb75  1  0.16352740  0.83429335  0.00419191  1
  Sb  Sb76  1  0.16582216  -0.00265284  0.83036243  1
  Sb  Sb77  1  0.50281846  0.33048061  0.16503706  1
  Sb  Sb78  1  -0.00031330  0.66216316  0.00127443  1
  Sb  Sb79  1  0.16568211  0.50651502  0.33428801  1
  Sb  Sb80  1  -0.00602834  -0.00172713  0.66648046  1
  Sb  Sb81  1  0.83514529  0.50015099  0.67201790  1
  Sb  Sb82  1  0.16223552  0.82693769  0.66204355  1
  Sb  Sb83  1  0.66854688  0.49907019  0.83564344  1
  Sb  Sb84  1  0.17012998  0.00113612  0.16898763  1
  Sb  Sb85  1  0.83227257  0.83581935  0.33152598  1
  Sb  Sb86  1  0.50755029  0.32383874  0.83221081  1
  Sb  Sb87  1  0.16626598  0.66581298  0.49790069  1
  Sb  Sb88  1  0.00028576  -0.00461585  0.33311750  1
  Sb  Sb89  1  -0.00458876  0.16538237  0.83688962  1
  Sb  Sb90  1  -0.00179828  0.82913574  0.16747124  1
  Sb  Sb91  1  0.50189553  0.49189368  -0.00448604  1
  Sb  Sb92  1  0.49952489  0.50743756  0.33779257  1
  Sb  Sb93  1  0.50548358  0.84037611  0.00326197  1
  Sb  Sb94  1  0.66318671  0.16548011  0.50397288  1
  Sb  Sb95  1  0.49436961  0.33250289  0.50388065  1
  Sb  Sb96  1  0.33075599  0.33100132  0.33326078  1
  Sb  Sb97  1  0.16526198  0.16186073  0.32825267  1
  Sb  Sb98  1  0.83547271  -0.00044911  0.50402283  1
  Sb  Sb99  1  0.83653686  0.66740010  0.49661556  1
  Sb  Sb100  1  0.00051665  0.33787844  0.32984224  1
  Sb  Sb101  1  0.83847239  0.33283347  0.50199086  1
  Sb  Sb102  1  0.32939916  0.67199924  0.00317711  1
  Sb  Sb103  1  0.50223990  0.66818354  0.16815514  1
  Sb  Sb104  1  0.83605447  0.67043646  0.83521240  1
  Sb  Sb105  1  -0.00373247  0.00446234  0.00059481  1
  Sb  Sb106  1  0.00446592  0.16860608  0.49728121  1
  Sb  Sb107  1  0.66905033  0.50061006  0.49926541  1
  Te  Te108  1  0.16939456  0.16812084  0.16407946  1
  Te  Te109  1  0.17060715  0.16913369  0.50013125  1
  Te  Te110  1  0.16715141  0.16682217  0.83865327  1
  Te  Te111  1  0.16506616  0.49943235  0.16576407  1
  Te  Te112  1  0.16497772  0.49736580  0.50093108  1
  Te  Te113  1  0.16681778  0.50427337  0.83504065  1
  Te  Te114  1  0.16726711  0.82964845  0.16947415  1
  Te  Te115  1  0.16598837  0.83429201  0.49770622  1
  Te  Te116  1  0.16522875  0.82882282  0.83439598  1
  Te  Te117  1  0.50008165  0.16709305  0.16378634  1
  Te  Te118  1  0.49105402  0.16724946  0.50332098  1
  Te  Te119  1  0.50244797  0.16322150  0.83284719  1
  Te  Te120  1  0.50347055  0.49930444  0.16611383  1
  Te  Te121  1  0.49644384  0.49900876  0.50727338  1
  Te  Te122  1  0.49926455  0.50044217  0.82605907  1
  Te  Te123  1  0.50099653  0.83347656  0.17051205  1
  Te  Te124  1  0.49388465  0.83403538  0.49497223  1
  Te  Te125  1  0.50510731  0.84038500  0.83314610  1
  Te  Te126  1  0.83128517  0.16738503  0.16541066  1
  Te  Te127  1  0.83497541  0.16670589  0.50461955  1
  Te  Te128  1  0.83121306  0.16565464  0.83065547  1
  Te  Te129  1  0.83430130  0.49921638  0.16408411  1
  Te  Te130  1  0.84268836  0.49919400  0.49867934  1
  Te  Te131  1  0.83333699  0.49507840  0.84234086  1
  Te  Te132  1  0.83026724  0.83117143  0.16364944  1
  Te  Te133  1  0.84013000  0.83395560  0.50678227  1
  Te  Te134  1  0.83139554  0.83137104  0.83360642  1
  Te  Te135  1  0.16940408  0.00460815  -0.00056448  1
  Te  Te136  1  0.16980648  -0.00559108  0.33753286  1
  Te  Te137  1  0.16715285  0.00114375  0.66111978  1
  Te  Te138  1  0.16327963  0.33394666  0.00212802  1
  Te  Te139  1  0.16645300  0.33187589  0.33177192  1
  Te  Te140  1  0.16138946  0.33925829  0.66731883  1
  Te  Te141  1  0.16628129  0.66370303  0.00197548  1
  Te  Te142  1  0.16586441  0.67074915  0.32906483  1
  Te  Te143  1  0.16422114  0.66337199  0.66899336  1
  Te  Te144  1  0.50148532  0.00469426  -0.00551619  1
  Te  Te145  1  0.49972045  -0.00481043  0.33574752  1
  Te  Te146  1  0.50576867  0.00376571  0.67081594  1
  Te  Te147  1  0.50853708  0.32595173  -0.00078891  1
  Te  Te148  1  0.50046330  0.33421789  0.33486831  1
  Te  Te149  1  0.50521611  0.33303472  0.66683016  1
  Te  Te150  1  0.49772147  0.66314660  -0.00174831  1
  Te  Te151  1  0.50502625  0.67355584  0.33417173  1
  Te  Te152  1  0.50367395  0.66328166  0.66686675  1
  Te  Te153  1  0.82927676  -0.00588192  -0.00543788  1
  Te  Te154  1  0.83088605  0.00452504  0.33440124  1
  Te  Te155  1  0.82870348  0.00077570  0.67004111  1
  Te  Te156  1  0.83351448  0.33323694  0.00097564  1
  Te  Te157  1  0.83350507  0.32519036  0.32900861  1
  Te  Te158  1  0.83452383  0.33262792  0.66764851  1
  Te  Te159  1  0.83388412  0.66514488  0.00541037  1
  Te  Te160  1  0.83095520  0.66698685  0.32730910  1
  Te  Te161  1  0.83547778  0.66858995  0.66689317  1
  Te  Te162  1  0.00487611  0.17138267  0.00361506  1
  Te  Te163  1  -0.00459045  0.16594239  0.32830820  1
  Te  Te164  1  -0.00292166  0.17107853  0.66666881  1
  Te  Te165  1  0.00131401  0.49654724  0.00227567  1
  Te  Te166  1  -0.00015601  0.50719971  0.33188435  1
  Te  Te167  1  0.00126791  0.50124172  0.66750785  1
  Te  Te168  1  -0.00503312  0.83503854  -0.00249831  1
  Te  Te169  1  0.00044059  0.82809333  0.33637912  1
  Te  Te170  1  -0.00328787  0.83169685  0.66581713  1
  Te  Te171  1  0.33446078  0.16452435  0.00181650  1
  Te  Te172  1  0.33410214  0.16285284  0.33293849  1
  Te  Te173  1  0.33493932  0.16705626  0.66521869  1
  Te  Te174  1  0.33063634  0.49918562  0.00006076  1
  Te  Te175  1  0.33436764  0.50431187  0.34075359  1
  Te  Te176  1  0.33015032  0.50325792  0.66383103  1
  Te  Te177  1  0.33375468  0.84116509  0.00336021  1
  Te  Te178  1  0.33276364  0.83408488  0.33307336  1
  Te  Te179  1  0.33494238  0.82728730  0.66533230  1
  Te  Te180  1  0.66782462  0.16595746  -0.00100775  1
  Te  Te181  1  0.66905057  0.16315505  0.33408477  1
  Te  Te182  1  0.66648584  0.16561323  0.66590317  1
  Te  Te183  1  0.66636190  0.49836703  0.00472947  1
  Te  Te184  1  0.66560654  0.50441127  0.32891753  1
  Te  Te185  1  0.66608034  0.50617314  0.66540274  1
  Te  Te186  1  0.66917777  0.83575317  0.00197303  1
  Te  Te187  1  0.66900232  0.83317063  0.33177474  1
  Te  Te188  1  0.66911115  0.83197638  0.66442156  1
  Te  Te189  1  -0.00050383  0.00783731  0.16693678  1
  Te  Te190  1  0.00773171  -0.00333005  0.49922386  1
  Te  Te191  1  -0.00361909  -0.00732054  0.83330473  1
  Te  Te192  1  -0.00049516  0.33481340  0.16690182  1
  Te  Te193  1  0.00563232  0.33653862  0.50194090  1
  Te  Te194  1  -0.00592443  0.33342515  0.83259144  1
  Te  Te195  1  -0.00050670  0.66459041  0.16808451  1
  Te  Te196  1  0.00052852  0.66575719  0.50120438  1
  Te  Te197  1  0.00333972  0.67180994  0.83038830  1
  Te  Te198  1  0.33390677  -0.00061209  0.16734457  1
  Te  Te199  1  0.33042122  -0.00137927  0.49851483  1
  Te  Te200  1  0.33210363  0.00479735  0.83596574  1
  Te  Te201  1  0.32829326  0.33132036  0.16724708  1
  Te  Te202  1  0.32631684  0.33421842  0.50029492  1
  Te  Te203  1  0.33352706  0.32409062  0.83350581  1
  Te  Te204  1  0.33052535  0.66986474  0.17131212  1
  Te  Te205  1  0.33190558  0.66736967  0.49971787  1
  Te  Te206  1  0.32902346  0.66790621  0.82990626  1
  Te  Te207  1  0.66621314  -0.00026358  0.16964778  1
  Te  Te208  1  0.66676022  -0.00058299  0.49124046  1
  Te  Te209  1  0.66914160  -0.00006135  0.83435801  1
  Te  Te210  1  0.66984705  0.33058400  0.16564192  1
  Te  Te211  1  0.66801843  0.33477515  0.50574842  1
  Te  Te212  1  0.67240631  0.33301093  0.83269620  1
  Te  Te213  1  0.66871187  0.66897824  0.16706903  1
  Te  Te214  1  0.66812888  0.66612157  0.50048876  1
  Te  Te215  1  0.66677790  0.67052001  0.82878766  1
