# generated using pymatgen
data_AgSbTe2
_symmetry_space_group_name_H-M   'P 1'
_cell_length_a   18.32572230
_cell_length_b   18.32481238
_cell_length_c   18.31804828
_cell_angle_alpha   90.00246581
_cell_angle_beta   90.00407900
_cell_angle_gamma   89.99823387
_symmetry_Int_Tables_number   1
_chemical_formula_structural   AgSbTe2
_chemical_formula_sum   'Ag54 Sb54 Te108'
_cell_volume   6151.48310641
_cell_formula_units_Z   54
loop_
 _symmetry_equiv_pos_site_id
 _symmetry_equiv_pos_as_xyz
  1  'x, y, z'
loop_
 _atom_site_type_symbol
 _atom_site_label
 _atom_site_symmetry_multiplicity
 _atom_site_fract_x
 _atom_site_fract_y
 _atom_site_fract_z
 _atom_site_occupancy
  Ag  Ag0  1  0.66767154  0.32795672  -0.00139798  1
  Ag  Ag1  1  0.67020987  0.33331195  0.66159051  1
  Ag  Ag2  1  -0.00157306  0.33739239  0.66461234  1
  Ag  Ag3  1  0.65929495  0.66301268  0.33461563  1
  Ag  Ag4  1  0.66225417  0.33190334  0.33470561  1
  Ag  Ag5  1  0.17049920  -0.00521842  0.83634828  1
  Ag  Ag6  1  0.82897367  0.66342219  0.49945586  1
  Ag  Ag7  1  0.66480009  0.17746525  0.84339938  1
  Ag  Ag8  1  0.33407658  0.17716966  0.49362094  1
  Ag  Ag9  1  0.33038526  0.82553427  0.83284574  1
  Ag  Ag10  1  0.66139567  0.01088692  0.00391122  1
  Ag  Ag11  1  0.65992536  0.00813904  0.33224387  1
  Ag  Ag12  1  0.33515043  0.49648180  0.49091226  1
  Ag  Ag13  1  0.00320319  0.66585934  0.67042898  1
  Ag  Ag14  1  0.16588962  0.66250520  0.16831956  1
  Ag  Ag15  1  0.33033208  0.49871219  0.17860503  1
  Ag  Ag16  1  0.49812474  0.33336716  0.49289019  1
  Ag  Ag17  1  0.16442629  0.82763421  0.66494120  1
  Ag  Ag18  1  0.83148806  0.82773105  -0.00194037  1
  Ag  Ag19  1  -0.00067846  0.33425078  -0.00171873  1
  Ag  Ag20  1  0.49895479  0.00414782  0.49353201  1
  Ag  Ag21  1  0.50319080  0.16763293  0.00336130  1
  Ag  Ag22  1  0.17149437  0.33716516  0.83452293  1
  Ag  Ag23  1  0.33441093  0.50055870  0.83314565  1
  Ag  Ag24  1  0.32629527  0.66639834  0.66079043  1
  Ag  Ag25  1  0.33899601  -0.00006100  0.33308307  1
  Ag  Ag26  1  0.82150479  0.17575357  0.33428252  1
  Ag  Ag27  1  0.82815258  0.49204351  0.33511987  1
  Ag  Ag28  1  0.83643830  0.66709168  0.83068849  1
  Ag  Ag29  1  0.17178829  0.17069783  -0.00128508  1
  Ag  Ag30  1  0.17463513  0.82818758  0.33644256  1
  Ag  Ag31  1  0.49382779  0.49696845  0.33562725  1
  Ag  Ag32  1  0.83685038  0.82640848  0.66778832  1
  Ag  Ag33  1  0.50329497  0.16986063  0.33355850  1
  Ag  Ag34  1  0.00524313  -0.00007315  0.33437057  1
  Ag  Ag35  1  -0.00256848  0.66566609  -0.00526910  1
  Ag  Ag36  1  0.50119546  0.66513571  0.49370198  1
  Ag  Ag37  1  0.33747557  0.00243447  0.00284773  1
  Ag  Ag38  1  0.49630087  0.83266842  0.33747184  1
  Ag  Ag39  1  0.67135278  0.66735803  0.00195966  1
  Ag  Ag40  1  0.16400855  0.33750694  0.17338015  1
  Ag  Ag41  1  0.66620145  0.17102856  0.16804788  1
  Ag  Ag42  1  0.50296837  0.33386745  0.83123222  1
  Ag  Ag43  1  0.33994219  0.65496633  0.33822166  1
  Ag  Ag44  1  0.00332597  0.17202955  0.49660692  1
  Ag  Ag45  1  0.00087063  0.83036311  0.16738389  1
  Ag  Ag46  1  0.17773094  0.50082133  0.33198089  1
  Ag  Ag47  1  0.83301347  0.33370174  0.17591694  1
  Ag  Ag48  1  0.17132756  0.33282086  0.49413640  1
  Ag  Ag49  1  0.16707489  0.66588839  0.83426273  1
  Ag  Ag50  1  0.34044129  0.34293253  0.33808422  1
  Ag  Ag51  1  0.66521487  0.82934738  0.49584739  1
  Ag  Ag52  1  0.82848445  0.33700897  0.49211163  1
  Ag  Ag53  1  0.66239002  0.49349968  0.83692916  1
  Sb  Sb54  1  0.17155267  0.00372836  0.49968061  1
  Sb  Sb55  1  0.33231190  0.33946127  0.66079133  1
  Sb  Sb56  1  0.83233383  0.00353554  0.16847024  1
  Sb  Sb57  1  0.00396273  0.49491504  0.49858669  1
  Sb  Sb58  1  0.50402784  0.83791685  0.00416536  1
  Sb  Sb59  1  0.16762268  0.00125602  0.16493727  1
  Sb  Sb60  1  0.82926109  0.16743401  0.00443657  1
  Sb  Sb61  1  0.17043720  0.16944018  0.33105887  1
  Sb  Sb62  1  0.66670793  0.00433166  0.66458116  1
  Sb  Sb63  1  0.49680174  0.66500144  0.17359468  1
  Sb  Sb64  1  0.33297146  0.66948911  0.00073540  1
  Sb  Sb65  1  -0.00220710  0.17022246  0.83102104  1
  Sb  Sb66  1  0.33564406  0.16983228  0.83204622  1
  Sb  Sb67  1  0.00001444  0.00028049  0.00384011  1
  Sb  Sb68  1  0.33638925  0.17183260  0.17169639  1
  Sb  Sb69  1  0.66749589  0.66192311  0.66390745  1
  Sb  Sb70  1  0.16686526  0.16752207  0.66944326  1
  Sb  Sb71  1  0.83722549  0.66179979  0.16868101  1
  Sb  Sb72  1  0.66367384  0.16842662  0.49341324  1
  Sb  Sb73  1  0.00195446  0.67019227  0.33414632  1
  Sb  Sb74  1  0.50075569  0.49509332  0.00341621  1
  Sb  Sb75  1  0.50124027  0.33252259  0.17157683  1
  Sb  Sb76  1  0.00129171  0.50156927  0.83349855  1
  Sb  Sb77  1  0.82899921  0.00067365  0.49657711  1
  Sb  Sb78  1  0.00524957  0.83024077  0.83561501  1
  Sb  Sb79  1  0.66319163  0.83101105  0.83081889  1
  Sb  Sb80  1  0.83120267  0.83217076  0.33391098  1
  Sb  Sb81  1  0.33455331  0.32958940  0.00401642  1
  Sb  Sb82  1  0.83204948  0.16811862  0.66078512  1
  Sb  Sb83  1  0.83545727  -0.00517895  0.83568682  1
  Sb  Sb84  1  0.49957510  0.83060825  0.66060569  1
  Sb  Sb85  1  0.00114628  -0.00175914  0.66229776  1
  Sb  Sb86  1  -0.00286847  0.83474087  0.49730376  1
  Sb  Sb87  1  0.50044049  0.00139086  0.17544217  1
  Sb  Sb88  1  0.83187997  0.50348723  0.66191912  1
  Sb  Sb89  1  -0.00125898  0.32938866  0.33537722  1
  Sb  Sb90  1  0.83182331  0.50196536  0.00307871  1
  Sb  Sb91  1  0.49782725  0.66053222  0.82955002  1
  Sb  Sb92  1  0.49970478  0.49868855  0.65965841  1
  Sb  Sb93  1  0.49663693  0.00457033  0.83141065  1
  Sb  Sb94  1  0.50063247  0.17095200  0.66216901  1
  Sb  Sb95  1  0.66218014  0.50027448  0.49782384  1
  Sb  Sb96  1  0.67134147  0.83552521  0.17202618  1
  Sb  Sb97  1  0.16903069  0.50268475  0.66363913  1
  Sb  Sb98  1  0.66352812  0.49536676  0.16816677  1
  Sb  Sb99  1  0.33186928  -0.00558922  0.66453639  1
  Sb  Sb100  1  0.33700617  0.82910866  0.49884651  1
  Sb  Sb101  1  0.00479631  0.50073272  0.16873130  1
  Sb  Sb102  1  0.16434699  0.83415562  0.00018851  1
  Sb  Sb103  1  0.32771912  0.82919511  0.16882044  1
  Sb  Sb104  1  0.16764982  0.66272296  0.49947563  1
  Sb  Sb105  1  0.82947540  0.33954840  0.83207352  1
  Sb  Sb106  1  -0.00223211  0.16735197  0.17096313  1
  Sb  Sb107  1  0.16826458  0.49556002  0.00387491  1
  Te  Te108  1  0.16620875  0.17237987  0.15987969  1
  Te  Te109  1  0.16837872  0.17119860  0.50107048  1
  Te  Te110  1  0.16629883  0.17298610  0.83675322  1
  Te  Te111  1  0.17016381  0.49901364  0.17037918  1
  Te  Te112  1  0.17269185  0.49452370  0.49488569  1
  Te  Te113  1  0.16856559  0.50108539  0.83330429  1
  Te  Te114  1  0.16217724  0.83075159  0.16996629  1
  Te  Te115  1  0.16600344  0.83466776  0.49863830  1
  Te  Te116  1  0.17018024  0.82829496  0.83317105  1
  Te  Te117  1  0.50477323  0.16712862  0.16618841  1
  Te  Te118  1  0.49811032  0.17219057  0.49600127  1
  Te  Te119  1  0.50290670  0.17119470  0.83467616  1
  Te  Te120  1  0.49097137  0.49932121  0.17355545  1
  Te  Te121  1  0.49638244  0.49754234  0.49427196  1
  Te  Te122  1  0.50050095  0.49469384  0.83462161  1
  Te  Te123  1  0.49979754  0.83253462  0.17637934  1
  Te  Te124  1  0.50332427  0.82814719  0.49574314  1
  Te  Te125  1  0.49197829  0.83426954  0.83294507  1
  Te  Te126  1  0.82979860  0.17276182  0.17195716  1
  Te  Te127  1  0.83525531  0.17033567  0.49546047  1
  Te  Te128  1  0.82694269  0.16451243  0.83129120  1
  Te  Te129  1  0.83298449  0.49314874  0.17331181  1
  Te  Te130  1  0.83309703  0.49888378  0.49561282  1
  Te  Te131  1  0.82946848  0.50789964  0.83343087  1
  Te  Te132  1  0.83873174  0.83180585  0.16236840  1
  Te  Te133  1  0.82941331  0.83036246  0.50223309  1
  Te  Te134  1  0.83240646  0.82752814  0.83309841  1
  Te  Te135  1  0.16787497  0.00432306  -0.00294972  1
  Te  Te136  1  0.16991774  -0.00160048  0.33285536  1
  Te  Te137  1  0.16557437  -0.00744717  0.67339043  1
  Te  Te138  1  0.16780827  0.33125305  -0.00360821  1
  Te  Te139  1  0.16524734  0.33457021  0.33410683  1
  Te  Te140  1  0.16296040  0.33400741  0.66822129  1
  Te  Te141  1  0.16432930  0.66682192  -0.00171008  1
  Te  Te142  1  0.16703238  0.66718098  0.33256978  1
  Te  Te143  1  0.16521375  0.66827726  0.66735908  1
  Te  Te144  1  0.50146306  0.00484200  -0.00201406  1
  Te  Te145  1  0.50135979  0.00187873  0.33668804  1
  Te  Te146  1  0.50039026  -0.00012975  0.65667860  1
  Te  Te147  1  0.50325501  0.32840991  -0.00230055  1
  Te  Te148  1  0.49982609  0.33193346  0.33312274  1
  Te  Te149  1  0.50480876  0.33401661  0.66973831  1
  Te  Te150  1  0.50672135  0.66838827  0.00009668  1
  Te  Te151  1  0.49955973  0.66558407  0.33481813  1
  Te  Te152  1  0.49493232  0.66588689  0.65856074  1
  Te  Te153  1  0.82869564  -0.00617214  0.00035886  1
  Te  Te154  1  0.82515963  0.00341864  0.33347976  1
  Te  Te155  1  0.83425946  -0.01011507  0.66636941  1
  Te  Te156  1  0.83353653  0.33410227  0.00025138  1
  Te  Te157  1  0.83624291  0.33168599  0.33483876  1
  Te  Te158  1  0.83443699  0.33447243  0.66315092  1
  Te  Te159  1  0.83417480  0.66706725  0.00084964  1
  Te  Te160  1  0.83185418  0.66532536  0.33717981  1
  Te  Te161  1  0.83449828  0.66808790  0.66541642  1
  Te  Te162  1  0.00071540  0.17060793  0.00015036  1
  Te  Te163  1  0.00193813  0.16058270  0.33655205  1
  Te  Te164  1  -0.00104640  0.17128217  0.65966353  1
  Te  Te165  1  -0.00007835  0.50024001  0.00075985  1
  Te  Te166  1  -0.00412051  0.50146106  0.33398664  1
  Te  Te167  1  -0.00009969  0.50017817  0.66620387  1
  Te  Te168  1  -0.00410199  0.83091985  0.00324168  1
  Te  Te169  1  0.00179281  0.83804362  0.33051867  1
  Te  Te170  1  0.00085140  0.83020493  0.66596803  1
  Te  Te171  1  0.33584969  0.16189197  0.00002269  1
  Te  Te172  1  0.33673113  0.16254393  0.33518522  1
  Te  Te173  1  0.33274116  0.16538478  0.65717178  1
  Te  Te174  1  0.33548337  0.50053319  -0.00836844  1
  Te  Te175  1  0.33324762  0.49901820  0.33493363  1
  Te  Te176  1  0.33435662  0.50697154  0.67465895  1
  Te  Te177  1  0.33476763  0.84031435  -0.00259430  1
  Te  Te178  1  0.33351248  0.83856022  0.33290218  1
  Te  Te179  1  0.32973751  0.82765366  0.66961960  1
  Te  Te180  1  0.66720717  0.16774122  0.00309692  1
  Te  Te181  1  0.66446118  0.16884822  0.33322273  1
  Te  Te182  1  0.66769979  0.17254442  0.67387293  1
  Te  Te183  1  0.66519206  0.50075178  -0.00178753  1
  Te  Te184  1  0.66728053  0.49978638  0.33272974  1
  Te  Te185  1  0.66587779  0.49296249  0.67488855  1
  Te  Te186  1  0.66972664  0.82900423  0.00061358  1
  Te  Te187  1  0.66451945  0.82982429  0.33580711  1
  Te  Te188  1  0.66934478  0.83403305  0.66143221  1
  Te  Te189  1  -0.00016356  -0.00469204  0.17293136  1
  Te  Te190  1  0.00050517  0.00642037  0.49459324  1
  Te  Te191  1  0.00846808  0.00174521  0.83320208  1
  Te  Te192  1  0.00236206  0.33359339  0.16042217  1
  Te  Te193  1  0.00035594  0.33165036  0.50236621  1
  Te  Te194  1  0.00207224  0.33421212  0.83450870  1
  Te  Te195  1  0.00469281  0.66865081  0.16337172  1
  Te  Te196  1  -0.00535923  0.66638781  0.50568795  1
  Te  Te197  1  0.00083659  0.66689929  0.83364245  1
  Te  Te198  1  0.33238773  0.00009557  0.16610449  1
  Te  Te199  1  0.33808414  -0.00020493  0.49656116  1
  Te  Te200  1  0.32910056  0.00170048  0.83362153  1
  Te  Te201  1  0.32732788  0.33722452  0.17178072  1
  Te  Te202  1  0.33410654  0.33576331  0.49911621  1
  Te  Te203  1  0.33314813  0.33523568  0.83108924  1
  Te  Te204  1  0.32670703  0.66207582  0.16931284  1
  Te  Te205  1  0.33399987  0.66373371  0.49800249  1
  Te  Te206  1  0.33179127  0.66653012  0.83470655  1
  Te  Te207  1  0.66696029  0.00421728  0.16658137  1
  Te  Te208  1  0.66165556  -0.00207908  0.49635187  1
  Te  Te209  1  0.66580379  0.00144941  0.83668106  1
  Te  Te210  1  0.66862730  0.33168296  0.16931707  1
  Te  Te211  1  0.66661175  0.33386924  0.49759739  1
  Te  Te212  1  0.66820578  0.33506132  0.83812273  1
  Te  Te213  1  0.66802916  0.66599462  0.16676715  1
  Te  Te214  1  0.66710495  0.66614607  0.49846618  1
  Te  Te215  1  0.66711553  0.66461835  0.83454265  1
