# generated using pymatgen
data_AgSbTe2
_symmetry_space_group_name_H-M   'P 1'
_cell_length_a   18.34777522
_cell_length_b   18.34395451
_cell_length_c   18.34465736
_cell_angle_alpha   90.00247217
_cell_angle_beta   89.99870441
_cell_angle_gamma   90.00438500
_symmetry_Int_Tables_number   1
_chemical_formula_structural   AgSbTe2
_chemical_formula_sum   'Ag54 Sb54 Te108'
_cell_volume   6174.27513308
_cell_formula_units_Z   54
loop_
 _symmetry_equiv_pos_site_id
 _symmetry_equiv_pos_as_xyz
  1  'x, y, z'
loop_
 _atom_site_type_symbol
 _atom_site_label
 _atom_site_symmetry_multiplicity
 _atom_site_fract_x
 _atom_site_fract_y
 _atom_site_fract_z
 _atom_site_occupancy
  Ag  Ag0  1  0.33187696  0.66294948  0.67616642  1
  Ag  Ag1  1  0.16795252  0.49793603  0.65326272  1
  Ag  Ag2  1  0.16489386  0.34389862  0.49216889  1
  Ag  Ag3  1  0.16887932  0.01628129  0.15812664  1
  Ag  Ag4  1  -0.00098510  0.49767208  0.17254637  1
  Ag  Ag5  1  0.83191779  0.50089163  0.00160661  1
  Ag  Ag6  1  0.49415275  0.01494087  0.83701539  1
  Ag  Ag7  1  0.15758664  0.49588688  0.33963733  1
  Ag  Ag8  1  0.00487749  0.66475769  0.00589748  1
  Ag  Ag9  1  0.33110739  0.83496140  0.15345955  1
  Ag  Ag10  1  0.16057512  0.17916280  0.32077324  1
  Ag  Ag11  1  0.83134424  0.16541510  0.66345324  1
  Ag  Ag12  1  0.00382704  0.33495898  0.66134479  1
  Ag  Ag13  1  0.33937437  0.16982298  0.84068872  1
  Ag  Ag14  1  0.67104761  0.34283796  0.32847635  1
  Ag  Ag15  1  0.49233866  0.33443612  0.15699399  1
  Ag  Ag16  1  0.16660439  0.65608905  0.49814282  1
  Ag  Ag17  1  0.49948719  0.16939307  0.68146526  1
  Ag  Ag18  1  0.32030269  0.50268790  0.50279295  1
  Ag  Ag19  1  0.83566933  0.66375871  0.17455399  1
  Ag  Ag20  1  0.48645743  0.17250787  -0.00618284  1
  Ag  Ag21  1  0.66209158  0.83183548  0.83393677  1
  Ag  Ag22  1  0.33465944  0.49641318  0.83578474  1
  Ag  Ag23  1  0.00251899  0.34011897  0.33244456  1
  Ag  Ag24  1  0.83293799  -0.01001924  0.49968741  1
  Ag  Ag25  1  0.65855876  0.49404864  0.83655224  1
  Ag  Ag26  1  0.00897265  0.50089917  0.48869228  1
  Ag  Ag27  1  0.32226267  0.16802007  0.15138236  1
  Ag  Ag28  1  0.33115790  0.00162061  -0.00264341  1
  Ag  Ag29  1  0.17342202  0.33084846  0.84186684  1
  Ag  Ag30  1  0.01034870  0.83208138  0.83505061  1
  Ag  Ag31  1  0.33681105  0.31826550  -0.00173900  1
  Ag  Ag32  1  0.17603973  0.00711011  0.84083441  1
  Ag  Ag33  1  0.65323806  0.17621650  0.83393136  1
  Ag  Ag34  1  0.49284501  0.32787645  0.83900653  1
  Ag  Ag35  1  0.83238084  0.83351718  0.66004088  1
  Ag  Ag36  1  0.66782110  0.50447489  0.48863004  1
  Ag  Ag37  1  0.83257947  0.82269987  0.33936942  1
  Ag  Ag38  1  0.16883584  0.33014272  0.16699780  1
  Ag  Ag39  1  0.65762667  0.33670123  0.00060278  1
  Ag  Ag40  1  0.48838621  0.83597728  -0.00321807  1
  Ag  Ag41  1  0.17608281  0.16557560  0.00846904  1
  Ag  Ag42  1  0.17631494  0.83713964  -0.00125548  1
  Ag  Ag43  1  0.50602702  0.66218833  0.49757360  1
  Ag  Ag44  1  0.50676467  0.49909352  0.33587250  1
  Ag  Ag45  1  0.83902895  0.16561189  0.33521040  1
  Ag  Ag46  1  0.67262700  0.82376593  0.50107159  1
  Ag  Ag47  1  0.33476385  0.83709954  0.84188576  1
  Ag  Ag48  1  0.67130026  0.49814058  0.17135512  1
  Ag  Ag49  1  -0.00529733  0.65932818  0.33073144  1
  Ag  Ag50  1  0.67604178  0.66098597  0.33732163  1
  Ag  Ag51  1  0.01181301  0.17869094  0.16892935  1
  Ag  Ag52  1  0.82858338  0.66766849  0.49323692  1
  Ag  Ag53  1  0.33011485  0.68395211  -0.00339331  1
  Sb  Sb54  1  0.00969029  -0.00489188  -0.00000180  1
  Sb  Sb55  1  -0.00137168  0.17500331  0.49491907  1
  Sb  Sb56  1  0.50390539  -0.00538653  0.50595453  1
  Sb  Sb57  1  0.83362462  0.17207266  0.00195459  1
  Sb  Sb58  1  0.50273445  0.83433768  0.67457323  1
  Sb  Sb59  1  0.66789450  0.00030923  0.33361872  1
  Sb  Sb60  1  0.49317772  0.00627245  0.15930203  1
  Sb  Sb61  1  0.66494979  0.66088150  0.00222720  1
  Sb  Sb62  1  0.83322460  0.82821554  -0.00111636  1
  Sb  Sb63  1  0.49725199  0.66268328  0.83245866  1
  Sb  Sb64  1  0.16226437  0.82908123  0.32881198  1
  Sb  Sb65  1  0.66016739  0.00514596  -0.00247720  1
  Sb  Sb66  1  0.16994696  0.66378367  0.83336335  1
  Sb  Sb67  1  0.33163339  0.00137411  0.32596831  1
  Sb  Sb68  1  0.83277349  0.66766485  0.83159861  1
  Sb  Sb69  1  0.83729144  0.33978959  0.49667301  1
  Sb  Sb70  1  0.49607917  0.33991285  0.50027499  1
  Sb  Sb71  1  0.32707394  0.33607733  0.32711698  1
  Sb  Sb72  1  0.83434964  0.50233690  0.32951273  1
  Sb  Sb73  1  0.00414674  0.16420609  0.83820929  1
  Sb  Sb74  1  0.49507554  0.49782177  0.66399592  1
  Sb  Sb75  1  0.00031616  0.00205622  0.33240391  1
  Sb  Sb76  1  0.33798101  0.82342697  0.50307275  1
  Sb  Sb77  1  0.16750903  0.17497204  0.67098522  1
  Sb  Sb78  1  0.16399341  0.00052837  0.49995617  1
  Sb  Sb79  1  0.33242186  0.49712397  0.16430330  1
  Sb  Sb80  1  0.50157042  0.66001083  0.16826674  1
  Sb  Sb81  1  -0.00594173  0.82389614  0.50278852  1
  Sb  Sb82  1  0.16705684  0.49805045  0.00250422  1
  Sb  Sb83  1  0.83985606  -0.00389544  0.17115837  1
  Sb  Sb84  1  0.16376652  0.66120395  0.16826110  1
  Sb  Sb85  1  0.50037668  0.49546186  0.00177638  1
  Sb  Sb86  1  0.66396602  0.82694895  0.16524867  1
  Sb  Sb87  1  0.66543336  0.17618151  0.16248959  1
  Sb  Sb88  1  0.16403430  0.82730698  0.67343071  1
  Sb  Sb89  1  0.32854131  0.33859191  0.67619095  1
  Sb  Sb90  1  0.33127688  0.66272124  0.33115066  1
  Sb  Sb91  1  0.00420988  0.50199911  0.83547770  1
  Sb  Sb92  1  0.83362755  0.33276742  0.83302944  1
  Sb  Sb93  1  0.49923015  0.17658803  0.32848484  1
  Sb  Sb94  1  0.50422971  0.82625766  0.33000933  1
  Sb  Sb95  1  0.83178462  -0.00147288  0.83070765  1
  Sb  Sb96  1  0.66753569  0.00012682  0.66844141  1
  Sb  Sb97  1  -0.00076830  0.00473685  0.66768147  1
  Sb  Sb98  1  0.00309870  0.66207244  0.66491662  1
  Sb  Sb99  1  0.83630374  0.50129618  0.66782645  1
  Sb  Sb100  1  0.00417361  0.33703759  0.00279741  1
  Sb  Sb101  1  0.33229068  0.17549382  0.50235863  1
  Sb  Sb102  1  0.00424301  0.82870727  0.16353432  1
  Sb  Sb103  1  0.66877722  0.17049046  0.50304942  1
  Sb  Sb104  1  0.66865988  0.33480035  0.66709593  1
  Sb  Sb105  1  0.66322349  0.66532738  0.66035618  1
  Sb  Sb106  1  0.33295448  -0.00311541  0.67656642  1
  Sb  Sb107  1  0.83550121  0.33964339  0.16937498  1
  Te  Te108  1  0.16729017  0.17062282  0.16596987  1
  Te  Te109  1  0.16665361  0.16733136  0.49867423  1
  Te  Te110  1  0.16846178  0.16773292  0.83536336  1
  Te  Te111  1  0.16422226  0.49404639  0.17067555  1
  Te  Te112  1  0.16424315  0.49969784  0.49717721  1
  Te  Te113  1  0.17083701  0.49444868  0.83493847  1
  Te  Te114  1  0.17076041  0.83012397  0.16265664  1
  Te  Te115  1  0.16718966  0.83251431  0.49992860  1
  Te  Te116  1  0.17006420  0.83183493  0.83649205  1
  Te  Te117  1  0.49707390  0.17330259  0.16092668  1
  Te  Te118  1  0.50036333  0.16461678  0.50073605  1
  Te  Te119  1  0.49895186  0.17025196  0.83732537  1
  Te  Te120  1  0.50166725  0.49468700  0.17145227  1
  Te  Te121  1  0.50886040  0.50297173  0.49758758  1
  Te  Te122  1  0.49768565  0.49569014  0.83195791  1
  Te  Te123  1  0.49488336  0.83521741  0.16219827  1
  Te  Te124  1  0.50718414  0.82795708  0.50049917  1
  Te  Te125  1  0.49894432  0.82918270  0.83634294  1
  Te  Te126  1  0.83412044  0.16310260  0.17083040  1
  Te  Te127  1  0.83261820  0.16639257  0.50111006  1
  Te  Te128  1  0.83502214  0.16441803  0.82959316  1
  Te  Te129  1  0.83439692  0.50392215  0.16259879  1
  Te  Te130  1  0.82670217  0.50611821  0.50534466  1
  Te  Te131  1  0.83200623  0.50053473  0.83775969  1
  Te  Te132  1  0.83336266  0.82794309  0.17114584  1
  Te  Te133  1  0.83244770  0.83016814  0.49943382  1
  Te  Te134  1  0.82551047  0.83443965  0.83035631  1
  Te  Te135  1  0.16901384  -0.00051436  -0.00180405  1
  Te  Te136  1  0.16660083  0.00085913  0.33092368  1
  Te  Te137  1  0.16611116  0.00003449  0.67027288  1
  Te  Te138  1  0.16863920  0.33091992  0.00141468  1
  Te  Te139  1  0.16603393  0.33561757  0.33154705  1
  Te  Te140  1  0.16350254  0.33748753  0.66492374  1
  Te  Te141  1  0.16755015  0.66888894  0.00071938  1
  Te  Te142  1  0.16113615  0.66261341  0.33648864  1
  Te  Te143  1  0.17035963  0.66067916  0.66195124  1
  Te  Te144  1  0.49546756  0.00004452  -0.00376160  1
  Te  Te145  1  0.50021905  0.00055895  0.33521267  1
  Te  Te146  1  0.49975601  0.00655077  0.67358157  1
  Te  Te147  1  0.49858363  0.33418439  -0.00093711  1
  Te  Te148  1  0.50479516  0.33880140  0.33274888  1
  Te  Te149  1  0.50022303  0.32882734  0.66869581  1
  Te  Te150  1  0.49516231  0.67127689  0.00122342  1
  Te  Te151  1  0.50262608  0.66118726  0.33612915  1
  Te  Te152  1  0.49298388  0.66678292  0.65922434  1
  Te  Te153  1  0.83482335  0.00001453  0.00109070  1
  Te  Te154  1  0.83322967  0.00314783  0.33823529  1
  Te  Te155  1  0.83382136  0.00007582  0.66159087  1
  Te  Te156  1  0.82887832  0.33896038  0.00033772  1
  Te  Te157  1  0.83566845  0.32558411  0.33406331  1
  Te  Te158  1  0.83969725  0.32945072  0.66506665  1
  Te  Te159  1  0.83397607  0.66248253  0.00130116  1
  Te  Te160  1  0.83486825  0.66580844  0.33453810  1
  Te  Te161  1  0.83487759  0.67079893  0.66284241  1
  Te  Te162  1  0.00140934  0.16741274  0.00658377  1
  Te  Te163  1  0.00125434  0.16849934  0.32991295  1
  Te  Te164  1  -0.00323485  0.17229557  0.66716544  1
  Te  Te165  1  -0.00257307  0.50463572  0.00242119  1
  Te  Te166  1  -0.00214411  0.49985040  0.33226981  1
  Te  Te167  1  0.00434061  0.49528256  0.66826289  1
  Te  Te168  1  0.00067216  0.82616140  -0.00400602  1
  Te  Te169  1  -0.00575555  0.82953848  0.33266643  1
  Te  Te170  1  -0.00455723  0.83294434  0.67296883  1
  Te  Te171  1  0.33123066  0.16340601  -0.00360130  1
  Te  Te172  1  0.32882947  0.16793120  0.33331141  1
  Te  Te173  1  0.33607532  0.16601005  0.67005910  1
  Te  Te174  1  0.33369685  0.49884680  -0.00254372  1
  Te  Te175  1  0.33498065  0.50040843  0.33571195  1
  Te  Te176  1  0.32944640  0.50285134  0.66697391  1
  Te  Te177  1  0.33211428  0.83921232  -0.00277493  1
  Te  Te178  1  0.33353979  0.83255155  0.33077264  1
  Te  Te179  1  0.33350059  0.82585289  0.67133863  1
  Te  Te180  1  0.66673135  0.17261874  -0.00582118  1
  Te  Te181  1  0.66898163  0.17026506  0.33344479  1
  Te  Te182  1  0.66911154  0.16766675  0.67145349  1
  Te  Te183  1  0.66653395  0.49675230  -0.00358937  1
  Te  Te184  1  0.67037910  0.50072442  0.33144955  1
  Te  Te185  1  0.66697526  0.49980456  0.67807798  1
  Te  Te186  1  0.66426527  0.83298644  -0.00398300  1
  Te  Te187  1  0.67090600  0.82909982  0.33464889  1
  Te  Te188  1  0.67018262  0.83206612  0.66759851  1
  Te  Te189  1  0.00768413  0.00154273  0.16606524  1
  Te  Te190  1  -0.00541541  -0.00060791  0.50046619  1
  Te  Te191  1  0.00377973  -0.00692326  0.83373109  1
  Te  Te192  1  0.00155396  0.33652121  0.16880254  1
  Te  Te193  1  0.00349690  0.33947907  0.49651789  1
  Te  Te194  1  0.00571963  0.33300386  0.83369937  1
  Te  Te195  1  -0.00262371  0.66360278  0.16682913  1
  Te  Te196  1  0.00236950  0.66102139  0.49925736  1
  Te  Te197  1  0.00086433  0.67135085  0.83665154  1
  Te  Te198  1  0.32918019  0.00205754  0.16176305  1
  Te  Te199  1  0.33390397  -0.00265802  0.50136496  1
  Te  Te200  1  0.33369519  -0.00139665  0.83569100  1
  Te  Te201  1  0.33260643  0.33157534  0.16169538  1
  Te  Te202  1  0.32775068  0.34139795  0.50104791  1
  Te  Te203  1  0.33314664  0.33284507  0.83610160  1
  Te  Te204  1  0.33357535  0.66891396  0.16039133  1
  Te  Te205  1  0.32989570  0.66147461  0.49775335  1
  Te  Te206  1  0.33336479  0.66295423  0.83628954  1
  Te  Te207  1  0.66749756  -0.00093561  0.16609060  1
  Te  Te208  1  0.67152599  -0.00474518  0.49989057  1
  Te  Te209  1  0.66161814  -0.00355929  0.83452465  1
  Te  Te210  1  0.66795091  0.33880184  0.16683429  1
  Te  Te211  1  0.66571021  0.33866107  0.49572140  1
  Te  Te212  1  0.66720855  0.33306826  0.83383220  1
  Te  Te213  1  0.67004982  0.66016684  0.17066209  1
  Te  Te214  1  0.66763509  0.66571879  0.49877857  1
  Te  Te215  1  0.66517072  0.66723019  0.83283670  1
