# generated using pymatgen
data_AgSbTe2
_symmetry_space_group_name_H-M   'P 1'
_cell_length_a   18.34499011
_cell_length_b   18.35017422
_cell_length_c   18.34776039
_cell_angle_alpha   90.00021514
_cell_angle_beta   89.99652350
_cell_angle_gamma   90.00066389
_symmetry_Int_Tables_number   1
_chemical_formula_structural   AgSbTe2
_chemical_formula_sum   'Ag54 Sb54 Te108'
_cell_volume   6176.47563808
_cell_formula_units_Z   54
loop_
 _symmetry_equiv_pos_site_id
 _symmetry_equiv_pos_as_xyz
  1  'x, y, z'
loop_
 _atom_site_type_symbol
 _atom_site_label
 _atom_site_symmetry_multiplicity
 _atom_site_fract_x
 _atom_site_fract_y
 _atom_site_fract_z
 _atom_site_occupancy
  Ag  Ag0  1  0.16084799  -0.00872645  0.83554434  1
  Ag  Ag1  1  0.17000830  0.33279707  0.15980910  1
  Ag  Ag2  1  0.16994183  0.16920885  0.32927065  1
  Ag  Ag3  1  0.33175622  0.66687905  0.66791385  1
  Ag  Ag4  1  0.16251253  0.16910693  -0.00229515  1
  Ag  Ag5  1  0.16295254  0.67849034  0.83741947  1
  Ag  Ag6  1  0.00205617  0.83386495  0.83501594  1
  Ag  Ag7  1  0.32812714  0.17068516  0.83489943  1
  Ag  Ag8  1  0.16969079  0.16117991  0.67915280  1
  Ag  Ag9  1  0.66726447  0.48613414  0.16819574  1
  Ag  Ag10  1  0.66592313  0.83750363  0.49875119  1
  Ag  Ag11  1  0.50868337  0.00139557  0.16644178  1
  Ag  Ag12  1  0.83342437  0.84389972  -0.00377468  1
  Ag  Ag13  1  0.51189364  0.83558939  -0.00043235  1
  Ag  Ag14  1  0.84392954  0.68143005  0.83664044  1
  Ag  Ag15  1  -0.01018703  -0.00694867  -0.00412265  1
  Ag  Ag16  1  0.65972639  0.33732120  0.32042575  1
  Ag  Ag17  1  0.67242229  -0.00351546  0.67472932  1
  Ag  Ag18  1  0.82909587  0.83717945  0.32634268  1
  Ag  Ag19  1  0.67625502  -0.00257827  0.00413255  1
  Ag  Ag20  1  0.66903845  0.83688239  0.15953510  1
  Ag  Ag21  1  0.84175105  -0.00217374  0.84371947  1
  Ag  Ag22  1  0.33555798  0.32998600  0.33628978  1
  Ag  Ag23  1  0.17629301  0.33261848  0.49664410  1
  Ag  Ag24  1  0.00742222  0.50877473  0.83845000  1
  Ag  Ag25  1  0.67362116  0.83645881  0.84167955  1
  Ag  Ag26  1  0.33796664  0.49003675  0.50486733  1
  Ag  Ag27  1  0.16513610  0.49631637  -0.00223066  1
  Ag  Ag28  1  0.49381216  0.33629670  0.49226314  1
  Ag  Ag29  1  0.50706910  0.32886931  0.16773405  1
  Ag  Ag30  1  0.33034410  0.33588692  0.66826910  1
  Ag  Ag31  1  0.83385681  0.33103125  0.84448335  1
  Ag  Ag32  1  0.81910201  0.32621831  0.15927893  1
  Ag  Ag33  1  0.16811723  0.83886247  0.67999567  1
  Ag  Ag34  1  -0.00059621  0.33204631  -0.00229636  1
  Ag  Ag35  1  0.33221546  0.00389526  0.33515296  1
  Ag  Ag36  1  0.65869243  0.50300913  0.49578883  1
  Ag  Ag37  1  0.33474152  0.83246509  0.50553510  1
  Ag  Ag38  1  0.16319183  0.83302020  -0.00789731  1
  Ag  Ag39  1  0.67838283  0.32715693  0.00980327  1
  Ag  Ag40  1  0.32690990  0.49814287  0.83036228  1
  Ag  Ag41  1  -0.00202714  -0.00420020  0.67790914  1
  Ag  Ag42  1  0.50043260  0.67398913  0.49991036  1
  Ag  Ag43  1  0.16774398  0.66548222  0.15482930  1
  Ag  Ag44  1  -0.00153980  0.83553947  0.50750740  1
  Ag  Ag45  1  0.82589406  -0.00477995  0.50091509  1
  Ag  Ag46  1  0.31726753  0.83236955  0.83106081  1
  Ag  Ag47  1  0.83711789  0.15683349  0.00042466  1
  Ag  Ag48  1  0.66713129  0.66945378  0.33366234  1
  Ag  Ag49  1  0.00431205  0.67475959  -0.00495666  1
  Ag  Ag50  1  0.66859794  0.17103415  0.16314499  1
  Ag  Ag51  1  0.82593356  0.00002727  0.15410562  1
  Ag  Ag52  1  0.50286505  -0.00713874  0.49623648  1
  Ag  Ag53  1  0.32679348  0.33230732  -0.00045272  1
  Sb  Sb54  1  0.16548647  0.00089427  0.15859621  1
  Sb  Sb55  1  0.16795946  0.00228332  0.50516985  1
  Sb  Sb56  1  0.49600432  0.50181556  0.00103016  1
  Sb  Sb57  1  0.66231470  0.32768036  0.66629545  1
  Sb  Sb58  1  0.82889837  0.32895322  0.49648299  1
  Sb  Sb59  1  0.33301158  0.00164881  0.00042032  1
  Sb  Sb60  1  0.50091794  0.66727854  0.17009221  1
  Sb  Sb61  1  0.33119988  0.16917575  0.50253741  1
  Sb  Sb62  1  0.32505012  0.66492417  -0.00680618  1
  Sb  Sb63  1  0.83462011  0.16118209  0.32639482  1
  Sb  Sb64  1  0.33186359  -0.00059023  0.66503580  1
  Sb  Sb65  1  0.82867306  0.50373326  0.33168590  1
  Sb  Sb66  1  0.83762034  0.83630417  0.67320176  1
  Sb  Sb67  1  0.49926079  0.33326732  0.83772231  1
  Sb  Sb68  1  0.50125721  0.16387252  0.00218922  1
  Sb  Sb69  1  0.49983478  -0.00314036  0.83532759  1
  Sb  Sb70  1  0.50541233  0.83576737  0.33322210  1
  Sb  Sb71  1  0.33566295  0.49562993  0.16555642  1
  Sb  Sb72  1  0.67214286  0.67010522  0.00347323  1
  Sb  Sb73  1  -0.00197287  0.49810350  0.15807568  1
  Sb  Sb74  1  0.49549589  0.67085509  0.83106481  1
  Sb  Sb75  1  0.83822271  0.49690344  -0.00064230  1
  Sb  Sb76  1  0.49492732  0.16390011  0.66613378  1
  Sb  Sb77  1  0.66621317  0.16069932  0.83960777  1
  Sb  Sb78  1  0.66759989  0.50450796  0.83585889  1
  Sb  Sb79  1  0.16973405  0.49946053  0.67499683  1
  Sb  Sb80  1  0.00902975  0.32655336  0.67618417  1
  Sb  Sb81  1  0.00634447  0.15974051  0.83763227  1
  Sb  Sb82  1  0.82761107  0.67530703  0.50368446  1
  Sb  Sb83  1  0.49525445  0.83549788  0.66698266  1
  Sb  Sb84  1  0.33663341  0.66601815  0.33949375  1
  Sb  Sb85  1  0.83306396  0.49842059  0.66874523  1
  Sb  Sb86  1  0.66321229  0.67523078  0.66355603  1
  Sb  Sb87  1  0.00202192  0.16157934  0.50179253  1
  Sb  Sb88  1  0.33615119  0.83422902  0.16367791  1
  Sb  Sb89  1  0.83474195  0.66920311  0.16012245  1
  Sb  Sb90  1  0.49646896  0.16664235  0.33173294  1
  Sb  Sb91  1  -0.00322908  0.16738755  0.16201282  1
  Sb  Sb92  1  0.49730863  0.49962956  0.66377372  1
  Sb  Sb93  1  0.00613267  0.67526399  0.67482272  1
  Sb  Sb94  1  0.00216797  -0.00210495  0.33075169  1
  Sb  Sb95  1  0.16438125  0.83646464  0.33262649  1
  Sb  Sb96  1  0.33508685  0.16899649  0.16320709  1
  Sb  Sb97  1  0.83828932  0.16165968  0.67583832  1
  Sb  Sb98  1  -0.00422719  0.83441534  0.15768831  1
  Sb  Sb99  1  0.16855675  0.49482074  0.32739799  1
  Sb  Sb100  1  0.66429081  -0.00112807  0.32658565  1
  Sb  Sb101  1  0.66546950  0.16276886  0.49314090  1
  Sb  Sb102  1  -0.00403285  0.67118899  0.32800286  1
  Sb  Sb103  1  0.00334546  0.50413013  0.50842539  1
  Sb  Sb104  1  0.00107304  0.33292378  0.32752793  1
  Sb  Sb105  1  0.17259526  0.66487955  0.50344748  1
  Sb  Sb106  1  0.50083879  0.49648494  0.33452038  1
  Sb  Sb107  1  0.16581643  0.33269118  0.83915202  1
  Te  Te108  1  0.16694730  0.16883830  0.16202393  1
  Te  Te109  1  0.16549739  0.17142299  0.49723932  1
  Te  Te110  1  0.17100127  0.16680215  0.83611905  1
  Te  Te111  1  0.16674282  0.49993846  0.16058723  1
  Te  Te112  1  0.16953029  0.49624335  0.50040440  1
  Te  Te113  1  0.16758012  0.49946802  0.83785121  1
  Te  Te114  1  0.16677791  0.83122334  0.16340492  1
  Te  Te115  1  0.17051807  0.83320700  0.49854380  1
  Te  Te116  1  0.16229655  0.83472726  0.83512546  1
  Te  Te117  1  0.50565723  0.16532036  0.16647320  1
  Te  Te118  1  0.49974334  0.16734316  0.49941858  1
  Te  Te119  1  0.48832618  0.16541524  0.83347558  1
  Te  Te120  1  0.50612466  0.49648803  0.16594989  1
  Te  Te121  1  0.49856244  0.49559823  0.49960305  1
  Te  Te122  1  0.49235264  0.50205887  0.83364453  1
  Te  Te123  1  0.50352336  0.83516432  0.16267114  1
  Te  Te124  1  0.49802218  0.83376672  0.49984100  1
  Te  Te125  1  0.51053536  0.83334159  0.83853664  1
  Te  Te126  1  0.83041009  0.16565989  0.16214272  1
  Te  Te127  1  0.83400460  0.15942306  0.49951422  1
  Te  Te128  1  0.83202262  0.16579312  0.84040739  1
  Te  Te129  1  0.82759353  0.49676625  0.16690969  1
  Te  Te130  1  0.83083394  0.50020055  0.50033084  1
  Te  Te131  1  0.83316117  0.49344632  0.83252653  1
  Te  Te132  1  0.83094688  0.83447135  0.16494036  1
  Te  Te133  1  0.83094569  0.83581156  0.50460767  1
  Te  Te134  1  0.83406856  0.83814612  0.83468581  1
  Te  Te135  1  0.16635060  0.00243924  -0.00319998  1
  Te  Te136  1  0.17096436  0.00491564  0.33008994  1
  Te  Te137  1  0.16552889  0.00001671  0.66983066  1
  Te  Te138  1  0.16690709  0.33147518  -0.00022989  1
  Te  Te139  1  0.16732412  0.33078428  0.33392929  1
  Te  Te140  1  0.17107889  0.33045210  0.66227865  1
  Te  Te141  1  0.16523283  0.66842002  -0.00285291  1
  Te  Te142  1  0.16591628  0.66620513  0.32965515  1
  Te  Te143  1  0.17200491  0.67078288  0.67099271  1
  Te  Te144  1  0.50127214  -0.00393967  0.00399655  1
  Te  Te145  1  0.49418482  0.00082548  0.33331805  1
  Te  Te146  1  0.50732292  0.00065901  0.65957820  1
  Te  Te147  1  0.49755156  0.33347064  0.00458479  1
  Te  Te148  1  0.49873339  0.33141915  0.33120912  1
  Te  Te149  1  0.49357688  0.33102986  0.66260434  1
  Te  Te150  1  0.49886846  0.67417566  0.00132042  1
  Te  Te151  1  0.50561067  0.66763194  0.33875625  1
  Te  Te152  1  0.49361445  0.66769380  0.65994980  1
  Te  Te153  1  0.83173510  0.00009867  -0.00115371  1
  Te  Te154  1  0.83498129  -0.00355904  0.33870188  1
  Te  Te155  1  0.83360713  0.00109850  0.66208270  1
  Te  Te156  1  0.83422488  0.33633959  0.00151242  1
  Te  Te157  1  0.83203097  0.33115845  0.32683926  1
  Te  Te158  1  0.83356396  0.32951862  0.66786899  1
  Te  Te159  1  0.83956112  0.66745757  -0.00494524  1
  Te  Te160  1  0.82801022  0.67457587  0.33239192  1
  Te  Te161  1  0.83277306  0.66567772  0.67664178  1
  Te  Te162  1  -0.00050726  0.17112839  -0.00024696  1
  Te  Te163  1  0.00836025  0.16648267  0.33343851  1
  Te  Te164  1  0.00870360  0.15734012  0.66767192  1
  Te  Te165  1  0.00491466  0.49723464  -0.00444489  1
  Te  Te166  1  -0.00154589  0.50236667  0.33697553  1
  Te  Te167  1  0.00099728  0.49992129  0.67658811  1
  Te  Te168  1  0.00035253  0.83418807  -0.00270633  1
  Te  Te169  1  -0.00662064  0.83354174  0.34136155  1
  Te  Te170  1  0.00547831  0.83786648  0.66748085  1
  Te  Te171  1  0.33089605  0.16997915  -0.00372647  1
  Te  Te172  1  0.32888949  0.16934877  0.33209472  1
  Te  Te173  1  0.32847676  0.16949758  0.67212870  1
  Te  Te174  1  0.32902109  0.49571610  -0.00233291  1
  Te  Te175  1  0.33237732  0.49492104  0.34112310  1
  Te  Te176  1  0.33237432  0.49808164  0.66564099  1
  Te  Te177  1  0.32496562  0.83315523  -0.00362132  1
  Te  Te178  1  0.33309247  0.83448453  0.33643843  1
  Te  Te179  1  0.32978259  0.83362644  0.66728228  1
  Te  Te180  1  0.66793365  0.16694806  0.00258611  1
  Te  Te181  1  0.66874515  0.17522482  0.32632646  1
  Te  Te182  1  0.66710039  0.15861749  0.66671204  1
  Te  Te183  1  0.66400181  0.49859026  0.00228478  1
  Te  Te184  1  0.66692585  0.49824682  0.33417696  1
  Te  Te185  1  0.66570264  0.49938048  0.66191684  1
  Te  Te186  1  0.67077399  0.83270336  0.00035678  1
  Te  Te187  1  0.66967182  0.83340491  0.33974789  1
  Te  Te188  1  0.66407792  0.83869055  0.65992829  1
  Te  Te189  1  -0.00671462  -0.00004035  0.16054025  1
  Te  Te190  1  0.00000378  -0.00559363  0.49893952  1
  Te  Te191  1  0.00063005  -0.00182683  0.83622420  1
  Te  Te192  1  0.00905105  0.33446560  0.16032041  1
  Te  Te193  1  -0.00049000  0.33557388  0.50201031  1
  Te  Te194  1  -0.00492014  0.33421934  0.83714620  1
  Te  Te195  1  0.00529211  0.66572600  0.16011114  1
  Te  Te196  1  -0.00038593  0.67192594  0.50129829  1
  Te  Te197  1  0.00220058  0.66872993  0.83551142  1
  Te  Te198  1  0.33694403  0.00065695  0.17258141  1
  Te  Te199  1  0.33600640  -0.00177462  0.49770147  1
  Te  Te200  1  0.33202269  -0.00768939  0.83214211  1
  Te  Te201  1  0.32948798  0.33389561  0.16698609  1
  Te  Te202  1  0.33450913  0.33140813  0.49779244  1
  Te  Te203  1  0.33509070  0.33618901  0.83419873  1
  Te  Te204  1  0.33021801  0.66470669  0.16975271  1
  Te  Te205  1  0.33703696  0.67035259  0.50318543  1
  Te  Te206  1  0.33032764  0.66995795  0.82873139  1
  Te  Te207  1  0.66680523  -0.00395528  0.16633345  1
  Te  Te208  1  0.66426447  -0.00097493  0.49255068  1
  Te  Te209  1  0.66697155  -0.00255581  0.83581079  1
  Te  Te210  1  0.66346923  0.33149988  0.16463267  1
  Te  Te211  1  0.66325845  0.33536236  0.50015687  1
  Te  Te212  1  0.66857251  0.33394552  0.83411977  1
  Te  Te213  1  0.66662635  0.67556399  0.17179704  1
  Te  Te214  1  0.66369875  0.66533559  0.49814611  1
  Te  Te215  1  0.66754324  0.67081603  0.83233400  1
