# generated using pymatgen
data_AgSbTe2
_symmetry_space_group_name_H-M   'P 1'
_cell_length_a   18.33042668
_cell_length_b   18.33517872
_cell_length_c   18.33452748
_cell_angle_alpha   90.00354921
_cell_angle_beta   89.99901267
_cell_angle_gamma   89.99667522
_symmetry_Int_Tables_number   1
_chemical_formula_structural   AgSbTe2
_chemical_formula_sum   'Ag54 Sb54 Te108'
_cell_volume   6162.08155784
_cell_formula_units_Z   54
loop_
 _symmetry_equiv_pos_site_id
 _symmetry_equiv_pos_as_xyz
  1  'x, y, z'
loop_
 _atom_site_type_symbol
 _atom_site_label
 _atom_site_symmetry_multiplicity
 _atom_site_fract_x
 _atom_site_fract_y
 _atom_site_fract_z
 _atom_site_occupancy
  Ag  Ag0  1  0.83103569  0.66645543  0.15279482  1
  Ag  Ag1  1  0.82717545  0.34327399  0.83181030  1
  Ag  Ag2  1  -0.01509013  0.66697002  -0.00294623  1
  Ag  Ag3  1  0.34406659  0.00611786  0.00222400  1
  Ag  Ag4  1  0.34014039  0.33190133  0.33363044  1
  Ag  Ag5  1  0.66376085  0.33604316  0.00129746  1
  Ag  Ag6  1  0.49949602  0.17516929  0.32527385  1
  Ag  Ag7  1  0.16525798  0.50355202  0.66674247  1
  Ag  Ag8  1  0.66136510  0.16679956  0.15869884  1
  Ag  Ag9  1  0.82932132  0.49997316  0.67096328  1
  Ag  Ag10  1  0.49752902  0.33058790  0.16700361  1
  Ag  Ag11  1  0.51141620  0.66951685  0.83011360  1
  Ag  Ag12  1  0.67076944  0.66523540  -0.01031909  1
  Ag  Ag13  1  0.00275941  0.16351143  0.16577285  1
  Ag  Ag14  1  0.82233554  0.50873246  -0.00845644  1
  Ag  Ag15  1  0.17196160  0.66122611  0.50521802  1
  Ag  Ag16  1  0.66582214  -0.00810537  0.67372218  1
  Ag  Ag17  1  0.50283878  0.82964239  0.34071248  1
  Ag  Ag18  1  0.66610224  0.16575648  0.84014819  1
  Ag  Ag19  1  0.66242150  0.82610337  0.50468832  1
  Ag  Ag20  1  0.34522478  0.33029530  0.00491532  1
  Ag  Ag21  1  0.50321907  0.17467146  0.00501869  1
  Ag  Ag22  1  0.65740092  0.33379417  0.32891297  1
  Ag  Ag23  1  0.66608071  0.83693943  0.15386761  1
  Ag  Ag24  1  0.33287726  0.33426184  0.65282852  1
  Ag  Ag25  1  0.66606232  -0.00140490  -0.00634452  1
  Ag  Ag26  1  0.82981302  0.17625444  0.66614507  1
  Ag  Ag27  1  -0.00067994  0.66920742  0.33700794  1
  Ag  Ag28  1  0.66235152  0.50419116  0.50568733  1
  Ag  Ag29  1  0.16399842  0.00638200  0.16626391  1
  Ag  Ag30  1  0.50160714  0.66815463  0.50268967  1
  Ag  Ag31  1  0.33466394  0.17704750  0.49384463  1
  Ag  Ag32  1  0.33823589  0.49481201  0.50182179  1
  Ag  Ag33  1  -0.00989827  0.66498751  0.67032670  1
  Ag  Ag34  1  0.16429763  0.66325802  0.82890779  1
  Ag  Ag35  1  0.66839711  0.66953254  0.67644122  1
  Ag  Ag36  1  0.82359108  0.66221869  0.83976385  1
  Ag  Ag37  1  0.50579781  -0.00409170  0.83701720  1
  Ag  Ag38  1  -0.00387923  -0.00167001  0.00497792  1
  Ag  Ag39  1  0.34039836  0.17201414  0.16798927  1
  Ag  Ag40  1  0.17823758  0.33793654  0.49715648  1
  Ag  Ag41  1  0.34303682  0.83141949  0.49986564  1
  Ag  Ag42  1  0.82908744  0.00189136  0.50214407  1
  Ag  Ag43  1  0.50165009  0.49587599  0.33253724  1
  Ag  Ag44  1  0.16938844  0.50041736  -0.00549202  1
  Ag  Ag45  1  0.82692294  0.82254316  0.00015960  1
  Ag  Ag46  1  0.66821526  0.50929523  0.83406450  1
  Ag  Ag47  1  0.82980808  0.33314686  0.50480695  1
  Ag  Ag48  1  0.50457454  0.82967937  0.66097411  1
  Ag  Ag49  1  0.66487893  0.82492115  0.83464107  1
  Ag  Ag50  1  0.50515892  0.49485184  0.00187851  1
  Ag  Ag51  1  0.16691610  -0.00215078  0.49756649  1
  Ag  Ag52  1  0.17807937  0.32711048  0.16776969  1
  Ag  Ag53  1  0.00083419  -0.00214446  0.32785218  1
  Sb  Sb54  1  -0.00890418  0.82904489  0.83474901  1
  Sb  Sb55  1  0.16303326  0.17211895  0.66338919  1
  Sb  Sb56  1  -0.00352334  0.33428547  0.00157203  1
  Sb  Sb57  1  0.33207328  0.00585652  0.33228060  1
  Sb  Sb58  1  0.16288048  0.82992665  0.00011639  1
  Sb  Sb59  1  -0.00950911  0.50299423  0.83423977  1
  Sb  Sb60  1  0.82816140  0.33588820  0.16501726  1
  Sb  Sb61  1  -0.00454827  0.83590590  0.16605869  1
  Sb  Sb62  1  0.15982066  0.66502384  0.16637055  1
  Sb  Sb63  1  0.82369779  0.16775358  -0.00289863  1
  Sb  Sb64  1  -0.00871561  0.16381398  0.83866752  1
  Sb  Sb65  1  0.50523215  0.16492031  0.66777024  1
  Sb  Sb66  1  0.50580283  0.66343929  0.16597801  1
  Sb  Sb67  1  0.34264058  0.83210013  0.82987200  1
  Sb  Sb68  1  0.17216230  0.16694045  0.33121937  1
  Sb  Sb69  1  0.50362186  0.50329011  0.66625435  1
  Sb  Sb70  1  0.50096056  -0.00563273  0.50225744  1
  Sb  Sb71  1  0.66837003  0.66301609  0.33340655  1
  Sb  Sb72  1  0.33258234  0.66136870  0.33727557  1
  Sb  Sb73  1  0.50747018  0.33610724  0.83953517  1
  Sb  Sb74  1  0.49994206  0.33919031  0.49433508  1
  Sb  Sb75  1  0.66234173  0.16865762  0.49944171  1
  Sb  Sb76  1  0.16394974  0.34070837  0.83329887  1
  Sb  Sb77  1  0.49961932  0.00817456  0.16153097  1
  Sb  Sb78  1  0.17136907  0.49855748  0.33657323  1
  Sb  Sb79  1  0.17198661  0.83407995  0.33493513  1
  Sb  Sb80  1  0.82705392  0.83277533  0.33112508  1
  Sb  Sb81  1  -0.00113229  0.33926032  0.66500303  1
  Sb  Sb82  1  0.82918867  0.66496016  0.50454173  1
  Sb  Sb83  1  0.00069304  0.33235006  0.33208194  1
  Sb  Sb84  1  -0.00294244  0.83195181  0.49953254  1
  Sb  Sb85  1  0.50736644  0.83312189  -0.00042224  1
  Sb  Sb86  1  0.66609136  0.49901102  0.16036495  1
  Sb  Sb87  1  0.82678474  0.50014371  0.33554397  1
  Sb  Sb88  1  -0.00667768  -0.00512093  0.66665244  1
  Sb  Sb89  1  0.33885607  0.66461602  -0.00107152  1
  Sb  Sb90  1  0.17241375  0.17099334  0.00212458  1
  Sb  Sb91  1  0.33465772  0.49243332  0.16802417  1
  Sb  Sb92  1  0.34097353  0.16848970  0.83612344  1
  Sb  Sb93  1  0.17091630  -0.00470418  0.83562252  1
  Sb  Sb94  1  -0.00026721  0.49723139  0.16435168  1
  Sb  Sb95  1  0.83467584  -0.00131888  0.16698205  1
  Sb  Sb96  1  0.66743432  0.00218034  0.33270869  1
  Sb  Sb97  1  0.17391692  0.82644875  0.66411954  1
  Sb  Sb98  1  0.82801965  0.16706287  0.33604757  1
  Sb  Sb99  1  0.34159560  0.84136343  0.16979413  1
  Sb  Sb100  1  0.00049282  0.50171161  0.50060200  1
  Sb  Sb101  1  0.82394391  -0.00278804  0.83221479  1
  Sb  Sb102  1  0.66489295  0.33597305  0.66797367  1
  Sb  Sb103  1  0.00243641  0.16478562  0.49490556  1
  Sb  Sb104  1  0.82401550  0.82879190  0.67047468  1
  Sb  Sb105  1  0.33805528  0.66112729  0.66395703  1
  Sb  Sb106  1  0.33981053  0.49869044  0.83031435  1
  Sb  Sb107  1  0.33794955  0.00446880  0.66640757  1
  Te  Te108  1  0.16818137  0.16669013  0.16564488  1
  Te  Te109  1  0.17107080  0.17045823  0.49965959  1
  Te  Te110  1  0.16548985  0.16608356  0.83219691  1
  Te  Te111  1  0.16740960  0.49512973  0.16385096  1
  Te  Te112  1  0.16786707  0.49944974  0.50171649  1
  Te  Te113  1  0.16876617  0.50282407  0.83148496  1
  Te  Te114  1  0.16966152  0.84079918  0.16704051  1
  Te  Te115  1  0.16865587  0.83322618  0.49962716  1
  Te  Te116  1  0.16888116  0.82629235  0.83216035  1
  Te  Te117  1  0.50029475  0.16933456  0.16563047  1
  Te  Te118  1  0.49417054  0.16445858  0.49927549  1
  Te  Te119  1  0.50622883  0.16316965  0.83608176  1
  Te  Te120  1  0.50006718  0.49552540  0.16723591  1
  Te  Te121  1  0.49987109  0.50478995  0.50038277  1
  Te  Te122  1  0.50627441  0.50514510  0.83615313  1
  Te  Te123  1  0.50691418  0.83240338  0.17251930  1
  Te  Te124  1  0.50167684  0.83193663  0.50066780  1
  Te  Te125  1  0.50534984  0.83059386  0.83242569  1
  Te  Te126  1  0.82836671  0.16777168  0.16723375  1
  Te  Te127  1  0.83377492  0.16774515  0.50374712  1
  Te  Te128  1  0.82745873  0.16694768  0.82782840  1
  Te  Te129  1  0.83404207  0.50496652  0.16362596  1
  Te  Te130  1  0.82949271  0.49706690  0.50322322  1
  Te  Te131  1  0.82871625  0.50155637  0.83263394  1
  Te  Te132  1  0.82658509  0.83003096  0.16331362  1
  Te  Te133  1  0.82760835  0.83731264  0.50006610  1
  Te  Te134  1  0.82527888  0.82779725  0.83826036  1
  Te  Te135  1  0.16165450  -0.00112378  0.00065237  1
  Te  Te136  1  0.16271438  0.00013667  0.33510498  1
  Te  Te137  1  0.16484776  -0.00024459  0.66372125  1
  Te  Te138  1  0.16407220  0.33848278  0.00172702  1
  Te  Te139  1  0.16887792  0.33380694  0.33423281  1
  Te  Te140  1  0.16807541  0.33950294  0.66389501  1
  Te  Te141  1  0.17031439  0.66174052  -0.00010259  1
  Te  Te142  1  0.16009650  0.66666849  0.33571338  1
  Te  Te143  1  0.17063543  0.66252317  0.66442457  1
  Te  Te144  1  0.50344219  -0.00090997  -0.00207150  1
  Te  Te145  1  0.49976009  -0.00089260  0.33278929  1
  Te  Te146  1  0.50495885  -0.00314225  0.67193284  1
  Te  Te147  1  0.50315967  0.33398951  0.00142893  1
  Te  Te148  1  0.50025012  0.33390668  0.33206013  1
  Te  Te149  1  0.49316451  0.33268283  0.66874794  1
  Te  Te150  1  0.50450498  0.66165233  -0.00228777  1
  Te  Te151  1  0.50008093  0.66398297  0.33533110  1
  Te  Te152  1  0.50410345  0.66813982  0.66652541  1
  Te  Te153  1  0.83184662  -0.00001718  -0.00033200  1
  Te  Te154  1  0.83898656  -0.00000457  0.33999109  1
  Te  Te155  1  0.83008704  -0.00093859  0.66275350  1
  Te  Te156  1  0.82888896  0.33768055  -0.00222875  1
  Te  Te157  1  0.83092848  0.33383911  0.33742276  1
  Te  Te158  1  0.83255716  0.33702581  0.66576399  1
  Te  Te159  1  0.82985164  0.66569657  -0.00336446  1
  Te  Te160  1  0.84032462  0.66655377  0.33489253  1
  Te  Te161  1  0.83106803  0.66275612  0.66865077  1
  Te  Te162  1  0.00016583  0.16339729  0.00532059  1
  Te  Te163  1  -0.00134744  0.16176016  0.32728822  1
  Te  Te164  1  -0.00877770  0.16500345  0.66771779  1
  Te  Te165  1  0.00567656  0.50376250  0.00029279  1
  Te  Te166  1  -0.00123191  0.50616189  0.33227620  1
  Te  Te167  1  0.00092456  0.50657887  0.66709867  1
  Te  Te168  1  -0.00550464  0.83168623  0.00086578  1
  Te  Te169  1  0.00016685  0.83383899  0.33260017  1
  Te  Te170  1  0.00127697  0.82498896  0.66728671  1
  Te  Te171  1  0.33829091  0.16658356  0.00205373  1
  Te  Te172  1  0.33816725  0.17068487  0.33255758  1
  Te  Te173  1  0.33240359  0.17289007  0.66502251  1
  Te  Te174  1  0.33440383  0.49616074  -0.00024131  1
  Te  Te175  1  0.33866511  0.49459531  0.33902662  1
  Te  Te176  1  0.33062145  0.49458581  0.66298126  1
  Te  Te177  1  0.33314037  0.84051108  0.00022896  1
  Te  Te178  1  0.34067107  0.83352339  0.33824986  1
  Te  Te179  1  0.34167942  0.83599219  0.66128677  1
  Te  Te180  1  0.66411767  0.16631680  0.00022160  1
  Te  Te181  1  0.66066454  0.17044003  0.33120770  1
  Te  Te182  1  0.67043419  0.16517979  0.66668430  1
  Te  Te183  1  0.66564156  0.49950824  -0.00030238  1
  Te  Te184  1  0.66209459  0.49537662  0.33778208  1
  Te  Te185  1  0.66833794  0.50203718  0.66665064  1
  Te  Te186  1  0.66716465  0.83363537  -0.00255364  1
  Te  Te187  1  0.66192377  0.83411857  0.34113976  1
  Te  Te188  1  0.66469882  0.83192328  0.66703562  1
  Te  Te189  1  0.00135219  0.00186107  0.16611403  1
  Te  Te190  1  0.00418156  -0.00065467  0.49868223  1
  Te  Te191  1  0.00118326  -0.00317781  0.84051589  1
  Te  Te192  1  0.00330386  0.32543792  0.16803001  1
  Te  Te193  1  -0.00248816  0.33270839  0.49859604  1
  Te  Te194  1  -0.01042884  0.33113886  0.83276278  1
  Te  Te195  1  -0.00451432  0.66763653  0.16085725  1
  Te  Te196  1  0.00339468  0.66756761  0.50227741  1
  Te  Te197  1  0.00448510  0.66696778  0.83486230  1
  Te  Te198  1  0.32820122  0.00639519  0.16332192  1
  Te  Te199  1  0.32843484  -0.00247624  0.50082508  1
  Te  Te200  1  0.33958846  0.00014881  0.83858677  1
  Te  Te201  1  0.33520633  0.33116411  0.16540708  1
  Te  Te202  1  0.33600973  0.33457396  0.49588316  1
  Te  Te203  1  0.33244087  0.33286014  0.84379148  1
  Te  Te204  1  0.33101555  0.67050821  0.16820176  1
  Te  Te205  1  0.33368445  0.66759842  0.49952881  1
  Te  Te206  1  0.32690460  0.66669159  0.83213559  1
  Te  Te207  1  0.66725862  0.00076927  0.16437827  1
  Te  Te208  1  0.66875008  0.00020122  0.50138176  1
  Te  Te209  1  0.66573446  0.00270097  0.83296656  1
  Te  Te210  1  0.66460635  0.33164685  0.16603370  1
  Te  Te211  1  0.66873843  0.33575064  0.49954554  1
  Te  Te212  1  0.66942483  0.32880256  0.83507383  1
  Te  Te213  1  0.67084085  0.67065090  0.16609443  1
  Te  Te214  1  0.66379536  0.66547812  0.49819640  1
  Te  Te215  1  0.66645237  0.66515659  0.83266379  1
