# generated using pymatgen
data_AgSbTe2
_symmetry_space_group_name_H-M   'P 1'
_cell_length_a   18.34902213
_cell_length_b   18.34905401
_cell_length_c   18.33110405
_cell_angle_alpha   90.00003448
_cell_angle_beta   89.99642654
_cell_angle_gamma   89.99776027
_symmetry_Int_Tables_number   1
_chemical_formula_structural   AgSbTe2
_chemical_formula_sum   'Ag54 Sb54 Te108'
_cell_volume   6171.84804255
_cell_formula_units_Z   54
loop_
 _symmetry_equiv_pos_site_id
 _symmetry_equiv_pos_as_xyz
  1  'x, y, z'
loop_
 _atom_site_type_symbol
 _atom_site_label
 _atom_site_symmetry_multiplicity
 _atom_site_fract_x
 _atom_site_fract_y
 _atom_site_fract_z
 _atom_site_occupancy
  Ag  Ag0  1  0.32777989  0.49236173  0.50192963  1
  Ag  Ag1  1  0.17287928  0.49282674  0.33881316  1
  Ag  Ag2  1  0.17262710  0.65424391  0.15835405  1
  Ag  Ag3  1  0.49401708  0.83181205  0.00346788  1
  Ag  Ag4  1  0.83374765  0.16013760  0.00290763  1
  Ag  Ag5  1  0.49627249  0.65929210  0.48967679  1
  Ag  Ag6  1  0.00452432  0.66852954  0.66951226  1
  Ag  Ag7  1  0.83987712  0.33036150  0.49432536  1
  Ag  Ag8  1  0.01227892  0.33456425  0.33769755  1
  Ag  Ag9  1  0.00284109  0.83408091  0.50520735  1
  Ag  Ag10  1  -0.00545474  -0.01178412  0.66130691  1
  Ag  Ag11  1  0.33185368  0.34587215  0.65232249  1
  Ag  Ag12  1  0.16797942  0.82244528  0.00092665  1
  Ag  Ag13  1  0.48479241  0.33759665  0.48991781  1
  Ag  Ag14  1  0.32743806  0.33410088  0.33729204  1
  Ag  Ag15  1  0.66842977  0.50212999  0.84328738  1
  Ag  Ag16  1  0.84024456  0.66679697  0.83515657  1
  Ag  Ag17  1  0.83383145  0.33404272  0.17027036  1
  Ag  Ag18  1  0.15882740  0.66626237  0.84575995  1
  Ag  Ag19  1  0.66672769  0.16605597  0.49858478  1
  Ag  Ag20  1  0.16789478  0.51034675  0.00402810  1
  Ag  Ag21  1  0.00909987  0.49684433  0.50122402  1
  Ag  Ag22  1  0.83243278  0.50442903  -0.00198831  1
  Ag  Ag23  1  0.49837744  0.82119357  0.33185084  1
  Ag  Ag24  1  0.16366325  0.50256535  0.65562046  1
  Ag  Ag25  1  0.17064122  0.33242040  0.49091135  1
  Ag  Ag26  1  0.33036681  0.83036515  0.50051438  1
  Ag  Ag27  1  0.83703312  0.83026916  -0.00486235  1
  Ag  Ag28  1  0.16859645  0.16780012  0.00514986  1
  Ag  Ag29  1  0.49485291  0.17976958  0.33408213  1
  Ag  Ag30  1  0.65927564  0.49988580  0.16386863  1
  Ag  Ag31  1  0.49783665  0.15941057  0.00601711  1
  Ag  Ag32  1  0.17169330  0.18042592  0.33760855  1
  Ag  Ag33  1  0.50120240  -0.00067947  0.84032809  1
  Ag  Ag34  1  0.66282841  0.00073627  -0.00236135  1
  Ag  Ag35  1  0.83767657  0.50502025  0.66593857  1
  Ag  Ag36  1  0.49677195  0.34053453  0.17156354  1
  Ag  Ag37  1  0.84123394  0.00511124  0.50282681  1
  Ag  Ag38  1  0.00394234  0.17334369  0.49974983  1
  Ag  Ag39  1  0.01245615  0.66766791  -0.00935369  1
  Ag  Ag40  1  0.32943717  0.17929330  0.49817168  1
  Ag  Ag41  1  0.84045518  0.82814454  0.66959291  1
  Ag  Ag42  1  0.49582070  0.49740322  0.32933351  1
  Ag  Ag43  1  0.49894629  0.50412914  0.01027704  1
  Ag  Ag44  1  0.32525647  0.66385175  0.66479475  1
  Ag  Ag45  1  0.33953513  -0.00777299  -0.00116231  1
  Ag  Ag46  1  0.16169583  0.00915802  0.50098613  1
  Ag  Ag47  1  0.32464263  0.66741888  -0.00344270  1
  Ag  Ag48  1  0.16881035  0.33813300  0.17840538  1
  Ag  Ag49  1  0.49625001  0.65954145  0.16959749  1
  Ag  Ag50  1  0.65724685  0.66490022  0.33325505  1
  Ag  Ag51  1  0.67338790  -0.00096970  0.66749277  1
  Ag  Ag52  1  0.83207222  0.00503906  0.15759590  1
  Ag  Ag53  1  -0.00209982  0.82759110  0.82711474  1
  Sb  Sb54  1  0.66422271  0.66611175  0.00311298  1
  Sb  Sb55  1  0.49877433  0.33194121  0.83629780  1
  Sb  Sb56  1  0.66647570  0.33308060  0.00260128  1
  Sb  Sb57  1  0.49862668  0.00225742  0.50135587  1
  Sb  Sb58  1  0.83413145  0.34070479  0.83448323  1
  Sb  Sb59  1  0.66797812  0.66871977  0.66382352  1
  Sb  Sb60  1  0.66495884  0.49578619  0.49783318  1
  Sb  Sb61  1  0.33462824  0.83027109  0.16740475  1
  Sb  Sb62  1  0.33299777  0.33717469  0.00344616  1
  Sb  Sb63  1  0.66078505  0.33738036  0.33391020  1
  Sb  Sb64  1  0.83239141  0.66565898  0.50422931  1
  Sb  Sb65  1  -0.00043740  0.16838658  0.17096665  1
  Sb  Sb66  1  0.00308518  0.34008774  0.65745618  1
  Sb  Sb67  1  0.00068422  0.66171433  0.33605132  1
  Sb  Sb68  1  0.66489738  0.33197479  0.66164656  1
  Sb  Sb69  1  0.16853855  -0.00562001  0.83174274  1
  Sb  Sb70  1  0.33387032  0.16816537  0.17085301  1
  Sb  Sb71  1  0.83273531  0.66326566  0.15992915  1
  Sb  Sb72  1  0.17118244  0.82965435  0.33353802  1
  Sb  Sb73  1  0.83507646  0.16705038  0.66620600  1
  Sb  Sb74  1  0.16258301  0.00334824  0.16820586  1
  Sb  Sb75  1  0.83107961  0.83360887  0.33478073  1
  Sb  Sb76  1  0.00005555  0.83165801  0.16644270  1
  Sb  Sb77  1  0.82992904  -0.00561736  0.83142590  1
  Sb  Sb78  1  0.33464777  0.00391722  0.33205926  1
  Sb  Sb79  1  0.16676616  0.34041475  0.83402655  1
  Sb  Sb80  1  0.66573878  0.82862525  0.16414874  1
  Sb  Sb81  1  0.00180361  0.49960129  0.16917337  1
  Sb  Sb82  1  0.66576617  0.17125069  0.16998633  1
  Sb  Sb83  1  0.33650628  0.66004674  0.33590830  1
  Sb  Sb84  1  0.66738048  0.83680188  0.50058917  1
  Sb  Sb85  1  0.83243209  0.49778008  0.33330504  1
  Sb  Sb86  1  0.50243013  0.83324819  0.66714769  1
  Sb  Sb87  1  0.33193558  -0.00351667  0.66578189  1
  Sb  Sb88  1  0.50010434  0.50116188  0.66461606  1
  Sb  Sb89  1  0.00007010  0.15825991  0.83004616  1
  Sb  Sb90  1  0.17119696  0.66133344  0.49844634  1
  Sb  Sb91  1  0.16110069  0.82636705  0.66747310  1
  Sb  Sb92  1  0.33460532  0.50102639  0.17232002  1
  Sb  Sb93  1  -0.00155499  0.50669465  0.82955490  1
  Sb  Sb94  1  0.33431838  0.50186861  0.82986831  1
  Sb  Sb95  1  0.49908894  0.66838206  0.83753640  1
  Sb  Sb96  1  0.50455612  0.00049346  0.16221539  1
  Sb  Sb97  1  0.33294015  0.16609163  0.83152546  1
  Sb  Sb98  1  0.67094333  0.82916452  0.83595422  1
  Sb  Sb99  1  0.49908645  0.16726480  0.66156175  1
  Sb  Sb100  1  0.83285615  0.16906143  0.33403360  1
  Sb  Sb101  1  -0.00014256  -0.00628975  -0.00431794  1
  Sb  Sb102  1  0.66659543  0.16776479  0.83247882  1
  Sb  Sb103  1  0.00054121  0.33866442  0.00541217  1
  Sb  Sb104  1  0.16613325  0.17317331  0.66028235  1
  Sb  Sb105  1  0.00035710  0.00572461  0.34220036  1
  Sb  Sb106  1  0.32950687  0.83099660  0.83316478  1
  Sb  Sb107  1  0.66499207  -0.00200662  0.33215516  1
  Te  Te108  1  0.16611503  0.17039067  0.16928847  1
  Te  Te109  1  0.16669372  0.17003164  0.49959590  1
  Te  Te110  1  0.16642989  0.16571226  0.84003569  1
  Te  Te111  1  0.16656910  0.49692747  0.16297985  1
  Te  Te112  1  0.16820394  0.49967740  0.49861522  1
  Te  Te113  1  0.16676998  0.50574475  0.84210873  1
  Te  Te114  1  0.16666162  0.83452733  0.16223935  1
  Te  Te115  1  0.16598152  0.83213819  0.49885536  1
  Te  Te116  1  0.16205806  0.82846899  0.83913243  1
  Te  Te117  1  0.50071807  0.17058847  0.16687804  1
  Te  Te118  1  0.49762962  0.16975149  0.49700452  1
  Te  Te119  1  0.50042165  0.16382990  0.84187842  1
  Te  Te120  1  0.49849393  0.49936103  0.16754120  1
  Te  Te121  1  0.49997661  0.49836817  0.49901583  1
  Te  Te122  1  0.50564721  0.50000107  0.83637994  1
  Te  Te123  1  0.50052092  0.82968998  0.16506937  1
  Te  Te124  1  0.49876821  0.83302304  0.49884717  1
  Te  Te125  1  0.50035104  0.83643237  0.83949321  1
  Te  Te126  1  0.83274627  0.16981164  0.16348893  1
  Te  Te127  1  0.83608529  0.16588472  0.50018006  1
  Te  Te128  1  0.83255213  0.16822386  0.84237800  1
  Te  Te129  1  0.83255479  0.49622623  0.16490930  1
  Te  Te130  1  0.83320050  0.49792953  0.50141002  1
  Te  Te131  1  0.83223148  0.50445784  0.83563136  1
  Te  Te132  1  0.83320134  0.83619239  0.16335130  1
  Te  Te133  1  0.83623365  0.83582740  0.50246016  1
  Te  Te134  1  0.83632487  0.82882636  0.83309227  1
  Te  Te135  1  0.16752752  0.00703712  0.00015099  1
  Te  Te136  1  0.16745294  0.00019693  0.33772670  1
  Te  Te137  1  0.16442032  -0.00006612  0.66273008  1
  Te  Te138  1  0.16688789  0.32717592  0.00132363  1
  Te  Te139  1  0.16789344  0.33587940  0.33432682  1
  Te  Te140  1  0.17024410  0.34088267  0.66623270  1
  Te  Te141  1  0.16814838  0.66645170  0.00196515  1
  Te  Te142  1  0.16740897  0.66152997  0.32351390  1
  Te  Te143  1  0.16596735  0.66228175  0.66382706  1
  Te  Te144  1  0.50019366  -0.00077166  0.00134777  1
  Te  Te145  1  0.50005078  -0.00022861  0.33076946  1
  Te  Te146  1  0.50214880  -0.00041500  0.67265938  1
  Te  Te147  1  0.49934969  0.33892894  0.00455163  1
  Te  Te148  1  0.49980448  0.33603995  0.33307934  1
  Te  Te149  1  0.49576849  0.33279382  0.66214607  1
  Te  Te150  1  0.49969702  0.66608218  0.00213312  1
  Te  Te151  1  0.49697438  0.66356172  0.33142591  1
  Te  Te152  1  0.49787496  0.66836880  0.66623595  1
  Te  Te153  1  0.83415136  -0.00147823  -0.00179629  1
  Te  Te154  1  0.83231311  0.00035185  0.33719708  1
  Te  Te155  1  0.83386005  0.00064275  0.66521127  1
  Te  Te156  1  0.83388341  0.33915976  0.00353432  1
  Te  Te157  1  0.83299546  0.33280498  0.33179636  1
  Te  Te158  1  0.83385211  0.33815089  0.66521952  1
  Te  Te159  1  0.83039028  0.66683796  -0.00276413  1
  Te  Te160  1  0.82904570  0.66738641  0.33083193  1
  Te  Te161  1  0.83368800  0.66654417  0.66905465  1
  Te  Te162  1  -0.00281545  0.16609307  -0.00125706  1
  Te  Te163  1  0.00360203  0.17201286  0.33905872  1
  Te  Te164  1  0.00027737  0.16217351  0.66161238  1
  Te  Te165  1  -0.00033025  0.50469586  -0.00054660  1
  Te  Te166  1  0.00200642  0.49613685  0.33899596  1
  Te  Te167  1  0.00010061  0.50473586  0.66327286  1
  Te  Te168  1  -0.00113096  0.82928511  0.00038528  1
  Te  Te169  1  0.00090960  0.83170203  0.34023672  1
  Te  Te170  1  -0.00051364  0.82933620  0.66535133  1
  Te  Te171  1  0.33585325  0.16929814  -0.00072426  1
  Te  Te172  1  0.33336074  0.16892886  0.33725604  1
  Te  Te173  1  0.33249110  0.16491533  0.66010302  1
  Te  Te174  1  0.33331767  0.50276045  -0.00309608  1
  Te  Te175  1  0.33410423  0.49652630  0.33937965  1
  Te  Te176  1  0.33332706  0.50415053  0.66386996  1
  Te  Te177  1  0.33314812  0.83139012  -0.00031947  1
  Te  Te178  1  0.33872636  0.83502725  0.33801529  1
  Te  Te179  1  0.33319207  0.82816520  0.66309137  1
  Te  Te180  1  0.66651050  0.16321678  0.00020265  1
  Te  Te181  1  0.66074993  0.16512973  0.33829018  1
  Te  Te182  1  0.66692935  0.16035425  0.66304338  1
  Te  Te183  1  0.66692556  0.49926193  0.00316145  1
  Te  Te184  1  0.66272986  0.50431867  0.32975933  1
  Te  Te185  1  0.67266026  0.50028800  0.66700854  1
  Te  Te186  1  0.66860638  0.83875865  -0.00017096  1
  Te  Te187  1  0.65986725  0.82810934  0.33288504  1
  Te  Te188  1  0.67368175  0.83865903  0.66809497  1
  Te  Te189  1  -0.00847118  -0.00011634  0.16796430  1
  Te  Te190  1  0.00098037  -0.00174083  0.50203123  1
  Te  Te191  1  0.00034624  -0.00893905  0.82475176  1
  Te  Te192  1  0.00080289  0.33361585  0.17275281  1
  Te  Te193  1  -0.00021579  0.33493552  0.49845536  1
  Te  Te194  1  0.00042980  0.32878535  0.83121713  1
  Te  Te195  1  0.00319699  0.66691667  0.16432538  1
  Te  Te196  1  -0.00042870  0.66539040  0.50306315  1
  Te  Te197  1  -0.00008550  0.66835041  0.83190462  1
  Te  Te198  1  0.33157451  -0.00037572  0.15812138  1
  Te  Te199  1  0.32987007  -0.00692303  0.50017467  1
  Te  Te200  1  0.33787659  -0.00082494  0.83787949  1
  Te  Te201  1  0.33246147  0.33361080  0.17126949  1
  Te  Te202  1  0.33053491  0.33504111  0.49732029  1
  Te  Te203  1  0.33382515  0.33262444  0.82071508  1
  Te  Te204  1  0.33410453  0.66663916  0.15934801  1
  Te  Te205  1  0.33656127  0.66935450  0.50133846  1
  Te  Te206  1  0.33074798  0.66693011  0.83164971  1
  Te  Te207  1  0.67297254  0.00068747  0.16224863  1
  Te  Te208  1  0.66776603  0.00409200  0.50117863  1
  Te  Te209  1  0.66311166  0.00056074  0.83449286  1
  Te  Te210  1  0.66855266  0.33877856  0.16760563  1
  Te  Te211  1  0.67882542  0.32711943  0.50018554  1
  Te  Te212  1  0.66572013  0.34053020  0.83078956  1
  Te  Te213  1  0.66343660  0.66111549  0.17062368  1
  Te  Te214  1  0.65992685  0.66711899  0.49579753  1
  Te  Te215  1  0.66935636  0.66193785  0.83170309  1
