# generated using pymatgen
data_AgSbTe2
_symmetry_space_group_name_H-M   'P 1'
_cell_length_a   18.33583617
_cell_length_b   18.33963353
_cell_length_c   18.33672099
_cell_angle_alpha   90.00256665
_cell_angle_beta   90.00141150
_cell_angle_gamma   89.99749880
_symmetry_Int_Tables_number   1
_chemical_formula_structural   AgSbTe2
_chemical_formula_sum   'Ag54 Sb54 Te108'
_cell_volume   6166.13528880
_cell_formula_units_Z   54
loop_
 _symmetry_equiv_pos_site_id
 _symmetry_equiv_pos_as_xyz
  1  'x, y, z'
loop_
 _atom_site_type_symbol
 _atom_site_label
 _atom_site_symmetry_multiplicity
 _atom_site_fract_x
 _atom_site_fract_y
 _atom_site_fract_z
 _atom_site_occupancy
  Ag  Ag0  1  -0.00396634  0.49545439  0.50519632  1
  Ag  Ag1  1  0.16703634  0.67066609  0.83108677  1
  Ag  Ag2  1  0.68057551  0.16132344  0.49296992  1
  Ag  Ag3  1  0.16392323  0.16489067  -0.00960011  1
  Ag  Ag4  1  0.50472081  0.33007896  0.83553413  1
  Ag  Ag5  1  0.83139774  0.49821152  0.33666333  1
  Ag  Ag6  1  -0.00521622  0.00334139  0.33708011  1
  Ag  Ag7  1  0.00388762  0.16265469  0.16923176  1
  Ag  Ag8  1  0.00551557  0.66878234  0.66856552  1
  Ag  Ag9  1  0.50914591  0.16674604  0.33293924  1
  Ag  Ag10  1  0.33225616  0.33459614  -0.00179909  1
  Ag  Ag11  1  0.16333563  0.83772659  0.67450023  1
  Ag  Ag12  1  0.16016914  0.50504593  0.67546978  1
  Ag  Ag13  1  0.51158016  0.00259151  0.49938636  1
  Ag  Ag14  1  0.66324554  0.49782643  0.16490534  1
  Ag  Ag15  1  0.83429866  0.16197638  0.34284097  1
  Ag  Ag16  1  0.83479121  0.32913369  0.83073384  1
  Ag  Ag17  1  0.49636163  0.66343038  0.16716474  1
  Ag  Ag18  1  0.16435751  0.31705445  0.83464782  1
  Ag  Ag19  1  0.33072820  0.82583317  0.16659259  1
  Ag  Ag20  1  0.32269707  0.66866777  0.67337958  1
  Ag  Ag21  1  0.00670701  0.16116711  0.82688563  1
  Ag  Ag22  1  0.67284486  0.00933172  -0.00157725  1
  Ag  Ag23  1  0.66762770  0.16665243  0.16725958  1
  Ag  Ag24  1  0.16353498  0.84115996  0.33316342  1
  Ag  Ag25  1  0.84151021  0.49553210  0.66463934  1
  Ag  Ag26  1  0.33305373  0.66762845  0.31967543  1
  Ag  Ag27  1  0.33152155  0.66134148  0.00100788  1
  Ag  Ag28  1  0.66300095  0.66556268  -0.00315867  1
  Ag  Ag29  1  0.67265574  0.83913491  0.83261357  1
  Ag  Ag30  1  0.83909542  0.16902896  0.65664780  1
  Ag  Ag31  1  0.66961872  0.84277941  0.50178236  1
  Ag  Ag32  1  0.15786199  0.16044570  0.33144721  1
  Ag  Ag33  1  0.83286049  0.49754564  -0.00197876  1
  Ag  Ag34  1  0.15816867  0.15579430  0.67894572  1
  Ag  Ag35  1  0.50807938  0.49682796  0.32967240  1
  Ag  Ag36  1  0.00547203  0.84073953  0.82999149  1
  Ag  Ag37  1  -0.00651501  0.16473405  0.50481942  1
  Ag  Ag38  1  0.83500585  0.84628460  0.33581372  1
  Ag  Ag39  1  0.67174430  0.66787145  0.67260519  1
  Ag  Ag40  1  0.83164114  0.00859538  0.49771323  1
  Ag  Ag41  1  0.16222048  0.00219030  0.83084323  1
  Ag  Ag42  1  0.32180611  -0.00075824  0.66724946  1
  Ag  Ag43  1  0.16666469  0.49836786  -0.00593455  1
  Ag  Ag44  1  0.16585585  0.83663954  -0.01027156  1
  Ag  Ag45  1  0.66989264  0.16531108  0.83545371  1
  Ag  Ag46  1  0.67297286  0.00422949  0.34158496  1
  Ag  Ag47  1  0.32797881  0.16582202  0.16331574  1
  Ag  Ag48  1  0.31983394  0.16788284  0.83773322  1
  Ag  Ag49  1  0.66557847  0.32789762  -0.00273919  1
  Ag  Ag50  1  0.83385482  0.32090809  0.50384239  1
  Ag  Ag51  1  0.00326869  0.00481343  0.67091276  1
  Ag  Ag52  1  0.33760488  0.50957709  0.16460352  1
  Ag  Ag53  1  -0.00045984  0.00407990  -0.01131428  1
  Sb  Sb54  1  0.66362231  0.83470201  0.16533214  1
  Sb  Sb55  1  0.50768789  0.32777315  0.50214267  1
  Sb  Sb56  1  0.16038492  0.33031130  0.50737689  1
  Sb  Sb57  1  0.33346538  0.33464920  0.32489465  1
  Sb  Sb58  1  0.83266225  0.00288944  0.17265325  1
  Sb  Sb59  1  0.83597275  0.83189244  0.00188528  1
  Sb  Sb60  1  -0.00122148  0.32765138  0.66790537  1
  Sb  Sb61  1  -0.00059405  0.49544992  0.16760505  1
  Sb  Sb62  1  0.50069784  0.83623456  0.33321564  1
  Sb  Sb63  1  0.33442014  0.83485985  0.49878344  1
  Sb  Sb64  1  0.00121135  0.32698511  -0.00344258  1
  Sb  Sb65  1  0.49857874  0.16735541  0.00314771  1
  Sb  Sb66  1  0.83700982  0.83506204  0.66465219  1
  Sb  Sb67  1  0.66893051  0.49856931  0.84018052  1
  Sb  Sb68  1  0.82724937  0.66415810  0.16612535  1
  Sb  Sb69  1  0.32888076  0.49503902  0.83987476  1
  Sb  Sb70  1  0.33095086  -0.00092349  0.33645126  1
  Sb  Sb71  1  0.49724687  0.66282190  0.83665886  1
  Sb  Sb72  1  0.16614357  0.66782336  0.50805516  1
  Sb  Sb73  1  0.67398225  0.49730420  0.49582683  1
  Sb  Sb74  1  0.50140948  0.16505027  0.66502970  1
  Sb  Sb75  1  0.16151154  0.00183138  0.50513785  1
  Sb  Sb76  1  0.66411512  0.66945803  0.33230250  1
  Sb  Sb77  1  0.00416826  0.67187854  0.33892268  1
  Sb  Sb78  1  0.32949244  0.33159304  0.67500826  1
  Sb  Sb79  1  0.32784266  0.50158333  0.49646426  1
  Sb  Sb80  1  0.67132611  0.33468464  0.67300674  1
  Sb  Sb81  1  0.66919772  0.32500248  0.32795155  1
  Sb  Sb82  1  0.50089131  0.00043044  0.17058889  1
  Sb  Sb83  1  0.83892615  0.00766842  0.82738523  1
  Sb  Sb84  1  0.32781023  0.83636825  0.83533176  1
  Sb  Sb85  1  0.50087437  0.33574085  0.16200863  1
  Sb  Sb86  1  0.32944910  0.00175745  -0.00347619  1
  Sb  Sb87  1  0.16463231  0.50066976  0.33181073  1
  Sb  Sb88  1  -0.00217811  0.32295772  0.33523283  1
  Sb  Sb89  1  0.17259179  0.66796978  0.15992201  1
  Sb  Sb90  1  0.50076473  0.66965272  0.49564314  1
  Sb  Sb91  1  0.33017955  0.16524542  0.50058057  1
  Sb  Sb92  1  0.49981389  0.49931401  0.00507006  1
  Sb  Sb93  1  0.49932433  0.50136984  0.66168251  1
  Sb  Sb94  1  0.00245385  0.49683142  0.82778906  1
  Sb  Sb95  1  0.83293689  0.66738542  0.50100260  1
  Sb  Sb96  1  -0.00327092  0.83927232  0.50499094  1
  Sb  Sb97  1  0.67114749  -0.00141161  0.66529331  1
  Sb  Sb98  1  0.00410101  0.67012230  -0.00649690  1
  Sb  Sb99  1  0.83138400  0.33100932  0.16522328  1
  Sb  Sb100  1  0.83660163  0.66328124  0.83175106  1
  Sb  Sb101  1  0.16900497  0.32947364  0.15888829  1
  Sb  Sb102  1  0.83523227  0.16972411  -0.00063158  1
  Sb  Sb103  1  0.49900613  0.00452443  0.83009162  1
  Sb  Sb104  1  0.49541403  0.83348002  -0.00006023  1
  Sb  Sb105  1  0.49728403  0.83404915  0.66752640  1
  Sb  Sb106  1  0.00568437  0.83982572  0.16436679  1
  Sb  Sb107  1  0.16677552  0.00209814  0.16177540  1
  Te  Te108  1  0.16700079  0.16651560  0.17153102  1
  Te  Te109  1  0.16162140  0.16865557  0.49417799  1
  Te  Te110  1  0.16417506  0.16218104  0.83376824  1
  Te  Te111  1  0.16976555  0.49848719  0.16162531  1
  Te  Te112  1  0.15912339  0.49781705  0.50353623  1
  Te  Te113  1  0.16562820  0.50912957  0.83506219  1
  Te  Te114  1  0.17147124  0.83431268  0.17253025  1
  Te  Te115  1  0.16599004  0.83434855  0.49330530  1
  Te  Te116  1  0.16684042  0.83487298  0.83282615  1
  Te  Te117  1  0.50401943  0.16742708  0.17212160  1
  Te  Te118  1  0.50053631  0.16400408  0.49543695  1
  Te  Te119  1  0.50946293  0.17025982  0.83318258  1
  Te  Te120  1  0.49881138  0.50107866  0.17080096  1
  Te  Te121  1  0.50051437  0.49757762  0.49133512  1
  Te  Te122  1  0.49895385  0.49346829  0.83111386  1
  Te  Te123  1  0.49246007  0.82790227  0.16747759  1
  Te  Te124  1  0.50707443  0.83943676  0.49973040  1
  Te  Te125  1  0.51139897  0.83298555  0.83363123  1
  Te  Te126  1  0.82837502  0.16827600  0.17201069  1
  Te  Te127  1  0.83569406  0.16563458  0.50031254  1
  Te  Te128  1  0.82894113  0.16981492  0.83443864  1
  Te  Te129  1  0.83087498  0.49787863  0.16448546  1
  Te  Te130  1  0.83662602  0.50066684  0.50304526  1
  Te  Te131  1  0.83568031  0.49467318  0.83276082  1
  Te  Te132  1  0.83416076  0.83155679  0.17506522  1
  Te  Te133  1  0.82950040  0.83496837  0.49615619  1
  Te  Te134  1  0.83283837  0.83323880  0.83360481  1
  Te  Te135  1  0.16419618  0.00244746  -0.00460308  1
  Te  Te136  1  0.16506544  0.00062297  0.33492879  1
  Te  Te137  1  0.16374274  -0.00051247  0.66748438  1
  Te  Te138  1  0.16833019  0.33282915  -0.00570366  1
  Te  Te139  1  0.16680496  0.32976872  0.33544995  1
  Te  Te140  1  0.16669661  0.34014724  0.67442086  1
  Te  Te141  1  0.16868756  0.66687409  -0.00438833  1
  Te  Te142  1  0.17268697  0.66818841  0.33379750  1
  Te  Te143  1  0.16566331  0.66675349  0.66891768  1
  Te  Te144  1  0.51132057  -0.00034766  -0.00069253  1
  Te  Te145  1  0.50284830  0.00399604  0.33765348  1
  Te  Te146  1  0.49408239  -0.00005863  0.66108727  1
  Te  Te147  1  0.49924568  0.33351845  -0.00633490  1
  Te  Te148  1  0.50124225  0.33222309  0.33433003  1
  Te  Te149  1  0.49961178  0.33354557  0.67423087  1
  Te  Te150  1  0.49802356  0.66638799  0.00400471  1
  Te  Te151  1  0.49530780  0.66456207  0.32923825  1
  Te  Te152  1  0.49983778  0.66644184  0.66654133  1
  Te  Te153  1  0.83435101  -0.00164195  -0.00033389  1
  Te  Te154  1  0.83181739  0.00246499  0.33557235  1
  Te  Te155  1  0.83870685  0.00297908  0.66078714  1
  Te  Te156  1  0.83029011  0.33774170  -0.00320888  1
  Te  Te157  1  0.83242410  0.33891109  0.33693610  1
  Te  Te158  1  0.83305917  0.33390655  0.66752985  1
  Te  Te159  1  0.83025702  0.66083092  -0.00033965  1
  Te  Te160  1  0.83389908  0.65866160  0.33306725  1
  Te  Te161  1  0.83137781  0.66312189  0.66751532  1
  Te  Te162  1  0.00232854  0.16274929  0.00170007  1
  Te  Te163  1  -0.00293082  0.16304154  0.33280901  1
  Te  Te164  1  -0.00026644  0.16459288  0.66710381  1
  Te  Te165  1  -0.00024671  0.50078130  0.00094740  1
  Te  Te166  1  -0.00432841  0.50212347  0.33586065  1
  Te  Te167  1  -0.00023639  0.50281880  0.66673898  1
  Te  Te168  1  0.00455283  0.83898661  -0.00364014  1
  Te  Te169  1  -0.00063132  0.83766935  0.33322676  1
  Te  Te170  1  0.00307221  0.83241634  0.66957387  1
  Te  Te171  1  0.33198045  0.16578132  -0.00103605  1
  Te  Te172  1  0.33123728  0.16685491  0.33116682  1
  Te  Te173  1  0.32929662  0.16436348  0.66950271  1
  Te  Te174  1  0.33163720  0.50067022  0.00398990  1
  Te  Te175  1  0.33231415  0.50340703  0.32794414  1
  Te  Te176  1  0.33042286  0.50538677  0.66573425  1
  Te  Te177  1  0.32743819  0.83348773  0.00342948  1
  Te  Te178  1  0.33134379  0.83074198  0.33083267  1
  Te  Te179  1  0.32725960  0.83165729  0.66665398  1
  Te  Te180  1  0.66753528  0.16811047  0.00139422  1
  Te  Te181  1  0.66933057  0.16461112  0.33292608  1
  Te  Te182  1  0.66978976  0.16658287  0.66978927  1
  Te  Te183  1  0.66688193  0.50360314  0.00402440  1
  Te  Te184  1  0.66760061  0.50058754  0.32852429  1
  Te  Te185  1  0.66816409  0.50614409  0.66526028  1
  Te  Te186  1  0.66758706  0.82817098  -0.00176003  1
  Te  Te187  1  0.66958002  0.83816223  0.33449465  1
  Te  Te188  1  0.66772142  0.83066473  0.66712278  1
  Te  Te189  1  -0.00036745  0.00520321  0.17090580  1
  Te  Te190  1  -0.00399335  0.00327400  0.49803698  1
  Te  Te191  1  0.00028816  0.00087860  0.83188655  1
  Te  Te192  1  0.00006900  0.32345106  0.16594014  1
  Te  Te193  1  -0.00645138  0.33262638  0.50041594  1
  Te  Te194  1  -0.00023410  0.32569736  0.83372816  1
  Te  Te195  1  -0.00057199  0.66662177  0.16774657  1
  Te  Te196  1  0.00001115  0.66313516  0.50714779  1
  Te  Te197  1  0.00418637  0.67246152  0.82838715  1
  Te  Te198  1  0.33505808  0.00610823  0.16654897  1
  Te  Te199  1  0.33736586  -0.00025257  0.50585361  1
  Te  Te200  1  0.33153431  0.00445954  0.82917408  1
  Te  Te201  1  0.33493862  0.32587303  0.15829373  1
  Te  Te202  1  0.33633341  0.33446120  0.49994624  1
  Te  Te203  1  0.32755106  0.32855667  0.83867730  1
  Te  Te204  1  0.33455839  0.66636209  0.16260253  1
  Te  Te205  1  0.33504636  0.66732275  0.50689490  1
  Te  Te206  1  0.33131494  0.66777615  0.83538040  1
  Te  Te207  1  0.66599344  0.00302335  0.16249164  1
  Te  Te208  1  0.66953888  0.00208531  0.50159905  1
  Te  Te209  1  0.66701620  -0.00027115  0.83435994  1
  Te  Te210  1  0.66552476  0.33406850  0.15858779  1
  Te  Te211  1  0.67283658  0.32660745  0.50125921  1
  Te  Te212  1  0.66983732  0.33235596  0.83790118  1
  Te  Te213  1  0.66022998  0.66479663  0.16327311  1
  Te  Te214  1  0.66489578  0.66924159  0.50364373  1
  Te  Te215  1  0.66535632  0.66672561  0.83486703  1
