# generated using pymatgen
data_AgSbTe2
_symmetry_space_group_name_H-M   'P 1'
_cell_length_a   18.33678075
_cell_length_b   18.33319270
_cell_length_c   18.32999658
_cell_angle_alpha   89.99829300
_cell_angle_beta   89.99933110
_cell_angle_gamma   90.00061648
_symmetry_Int_Tables_number   1
_chemical_formula_structural   AgSbTe2
_chemical_formula_sum   'Ag54 Sb54 Te108'
_cell_volume   6162.02675075
_cell_formula_units_Z   54
loop_
 _symmetry_equiv_pos_site_id
 _symmetry_equiv_pos_as_xyz
  1  'x, y, z'
loop_
 _atom_site_type_symbol
 _atom_site_label
 _atom_site_symmetry_multiplicity
 _atom_site_fract_x
 _atom_site_fract_y
 _atom_site_fract_z
 _atom_site_occupancy
  Ag  Ag0  1  0.83075308  0.16612984  0.34342209  1
  Ag  Ag1  1  0.82387010  0.00397874  0.51037439  1
  Ag  Ag2  1  0.33917012  0.33834399  0.00446613  1
  Ag  Ag3  1  -0.00771208  -0.00341888  0.66775466  1
  Ag  Ag4  1  0.17153259  0.00600164  0.50603000  1
  Ag  Ag5  1  0.17270445  0.16378926  0.34109585  1
  Ag  Ag6  1  0.66564703  0.49816386  0.83113743  1
  Ag  Ag7  1  0.16429941  0.49831052  0.66371574  1
  Ag  Ag8  1  -0.00213158  0.83434955  0.16241800  1
  Ag  Ag9  1  0.33230267  -0.00225972  0.66278112  1
  Ag  Ag10  1  0.33908886  0.67128314  0.67197715  1
  Ag  Ag11  1  0.50689345  0.66244874  0.83652602  1
  Ag  Ag12  1  0.17341944  0.49669815  0.33463620  1
  Ag  Ag13  1  0.50476425  0.50925065  0.00723589  1
  Ag  Ag14  1  0.49997870  0.16585416  0.33513571  1
  Ag  Ag15  1  0.82650278  0.67152781  0.83125303  1
  Ag  Ag16  1  0.66913499  -0.00026798  -0.00794264  1
  Ag  Ag17  1  -0.00328642  0.67299459  -0.00554717  1
  Ag  Ag18  1  0.66868895  0.66800742  0.66858798  1
  Ag  Ag19  1  0.82742766  0.83868699  -0.00762397  1
  Ag  Ag20  1  0.66948734  0.16356165  0.50558321  1
  Ag  Ag21  1  0.66742939  0.33463224  0.66672010  1
  Ag  Ag22  1  0.33138426  0.16195371  0.49793842  1
  Ag  Ag23  1  0.33880365  -0.00119849  -0.00180133  1
  Ag  Ag24  1  0.66668852  0.49645524  0.51272056  1
  Ag  Ag25  1  0.83039176  -0.00315531  0.82836807  1
  Ag  Ag26  1  0.50443414  0.34018108  0.84013511  1
  Ag  Ag27  1  0.17487490  0.33492529  0.16774210  1
  Ag  Ag28  1  0.16731376  0.84564127  0.33375305  1
  Ag  Ag29  1  0.34448798  0.66587993  -0.00384837  1
  Ag  Ag30  1  0.34398302  0.49838232  0.16439623  1
  Ag  Ag31  1  -0.00393248  0.16186730  0.50091282  1
  Ag  Ag32  1  0.16772585  0.15822135  0.65996909  1
  Ag  Ag33  1  0.49919183  0.00019760  0.16433472  1
  Ag  Ag34  1  0.50431520  0.82949697  -0.00193727  1
  Ag  Ag35  1  0.82793249  0.83669957  0.67188313  1
  Ag  Ag36  1  0.33412340  0.00282688  0.34403999  1
  Ag  Ag37  1  0.66680823  0.16590252  0.82485608  1
  Ag  Ag38  1  0.83092820  0.15760220  0.00080847  1
  Ag  Ag39  1  0.50967036  0.83457151  0.67038990  1
  Ag  Ag40  1  0.67212212  -0.00246219  0.66558936  1
  Ag  Ag41  1  0.65638228  0.49926624  0.15958389  1
  Ag  Ag42  1  0.82289632  0.50138275  -0.00729536  1
  Ag  Ag43  1  0.82815454  0.32241189  0.50082407  1
  Ag  Ag44  1  0.82477479  0.50612889  0.67171094  1
  Ag  Ag45  1  0.16388522  0.00309599  0.82305109  1
  Ag  Ag46  1  0.49857047  0.49453738  0.32007343  1
  Ag  Ag47  1  0.66657544  0.84691197  0.50697857  1
  Ag  Ag48  1  0.50253181  0.00296978  0.50175910  1
  Ag  Ag49  1  0.49977167  0.65445073  0.15456207  1
  Ag  Ag50  1  -0.01174041  0.67381530  0.67185621  1
  Ag  Ag51  1  0.82636279  0.33318330  0.16543962  1
  Ag  Ag52  1  0.50163534  0.34379629  0.16176291  1
  Ag  Ag53  1  -0.01337234  -0.00531052  -0.00578515  1
  Sb  Sb54  1  0.34039419  0.50144297  0.83749508  1
  Sb  Sb55  1  0.83125345  0.66912549  0.50981872  1
  Sb  Sb56  1  0.16540234  0.83834466  0.66293077  1
  Sb  Sb57  1  0.50435361  0.16508724  0.00311636  1
  Sb  Sb58  1  0.16994309  0.50007343  -0.00113030  1
  Sb  Sb59  1  0.00503025  0.00169192  0.33642199  1
  Sb  Sb60  1  0.50477599  -0.00148840  0.83241775  1
  Sb  Sb61  1  0.33284976  0.83171731  0.16494751  1
  Sb  Sb62  1  0.66746859  0.83420869  0.82664564  1
  Sb  Sb63  1  0.49703391  0.83698711  0.33269469  1
  Sb  Sb64  1  0.17072980  0.66345365  0.16530528  1
  Sb  Sb65  1  0.82544523  0.33135866  0.83206622  1
  Sb  Sb66  1  0.33640337  0.83461696  0.83343144  1
  Sb  Sb67  1  0.66551283  0.33277947  0.33796969  1
  Sb  Sb68  1  -0.00308142  0.83498567  0.83667709  1
  Sb  Sb69  1  -0.00607135  0.32996943  0.66532381  1
  Sb  Sb70  1  -0.00666872  0.16189473  0.82857766  1
  Sb  Sb71  1  0.83197415  0.16194286  0.66449812  1
  Sb  Sb72  1  -0.00402497  0.84033525  0.50075321  1
  Sb  Sb73  1  0.17048562  0.00352370  0.16843196  1
  Sb  Sb74  1  0.50637339  0.32841541  0.49921574  1
  Sb  Sb75  1  0.82779247  0.66168725  0.15516171  1
  Sb  Sb76  1  0.16564280  0.83613913  0.00293953  1
  Sb  Sb77  1  0.33512926  0.16946771  0.16958652  1
  Sb  Sb78  1  0.33777436  0.49474223  0.49721839  1
  Sb  Sb79  1  0.16746828  0.67112869  0.50255649  1
  Sb  Sb80  1  -0.00807678  0.50193113  0.83189152  1
  Sb  Sb81  1  0.66769392  0.83028590  0.16717337  1
  Sb  Sb82  1  0.33558450  0.66870673  0.33278792  1
  Sb  Sb83  1  -0.00163534  0.33225056  0.00130287  1
  Sb  Sb84  1  0.66272795  0.33375954  -0.00368402  1
  Sb  Sb85  1  0.16648468  0.67013863  0.83065094  1
  Sb  Sb86  1  0.00135577  0.66810403  0.33333501  1
  Sb  Sb87  1  0.33781014  0.84148050  0.50214810  1
  Sb  Sb88  1  0.82884735  0.49495731  0.33405265  1
  Sb  Sb89  1  -0.00381039  0.49621927  0.50256476  1
  Sb  Sb90  1  0.16303430  0.32672990  0.49779414  1
  Sb  Sb91  1  -0.00146384  0.16247659  0.16994861  1
  Sb  Sb92  1  0.33906026  0.33237701  0.67046961  1
  Sb  Sb93  1  0.82899295  0.00385253  0.16348493  1
  Sb  Sb94  1  -0.00096284  0.50299437  0.16478778  1
  Sb  Sb95  1  0.34008994  0.16378301  0.83053297  1
  Sb  Sb96  1  0.66483322  0.66881135  -0.00923545  1
  Sb  Sb97  1  0.66536437  0.66390640  0.33876146  1
  Sb  Sb98  1  0.33445319  0.32809606  0.32914232  1
  Sb  Sb99  1  0.16315210  0.16349335  -0.00025523  1
  Sb  Sb100  1  0.50109623  0.15899079  0.66198305  1
  Sb  Sb101  1  0.66122033  0.00242025  0.33720315  1
  Sb  Sb102  1  0.00036894  0.33230212  0.33284630  1
  Sb  Sb103  1  0.50438081  0.50581594  0.66874430  1
  Sb  Sb104  1  0.83607905  0.84077258  0.33529636  1
  Sb  Sb105  1  0.17518834  0.32974479  0.83545160  1
  Sb  Sb106  1  0.66573546  0.17052256  0.16739738  1
  Sb  Sb107  1  0.50150019  0.67037819  0.50389270  1
  Te  Te108  1  0.16617275  0.17336907  0.17140316  1
  Te  Te109  1  0.16723092  0.16574003  0.49982947  1
  Te  Te110  1  0.16669232  0.16243723  0.82902759  1
  Te  Te111  1  0.16704343  0.49564363  0.16778157  1
  Te  Te112  1  0.16782602  0.49842838  0.50076375  1
  Te  Te113  1  0.16668242  0.49901934  0.82667939  1
  Te  Te114  1  0.16274424  0.83216028  0.17239741  1
  Te  Te115  1  0.16543573  0.83925677  0.49455135  1
  Te  Te116  1  0.16683602  0.84281762  0.83279051  1
  Te  Te117  1  0.50036877  0.15930849  0.17321797  1
  Te  Te118  1  0.50329604  0.16370324  0.49601781  1
  Te  Te119  1  0.50768970  0.17068676  0.83330719  1
  Te  Te120  1  0.50015409  0.49932704  0.16441990  1
  Te  Te121  1  0.50480925  0.49911259  0.49678785  1
  Te  Te122  1  0.50449539  0.50132598  0.83539539  1
  Te  Te123  1  0.50088632  0.84012026  0.16328137  1
  Te  Te124  1  0.50491974  0.83799296  0.50182527  1
  Te  Te125  1  0.50161662  0.82732601  0.83620305  1
  Te  Te126  1  0.83287941  0.17178340  0.16408178  1
  Te  Te127  1  0.83154373  0.16378899  0.50281266  1
  Te  Te128  1  0.82745204  0.16394587  0.83818134  1
  Te  Te129  1  0.83134533  0.49481643  0.16564895  1
  Te  Te130  1  0.82868274  0.49890384  0.50113972  1
  Te  Te131  1  0.82753844  0.49823754  0.83276816  1
  Te  Te132  1  0.83551216  0.83099478  0.16545102  1
  Te  Te133  1  0.82872861  0.83887055  0.50322317  1
  Te  Te134  1  0.83191220  0.83436353  0.83374067  1
  Te  Te135  1  0.17353412  0.00027677  -0.00100622  1
  Te  Te136  1  0.17120397  0.00459444  0.33480129  1
  Te  Te137  1  0.16984611  -0.00108976  0.66534293  1
  Te  Te138  1  0.17177326  0.33214799  0.00450087  1
  Te  Te139  1  0.16733089  0.33359337  0.32986827  1
  Te  Te140  1  0.16768619  0.33613301  0.66765507  1
  Te  Te141  1  0.16319985  0.66754860  -0.00222246  1
  Te  Te142  1  0.16763128  0.65953511  0.33443071  1
  Te  Te143  1  0.17045705  0.66511359  0.66784165  1
  Te  Te144  1  0.50123379  -0.00092338  -0.00262094  1
  Te  Te145  1  0.49520348  0.00112286  0.33562452  1
  Te  Te146  1  0.49790316  -0.00459767  0.66600538  1
  Te  Te147  1  0.49793053  0.33138803  0.00223717  1
  Te  Te148  1  0.49961161  0.33268706  0.32850510  1
  Te  Te149  1  0.50558046  0.33261711  0.66941426  1
  Te  Te150  1  0.50160129  0.66817852  -0.00216036  1
  Te  Te151  1  0.49886148  0.66480571  0.32971045  1
  Te  Te152  1  0.50019589  0.67222714  0.66903968  1
  Te  Te153  1  0.83021287  -0.00178960  0.00140344  1
  Te  Te154  1  0.83398470  0.00615971  0.33345606  1
  Te  Te155  1  0.83329143  0.00025997  0.66753390  1
  Te  Te156  1  0.83347812  0.33808065  0.00176887  1
  Te  Te157  1  0.83314324  0.32830144  0.33238826  1
  Te  Te158  1  0.82865546  0.33837056  0.66475010  1
  Te  Te159  1  0.83402234  0.66625481  -0.00691040  1
  Te  Te160  1  0.83506496  0.66749357  0.33132102  1
  Te  Te161  1  0.83146310  0.66648343  0.67067002  1
  Te  Te162  1  -0.00603311  0.16106951  0.00030736  1
  Te  Te163  1  -0.00184854  0.16608926  0.33850603  1
  Te  Te164  1  0.00536627  0.16259019  0.66258289  1
  Te  Te165  1  -0.00256744  0.50477826  -0.00083196  1
  Te  Te166  1  0.00822834  0.50145267  0.33389371  1
  Te  Te167  1  0.00101613  0.50167386  0.66580938  1
  Te  Te168  1  -0.00073645  0.83446240  0.00216865  1
  Te  Te169  1  0.00551261  0.83308644  0.32882971  1
  Te  Te170  1  -0.00436891  0.83477554  0.66600135  1
  Te  Te171  1  0.33250527  0.16169371  -0.00053494  1
  Te  Te172  1  0.33410712  0.16256941  0.33595429  1
  Te  Te173  1  0.33005572  0.16393904  0.66312918  1
  Te  Te174  1  0.33542277  0.50264834  0.00333198  1
  Te  Te175  1  0.33481554  0.50069252  0.33005517  1
  Te  Te176  1  0.33117654  0.50175099  0.66621477  1
  Te  Te177  1  0.33707516  0.83093575  -0.00006909  1
  Te  Te178  1  0.32794273  0.83879806  0.33354732  1
  Te  Te179  1  0.33529472  0.83343062  0.66648990  1
  Te  Te180  1  0.67162263  0.16262404  0.00056006  1
  Te  Te181  1  0.66652309  0.16720975  0.33828008  1
  Te  Te182  1  0.66631761  0.16292162  0.66592271  1
  Te  Te183  1  0.66468642  0.50052649  -0.00135847  1
  Te  Te184  1  0.66228665  0.49971706  0.32816229  1
  Te  Te185  1  0.66586788  0.50135966  0.67016263  1
  Te  Te186  1  0.66718527  0.83742047  0.00239844  1
  Te  Te187  1  0.66690149  0.83227355  0.34248967  1
  Te  Te188  1  0.66769035  0.83642344  0.66461309  1
  Te  Te189  1  0.00123834  -0.00450629  0.16102950  1
  Te  Te190  1  0.00135091  0.00274791  0.50338148  1
  Te  Te191  1  -0.00277524  0.00097558  0.83266175  1
  Te  Te192  1  -0.00315925  0.33325070  0.16512627  1
  Te  Te193  1  -0.00948426  0.32589995  0.50003543  1
  Te  Te194  1  0.00382056  0.33185149  0.83376697  1
  Te  Te195  1  -0.00028542  0.67127341  0.16212227  1
  Te  Te196  1  -0.00025613  0.66647102  0.50877932  1
  Te  Te197  1  -0.00304174  0.66662473  0.83214938  1
  Te  Te198  1  0.33628389  -0.00038891  0.16014099  1
  Te  Te199  1  0.33442332  0.00285708  0.50239636  1
  Te  Te200  1  0.33214804  0.00076847  0.83204226  1
  Te  Te201  1  0.33686693  0.33577081  0.16375848  1
  Te  Te202  1  0.33409048  0.32503145  0.50133095  1
  Te  Te203  1  0.34259266  0.33233560  0.84150292  1
  Te  Te204  1  0.33758967  0.66240629  0.16386460  1
  Te  Te205  1  0.33354753  0.66505992  0.50769865  1
  Te  Te206  1  0.33493823  0.66697221  0.83406271  1
  Te  Te207  1  0.66140431  -0.00136972  0.16475933  1
  Te  Te208  1  0.66484638  0.00325768  0.50039878  1
  Te  Te209  1  0.66866679  0.00238334  0.83175668  1
  Te  Te210  1  0.66478139  0.33703487  0.16513909  1
  Te  Te211  1  0.67023294  0.33466377  0.50486346  1
  Te  Te212  1  0.66284882  0.33301149  0.82930635  1
  Te  Te213  1  0.66059547  0.66205892  0.16986714  1
  Te  Te214  1  0.66677223  0.65763738  0.50715822  1
  Te  Te215  1  0.66718692  0.66292691  0.82815975  1
