# generated using pymatgen
data_AgSbTe2
_symmetry_space_group_name_H-M   'P 1'
_cell_length_a   18.32247607
_cell_length_b   18.32844906
_cell_length_c   18.32330066
_cell_angle_alpha   90.00111594
_cell_angle_beta   90.00102929
_cell_angle_gamma   89.99985809
_symmetry_Int_Tables_number   1
_chemical_formula_structural   AgSbTe2
_chemical_formula_sum   'Ag54 Sb54 Te108'
_cell_volume   6153.37790222
_cell_formula_units_Z   54
loop_
 _symmetry_equiv_pos_site_id
 _symmetry_equiv_pos_as_xyz
  1  'x, y, z'
loop_
 _atom_site_type_symbol
 _atom_site_label
 _atom_site_symmetry_multiplicity
 _atom_site_fract_x
 _atom_site_fract_y
 _atom_site_fract_z
 _atom_site_occupancy
  Ag  Ag0  1  0.32520594  0.50768173  0.50228541  1
  Ag  Ag1  1  -0.00818834  0.16761351  0.16041588  1
  Ag  Ag2  1  0.16050804  0.50022218  0.34251330  1
  Ag  Ag3  1  0.33176065  0.83284706  0.16202185  1
  Ag  Ag4  1  0.50819860  0.82502498  0.66842913  1
  Ag  Ag5  1  0.83456179  0.16850101  0.00633422  1
  Ag  Ag6  1  -0.00102379  0.17801537  0.83916149  1
  Ag  Ag7  1  0.83593357  0.33505459  0.50379028  1
  Ag  Ag8  1  -0.00009362  0.50229535  0.17134185  1
  Ag  Ag9  1  0.67703909  0.32882862  0.34512930  1
  Ag  Ag10  1  -0.00595890  0.33250663  0.66399799  1
  Ag  Ag11  1  0.32928372  0.66952251  -0.00211238  1
  Ag  Ag12  1  0.00119100  0.50288960  0.49567049  1
  Ag  Ag13  1  -0.00471531  0.33839144  0.34221265  1
  Ag  Ag14  1  0.83104271  0.16818025  0.32929528  1
  Ag  Ag15  1  0.83900574  0.67334072  0.17008133  1
  Ag  Ag16  1  0.67572397  0.33176054  -0.00346476  1
  Ag  Ag17  1  0.16267780  0.17168063  0.66439611  1
  Ag  Ag18  1  -0.00423046  0.83204858  0.83397125  1
  Ag  Ag19  1  0.15350176  0.34270625  0.50545025  1
  Ag  Ag20  1  0.16325209  0.66185818  0.82960599  1
  Ag  Ag21  1  0.66230455  0.66407411  0.66451703  1
  Ag  Ag22  1  0.49876269  0.50250488  -0.00210236  1
  Ag  Ag23  1  0.49764597  0.83309415  -0.00355662  1
  Ag  Ag24  1  0.51173352  0.16799289  0.32838773  1
  Ag  Ag25  1  0.67502184  0.16726453  0.17150371  1
  Ag  Ag26  1  -0.00110159  0.65918949  0.33375478  1
  Ag  Ag27  1  0.83463858  0.00355565  0.16841230  1
  Ag  Ag28  1  0.50718441  0.50696249  0.66423221  1
  Ag  Ag29  1  0.83022215  0.83359806  0.66469209  1
  Ag  Ag30  1  0.33243945  -0.00877390  0.00253698  1
  Ag  Ag31  1  0.67026279  0.17579070  0.49614637  1
  Ag  Ag32  1  0.00212127  0.66415286  0.00482807  1
  Ag  Ag33  1  0.15586474  0.33846925  0.82815070  1
  Ag  Ag34  1  0.32730117  0.82535322  0.50034840  1
  Ag  Ag35  1  0.50805788  0.16549551  0.00417776  1
  Ag  Ag36  1  -0.00464783  0.33212129  -0.00336594  1
  Ag  Ag37  1  0.33796706  0.66728474  0.65773516  1
  Ag  Ag38  1  0.83629970  0.00125804  0.49874102  1
  Ag  Ag39  1  0.16146451  0.66154336  0.50498128  1
  Ag  Ag40  1  0.66800500  -0.00842330  0.66487729  1
  Ag  Ag41  1  0.67059296  0.49543703  0.50624961  1
  Ag  Ag42  1  -0.00141080  0.82805894  0.16216776  1
  Ag  Ag43  1  0.00052793  0.00079183  0.00329522  1
  Ag  Ag44  1  0.83707948  0.33217018  0.82770645  1
  Ag  Ag45  1  0.15645868  -0.00108580  0.50273019  1
  Ag  Ag46  1  0.67467995  0.33752879  0.66384611  1
  Ag  Ag47  1  0.83978791  0.66397721  0.49986040  1
  Ag  Ag48  1  0.67146161  0.82836877  0.82744636  1
  Ag  Ag49  1  0.50870501  0.00141647  0.16277576  1
  Ag  Ag50  1  0.16210644  0.50227441  -0.00025618  1
  Ag  Ag51  1  0.49653583  0.66490916  0.50487646  1
  Ag  Ag52  1  -0.00016999  0.82463346  0.50101283  1
  Ag  Ag53  1  0.66614185  0.50004412  0.82274165  1
  Sb  Sb54  1  0.15952314  0.33482231  0.16640700  1
  Sb  Sb55  1  0.50227110  -0.00165500  0.83943863  1
  Sb  Sb56  1  0.15969659  0.17274990  0.33914134  1
  Sb  Sb57  1  0.83664047  0.49471664  0.00120642  1
  Sb  Sb58  1  0.15936917  0.17132998  -0.00400037  1
  Sb  Sb59  1  0.33538209  0.50276958  0.82857455  1
  Sb  Sb60  1  0.16736526  0.49806996  0.66465298  1
  Sb  Sb61  1  0.83452491  0.00405160  0.83260413  1
  Sb  Sb62  1  0.33238596  0.34047107  0.66450980  1
  Sb  Sb63  1  0.82798116  0.50108237  0.66333698  1
  Sb  Sb64  1  0.50322071  -0.00429396  0.49754367  1
  Sb  Sb65  1  0.32881524  0.50722103  0.16723426  1
  Sb  Sb66  1  0.83530750  0.16698387  0.66491288  1
  Sb  Sb67  1  0.67494629  0.65762560  0.34317359  1
  Sb  Sb68  1  0.16252520  -0.00072369  0.83053621  1
  Sb  Sb69  1  0.33107107  0.33663899  -0.00101035  1
  Sb  Sb70  1  0.66889751  0.00450066  -0.00271036  1
  Sb  Sb71  1  0.67011556  0.83807008  0.16002111  1
  Sb  Sb72  1  0.16252630  0.82785476  0.33693443  1
  Sb  Sb73  1  0.32728814  0.16693838  0.83494721  1
  Sb  Sb74  1  -0.00250993  0.49751035  0.83266706  1
  Sb  Sb75  1  0.66831020  0.00765888  0.33784029  1
  Sb  Sb76  1  0.50410121  0.32735412  0.16574034  1
  Sb  Sb77  1  0.83621334  0.32829755  0.16882874  1
  Sb  Sb78  1  0.33004167  0.33437067  0.33645988  1
  Sb  Sb79  1  0.33668394  -0.00778410  0.66809153  1
  Sb  Sb80  1  0.84066890  0.49283998  0.33557597  1
  Sb  Sb81  1  0.33301223  -0.00137078  0.32989648  1
  Sb  Sb82  1  0.67313723  0.49552262  0.16722964  1
  Sb  Sb83  1  0.16324749  0.83324706  0.66446468  1
  Sb  Sb84  1  -0.00384902  0.00267460  0.66738625  1
  Sb  Sb85  1  -0.00636735  0.17049937  0.49923876  1
  Sb  Sb86  1  0.32662230  0.66639415  0.33713234  1
  Sb  Sb87  1  0.50492018  0.67084518  0.16719349  1
  Sb  Sb88  1  0.49766365  0.49650954  0.33590145  1
  Sb  Sb89  1  0.15825738  0.66664639  0.16664825  1
  Sb  Sb90  1  0.67099440  0.83003335  0.50739378  1
  Sb  Sb91  1  0.50025860  0.83562230  0.33482453  1
  Sb  Sb92  1  0.49831979  0.66660111  0.82708317  1
  Sb  Sb93  1  0.50512008  0.33520321  0.83403529  1
  Sb  Sb94  1  0.83481829  0.83623310  0.33905939  1
  Sb  Sb95  1  0.67305825  0.17038386  0.83354032  1
  Sb  Sb96  1  0.83469929  0.83658990  -0.00368856  1
  Sb  Sb97  1  -0.00137047  0.66331745  0.66375680  1
  Sb  Sb98  1  0.83668650  0.66373948  0.83056748  1
  Sb  Sb99  1  0.50712964  0.33864672  0.50080003  1
  Sb  Sb100  1  0.50237284  0.16702552  0.66706474  1
  Sb  Sb101  1  0.16642561  0.82790148  -0.00115659  1
  Sb  Sb102  1  -0.00159872  0.00178180  0.33081755  1
  Sb  Sb103  1  0.33603882  0.16689317  0.49975807  1
  Sb  Sb104  1  0.66817812  0.66233455  -0.00446782  1
  Sb  Sb105  1  0.33202688  0.82951062  0.83312015  1
  Sb  Sb106  1  0.33531118  0.16027276  0.16368918  1
  Sb  Sb107  1  0.16143453  -0.00032120  0.16866822  1
  Te  Te108  1  0.16176839  0.16655418  0.16896476  1
  Te  Te109  1  0.16755723  0.16455504  0.50326085  1
  Te  Te110  1  0.15984095  0.16967545  0.82861043  1
  Te  Te111  1  0.16119603  0.50064985  0.16244451  1
  Te  Te112  1  0.16397269  0.50079044  0.50291208  1
  Te  Te113  1  0.16696490  0.50058190  0.83547607  1
  Te  Te114  1  0.16493538  0.83407420  0.16835935  1
  Te  Te115  1  0.16457904  0.83207762  0.50108807  1
  Te  Te116  1  0.15897415  0.82870239  0.83159783  1
  Te  Te117  1  0.50080941  0.16185088  0.16411561  1
  Te  Te118  1  0.50541311  0.16574189  0.49741683  1
  Te  Te119  1  0.49866886  0.16697159  0.84086480  1
  Te  Te120  1  0.49930892  0.50107691  0.16216462  1
  Te  Te121  1  0.50265307  0.50444875  0.49974772  1
  Te  Te122  1  0.50483033  0.50054296  0.83635741  1
  Te  Te123  1  0.49994646  0.83830864  0.16303659  1
  Te  Te124  1  0.49810811  0.82870361  0.50245736  1
  Te  Te125  1  0.50314707  0.83235933  0.83342811  1
  Te  Te126  1  0.83449989  0.16490974  0.16612351  1
  Te  Te127  1  0.82946976  0.16570224  0.49952138  1
  Te  Te128  1  0.83929341  0.17160084  0.83785054  1
  Te  Te129  1  0.83999744  0.50985199  0.16772035  1
  Te  Te130  1  0.83335092  0.50008943  0.49898803  1
  Te  Te131  1  0.82630489  0.49377406  0.83365607  1
  Te  Te132  1  0.83747300  0.83696797  0.16646473  1
  Te  Te133  1  0.83714009  0.83517024  0.50303077  1
  Te  Te134  1  0.83420875  0.83315749  0.82875648  1
  Te  Te135  1  0.16408006  0.00131521  -0.00023884  1
  Te  Te136  1  0.16636088  0.00213521  0.34354324  1
  Te  Te137  1  0.16798824  0.00468420  0.66172128  1
  Te  Te138  1  0.16350506  0.33883426  -0.00431038  1
  Te  Te139  1  0.16072295  0.33875856  0.33924897  1
  Te  Te140  1  0.16718273  0.33198352  0.66597048  1
  Te  Te141  1  0.16445031  0.66345644  0.00022379  1
  Te  Te142  1  0.15977487  0.66122116  0.33937100  1
  Te  Te143  1  0.17050110  0.66597238  0.66640260  1
  Te  Te144  1  0.50130090  -0.00229302  0.00360959  1
  Te  Te145  1  0.50056209  0.00529377  0.32578960  1
  Te  Te146  1  0.50531415  -0.00315595  0.66717729  1
  Te  Te147  1  0.49900392  0.33501894  -0.00055513  1
  Te  Te148  1  0.50262662  0.32773248  0.33303867  1
  Te  Te149  1  0.50258033  0.33682766  0.66772485  1
  Te  Te150  1  0.49991743  0.66726813  0.00061389  1
  Te  Te151  1  0.50209682  0.66616108  0.33974460  1
  Te  Te152  1  0.49985317  0.66674606  0.66531214  1
  Te  Te153  1  0.83828902  0.00452959  0.00264461  1
  Te  Te154  1  0.83338777  0.00632835  0.33448682  1
  Te  Te155  1  0.82927548  -0.00195494  0.66298516  1
  Te  Te156  1  0.83464328  0.33006218  0.00134464  1
  Te  Te157  1  0.83500419  0.32816878  0.33598949  1
  Te  Te158  1  0.83408029  0.33259575  0.66503882  1
  Te  Te159  1  0.83800581  0.66709793  0.00191072  1
  Te  Te160  1  0.83967636  0.66919022  0.33601159  1
  Te  Te161  1  0.83070523  0.67182533  0.66337547  1
  Te  Te162  1  -0.00050313  0.16848476  0.00012905  1
  Te  Te163  1  -0.00424780  0.17168239  0.32724424  1
  Te  Te164  1  0.00197279  0.16992401  0.67031302  1
  Te  Te165  1  0.00192827  0.50100548  -0.00147899  1
  Te  Te166  1  0.00176082  0.49910103  0.33411369  1
  Te  Te167  1  -0.00007442  0.49297241  0.66028028  1
  Te  Te168  1  -0.00012680  0.83194153  0.00074254  1
  Te  Te169  1  -0.00073511  0.82877334  0.33449408  1
  Te  Te170  1  -0.00403317  0.83435149  0.66564262  1
  Te  Te171  1  0.33777888  0.16407955  0.00029698  1
  Te  Te172  1  0.33963126  0.16686771  0.33190230  1
  Te  Te173  1  0.33018312  0.16446677  0.66712325  1
  Te  Te174  1  0.33518194  0.50482128  0.00052794  1
  Te  Te175  1  0.32621992  0.49988151  0.33895681  1
  Te  Te176  1  0.34246244  0.50683511  0.66173762  1
  Te  Te177  1  0.33503884  0.83144043  -0.00052937  1
  Te  Te178  1  0.33262247  0.83329500  0.33422111  1
  Te  Te179  1  0.33760012  0.82804518  0.66391546  1
  Te  Te180  1  0.66785048  0.16992496  -0.00098937  1
  Te  Te181  1  0.66908150  0.16974775  0.33306189  1
  Te  Te182  1  0.66601352  0.17356915  0.66446428  1
  Te  Te183  1  0.66349020  0.49517849  0.00197464  1
  Te  Te184  1  0.66507848  0.48941038  0.33609556  1
  Te  Te185  1  0.66494556  0.49934516  0.66557373  1
  Te  Te186  1  0.66237978  0.83253349  -0.00775170  1
  Te  Te187  1  0.66651881  0.83142948  0.33087717  1
  Te  Te188  1  0.66734052  0.83115565  0.66816203  1
  Te  Te189  1  -0.00330659  -0.00096899  0.16422524  1
  Te  Te190  1  -0.00266113  -0.00106428  0.49925399  1
  Te  Te191  1  -0.00003976  -0.00651935  0.83821770  1
  Te  Te192  1  -0.00004195  0.33649426  0.16145270  1
  Te  Te193  1  -0.00326881  0.33092646  0.50157925  1
  Te  Te194  1  -0.00143685  0.33631351  0.83313400  1
  Te  Te195  1  -0.00195995  0.66703348  0.16564156  1
  Te  Te196  1  -0.00009541  0.66566609  0.50229154  1
  Te  Te197  1  0.00260935  0.66762500  0.83413129  1
  Te  Te198  1  0.33147267  -0.00682044  0.16189090  1
  Te  Te199  1  0.33341565  -0.00501267  0.50041987  1
  Te  Te200  1  0.33123127  -0.00150502  0.84182325  1
  Te  Te201  1  0.33214782  0.33580227  0.16788318  1
  Te  Te202  1  0.32717143  0.33617258  0.50038610  1
  Te  Te203  1  0.32291481  0.33410225  0.83223216  1
  Te  Te204  1  0.33574052  0.67336936  0.16370469  1
  Te  Te205  1  0.33210916  0.66710686  0.49870926  1
  Te  Te206  1  0.32505255  0.66679029  0.83922156  1
  Te  Te207  1  0.67012401  0.00558320  0.16586298  1
  Te  Te208  1  0.67033980  0.00032192  0.50444654  1
  Te  Te209  1  0.66802155  -0.00370553  0.82623599  1
  Te  Te210  1  0.66798731  0.32784332  0.15958259  1
  Te  Te211  1  0.66844815  0.33476026  0.50214622  1
  Te  Te212  1  0.67017840  0.33610304  0.83423790  1
  Te  Te213  1  0.67480866  0.66686761  0.16899081  1
  Te  Te214  1  0.67159300  0.66259074  0.50419448  1
  Te  Te215  1  0.66815254  0.66495620  0.82782113  1
