# generated using pymatgen
data_AgSbTe2
_symmetry_space_group_name_H-M   'P 1'
_cell_length_a   18.34895685
_cell_length_b   18.34582310
_cell_length_c   18.33580111
_cell_angle_alpha   90.00326672
_cell_angle_beta   90.00169854
_cell_angle_gamma   90.00208111
_symmetry_Int_Tables_number   1
_chemical_formula_structural   AgSbTe2
_chemical_formula_sum   'Ag54 Sb54 Te108'
_cell_volume   6172.32050345
_cell_formula_units_Z   54
loop_
 _symmetry_equiv_pos_site_id
 _symmetry_equiv_pos_as_xyz
  1  'x, y, z'
loop_
 _atom_site_type_symbol
 _atom_site_label
 _atom_site_symmetry_multiplicity
 _atom_site_fract_x
 _atom_site_fract_y
 _atom_site_fract_z
 _atom_site_occupancy
  Ag  Ag0  1  0.67160426  0.67133539  0.33358282  1
  Ag  Ag1  1  0.66916694  0.83438657  0.49510837  1
  Ag  Ag2  1  0.65965652  0.51118980  0.16721047  1
  Ag  Ag3  1  -0.00705606  -0.00653958  0.66083047  1
  Ag  Ag4  1  0.50248489  0.66954456  0.84667399  1
  Ag  Ag5  1  0.49699757  -0.00429675  0.49203992  1
  Ag  Ag6  1  0.67582125  0.83366410  0.83409165  1
  Ag  Ag7  1  0.34107366  0.15351710  0.49438180  1
  Ag  Ag8  1  0.83304823  0.16501561  -0.00184982  1
  Ag  Ag9  1  0.16058867  0.67916275  0.49063121  1
  Ag  Ag10  1  0.83352571  0.67418180  0.83145618  1
  Ag  Ag11  1  0.82781160  0.33550158  0.49897210  1
  Ag  Ag12  1  0.34053544  0.51362686  0.16284540  1
  Ag  Ag13  1  0.83331734  0.83443317  0.66205836  1
  Ag  Ag14  1  0.32931183  -0.00282044  0.33475958  1
  Ag  Ag15  1  0.33034133  0.67273010  0.00563235  1
  Ag  Ag16  1  0.17189701  0.83438927  0.00926381  1
  Ag  Ag17  1  0.32865035  0.50199717  0.84383838  1
  Ag  Ag18  1  0.65789642  0.82998280  0.16956501  1
  Ag  Ag19  1  -0.00624009  0.67425360  0.33137802  1
  Ag  Ag20  1  0.67064342  0.32811114  0.65956466  1
  Ag  Ag21  1  -0.00185748  0.83309958  0.48979901  1
  Ag  Ag22  1  0.16802727  0.15861229  0.00672257  1
  Ag  Ag23  1  -0.00754338  0.83000646  0.83491611  1
  Ag  Ag24  1  -0.00078576  0.33405337  0.33697610  1
  Ag  Ag25  1  0.49866515  -0.01079682  0.17241474  1
  Ag  Ag26  1  -0.00675438  0.33026949  0.65910902  1
  Ag  Ag27  1  0.00746490  0.82987530  0.17657408  1
  Ag  Ag28  1  0.50300024  0.67849400  0.49136425  1
  Ag  Ag29  1  0.17489356  0.67221466  0.16944566  1
  Ag  Ag30  1  0.17384838  -0.00350062  0.49357387  1
  Ag  Ag31  1  0.49596245  0.67318570  0.16841927  1
  Ag  Ag32  1  0.00741673  -0.01464653  0.33881273  1
  Ag  Ag33  1  0.33676871  -0.01058008  0.00692740  1
  Ag  Ag34  1  0.15891581  0.83549223  0.33159245  1
  Ag  Ag35  1  0.67117519  -0.00361791  0.66379750  1
  Ag  Ag36  1  0.66326861  -0.00310540  -0.00276684  1
  Ag  Ag37  1  0.00081900  0.51025013  0.83374147  1
  Ag  Ag38  1  0.49628281  0.83398750  0.00766482  1
  Ag  Ag39  1  0.33473660  0.83151883  0.16720295  1
  Ag  Ag40  1  0.50608176  0.32178812  0.49357154  1
  Ag  Ag41  1  0.83260334  -0.01011906  0.83282419  1
  Ag  Ag42  1  0.83266398  0.67407338  0.49209737  1
  Ag  Ag43  1  0.83370764  0.51646948  0.33407987  1
  Ag  Ag44  1  0.33668134  0.33379940  0.00309144  1
  Ag  Ag45  1  0.66257463  0.15555508  0.49853790  1
  Ag  Ag46  1  0.16432333  0.33326980  0.83610653  1
  Ag  Ag47  1  0.16950755  0.15306729  0.33158516  1
  Ag  Ag48  1  0.49967264  0.33501785  0.16837915  1
  Ag  Ag49  1  0.32848467  0.83602682  0.49139803  1
  Ag  Ag50  1  0.84371642  0.83242379  0.33888563  1
  Ag  Ag51  1  0.00417217  0.67219915  0.00629907  1
  Ag  Ag52  1  0.49635098  0.16329613  0.33494379  1
  Ag  Ag53  1  0.66102319  0.32634552  0.00100238  1
  Sb  Sb54  1  0.50659099  0.83422643  0.66463875  1
  Sb  Sb55  1  0.16479315  0.66653789  0.83644574  1
  Sb  Sb56  1  0.66830156  0.50582351  0.83901429  1
  Sb  Sb57  1  0.33366189  0.66876835  0.66962075  1
  Sb  Sb58  1  0.16217496  0.50658578  0.33191352  1
  Sb  Sb59  1  0.50314746  0.49955082  0.33029064  1
  Sb  Sb60  1  0.16309441  -0.00001727  0.83287460  1
  Sb  Sb61  1  0.17132210  0.33811292  0.16406936  1
  Sb  Sb62  1  0.66422260  0.16300741  0.17057732  1
  Sb  Sb63  1  0.83361994  0.16046948  0.33364159  1
  Sb  Sb64  1  0.83622322  0.33572962  0.82979675  1
  Sb  Sb65  1  0.82801656  -0.00496876  0.16334056  1
  Sb  Sb66  1  0.50187237  0.50040459  0.66633503  1
  Sb  Sb67  1  0.49871065  0.33991809  0.83742340  1
  Sb  Sb68  1  0.49738376  0.83718441  0.33065856  1
  Sb  Sb69  1  0.66828630  0.67010515  0.66192846  1
  Sb  Sb70  1  0.82961135  0.33444953  0.17099853  1
  Sb  Sb71  1  0.83154384  0.67038750  0.16910806  1
  Sb  Sb72  1  0.16578505  0.32909747  0.50083696  1
  Sb  Sb73  1  0.33312061  0.82954189  0.83926169  1
  Sb  Sb74  1  0.33164816  0.32762049  0.32985714  1
  Sb  Sb75  1  0.83133847  -0.00605245  0.50333565  1
  Sb  Sb76  1  0.00144956  -0.00754493  0.00237681  1
  Sb  Sb77  1  0.15921775  0.83501713  0.66019362  1
  Sb  Sb78  1  0.66864073  0.33684790  0.33410438  1
  Sb  Sb79  1  0.17325757  -0.00936069  0.17253431  1
  Sb  Sb80  1  0.16497610  0.16513421  0.66292988  1
  Sb  Sb81  1  0.33224942  0.67414994  0.32804980  1
  Sb  Sb82  1  0.66525912  -0.00731429  0.33499843  1
  Sb  Sb83  1  0.66747335  0.50420426  0.49466944  1
  Sb  Sb84  1  0.83172249  0.49908836  0.00413768  1
  Sb  Sb85  1  0.33477252  -0.00182639  0.66265415  1
  Sb  Sb86  1  0.16406870  0.49992317  0.66848555  1
  Sb  Sb87  1  0.33203950  0.16992158  0.83471781  1
  Sb  Sb88  1  0.00016914  0.50759527  0.16539800  1
  Sb  Sb89  1  0.16954808  0.50492077  0.00050317  1
  Sb  Sb90  1  0.33498937  0.33384207  0.66894748  1
  Sb  Sb91  1  0.83343983  0.50390262  0.66238792  1
  Sb  Sb92  1  0.49866797  0.50700588  0.00326690  1
  Sb  Sb93  1  0.83224007  0.16131765  0.66778252  1
  Sb  Sb94  1  0.00190415  0.15742488  0.16937232  1
  Sb  Sb95  1  0.66620005  0.16115132  0.83172044  1
  Sb  Sb96  1  0.50483223  -0.00739279  0.83544671  1
  Sb  Sb97  1  0.83305375  0.83491040  -0.00088093  1
  Sb  Sb98  1  -0.00071338  0.16313937  0.83451934  1
  Sb  Sb99  1  0.50260088  0.16582227  0.65645570  1
  Sb  Sb100  1  0.33396067  0.16058775  0.17054801  1
  Sb  Sb101  1  -0.00198511  0.67152659  0.66403517  1
  Sb  Sb102  1  0.33503302  0.50610553  0.49426212  1
  Sb  Sb103  1  -0.00210529  0.15953990  0.49775387  1
  Sb  Sb104  1  -0.00094971  0.50528098  0.50181046  1
  Sb  Sb105  1  0.66662836  0.67324664  0.00491812  1
  Sb  Sb106  1  0.00181339  0.33665592  0.00115767  1
  Sb  Sb107  1  0.49800767  0.16104128  0.00652855  1
  Te  Te108  1  0.16660480  0.16930939  0.16793355  1
  Te  Te109  1  0.16784662  0.16204744  0.49456057  1
  Te  Te110  1  0.16703631  0.17033039  0.83770647  1
  Te  Te111  1  0.17147031  0.50922939  0.16643799  1
  Te  Te112  1  0.16857681  0.50658202  0.50009218  1
  Te  Te113  1  0.16532830  0.49790484  0.83426819  1
  Te  Te114  1  0.16665675  0.83057908  0.16673362  1
  Te  Te115  1  0.16527650  0.83622852  0.49906020  1
  Te  Te116  1  0.16466776  0.83329454  0.83485895  1
  Te  Te117  1  0.49933763  0.17393226  0.17333983  1
  Te  Te118  1  0.50113570  0.16475714  0.49508355  1
  Te  Te119  1  0.49882345  0.16819654  0.83242437  1
  Te  Te120  1  0.50020745  0.49634434  0.16661677  1
  Te  Te121  1  0.49885463  0.50253874  0.49868094  1
  Te  Te122  1  0.49711808  0.50886120  0.83366745  1
  Te  Te123  1  0.49909678  0.83303965  0.16664385  1
  Te  Te124  1  0.50489327  0.83667529  0.50009591  1
  Te  Te125  1  0.50064969  0.82731478  0.83444981  1
  Te  Te126  1  0.83378481  0.16615222  0.15963208  1
  Te  Te127  1  0.82805725  0.17401956  0.50040968  1
  Te  Te128  1  0.83236415  0.16472599  0.83865219  1
  Te  Te129  1  0.82915822  0.49971767  0.17271938  1
  Te  Te130  1  0.83357385  0.49918942  0.49469832  1
  Te  Te131  1  0.83704464  0.50510787  0.83399584  1
  Te  Te132  1  0.83205292  0.83301926  0.17254661  1
  Te  Te133  1  0.83239605  0.83294861  0.50048551  1
  Te  Te134  1  0.83196702  0.83223038  0.83689899  1
  Te  Te135  1  0.16938070  -0.00155421  0.00004042  1
  Te  Te136  1  0.16738139  -0.00332644  0.33426479  1
  Te  Te137  1  0.16176059  0.00165121  0.66123069  1
  Te  Te138  1  0.16948653  0.33202799  -0.00237592  1
  Te  Te139  1  0.16232098  0.33557096  0.33329253  1
  Te  Te140  1  0.16333842  0.33211800  0.67185967  1
  Te  Te141  1  0.16686027  0.67203785  0.00156455  1
  Te  Te142  1  0.16508225  0.67099235  0.33220053  1
  Te  Te143  1  0.16661820  0.66714282  0.65478767  1
  Te  Te144  1  0.49910364  -0.00385807  0.00167967  1
  Te  Te145  1  0.49978837  0.00348103  0.33236694  1
  Te  Te146  1  0.50674323  0.00033591  0.66479251  1
  Te  Te147  1  0.49923434  0.33026521  0.00205981  1
  Te  Te148  1  0.49996660  0.33003984  0.33386921  1
  Te  Te149  1  0.50562042  0.33309643  0.66401100  1
  Te  Te150  1  0.49993938  0.67256393  0.00458161  1
  Te  Te151  1  0.50229110  0.66483586  0.33111804  1
  Te  Te152  1  0.50079909  0.66603467  0.65860026  1
  Te  Te153  1  0.83171007  0.00336792  -0.00427705  1
  Te  Te154  1  0.83964226  -0.00497133  0.33207383  1
  Te  Te155  1  0.83260248  -0.00365834  0.67013769  1
  Te  Te156  1  0.83112163  0.32993996  -0.00037508  1
  Te  Te157  1  0.83646362  0.32751306  0.33842477  1
  Te  Te158  1  0.83259090  0.33318506  0.66291513  1
  Te  Te159  1  0.83693612  0.66587509  -0.00633677  1
  Te  Te160  1  0.83369922  0.67236989  0.33340989  1
  Te  Te161  1  0.83301766  0.67164680  0.66744366  1
  Te  Te162  1  0.00390741  0.16595596  0.00229558  1
  Te  Te163  1  0.00407972  0.17228231  0.33278424  1
  Te  Te164  1  -0.00079629  0.16933640  0.66635531  1
  Te  Te165  1  -0.00053202  0.50655436  -0.00403053  1
  Te  Te166  1  -0.00482965  0.49781190  0.33330989  1
  Te  Te167  1  -0.00114361  0.49149689  0.67289861  1
  Te  Te168  1  0.00030284  0.83076578  -0.00386106  1
  Te  Te169  1  0.00287532  0.82962908  0.33465752  1
  Te  Te170  1  -0.00572299  0.83591079  0.67379256  1
  Te  Te171  1  0.32929033  0.16897824  0.00020096  1
  Te  Te172  1  0.33109074  0.16120992  0.33621608  1
  Te  Te173  1  0.33259475  0.16686387  0.65654256  1
  Te  Te174  1  0.33402063  0.49845212  0.00289314  1
  Te  Te175  1  0.33194314  0.49872336  0.32521188  1
  Te  Te176  1  0.33292576  0.50015845  0.67524189  1
  Te  Te177  1  0.33297711  0.83234163  0.00121220  1
  Te  Te178  1  0.32999135  0.83715107  0.33265953  1
  Te  Te179  1  0.33264717  0.83391504  0.65988916  1
  Te  Te180  1  0.66598476  0.16334397  -0.00023762  1
  Te  Te181  1  0.66509935  0.16526405  0.33866524  1
  Te  Te182  1  0.66784552  0.16597328  0.66129449  1
  Te  Te183  1  0.66689910  0.49292682  0.00662022  1
  Te  Te184  1  0.67170572  0.50495542  0.32732434  1
  Te  Te185  1  0.66800545  0.49039361  0.67001718  1
  Te  Te186  1  0.66597586  0.83609051  0.00147283  1
  Te  Te187  1  0.66631544  0.83136705  0.33292123  1
  Te  Te188  1  0.67207409  0.83515818  0.66758489  1
  Te  Te189  1  -0.00097249  -0.00870407  0.17200802  1
  Te  Te190  1  -0.00216927  -0.00406626  0.50010941  1
  Te  Te191  1  -0.00396290  -0.00412017  0.83129573  1
  Te  Te192  1  0.00043726  0.33655340  0.17037005  1
  Te  Te193  1  0.00066765  0.33418730  0.50086082  1
  Te  Te194  1  0.00290611  0.33288472  0.83388196  1
  Te  Te195  1  -0.00093604  0.67022333  0.16696757  1
  Te  Te196  1  -0.00300209  0.67059729  0.49752392  1
  Te  Te197  1  0.00051242  0.66822866  0.83062963  1
  Te  Te198  1  0.33847150  -0.00474083  0.16631797  1
  Te  Te199  1  0.33525320  -0.00353089  0.49989085  1
  Te  Te200  1  0.33355583  0.00027420  0.83552409  1
  Te  Te201  1  0.33684927  0.33252370  0.16279536  1
  Te  Te202  1  0.33717965  0.33655023  0.50021655  1
  Te  Te203  1  0.33043417  0.33789420  0.83741016  1
  Te  Te204  1  0.33525485  0.67053063  0.16523981  1
  Te  Te205  1  0.33977158  0.67127155  0.49998935  1
  Te  Te206  1  0.33467326  0.66268225  0.83795367  1
  Te  Te207  1  0.66049385  -0.00438133  0.16355274  1
  Te  Te208  1  0.66529923  -0.00264677  0.50043410  1
  Te  Te209  1  0.66962070  -0.00508786  0.83396078  1
  Te  Te210  1  0.66310124  0.33076543  0.16411137  1
  Te  Te211  1  0.66534378  0.33823371  0.49975851  1
  Te  Te212  1  0.66673258  0.33409249  0.83744243  1
  Te  Te213  1  0.66407036  0.66894979  0.16886927  1
  Te  Te214  1  0.66750171  0.67056514  0.49678840  1
  Te  Te215  1  0.66603071  0.67052117  0.83323563  1
