# generated using pymatgen
data_AgSbTe2
_symmetry_space_group_name_H-M   'P 1'
_cell_length_a   18.33500306
_cell_length_b   18.33872000
_cell_length_c   18.33575064
_cell_angle_alpha   90.00131120
_cell_angle_beta   90.00017947
_cell_angle_gamma   89.99656835
_symmetry_Int_Tables_number   1
_chemical_formula_structural   AgSbTe2
_chemical_formula_sum   'Ag54 Sb54 Te108'
_cell_volume   6165.22171750
_cell_formula_units_Z   54
loop_
 _symmetry_equiv_pos_site_id
 _symmetry_equiv_pos_as_xyz
  1  'x, y, z'
loop_
 _atom_site_type_symbol
 _atom_site_label
 _atom_site_symmetry_multiplicity
 _atom_site_fract_x
 _atom_site_fract_y
 _atom_site_fract_z
 _atom_site_occupancy
  Ag  Ag0  1  0.17055100  -0.00881504  0.83591586  1
  Ag  Ag1  1  0.33111415  0.66972501  0.66633518  1
  Ag  Ag2  1  0.49824475  -0.00039951  0.48765954  1
  Ag  Ag3  1  0.34103754  0.33431927  0.01080997  1
  Ag  Ag4  1  0.49946711  0.16447130  0.33117169  1
  Ag  Ag5  1  0.82286633  0.33791980  0.16950345  1
  Ag  Ag6  1  0.00028407  0.00246619  0.33493083  1
  Ag  Ag7  1  0.33005623  0.83325889  0.83678662  1
  Ag  Ag8  1  0.50122261  0.65799562  0.16600923  1
  Ag  Ag9  1  0.17054601  0.67343470  0.84178955  1
  Ag  Ag10  1  0.49664983  0.83857080  0.66541497  1
  Ag  Ag11  1  0.82673855  0.49746924  0.33001233  1
  Ag  Ag12  1  0.66370333  0.65864433  0.32415731  1
  Ag  Ag13  1  0.49936348  0.32993796  0.84817159  1
  Ag  Ag14  1  0.00449468  0.66506618  0.33192465  1
  Ag  Ag15  1  0.83712993  0.33381471  0.48723358  1
  Ag  Ag16  1  0.33655788  -0.00536022  0.67048815  1
  Ag  Ag17  1  0.16884359  0.83069688  -0.00262245  1
  Ag  Ag18  1  0.66434549  0.16670241  0.83960678  1
  Ag  Ag19  1  0.49944198  0.00181707  0.17037707  1
  Ag  Ag20  1  0.65697392  -0.00068113  0.32694625  1
  Ag  Ag21  1  0.33621288  0.33855920  0.32402654  1
  Ag  Ag22  1  0.82996032  0.16665469  0.00157862  1
  Ag  Ag23  1  -0.00120576  0.83577445  0.49777736  1
  Ag  Ag24  1  0.66076618  0.33382820  0.01073825  1
  Ag  Ag25  1  0.16528083  0.34111577  0.48825368  1
  Ag  Ag26  1  0.65825745  0.00122885  0.00843327  1
  Ag  Ag27  1  0.33405571  0.66065947  0.32606554  1
  Ag  Ag28  1  0.33596045  0.50228779  0.48995043  1
  Ag  Ag29  1  0.33692679  0.18189269  0.16768693  1
  Ag  Ag30  1  0.34133697  0.00101723  0.32838065  1
  Ag  Ag31  1  0.83214686  0.83599464  0.00236985  1
  Ag  Ag32  1  0.17146751  0.66345883  0.49501006  1
  Ag  Ag33  1  0.65762485  0.66762866  0.01103535  1
  Ag  Ag34  1  0.49864875  0.33940994  0.16571757  1
  Ag  Ag35  1  -0.00226073  0.33351473  0.32952975  1
  Ag  Ag36  1  0.01214163  0.83640196  0.83486506  1
  Ag  Ag37  1  0.33999743  0.49518989  0.16971492  1
  Ag  Ag38  1  0.49819724  0.49581184  0.00616601  1
  Ag  Ag39  1  -0.00045223  0.16701155  0.49507132  1
  Ag  Ag40  1  0.33787392  -0.00282818  0.00558724  1
  Ag  Ag41  1  -0.00027049  0.33076419  0.01245526  1
  Ag  Ag42  1  0.17120245  0.50264297  0.66241623  1
  Ag  Ag43  1  0.65992594  0.50488599  0.16965853  1
  Ag  Ag44  1  0.66741273  0.82980220  0.48816694  1
  Ag  Ag45  1  0.66785818  0.34238349  0.32793779  1
  Ag  Ag46  1  0.81620689  0.65840128  0.16989891  1
  Ag  Ag47  1  0.18234882  0.33928800  0.17039101  1
  Ag  Ag48  1  0.66019397  0.50230019  0.48712812  1
  Ag  Ag49  1  0.49864386  0.16303310  0.66366030  1
  Ag  Ag50  1  0.66603629  0.81969431  0.16966397  1
  Ag  Ag51  1  -0.00033982  0.16413892  0.83436664  1
  Ag  Ag52  1  0.33557468  0.66658722  0.00904721  1
  Ag  Ag53  1  0.17644483  0.66304356  0.16860268  1
  Sb  Sb54  1  0.16500361  0.16552499  0.00016663  1
  Sb  Sb55  1  0.00162403  0.49858804  0.16959463  1
  Sb  Sb56  1  0.49415159  0.66508838  0.83973156  1
  Sb  Sb57  1  0.17435362  -0.00169896  0.16428104  1
  Sb  Sb58  1  0.82887610  0.17326644  0.32716707  1
  Sb  Sb59  1  0.33472055  0.33445900  0.66476672  1
  Sb  Sb60  1  0.33162984  0.16979939  0.49367009  1
  Sb  Sb61  1  0.34010449  0.82756383  0.16284008  1
  Sb  Sb62  1  0.00133087  0.00188171  0.00381904  1
  Sb  Sb63  1  0.17155043  -0.00281659  0.50129861  1
  Sb  Sb64  1  0.00204971  0.33179746  0.66172453  1
  Sb  Sb65  1  0.82958002  0.16791972  0.66982496  1
  Sb  Sb66  1  -0.00466704  0.83170782  0.16698748  1
  Sb  Sb67  1  0.50166393  0.83869633  0.33428904  1
  Sb  Sb68  1  0.49574826  0.00389718  0.83716573  1
  Sb  Sb69  1  0.50289359  0.49451339  0.32590021  1
  Sb  Sb70  1  0.50294394  0.17147768  0.00463006  1
  Sb  Sb71  1  0.82902254  0.83164626  0.66973085  1
  Sb  Sb72  1  0.82512156  0.00227426  0.16718362  1
  Sb  Sb73  1  0.00836487  -0.00106393  0.66505123  1
  Sb  Sb74  1  0.33326492  0.50466261  0.83743163  1
  Sb  Sb75  1  0.83083392  0.82926620  0.32814301  1
  Sb  Sb76  1  0.00253042  0.49992005  0.83564295  1
  Sb  Sb77  1  0.17021248  0.33456257  0.83815889  1
  Sb  Sb78  1  0.66450848  0.49696166  0.84067583  1
  Sb  Sb79  1  0.49855185  0.83136098  0.00014978  1
  Sb  Sb80  1  0.17086942  0.16961523  0.33353856  1
  Sb  Sb81  1  0.00476690  0.17027335  0.16906839  1
  Sb  Sb82  1  0.49878067  0.33094975  0.49162562  1
  Sb  Sb83  1  0.66400571  0.33401749  0.66362086  1
  Sb  Sb84  1  0.33373120  0.82954854  0.50213278  1
  Sb  Sb85  1  0.83837010  0.66838350  0.84587758  1
  Sb  Sb86  1  0.82712706  0.49819382  0.00934283  1
  Sb  Sb87  1  0.65688565  0.66786030  0.66269723  1
  Sb  Sb88  1  0.00333195  0.66485813  0.00663004  1
  Sb  Sb89  1  0.33492418  0.16307583  0.83915217  1
  Sb  Sb90  1  0.17376476  0.82847867  0.67195477  1
  Sb  Sb91  1  0.17193719  0.16946465  0.66626751  1
  Sb  Sb92  1  0.65675716  0.00013643  0.66477184  1
  Sb  Sb93  1  0.82936127  0.00319178  0.49592310  1
  Sb  Sb94  1  0.66785164  0.16774648  0.49850037  1
  Sb  Sb95  1  0.00901513  0.66916303  0.66056003  1
  Sb  Sb96  1  0.66322317  0.83725990  0.84036031  1
  Sb  Sb97  1  0.83614066  0.50048789  0.65387659  1
  Sb  Sb98  1  0.83018263  0.33187878  0.84213586  1
  Sb  Sb99  1  0.16594214  0.82965804  0.32850545  1
  Sb  Sb100  1  0.65931464  0.17267022  0.16364482  1
  Sb  Sb101  1  0.16888475  0.49948588  0.33435839  1
  Sb  Sb102  1  0.83544465  0.66286544  0.49043016  1
  Sb  Sb103  1  0.17337851  0.50326967  0.00138511  1
  Sb  Sb104  1  0.00544036  0.49897516  0.49417192  1
  Sb  Sb105  1  0.83725286  0.00025942  0.83697563  1
  Sb  Sb106  1  0.49507365  0.49992219  0.66919001  1
  Sb  Sb107  1  0.49596950  0.66938953  0.49004917  1
  Te  Te108  1  0.17521838  0.17155444  0.16604690  1
  Te  Te109  1  0.16020529  0.16991616  0.50183452  1
  Te  Te110  1  0.16131017  0.16581018  0.83195179  1
  Te  Te111  1  0.17275759  0.50008634  0.16593531  1
  Te  Te112  1  0.17042971  0.50104424  0.50061658  1
  Te  Te113  1  0.16638250  0.50531718  0.82714208  1
  Te  Te114  1  0.16373831  0.82984431  0.15940783  1
  Te  Te115  1  0.16064639  0.82912936  0.50095740  1
  Te  Te116  1  0.16873624  0.83114693  0.83380208  1
  Te  Te117  1  0.49461241  0.16235442  0.16946804  1
  Te  Te118  1  0.49978872  0.16280699  0.49972274  1
  Te  Te119  1  0.50138802  0.17005181  0.83009212  1
  Te  Te120  1  0.50024852  0.49950662  0.16430112  1
  Te  Te121  1  0.49927302  0.49992038  0.50269943  1
  Te  Te122  1  0.50044487  0.49207873  0.83978109  1
  Te  Te123  1  0.50855780  0.83859829  0.16555807  1
  Te  Te124  1  0.50303317  0.83642286  0.50499500  1
  Te  Te125  1  0.49567291  0.83308542  0.82793741  1
  Te  Te126  1  0.83667449  0.17141188  0.16094572  1
  Te  Te127  1  0.83824077  0.17182538  0.50184047  1
  Te  Te128  1  0.83441153  0.16685751  0.83733938  1
  Te  Te129  1  0.83130744  0.49934864  0.17016639  1
  Te  Te130  1  0.82729160  0.49539487  0.49215961  1
  Te  Te131  1  0.83345385  0.50048002  0.82873116  1
  Te  Te132  1  0.82733880  0.83277279  0.16110821  1
  Te  Te133  1  0.83274310  0.83333255  0.50183543  1
  Te  Te134  1  0.83613893  0.83288526  0.83952526  1
  Te  Te135  1  0.16955481  -0.00453648  -0.00321331  1
  Te  Te136  1  0.16334008  -0.00063609  0.33300425  1
  Te  Te137  1  0.17607190  0.00077946  0.67165552  1
  Te  Te138  1  0.16572018  0.33435793  0.00448443  1
  Te  Te139  1  0.16755189  0.33357319  0.33075373  1
  Te  Te140  1  0.16818133  0.33859434  0.66515566  1
  Te  Te141  1  0.16886811  0.66881468  0.00085210  1
  Te  Te142  1  0.16836322  0.66594672  0.33258904  1
  Te  Te143  1  0.17245324  0.66375814  0.66041354  1
  Te  Te144  1  0.49930527  -0.00078995  0.00333241  1
  Te  Te145  1  0.49955887  0.00157484  0.33230447  1
  Te  Te146  1  0.49402022  0.00113341  0.67007263  1
  Te  Te147  1  0.50049980  0.33271873  0.00492928  1
  Te  Te148  1  0.49785924  0.32694122  0.32889551  1
  Te  Te149  1  0.49961841  0.32960155  0.66707077  1
  Te  Te150  1  0.49829445  0.66495552  0.00380953  1
  Te  Te151  1  0.49995932  0.66973972  0.32675889  1
  Te  Te152  1  0.49142817  0.66812040  0.66862053  1
  Te  Te153  1  0.83145733  0.00061474  0.00143472  1
  Te  Te154  1  0.83973823  0.00127266  0.33278631  1
  Te  Te155  1  0.83230866  -0.00026605  0.66593203  1
  Te  Te156  1  0.83130595  0.33171864  0.00507984  1
  Te  Te157  1  0.83095322  0.33331930  0.33044857  1
  Te  Te158  1  0.83312590  0.33411949  0.66059372  1
  Te  Te159  1  0.83396330  0.66844410  0.00947594  1
  Te  Te160  1  0.82992731  0.66361936  0.32747305  1
  Te  Te161  1  0.83305574  0.66600931  0.66800041  1
  Te  Te162  1  -0.00329064  0.16972870  -0.00262899  1
  Te  Te163  1  -0.00071093  0.17007424  0.33596421  1
  Te  Te164  1  -0.00078024  0.16490730  0.67075541  1
  Te  Te165  1  -0.00118225  0.49102978  0.00041067  1
  Te  Te166  1  -0.00917215  0.49872439  0.33346463  1
  Te  Te167  1  0.00656063  0.50069324  0.66584258  1
  Te  Te168  1  -0.00126085  0.83368246  -0.00332734  1
  Te  Te169  1  -0.00200513  0.83130525  0.33635575  1
  Te  Te170  1  -0.00281557  0.83405018  0.66758274  1
  Te  Te171  1  0.33260613  0.16567730  0.00495189  1
  Te  Te172  1  0.33677350  0.16403837  0.32994656  1
  Te  Te173  1  0.33865302  0.16348429  0.66634496  1
  Te  Te174  1  0.33671236  0.50146561  0.00390103  1
  Te  Te175  1  0.33483190  0.50018789  0.33198534  1
  Te  Te176  1  0.33074894  0.50351831  0.66531227  1
  Te  Te177  1  0.33230613  0.83228733  -0.00282351  1
  Te  Te178  1  0.33206464  0.83633043  0.33512008  1
  Te  Te179  1  0.33657105  0.83368837  0.66859955  1
  Te  Te180  1  0.66869249  0.16622724  -0.00187057  1
  Te  Te181  1  0.66285181  0.15947631  0.33580780  1
  Te  Te182  1  0.66145581  0.16653695  0.67337481  1
  Te  Te183  1  0.66246920  0.49948048  0.00479305  1
  Te  Te184  1  0.66509748  0.49982177  0.33055951  1
  Te  Te185  1  0.66653754  0.50170662  0.66192777  1
  Te  Te186  1  0.66721858  0.83363584  0.00164157  1
  Te  Te187  1  0.66817526  0.83797285  0.33132137  1
  Te  Te188  1  0.66064127  0.83328243  0.66483626  1
  Te  Te189  1  0.00220491  0.00092619  0.17355825  1
  Te  Te190  1  0.00131844  -0.00034510  0.49783301  1
  Te  Te191  1  0.00553589  -0.00101800  0.83407708  1
  Te  Te192  1  -0.00348544  0.33370989  0.16988100  1
  Te  Te193  1  0.00256921  0.33270811  0.49588717  1
  Te  Te194  1  0.00002754  0.32964135  0.83379660  1
  Te  Te195  1  0.01037969  0.66594184  0.17331222  1
  Te  Te196  1  0.00334544  0.66940914  0.49378649  1
  Te  Te197  1  0.00657309  0.67068091  0.83360856  1
  Te  Te198  1  0.33665858  -0.00670931  0.16680708  1
  Te  Te199  1  0.33699772  0.00023966  0.49445163  1
  Te  Te200  1  0.33068591  -0.00200868  0.83803498  1
  Te  Te201  1  0.33784786  0.33765554  0.16679826  1
  Te  Te202  1  0.32889360  0.33780375  0.49666520  1
  Te  Te203  1  0.33676662  0.33242034  0.83745951  1
  Te  Te204  1  0.33533751  0.66791825  0.16742646  1
  Te  Te205  1  0.33147101  0.66354451  0.49576813  1
  Te  Te206  1  0.32990852  0.67007065  0.83324654  1
  Te  Te207  1  0.66311245  0.00533244  0.16654345  1
  Te  Te208  1  0.66192426  -0.00350565  0.49735499  1
  Te  Te209  1  0.66774897  0.00460267  0.83721296  1
  Te  Te210  1  0.66391884  0.33260793  0.16832757  1
  Te  Te211  1  0.66813073  0.33583878  0.49471950  1
  Te  Te212  1  0.66272870  0.32898724  0.83462866  1
  Te  Te213  1  0.66172765  0.66431193  0.16642181  1
  Te  Te214  1  0.66622632  0.66809204  0.49492157  1
  Te  Te215  1  0.66766340  0.66667960  0.83796068  1
