# generated using pymatgen
data_AgSbTe2
_symmetry_space_group_name_H-M   'P 1'
_cell_length_a   18.35271331
_cell_length_b   18.34492484
_cell_length_c   18.34452034
_cell_angle_alpha   89.99722278
_cell_angle_beta   90.00005344
_cell_angle_gamma   89.99843516
_symmetry_Int_Tables_number   1
_chemical_formula_structural   AgSbTe2
_chemical_formula_sum   'Ag54 Sb54 Te108'
_cell_volume   6176.21743995
_cell_formula_units_Z   54
loop_
 _symmetry_equiv_pos_site_id
 _symmetry_equiv_pos_as_xyz
  1  'x, y, z'
loop_
 _atom_site_type_symbol
 _atom_site_label
 _atom_site_symmetry_multiplicity
 _atom_site_fract_x
 _atom_site_fract_y
 _atom_site_fract_z
 _atom_site_occupancy
  Ag  Ag0  1  0.16161422  0.67553206  0.17176522  1
  Ag  Ag1  1  -0.00452765  -0.00859099  0.66374706  1
  Ag  Ag2  1  0.49953597  0.83206859  0.33113591  1
  Ag  Ag3  1  0.32688238  0.33308914  0.33216852  1
  Ag  Ag4  1  -0.00582160  0.82862679  0.81584895  1
  Ag  Ag5  1  0.83131953  0.51058860  0.67254335  1
  Ag  Ag6  1  0.31987295  0.83107084  0.16829677  1
  Ag  Ag7  1  0.51031570  0.51518711  0.67081232  1
  Ag  Ag8  1  0.66676747  0.16798587  0.51026184  1
  Ag  Ag9  1  0.15489566  0.83314867  0.00842459  1
  Ag  Ag10  1  0.83284900  0.66914578  0.82825924  1
  Ag  Ag11  1  0.66856878  0.17323014  0.82908321  1
  Ag  Ag12  1  -0.00057137  0.83226938  0.50122502  1
  Ag  Ag13  1  0.83406496  0.33444034  0.50328961  1
  Ag  Ag14  1  0.15438885  0.83185541  0.32166536  1
  Ag  Ag15  1  -0.00206166  0.33393268  0.32653799  1
  Ag  Ag16  1  -0.00250455  0.50046651  0.16481777  1
  Ag  Ag17  1  0.83778142  -0.00550250  0.16467012  1
  Ag  Ag18  1  0.83536160  0.33940594  0.83099040  1
  Ag  Ag19  1  0.15694719  0.67229495  0.50243678  1
  Ag  Ag20  1  0.50004666  0.83190269  0.67111424  1
  Ag  Ag21  1  0.50353055  0.15892842  -0.01075557  1
  Ag  Ag22  1  0.50638316  0.67152524  0.82668850  1
  Ag  Ag23  1  0.83732424  0.67132848  0.51165464  1
  Ag  Ag24  1  0.84273421  0.83259387  0.33093754  1
  Ag  Ag25  1  0.50704941  0.16119142  0.66918720  1
  Ag  Ag26  1  0.67155870  0.49725848  0.83387040  1
  Ag  Ag27  1  0.00513092  0.83490694  0.18725753  1
  Ag  Ag28  1  0.67744319  0.33352243  0.32984591  1
  Ag  Ag29  1  0.34092679  0.50132235  0.82878171  1
  Ag  Ag30  1  0.15639862  0.33563333  0.83733028  1
  Ag  Ag31  1  0.67493157  0.66566906  0.66798734  1
  Ag  Ag32  1  0.84339297  0.82565389  0.67065084  1
  Ag  Ag33  1  0.50777269  -0.01094344  0.82911755  1
  Ag  Ag34  1  0.15637788  -0.01051342  0.16799197  1
  Ag  Ag35  1  0.66890584  0.33303863  -0.00078797  1
  Ag  Ag36  1  0.50066670  0.83398681  -0.00466998  1
  Ag  Ag37  1  -0.00830567  0.67527826  0.66074790  1
  Ag  Ag38  1  0.83155529  -0.00925113  0.83000446  1
  Ag  Ag39  1  0.15713507  0.83168965  0.66699330  1
  Ag  Ag40  1  -0.00747564  0.50798331  0.83282892  1
  Ag  Ag41  1  0.33431165  0.66773980  0.66726399  1
  Ag  Ag42  1  0.15440586  0.33312684  0.16565044  1
  Ag  Ag43  1  -0.00064402  0.15992387  0.16939031  1
  Ag  Ag44  1  -0.00032216  0.67350345  0.33715768  1
  Ag  Ag45  1  0.50073124  -0.00077382  0.51149476  1
  Ag  Ag46  1  0.49641177  0.67048659  0.16033774  1
  Ag  Ag47  1  -0.00204109  -0.01156725  0.33100624  1
  Ag  Ag48  1  0.83663235  0.33211349  0.16970439  1
  Ag  Ag49  1  0.67752537  0.49815209  0.16171230  1
  Ag  Ag50  1  0.84184813  0.83473670  -0.00642543  1
  Ag  Ag51  1  0.15847470  0.15972564  0.66746192  1
  Ag  Ag52  1  0.83286624  0.16443860  0.66924446  1
  Ag  Ag53  1  0.33961874  0.16802351  0.50288323  1
  Sb  Sb54  1  0.67296033  0.82904822  0.16634813  1
  Sb  Sb55  1  0.67046693  0.83542295  0.50259975  1
  Sb  Sb56  1  -0.00220294  -0.00469597  0.00434473  1
  Sb  Sb57  1  0.50213372  0.50232428  0.33570158  1
  Sb  Sb58  1  0.33341564  0.66915867  -0.00351463  1
  Sb  Sb59  1  0.16883251  0.16413385  -0.00192787  1
  Sb  Sb60  1  0.33823932  0.17071803  0.82732004  1
  Sb  Sb61  1  -0.00033271  0.67228195  -0.00037726  1
  Sb  Sb62  1  0.83446208  0.50063510  0.33556569  1
  Sb  Sb63  1  -0.00260262  0.16484029  0.49843682  1
  Sb  Sb64  1  0.83774627  0.66770391  0.16538227  1
  Sb  Sb65  1  0.16215649  0.33444842  0.49939399  1
  Sb  Sb66  1  0.50362442  0.33827271  0.16734291  1
  Sb  Sb67  1  0.16517773  0.50368469  -0.00101219  1
  Sb  Sb68  1  0.66998046  0.33361188  0.66833940  1
  Sb  Sb69  1  0.82974090  0.16501739  -0.00334779  1
  Sb  Sb70  1  0.50493277  0.33595785  0.83234440  1
  Sb  Sb71  1  0.66657111  0.66496165  -0.00420455  1
  Sb  Sb72  1  0.50295272  0.67325736  0.50587409  1
  Sb  Sb73  1  0.33001176  0.50377870  0.16379918  1
  Sb  Sb74  1  0.33013136  -0.00101785  0.33392415  1
  Sb  Sb75  1  -0.00563065  0.16409927  0.83434591  1
  Sb  Sb76  1  0.16742942  -0.00448825  0.49835632  1
  Sb  Sb77  1  0.83303091  0.50283422  -0.00548236  1
  Sb  Sb78  1  0.16287225  0.66521393  0.83176821  1
  Sb  Sb79  1  0.32857811  0.66705661  0.33613971  1
  Sb  Sb80  1  0.33392282  -0.00260251  0.66581589  1
  Sb  Sb81  1  0.66899149  -0.00179070  0.66844685  1
  Sb  Sb82  1  0.66750374  0.00105908  -0.00270355  1
  Sb  Sb83  1  0.83472134  0.16703340  0.33482559  1
  Sb  Sb84  1  -0.00368997  0.33569704  0.66575671  1
  Sb  Sb85  1  0.67026898  0.00134118  0.33409833  1
  Sb  Sb86  1  0.32955691  0.16388447  0.17049291  1
  Sb  Sb87  1  0.33264067  0.33494791  0.66539827  1
  Sb  Sb88  1  -0.00532317  0.33341338  0.00377847  1
  Sb  Sb89  1  0.50020347  0.16335765  0.33641737  1
  Sb  Sb90  1  0.67141727  0.66516950  0.33588160  1
  Sb  Sb91  1  -0.00212211  0.50654424  0.50132053  1
  Sb  Sb92  1  0.33643786  0.33261749  0.00103841  1
  Sb  Sb93  1  0.33121831  0.83448797  0.49909413  1
  Sb  Sb94  1  0.67112326  0.17216635  0.16489030  1
  Sb  Sb95  1  0.16449962  0.16363857  0.33523615  1
  Sb  Sb96  1  0.50555329  0.32916176  0.50046774  1
  Sb  Sb97  1  0.50184112  -0.00697950  0.16371909  1
  Sb  Sb98  1  0.33394643  -0.00327726  0.00075081  1
  Sb  Sb99  1  0.33346237  0.83001997  0.83361535  1
  Sb  Sb100  1  0.33433153  0.49757566  0.50468532  1
  Sb  Sb101  1  0.83227963  -0.00187537  0.50396146  1
  Sb  Sb102  1  0.66966823  0.49646879  0.50377073  1
  Sb  Sb103  1  0.16272575  0.50425204  0.33116235  1
  Sb  Sb104  1  0.16278780  0.50385398  0.66896763  1
  Sb  Sb105  1  0.67204747  0.83043913  0.83185155  1
  Sb  Sb106  1  0.16191062  -0.00091965  0.83370604  1
  Sb  Sb107  1  0.50184876  0.50149448  -0.00451067  1
  Te  Te108  1  0.16322421  0.17289799  0.16632441  1
  Te  Te109  1  0.16784796  0.16730932  0.50699389  1
  Te  Te110  1  0.16790152  0.16891749  0.82936003  1
  Te  Te111  1  0.16235747  0.49286351  0.16563177  1
  Te  Te112  1  0.16722362  0.50838516  0.49994641  1
  Te  Te113  1  0.15799669  0.49600979  0.83446747  1
  Te  Te114  1  0.16357643  0.83242344  0.16546826  1
  Te  Te115  1  0.16677261  0.83079625  0.50802887  1
  Te  Te116  1  0.16474966  0.83375761  0.82702036  1
  Te  Te117  1  0.49904528  0.16538149  0.16524054  1
  Te  Te118  1  0.50218160  0.16244807  0.50073845  1
  Te  Te119  1  0.50407549  0.16980449  0.83204011  1
  Te  Te120  1  0.49754147  0.50797727  0.16778058  1
  Te  Te121  1  0.50096414  0.49955567  0.50954765  1
  Te  Te122  1  0.50402719  0.50267913  0.82950445  1
  Te  Te123  1  0.50692872  0.83000447  0.16509461  1
  Te  Te124  1  0.49991400  0.83878676  0.50094356  1
  Te  Te125  1  0.49878948  0.83223451  0.83454707  1
  Te  Te126  1  0.83870067  0.16898931  0.16609500  1
  Te  Te127  1  0.83014221  0.16897357  0.50345670  1
  Te  Te128  1  0.83003258  0.16849775  0.83253317  1
  Te  Te129  1  0.83627586  0.49775197  0.16511095  1
  Te  Te130  1  0.83296921  0.49646450  0.50638985  1
  Te  Te131  1  0.83278007  0.49992224  0.83366895  1
  Te  Te132  1  0.83810904  0.83441249  0.17049049  1
  Te  Te133  1  0.83426722  0.83198751  0.50276588  1
  Te  Te134  1  0.83285689  0.83196571  0.83104628  1
  Te  Te135  1  0.16747618  -0.00423627  0.00464890  1
  Te  Te136  1  0.16261504  -0.00451848  0.32971791  1
  Te  Te137  1  0.16312084  -0.00075635  0.66766749  1
  Te  Te138  1  0.16852560  0.33211937  -0.00160086  1
  Te  Te139  1  0.16429965  0.33286593  0.33070212  1
  Te  Te140  1  0.16593617  0.33220016  0.66912649  1
  Te  Te141  1  0.16817734  0.67374051  0.00648756  1
  Te  Te142  1  0.16381156  0.67088268  0.33378135  1
  Te  Te143  1  0.16599315  0.66895410  0.66662057  1
  Te  Te144  1  0.50064909  -0.00052885  -0.00390786  1
  Te  Te145  1  0.50015791  -0.00564943  0.33102921  1
  Te  Te146  1  0.49978697  0.00131624  0.66949316  1
  Te  Te147  1  0.50433552  0.33144667  0.00118501  1
  Te  Te148  1  0.49865468  0.33468310  0.33446566  1
  Te  Te149  1  0.49892805  0.32370461  0.66488763  1
  Te  Te150  1  0.49989390  0.67036803  -0.00008769  1
  Te  Te151  1  0.50116153  0.67033460  0.33567866  1
  Te  Te152  1  0.49676237  0.66934961  0.66692698  1
  Te  Te153  1  0.83238020  -0.00471436  -0.00373955  1
  Te  Te154  1  0.83725771  -0.00365551  0.33178455  1
  Te  Te155  1  0.83455803  0.00255106  0.66910336  1
  Te  Te156  1  0.82769957  0.33297235  -0.00218748  1
  Te  Te157  1  0.83483647  0.33431521  0.33081435  1
  Te  Te158  1  0.83230837  0.32432911  0.66799953  1
  Te  Te159  1  0.83190798  0.67582629  -0.00803229  1
  Te  Te160  1  0.83806368  0.66941462  0.33437205  1
  Te  Te161  1  0.83296247  0.66750224  0.66867558  1
  Te  Te162  1  0.00334110  0.16579247  0.00865604  1
  Te  Te163  1  0.00006984  0.17130445  0.32923102  1
  Te  Te164  1  -0.00007949  0.16617477  0.66667163  1
  Te  Te165  1  0.00017888  0.50130461  -0.00178460  1
  Te  Te166  1  -0.00126651  0.49665376  0.32888147  1
  Te  Te167  1  -0.00615077  0.50229838  0.67073218  1
  Te  Te168  1  -0.00068295  0.83453365  -0.00403313  1
  Te  Te169  1  -0.00103683  0.83139485  0.34057534  1
  Te  Te170  1  -0.00093633  0.83386884  0.66182084  1
  Te  Te171  1  0.34202046  0.16654180  -0.00035176  1
  Te  Te172  1  0.33243057  0.17019740  0.33885006  1
  Te  Te173  1  0.33456982  0.16621912  0.66144561  1
  Te  Te174  1  0.33329628  0.49995644  -0.00998109  1
  Te  Te175  1  0.33421327  0.49335033  0.33372605  1
  Te  Te176  1  0.33230195  0.50324149  0.67135842  1
  Te  Te177  1  0.33918130  0.83206941  0.00536897  1
  Te  Te178  1  0.33816472  0.83218802  0.32944594  1
  Te  Te179  1  0.34126636  0.82970475  0.66679428  1
  Te  Te180  1  0.66223290  0.17141844  -0.00198936  1
  Te  Te181  1  0.66671968  0.17209977  0.33380846  1
  Te  Te182  1  0.66705202  0.16561747  0.66797143  1
  Te  Te183  1  0.66645672  0.49545116  -0.00004237  1
  Te  Te184  1  0.66691781  0.49508324  0.32913654  1
  Te  Te185  1  0.66893877  0.50072099  0.66974008  1
  Te  Te186  1  0.66189660  0.83279846  0.00001444  1
  Te  Te187  1  0.66132050  0.83280976  0.33406369  1
  Te  Te188  1  0.66003040  0.82933828  0.66660635  1
  Te  Te189  1  -0.00254698  -0.00303908  0.16751990  1
  Te  Te190  1  0.00000580  -0.00305758  0.49968425  1
  Te  Te191  1  -0.00479000  -0.00312644  0.82761035  1
  Te  Te192  1  -0.00292694  0.33858765  0.16474930  1
  Te  Te193  1  -0.00515318  0.33306333  0.49430712  1
  Te  Te194  1  -0.00198594  0.33302096  0.83341703  1
  Te  Te195  1  0.00208399  0.66841752  0.16701864  1
  Te  Te196  1  -0.00220659  0.66577463  0.49960435  1
  Te  Te197  1  -0.00170542  0.66915070  0.83209829  1
  Te  Te198  1  0.32998474  -0.00583718  0.16762404  1
  Te  Te199  1  0.33893505  0.00635676  0.49894680  1
  Te  Te200  1  0.34126167  0.00205762  0.83342194  1
  Te  Te201  1  0.33466007  0.33354232  0.17084274  1
  Te  Te202  1  0.33039990  0.33025194  0.49467054  1
  Te  Te203  1  0.32877922  0.33942344  0.83378229  1
  Te  Te204  1  0.33415665  0.67024623  0.16819062  1
  Te  Te205  1  0.33187357  0.66601050  0.50521336  1
  Te  Te206  1  0.33428448  0.66350294  0.82939921  1
  Te  Te207  1  0.67620828  0.00196899  0.16614570  1
  Te  Te208  1  0.66101166  0.00701402  0.49874291  1
  Te  Te209  1  0.66735115  0.00625661  0.83364319  1
  Te  Te210  1  0.66862751  0.33813636  0.16680366  1
  Te  Te211  1  0.67207874  0.32961445  0.49485512  1
  Te  Te212  1  0.67029802  0.33491427  0.83479259  1
  Te  Te213  1  0.66545543  0.65783788  0.16732662  1
  Te  Te214  1  0.67392409  0.66557856  0.50510642  1
  Te  Te215  1  0.66654406  0.66416676  0.83088352  1
