# generated using pymatgen
data_AgSbTe2
_symmetry_space_group_name_H-M   'P 1'
_cell_length_a   18.33326267
_cell_length_b   18.33140501
_cell_length_c   18.33237857
_cell_angle_alpha   89.99869499
_cell_angle_beta   89.99819729
_cell_angle_gamma   90.00382721
_symmetry_Int_Tables_number   1
_chemical_formula_structural   AgSbTe2
_chemical_formula_sum   'Ag54 Sb54 Te108'
_cell_volume   6161.04427056
_cell_formula_units_Z   54
loop_
 _symmetry_equiv_pos_site_id
 _symmetry_equiv_pos_as_xyz
  1  'x, y, z'
loop_
 _atom_site_type_symbol
 _atom_site_label
 _atom_site_symmetry_multiplicity
 _atom_site_fract_x
 _atom_site_fract_y
 _atom_site_fract_z
 _atom_site_occupancy
  Ag  Ag0  1  0.33017879  0.50110278  0.49882157  1
  Ag  Ag1  1  0.16030153  0.32842289  0.84175041  1
  Ag  Ag2  1  0.15216542  0.65829503  0.15760930  1
  Ag  Ag3  1  0.67259454  0.66530347  0.66778637  1
  Ag  Ag4  1  0.32574445  0.00724125  0.33881539  1
  Ag  Ag5  1  0.50537361  0.84270337  -0.00026725  1
  Ag  Ag6  1  0.83421573  0.50597202  0.66909417  1
  Ag  Ag7  1  -0.00340309  0.00047852  0.00150709  1
  Ag  Ag8  1  0.83804581  0.66607520  0.83847944  1
  Ag  Ag9  1  0.83985813  0.66682583  0.15955851  1
  Ag  Ag10  1  0.83543275  0.83040532  0.67143035  1
  Ag  Ag11  1  0.50079828  0.49484613  0.32816839  1
  Ag  Ag12  1  0.32897588  0.33397513  0.00637087  1
  Ag  Ag13  1  0.00250465  0.00017531  0.34191363  1
  Ag  Ag14  1  0.83924207  0.33893506  0.83545877  1
  Ag  Ag15  1  0.67883626  0.50223044  0.16456412  1
  Ag  Ag16  1  0.83856694  -0.00664783  0.16569404  1
  Ag  Ag17  1  0.50123678  0.49816802  0.00729313  1
  Ag  Ag18  1  0.33527668  0.67066960  0.66628780  1
  Ag  Ag19  1  0.33479154  0.32899769  0.32562645  1
  Ag  Ag20  1  0.83908698  0.49900622  0.00359548  1
  Ag  Ag21  1  0.67736266  0.83106234  0.15952681  1
  Ag  Ag22  1  0.84629366  0.00113840  0.49690249  1
  Ag  Ag23  1  -0.00213302  0.15400343  0.49625055  1
  Ag  Ag24  1  0.67099022  0.16264852  0.49981199  1
  Ag  Ag25  1  0.00005921  0.66985051  0.32178474  1
  Ag  Ag26  1  -0.00146521  0.67052276  0.00868161  1
  Ag  Ag27  1  0.49731254  -0.00099750  0.83661696  1
  Ag  Ag28  1  0.49477350  0.16858550  0.32872877  1
  Ag  Ag29  1  0.66914210  0.33898780  0.66848228  1
  Ag  Ag30  1  0.16390131  0.16495622  0.32653798  1
  Ag  Ag31  1  -0.00409476  0.83876270  0.83738758  1
  Ag  Ag32  1  0.15505530  0.66817506  0.83927497  1
  Ag  Ag33  1  0.00054763  0.15569240  0.84511368  1
  Ag  Ag34  1  0.50139153  0.16504791  0.00586202  1
  Ag  Ag35  1  -0.00098046  0.50349925  0.49147986  1
  Ag  Ag36  1  0.50000859  0.66854991  0.50009769  1
  Ag  Ag37  1  -0.00478205  0.51299092  0.16679570  1
  Ag  Ag38  1  0.49594665  0.33491838  0.16560471  1
  Ag  Ag39  1  0.15737039  0.00246262  0.50279921  1
  Ag  Ag40  1  0.67666811  -0.00126460  -0.00011770  1
  Ag  Ag41  1  0.84262859  0.16739339  -0.00015966  1
  Ag  Ag42  1  0.15849288  0.49036079  0.00243014  1
  Ag  Ag43  1  0.67648645  0.83468084  0.83907548  1
  Ag  Ag44  1  -0.00010216  0.16127866  0.16149217  1
  Ag  Ag45  1  0.32574502  -0.00376347  0.66073943  1
  Ag  Ag46  1  -0.00371276  0.82937120  0.16349187  1
  Ag  Ag47  1  0.16658405  0.33609743  0.15939024  1
  Ag  Ag48  1  0.15806498  0.17127458  0.00326049  1
  Ag  Ag49  1  0.00127231  -0.00204013  0.65542163  1
  Ag  Ag50  1  0.49817541  -0.00070798  0.50033715  1
  Ag  Ag51  1  0.15644112  0.00106003  0.83204715  1
  Ag  Ag52  1  -0.00260037  0.84120548  0.49944064  1
  Ag  Ag53  1  0.83973951  0.50102407  0.32285207  1
  Sb  Sb54  1  0.67024164  0.16741536  0.16741246  1
  Sb  Sb55  1  0.33169042  0.50013545  0.83123290  1
  Sb  Sb56  1  0.67117637  -0.00225504  0.67055431  1
  Sb  Sb57  1  0.32686380  0.16736842  0.16759892  1
  Sb  Sb58  1  0.33065895  0.49823760  0.16881397  1
  Sb  Sb59  1  0.67373015  0.67068856  -0.00205591  1
  Sb  Sb60  1  0.50238673  0.67090148  0.83295578  1
  Sb  Sb61  1  0.50443853  0.50221247  0.66529317  1
  Sb  Sb62  1  0.83882307  -0.00283828  0.83603120  1
  Sb  Sb63  1  0.83801244  0.16937584  0.32993016  1
  Sb  Sb64  1  0.00531174  0.33166020  0.00039612  1
  Sb  Sb65  1  0.50104858  0.83516048  0.32980099  1
  Sb  Sb66  1  0.33612003  0.33314494  0.66685153  1
  Sb  Sb67  1  0.49966011  0.33192923  0.49406823  1
  Sb  Sb68  1  0.16543946  0.32870815  0.49871953  1
  Sb  Sb69  1  0.50625034  0.83439706  0.67098447  1
  Sb  Sb70  1  0.66854449  0.49810779  0.49731179  1
  Sb  Sb71  1  0.16369344  0.16376348  0.66949709  1
  Sb  Sb72  1  0.16216992  0.83944574  0.33215373  1
  Sb  Sb73  1  0.50182528  0.16431521  0.66540316  1
  Sb  Sb74  1  0.32853893  0.66400124  0.33616477  1
  Sb  Sb75  1  0.67189176  0.66493514  0.33482982  1
  Sb  Sb76  1  0.50407718  0.66204688  0.16938829  1
  Sb  Sb77  1  0.67094139  0.00125553  0.33034345  1
  Sb  Sb78  1  0.32750141  0.66125455  -0.00377754  1
  Sb  Sb79  1  0.32892070  0.83423349  0.16528804  1
  Sb  Sb80  1  0.32657093  0.16459910  0.83613747  1
  Sb  Sb81  1  0.83578707  0.16427666  0.67118722  1
  Sb  Sb82  1  0.50049656  0.32779609  0.84170395  1
  Sb  Sb83  1  0.16573207  0.66947858  0.50079988  1
  Sb  Sb84  1  0.16446784  0.83529276  0.00004864  1
  Sb  Sb85  1  0.66528054  0.33082646  -0.00211775  1
  Sb  Sb86  1  0.83752288  0.33649274  0.16043748  1
  Sb  Sb87  1  -0.00367004  0.33053177  0.66963555  1
  Sb  Sb88  1  -0.00334952  0.67125540  0.66898924  1
  Sb  Sb89  1  0.33063904  0.00536658  0.00109375  1
  Sb  Sb90  1  0.15632851  0.00333412  0.16600436  1
  Sb  Sb91  1  0.33040448  0.83507421  0.83318242  1
  Sb  Sb92  1  0.00431136  0.33164663  0.33054429  1
  Sb  Sb93  1  0.67023566  0.50408745  0.83813078  1
  Sb  Sb94  1  -0.00192212  0.50266311  0.83967061  1
  Sb  Sb95  1  0.83417569  0.33039108  0.50419266  1
  Sb  Sb96  1  0.15910438  0.83467861  0.66810167  1
  Sb  Sb97  1  0.16502051  0.49456889  0.32776650  1
  Sb  Sb98  1  0.67119692  0.83751125  0.50098744  1
  Sb  Sb99  1  0.67170570  0.16205465  0.83309347  1
  Sb  Sb100  1  0.50480417  0.00436206  0.16551241  1
  Sb  Sb101  1  0.66260281  0.33321361  0.33436131  1
  Sb  Sb102  1  0.83302391  0.66838762  0.50046382  1
  Sb  Sb103  1  0.32970474  0.83384446  0.50168719  1
  Sb  Sb104  1  0.33148785  0.16552933  0.49697200  1
  Sb  Sb105  1  0.83404869  0.83524691  -0.00127234  1
  Sb  Sb106  1  0.83685421  0.83106982  0.33200096  1
  Sb  Sb107  1  0.16080058  0.50232333  0.67058932  1
  Te  Te108  1  0.16135292  0.16891893  0.16478001  1
  Te  Te109  1  0.16315482  0.16257702  0.49701859  1
  Te  Te110  1  0.16114973  0.16417597  0.83601494  1
  Te  Te111  1  0.16400410  0.49789976  0.16262502  1
  Te  Te112  1  0.16487780  0.49960315  0.50116708  1
  Te  Te113  1  0.16518700  0.50288778  0.83886312  1
  Te  Te114  1  0.16004272  0.82510767  0.16592152  1
  Te  Te115  1  0.15947059  0.83985935  0.50010447  1
  Te  Te116  1  0.16094555  0.83472056  0.83448329  1
  Te  Te117  1  0.50269721  0.17069153  0.16812570  1
  Te  Te118  1  0.49989635  0.16415716  0.49722019  1
  Te  Te119  1  0.50151124  0.16028020  0.83692750  1
  Te  Te120  1  0.49691233  0.49803986  0.16807388  1
  Te  Te121  1  0.50005018  0.50148170  0.49702111  1
  Te  Te122  1  0.50091596  0.49866025  0.83957817  1
  Te  Te123  1  0.50203264  0.83178889  0.16131525  1
  Te  Te124  1  0.50151166  0.83368734  0.49861700  1
  Te  Te125  1  0.50241445  0.83760343  0.83825823  1
  Te  Te126  1  0.83647952  0.16693588  0.16217541  1
  Te  Te127  1  0.83423032  0.16290391  0.49805315  1
  Te  Te128  1  0.83811700  0.16945359  0.83821922  1
  Te  Te129  1  0.83559591  0.49872748  0.16465549  1
  Te  Te130  1  0.83599689  0.49948485  0.50224017  1
  Te  Te131  1  0.83342091  0.50163307  0.83441121  1
  Te  Te132  1  0.83532986  0.83285625  0.16674607  1
  Te  Te133  1  0.83666778  0.83795774  0.50177338  1
  Te  Te134  1  0.83478814  0.83144208  0.83259332  1
  Te  Te135  1  0.16534532  0.00521501  -0.00419530  1
  Te  Te136  1  0.16417350  0.00492846  0.33294825  1
  Te  Te137  1  0.16491855  -0.00062101  0.66851840  1
  Te  Te138  1  0.16882421  0.33206552  -0.00101657  1
  Te  Te139  1  0.17373794  0.32688125  0.33148857  1
  Te  Te140  1  0.16971041  0.33377692  0.67572773  1
  Te  Te141  1  0.16311420  0.66800885  -0.00155383  1
  Te  Te142  1  0.16090995  0.66565742  0.33163434  1
  Te  Te143  1  0.17214155  0.66738651  0.67178643  1
  Te  Te144  1  0.49559321  0.00216611  -0.00015053  1
  Te  Te145  1  0.50064277  0.00278312  0.33438967  1
  Te  Te146  1  0.50016943  -0.00064147  0.66642390  1
  Te  Te147  1  0.49787921  0.33415666  0.00396134  1
  Te  Te148  1  0.49603440  0.33318480  0.32916368  1
  Te  Te149  1  0.50537063  0.33324678  0.66944655  1
  Te  Te150  1  0.49774133  0.65835578  0.00038465  1
  Te  Te151  1  0.49829414  0.66379149  0.33783205  1
  Te  Te152  1  0.49844923  0.66721642  0.66400490  1
  Te  Te153  1  0.83417630  0.00269700  0.00128391  1
  Te  Te154  1  0.83899892  0.00155983  0.33181873  1
  Te  Te155  1  0.83724273  -0.00264531  0.66277829  1
  Te  Te156  1  0.83112074  0.33336981  -0.00521276  1
  Te  Te157  1  0.83165927  0.34116030  0.33348471  1
  Te  Te158  1  0.82945982  0.33594829  0.67202094  1
  Te  Te159  1  0.83631228  0.66280360  -0.00070706  1
  Te  Te160  1  0.83915392  0.66099709  0.33181937  1
  Te  Te161  1  0.83209385  0.66729710  0.66738172  1
  Te  Te162  1  0.00035198  0.16775391  0.00021635  1
  Te  Te163  1  0.00160018  0.16456374  0.33656267  1
  Te  Te164  1  -0.00040791  0.16130068  0.65710160  1
  Te  Te165  1  0.00009359  0.50397227  0.00349758  1
  Te  Te166  1  -0.00001146  0.49854726  0.32956375  1
  Te  Te167  1  -0.00609564  0.49998557  0.66444747  1
  Te  Te168  1  0.00076304  0.83243915  -0.00001646  1
  Te  Te169  1  -0.00091090  0.83493927  0.33241159  1
  Te  Te170  1  -0.00544265  0.83722385  0.66791633  1
  Te  Te171  1  0.34047418  0.17252119  0.00109921  1
  Te  Te172  1  0.33415455  0.16734787  0.33301045  1
  Te  Te173  1  0.33365257  0.15954559  0.66611327  1
  Te  Te174  1  0.33398738  0.49492090  -0.00153272  1
  Te  Te175  1  0.33527260  0.49834614  0.33856713  1
  Te  Te176  1  0.33393940  0.50190608  0.66105130  1
  Te  Te177  1  0.34390927  0.83312621  0.00059813  1
  Te  Te178  1  0.33298505  0.83952727  0.33365337  1
  Te  Te179  1  0.33511377  0.83529513  0.66615125  1
  Te  Te180  1  0.66217468  0.16087583  0.00076688  1
  Te  Te181  1  0.66226937  0.16712282  0.33794152  1
  Te  Te182  1  0.66820485  0.16829280  0.66192190  1
  Te  Te183  1  0.66719634  0.50027947  0.00437023  1
  Te  Te184  1  0.66284704  0.50038847  0.32877619  1
  Te  Te185  1  0.67145030  0.50257648  0.66630918  1
  Te  Te186  1  0.66490979  0.83568614  -0.00014211  1
  Te  Te187  1  0.66740753  0.83278103  0.32293029  1
  Te  Te188  1  0.67362965  0.82960971  0.66904147  1
  Te  Te189  1  -0.00165179  0.00113924  0.15975870  1
  Te  Te190  1  0.00149174  -0.00278071  0.49911165  1
  Te  Te191  1  -0.00113413  -0.00078577  0.84092019  1
  Te  Te192  1  0.00535235  0.32502532  0.16736708  1
  Te  Te193  1  0.00091556  0.34129416  0.50112206  1
  Te  Te194  1  0.00008936  0.33064223  0.83221392  1
  Te  Te195  1  -0.00359093  0.66849505  0.16570241  1
  Te  Te196  1  0.00034585  0.66400484  0.49887839  1
  Te  Te197  1  -0.00179027  0.66899891  0.83305008  1
  Te  Te198  1  0.33245351  -0.00131855  0.17542238  1
  Te  Te199  1  0.33700934  -0.00021716  0.49929986  1
  Te  Te200  1  0.33494488  -0.00051292  0.82986282  1
  Te  Te201  1  0.33243316  0.33258654  0.16684708  1
  Te  Te202  1  0.33278583  0.33924071  0.49953251  1
  Te  Te203  1  0.32826972  0.33238637  0.83578884  1
  Te  Te204  1  0.32732845  0.66771830  0.16682178  1
  Te  Te205  1  0.33449877  0.66485773  0.50355779  1
  Te  Te206  1  0.33123088  0.66749080  0.82666095  1
  Te  Te207  1  0.67306722  -0.00128745  0.16220445  1
  Te  Te208  1  0.65978236  0.00231737  0.50029235  1
  Te  Te209  1  0.66390877  -0.00450534  0.83695826  1
  Te  Te210  1  0.66300080  0.33927749  0.16630839  1
  Te  Te211  1  0.66650508  0.32737560  0.50632211  1
  Te  Te212  1  0.66981469  0.33182738  0.82897008  1
  Te  Te213  1  0.67192708  0.66571989  0.16670735  1
  Te  Te214  1  0.66187402  0.66787168  0.50445465  1
  Te  Te215  1  0.66986887  0.67246856  0.82899806  1
