# generated using pymatgen
data_AgSbTe2
_symmetry_space_group_name_H-M   'P 1'
_cell_length_a   18.33341566
_cell_length_b   18.33766384
_cell_length_c   18.33567655
_cell_angle_alpha   90.00054192
_cell_angle_beta   90.00327129
_cell_angle_gamma   89.99870518
_symmetry_Int_Tables_number   1
_chemical_formula_structural   AgSbTe2
_chemical_formula_sum   'Ag54 Sb54 Te108'
_cell_volume   6164.30800412
_cell_formula_units_Z   54
loop_
 _symmetry_equiv_pos_site_id
 _symmetry_equiv_pos_as_xyz
  1  'x, y, z'
loop_
 _atom_site_type_symbol
 _atom_site_label
 _atom_site_symmetry_multiplicity
 _atom_site_fract_x
 _atom_site_fract_y
 _atom_site_fract_z
 _atom_site_occupancy
  Ag  Ag0  1  0.83331388  0.49807827  0.01233532  1
  Ag  Ag1  1  0.15534198  0.49998992  -0.00595760  1
  Ag  Ag2  1  0.82905579  0.34343988  0.16666308  1
  Ag  Ag3  1  0.32795974  0.16145911  0.49564743  1
  Ag  Ag4  1  -0.00618501  0.00061692  -0.00869695  1
  Ag  Ag5  1  0.66697003  0.82168946  0.50122438  1
  Ag  Ag6  1  0.83528285  0.33659564  0.83265579  1
  Ag  Ag7  1  0.67179457  0.50583701  0.82714435  1
  Ag  Ag8  1  0.16212245  0.65767993  0.83097033  1
  Ag  Ag9  1  0.66951230  0.66420936  0.00341903  1
  Ag  Ag10  1  0.34285146  0.16949565  0.17531687  1
  Ag  Ag11  1  0.83050293  0.49978174  0.32740682  1
  Ag  Ag12  1  0.66313301  0.66223860  0.33965065  1
  Ag  Ag13  1  0.83793839  0.17114899  0.66774788  1
  Ag  Ag14  1  0.66873327  0.34225366  0.33062601  1
  Ag  Ag15  1  0.51193706  0.66248572  0.49529459  1
  Ag  Ag16  1  0.32652315  0.00014437  0.66077023  1
  Ag  Ag17  1  0.50503186  -0.00029495  0.83132745  1
  Ag  Ag18  1  -0.00419401  0.33740881  0.66253891  1
  Ag  Ag19  1  0.17479818  0.16790349  0.33665067  1
  Ag  Ag20  1  0.15506220  0.50061600  0.66951755  1
  Ag  Ag21  1  0.51065563  0.34187165  0.17469340  1
  Ag  Ag22  1  0.83411824  0.17399366  -0.00226172  1
  Ag  Ag23  1  -0.00689676  0.83029077  0.50429359  1
  Ag  Ag24  1  -0.00759753  0.49953246  0.50579019  1
  Ag  Ag25  1  0.67338074  0.66296586  0.65452068  1
  Ag  Ag26  1  0.33947377  0.49991062  0.16894677  1
  Ag  Ag27  1  0.51333533  0.50074226  0.66252723  1
  Ag  Ag28  1  0.34460145  0.66700419  0.33239473  1
  Ag  Ag29  1  -0.00743262  0.33569325  0.34126527  1
  Ag  Ag30  1  0.67248062  0.82389793  0.82634735  1
  Ag  Ag31  1  0.82575181  0.66225660  0.50165563  1
  Ag  Ag32  1  0.33709164  0.83574048  0.49695785  1
  Ag  Ag33  1  -0.00968838  0.66151023  0.66457151  1
  Ag  Ag34  1  0.15313321  0.33946179  0.83049901  1
  Ag  Ag35  1  -0.00883389  0.83614365  0.82044520  1
  Ag  Ag36  1  0.33776262  0.82673748  0.17768425  1
  Ag  Ag37  1  0.66983758  0.50155329  0.17309736  1
  Ag  Ag38  1  0.83452417  0.50338566  0.66419674  1
  Ag  Ag39  1  0.50074292  0.16735694  0.33352688  1
  Ag  Ag40  1  0.67588768  0.50976281  0.49653072  1
  Ag  Ag41  1  -0.00016569  0.17025598  0.50383827  1
  Ag  Ag42  1  -0.00306405  0.16670101  0.82123811  1
  Ag  Ag43  1  0.83577380  0.82191806  0.66529808  1
  Ag  Ag44  1  0.16508478  0.00216637  0.50146104  1
  Ag  Ag45  1  0.50207665  0.34063839  0.49210926  1
  Ag  Ag46  1  0.67218504  -0.00376689  0.00283058  1
  Ag  Ag47  1  0.50239820  0.82318563  0.33638990  1
  Ag  Ag48  1  -0.00036565  0.00014188  0.66615479  1
  Ag  Ag49  1  0.66492163  -0.00076306  0.33148234  1
  Ag  Ag50  1  0.82336647  0.65612500  0.17228889  1
  Ag  Ag51  1  0.66461260  0.17816555  0.17135566  1
  Ag  Ag52  1  0.50758527  0.65820534  0.17816739  1
  Ag  Ag53  1  -0.01567589  0.49945915  0.17082113  1
  Sb  Sb54  1  0.15785515  0.16919131  0.66160592  1
  Sb  Sb55  1  0.82611186  0.82496284  0.33995822  1
  Sb  Sb56  1  0.16458006  0.66874367  0.50322817  1
  Sb  Sb57  1  0.50568631  0.82907486  0.66041628  1
  Sb  Sb58  1  0.32914685  0.33097176  0.66339100  1
  Sb  Sb59  1  0.49831897  -0.00243539  0.50181627  1
  Sb  Sb60  1  0.83194550  0.34188710  0.49898258  1
  Sb  Sb61  1  0.66353296  0.82573524  0.17133533  1
  Sb  Sb62  1  0.66999834  0.16825626  0.49501024  1
  Sb  Sb63  1  0.83080570  0.82906893  -0.00574575  1
  Sb  Sb64  1  0.50492133  0.17015825  0.66066089  1
  Sb  Sb65  1  0.83081198  0.00139181  0.16533636  1
  Sb  Sb66  1  -0.00417443  0.33328776  -0.00315214  1
  Sb  Sb67  1  0.50295865  0.66848312  0.83078622  1
  Sb  Sb68  1  0.16312975  0.33619051  0.16518630  1
  Sb  Sb69  1  0.33297760  0.50101098  0.83532937  1
  Sb  Sb70  1  0.67449908  0.34274615  0.65929226  1
  Sb  Sb71  1  0.83644576  -0.00502876  0.50218194  1
  Sb  Sb72  1  -0.00573241  0.49856926  0.82826304  1
  Sb  Sb73  1  0.17148836  0.83583698  0.33682987  1
  Sb  Sb74  1  0.67049898  -0.00519417  0.66596694  1
  Sb  Sb75  1  0.50212578  -0.00049690  0.16691424  1
  Sb  Sb76  1  0.67364727  0.16808349  0.83774607  1
  Sb  Sb77  1  0.33393261  0.00090064  -0.00236457  1
  Sb  Sb78  1  -0.00645214  0.66629905  -0.00603862  1
  Sb  Sb79  1  0.83318402  0.66058825  0.82790389  1
  Sb  Sb80  1  0.83041097  0.17455325  0.33470712  1
  Sb  Sb81  1  0.33178536  0.33422192  0.00280641  1
  Sb  Sb82  1  0.67119447  0.33689089  0.00812051  1
  Sb  Sb83  1  0.16042764  0.49644869  0.33526524  1
  Sb  Sb84  1  0.15654486  0.82906114  0.66551188  1
  Sb  Sb85  1  0.16434132  0.82840401  -0.00194846  1
  Sb  Sb86  1  0.33909866  0.00003702  0.33792045  1
  Sb  Sb87  1  0.50859071  0.16581040  0.00722726  1
  Sb  Sb88  1  0.50937989  0.50121471  0.33685463  1
  Sb  Sb89  1  0.16758081  0.66200101  0.16389721  1
  Sb  Sb90  1  0.83242833  0.00382955  0.83279908  1
  Sb  Sb91  1  -0.00489247  0.66093663  0.34007983  1
  Sb  Sb92  1  0.33789556  0.33562558  0.33295654  1
  Sb  Sb93  1  0.33500043  0.83359938  0.82743052  1
  Sb  Sb94  1  0.50719603  0.33255971  0.83180483  1
  Sb  Sb95  1  -0.00425510  0.17328286  0.16970089  1
  Sb  Sb96  1  0.33520036  0.50205161  0.49632535  1
  Sb  Sb97  1  0.32748301  0.16574166  0.82971699  1
  Sb  Sb98  1  0.50787406  0.50062761  0.00112827  1
  Sb  Sb99  1  0.50365139  0.83307301  0.00498950  1
  Sb  Sb100  1  -0.00464533  0.00470492  0.33825985  1
  Sb  Sb101  1  0.00001903  0.82707581  0.16998136  1
  Sb  Sb102  1  0.33463598  0.66965667  0.65989213  1
  Sb  Sb103  1  0.15986035  0.17047889  0.00323225  1
  Sb  Sb104  1  0.16715755  0.00242868  0.17205064  1
  Sb  Sb105  1  0.33798023  0.66491474  0.00759125  1
  Sb  Sb106  1  0.16485310  0.33069932  0.50227751  1
  Sb  Sb107  1  0.16301035  0.00005963  0.82734195  1
  Te  Te108  1  0.16921042  0.16801060  0.17221955  1
  Te  Te109  1  0.16664781  0.16483115  0.49754237  1
  Te  Te110  1  0.15943400  0.17149307  0.83463065  1
  Te  Te111  1  0.17355561  0.49885033  0.16331009  1
  Te  Te112  1  0.16347112  0.49924749  0.50424438  1
  Te  Te113  1  0.16714197  0.49876617  0.83290001  1
  Te  Te114  1  0.17451162  0.83370830  0.16704661  1
  Te  Te115  1  0.17021890  0.83871396  0.50060759  1
  Te  Te116  1  0.16362627  0.83068928  0.83307970  1
  Te  Te117  1  0.50280625  0.16660963  0.17107224  1
  Te  Te118  1  0.50034094  0.16873649  0.49628595  1
  Te  Te119  1  0.49887159  0.16414130  0.83330152  1
  Te  Te120  1  0.50028994  0.49992414  0.16484494  1
  Te  Te121  1  0.49789798  0.50121280  0.50299239  1
  Te  Te122  1  0.50510318  0.49924214  0.82865633  1
  Te  Te123  1  0.49582947  0.83025899  0.17261305  1
  Te  Te124  1  0.50142439  0.83064125  0.49650455  1
  Te  Te125  1  0.50389592  0.83713022  0.83219197  1
  Te  Te126  1  0.82852280  0.16870748  0.16363527  1
  Te  Te127  1  0.83818418  0.16616174  0.50291893  1
  Te  Te128  1  0.83795721  0.17148493  0.83478867  1
  Te  Te129  1  0.82942821  0.50047798  0.16772292  1
  Te  Te130  1  0.83429116  0.50162986  0.50368424  1
  Te  Te131  1  0.83023645  0.49628076  0.82586348  1
  Te  Te132  1  0.83524473  0.82630992  0.16727650  1
  Te  Te133  1  0.83272042  0.82836358  0.50473101  1
  Te  Te134  1  0.83238392  0.83216966  0.82784895  1
  Te  Te135  1  0.16108165  0.00063835  -0.00073084  1
  Te  Te136  1  0.16501807  0.00710452  0.33933331  1
  Te  Te137  1  0.16465295  0.00022978  0.66236673  1
  Te  Te138  1  0.16447407  0.33957524  -0.00654528  1
  Te  Te139  1  0.16032676  0.32839581  0.33369662  1
  Te  Te140  1  0.16214058  0.33738150  0.67050376  1
  Te  Te141  1  0.16611848  0.66074772  -0.00619729  1
  Te  Te142  1  0.17004229  0.66658834  0.33346548  1
  Te  Te143  1  0.16783560  0.66190994  0.67077288  1
  Te  Te144  1  0.50374892  0.00028508  -0.00648592  1
  Te  Te145  1  0.50547960  0.00443377  0.33418953  1
  Te  Te146  1  0.50149404  0.00095441  0.66972501  1
  Te  Te147  1  0.50006092  0.33214463  0.00600160  1
  Te  Te148  1  0.50238827  0.33051934  0.33147691  1
  Te  Te149  1  0.49967325  0.33869438  0.66394853  1
  Te  Te150  1  0.50689761  0.66699721  0.00246461  1
  Te  Te151  1  0.50147786  0.66436074  0.33433369  1
  Te  Te152  1  0.50243986  0.66180890  0.66291274  1
  Te  Te153  1  0.83306322  -0.00016877  -0.00049716  1
  Te  Te154  1  0.82560122  -0.00164920  0.33294288  1
  Te  Te155  1  0.83920238  0.00501814  0.66687508  1
  Te  Te156  1  0.83371488  0.33460438  0.00040833  1
  Te  Te157  1  0.83201389  0.33758919  0.33052322  1
  Te  Te158  1  0.83649777  0.33263429  0.66639887  1
  Te  Te159  1  0.82962687  0.66215315  0.00389245  1
  Te  Te160  1  0.82980218  0.66086258  0.33580746  1
  Te  Te161  1  0.83246248  0.66560817  0.66603646  1
  Te  Te162  1  -0.00471497  0.16184874  0.00185301  1
  Te  Te163  1  -0.00099631  0.17139041  0.33741786  1
  Te  Te164  1  -0.00163471  0.16688176  0.66486584  1
  Te  Te165  1  -0.00349057  0.50076704  0.00286962  1
  Te  Te166  1  -0.00421886  0.49628088  0.33534612  1
  Te  Te167  1  -0.00219111  0.50041264  0.66740167  1
  Te  Te168  1  -0.00089066  0.83834432  0.00021543  1
  Te  Te169  1  0.00032637  0.83409805  0.34004672  1
  Te  Te170  1  -0.00267138  0.83398611  0.66426070  1
  Te  Te171  1  0.33221046  0.16575443  0.00539410  1
  Te  Te172  1  0.33553974  0.16730055  0.33449879  1
  Te  Te173  1  0.33479797  0.16179499  0.66112042  1
  Te  Te174  1  0.33098417  0.50079818  0.00488532  1
  Te  Te175  1  0.32797301  0.50329685  0.32847565  1
  Te  Te176  1  0.33048961  0.50045630  0.66631086  1
  Te  Te177  1  0.33336687  0.83414773  0.00392386  1
  Te  Te178  1  0.33773712  0.83355391  0.33553472  1
  Te  Te179  1  0.33477168  0.83851833  0.66039118  1
  Te  Te180  1  0.67362327  0.16163182  0.00506248  1
  Te  Te181  1  0.66502035  0.16617489  0.33049536  1
  Te  Te182  1  0.67399360  0.16702213  0.66724286  1
  Te  Te183  1  0.67168886  0.50239590  0.00125943  1
  Te  Te184  1  0.66957790  0.50158593  0.33508514  1
  Te  Te185  1  0.67003800  0.50245113  0.66402284  1
  Te  Te186  1  0.66711048  0.83532536  -0.00475905  1
  Te  Te187  1  0.66253441  0.83074760  0.33757380  1
  Te  Te188  1  0.67123254  0.82998650  0.66557333  1
  Te  Te189  1  -0.00041612  -0.00134445  0.16440086  1
  Te  Te190  1  0.00281689  -0.00001294  0.50214602  1
  Te  Te191  1  0.00011533  -0.00100064  0.83055291  1
  Te  Te192  1  -0.00489438  0.33863652  0.16927561  1
  Te  Te193  1  -0.00028743  0.33456381  0.50158237  1
  Te  Te194  1  -0.00407674  0.33187732  0.83106519  1
  Te  Te195  1  -0.00161046  0.66037042  0.16700928  1
  Te  Te196  1  -0.00071647  0.66665722  0.50499394  1
  Te  Te197  1  0.00188199  0.67133430  0.82861198  1
  Te  Te198  1  0.33356612  0.00370851  0.16602461  1
  Te  Te199  1  0.33190736  0.00066274  0.50225646  1
  Te  Te200  1  0.33542361  0.00012581  0.82700492  1
  Te  Te201  1  0.33506955  0.33157329  0.16743589  1
  Te  Te202  1  0.33957696  0.32869365  0.49903395  1
  Te  Te203  1  0.33243499  0.33171469  0.83335341  1
  Te  Te204  1  0.33560153  0.66704367  0.17090764  1
  Te  Te205  1  0.33289477  0.67085734  0.49405764  1
  Te  Te206  1  0.32924219  0.66852671  0.83422750  1
  Te  Te207  1  0.66653502  -0.00268194  0.16540300  1
  Te  Te208  1  0.66698153  -0.00230146  0.49626948  1
  Te  Te209  1  0.66507421  0.00039724  0.83540795  1
  Te  Te210  1  0.66803563  0.33648137  0.16939825  1
  Te  Te211  1  0.66152654  0.33570791  0.49302782  1
  Te  Te212  1  0.67179352  0.33754146  0.83332561  1
  Te  Te213  1  0.66557217  0.66584047  0.16681624  1
  Te  Te214  1  0.66657213  0.66546085  0.49952639  1
  Te  Te215  1  0.66599061  0.66610506  0.83825132  1
