# generated using pymatgen
data_AgSbTe2
_symmetry_space_group_name_H-M   'P 1'
_cell_length_a   18.33280800
_cell_length_b   18.33777448
_cell_length_c   18.33002804
_cell_angle_alpha   90.00228189
_cell_angle_beta   90.00143373
_cell_angle_gamma   90.00137290
_symmetry_Int_Tables_number   1
_chemical_formula_structural   AgSbTe2
_chemical_formula_sum   'Ag54 Sb54 Te108'
_cell_volume   6162.24195125
_cell_formula_units_Z   54
loop_
 _symmetry_equiv_pos_site_id
 _symmetry_equiv_pos_as_xyz
  1  'x, y, z'
loop_
 _atom_site_type_symbol
 _atom_site_label
 _atom_site_symmetry_multiplicity
 _atom_site_fract_x
 _atom_site_fract_y
 _atom_site_fract_z
 _atom_site_occupancy
  Ag  Ag0  1  0.66870206  0.32247254  0.33205645  1
  Ag  Ag1  1  0.00911644  0.33311268  0.33048409  1
  Ag  Ag2  1  0.82846965  0.16173256  0.33454220  1
  Ag  Ag3  1  0.33384860  0.83541770  0.50225103  1
  Ag  Ag4  1  0.33295844  0.66525492  0.32762653  1
  Ag  Ag5  1  0.65787817  0.50541297  0.83470252  1
  Ag  Ag6  1  0.83024548  0.84111040  0.33774960  1
  Ag  Ag7  1  0.65944419  -0.00181925  0.00387361  1
  Ag  Ag8  1  0.84078999  0.32290217  0.49458922  1
  Ag  Ag9  1  0.33339830  0.51405066  0.83741061  1
  Ag  Ag10  1  0.16654370  -0.00034364  0.49631119  1
  Ag  Ag11  1  0.33312265  0.66770112  -0.00201172  1
  Ag  Ag12  1  0.66369655  0.00259016  0.33234028  1
  Ag  Ag13  1  0.16879547  0.33035671  0.17069415  1
  Ag  Ag14  1  0.00834599  0.66946708  0.00080461  1
  Ag  Ag15  1  0.50650745  0.00267155  0.16187309  1
  Ag  Ag16  1  0.50284877  0.83843000  -0.00257447  1
  Ag  Ag17  1  0.49569173  0.67528252  0.83804675  1
  Ag  Ag18  1  0.33949134  0.83361562  0.83184551  1
  Ag  Ag19  1  0.33773047  0.15836659  0.83626266  1
  Ag  Ag20  1  0.49822333  0.67148358  0.49937712  1
  Ag  Ag21  1  0.49914033  0.15658600  0.00061011  1
  Ag  Ag22  1  0.66536854  0.15895943  0.16912460  1
  Ag  Ag23  1  0.00005470  -0.00206443  0.00551120  1
  Ag  Ag24  1  0.16944302  0.66989935  0.16292432  1
  Ag  Ag25  1  0.16284990  0.32696742  0.48986870  1
  Ag  Ag26  1  0.00647801  0.50226887  0.83559136  1
  Ag  Ag27  1  0.17788407  0.66751916  0.84181699  1
  Ag  Ag28  1  0.66082207  -0.00145777  0.66241001  1
  Ag  Ag29  1  0.16998782  0.16377057  0.00150464  1
  Ag  Ag30  1  0.66818200  0.83939942  0.49838094  1
  Ag  Ag31  1  0.33442025  -0.00271690  0.66381415  1
  Ag  Ag32  1  0.00252540  0.50140297  0.49870429  1
  Ag  Ag33  1  0.49334177  0.32517929  0.16865525  1
  Ag  Ag34  1  0.65446153  0.68107913  -0.00197966  1
  Ag  Ag35  1  0.16802903  0.83829088  0.66386615  1
  Ag  Ag36  1  0.16818717  0.00208865  0.16893882  1
  Ag  Ag37  1  0.83297051  0.83748416  0.65848897  1
  Ag  Ag38  1  0.17191112  0.49465339  0.33122910  1
  Ag  Ag39  1  -0.00266349  0.83526557  0.49422095  1
  Ag  Ag40  1  -0.00026523  0.84291714  0.16777028  1
  Ag  Ag41  1  0.00532021  0.15996529  0.16558256  1
  Ag  Ag42  1  0.65893591  0.15352081  0.83902771  1
  Ag  Ag43  1  0.65779150  0.83700736  0.84129329  1
  Ag  Ag44  1  0.33531888  -0.00066833  0.33459112  1
  Ag  Ag45  1  0.82593618  -0.00192004  0.49736418  1
  Ag  Ag46  1  0.33150441  0.50155936  0.17345544  1
  Ag  Ag47  1  0.49043353  0.49905445  0.33126819  1
  Ag  Ag48  1  0.66683080  0.84136560  0.16405059  1
  Ag  Ag49  1  0.32786385  0.33812810  0.33049850  1
  Ag  Ag50  1  0.16767944  0.15825007  0.66847748  1
  Ag  Ag51  1  0.00392927  0.32717976  0.01140971  1
  Ag  Ag52  1  0.66867781  0.15550154  0.48675279  1
  Ag  Ag53  1  0.50165892  -0.00793652  0.84155656  1
  Sb  Sb54  1  0.83208465  0.16377727  0.00539550  1
  Sb  Sb55  1  0.16536283  0.83331805  0.33521306  1
  Sb  Sb56  1  0.50129018  -0.00403231  0.49634921  1
  Sb  Sb57  1  0.82861995  0.83571160  0.00098907  1
  Sb  Sb58  1  0.33562511  0.16043579  0.50132047  1
  Sb  Sb59  1  0.00287212  -0.00178381  0.66814064  1
  Sb  Sb60  1  0.83723226  0.33001870  0.17366491  1
  Sb  Sb61  1  0.33065760  0.32743133  0.66226604  1
  Sb  Sb62  1  0.00193807  0.66898207  0.67103933  1
  Sb  Sb63  1  0.32950605  0.33585323  0.00541009  1
  Sb  Sb64  1  0.82397753  -0.00123481  0.82849569  1
  Sb  Sb65  1  0.16730034  0.50030977  0.00455952  1
  Sb  Sb66  1  0.49451799  0.67016467  0.16352683  1
  Sb  Sb67  1  0.16798532  0.50137833  0.66435238  1
  Sb  Sb68  1  0.49765920  0.33614376  0.48856690  1
  Sb  Sb69  1  0.66957846  0.50117139  0.50165281  1
  Sb  Sb70  1  0.83283015  0.33213377  0.82931684  1
  Sb  Sb71  1  0.83555022  0.15995216  0.66001863  1
  Sb  Sb72  1  0.33378248  0.16754513  0.16364049  1
  Sb  Sb73  1  0.32915594  0.50460290  0.49579317  1
  Sb  Sb74  1  0.82991636  0.67444237  0.49813327  1
  Sb  Sb75  1  0.50149660  0.83239402  0.32995256  1
  Sb  Sb76  1  0.49894992  0.33250418  0.84221030  1
  Sb  Sb77  1  0.65758236  0.50002826  0.16426833  1
  Sb  Sb78  1  -0.00103772  0.00233841  0.32960867  1
  Sb  Sb79  1  0.83264106  0.50419693  0.66540602  1
  Sb  Sb80  1  0.66912925  0.32813444  0.00527445  1
  Sb  Sb81  1  0.16969796  0.67115382  0.49775009  1
  Sb  Sb82  1  0.66691436  0.32381250  0.66110341  1
  Sb  Sb83  1  0.00077112  0.83085511  0.83600826  1
  Sb  Sb84  1  0.50463301  0.16824859  0.32735320  1
  Sb  Sb85  1  0.83508227  0.49772430  0.33581371  1
  Sb  Sb86  1  0.17293848  -0.00330819  0.83406118  1
  Sb  Sb87  1  0.49857418  0.50135688  0.66494894  1
  Sb  Sb88  1  0.00129156  0.33194381  0.66214199  1
  Sb  Sb89  1  0.49839774  0.50146296  0.00348111  1
  Sb  Sb90  1  0.49863007  0.83628178  0.67171527  1
  Sb  Sb91  1  -0.00112479  0.16352880  0.49299480  1
  Sb  Sb92  1  0.66052742  0.67095811  0.32817761  1
  Sb  Sb93  1  0.66485826  0.67825884  0.67251216  1
  Sb  Sb94  1  0.16967689  0.83501911  -0.00134985  1
  Sb  Sb95  1  0.33275219  0.67448524  0.66981065  1
  Sb  Sb96  1  0.16442289  0.16983355  0.32991325  1
  Sb  Sb97  1  0.33301590  0.83262877  0.16644053  1
  Sb  Sb98  1  0.82969059  0.66860672  0.83524626  1
  Sb  Sb99  1  0.82963094  -0.00012231  0.17265501  1
  Sb  Sb100  1  0.83851428  0.67000000  0.16666152  1
  Sb  Sb101  1  0.83480100  0.49972518  -0.00067028  1
  Sb  Sb102  1  0.16775894  0.33612981  0.83622750  1
  Sb  Sb103  1  0.49682444  0.16189374  0.67363976  1
  Sb  Sb104  1  0.00801233  0.49877403  0.16691701  1
  Sb  Sb105  1  0.00221633  0.16851059  0.84199151  1
  Sb  Sb106  1  0.00648346  0.66473296  0.33009165  1
  Sb  Sb107  1  0.33619914  -0.00294841  0.00114458  1
  Te  Te108  1  0.16631193  0.16509303  0.16395562  1
  Te  Te109  1  0.16707005  0.16254167  0.50183314  1
  Te  Te110  1  0.16947324  0.16778652  0.83664322  1
  Te  Te111  1  0.17173820  0.49821124  0.17061181  1
  Te  Te112  1  0.16231665  0.50029628  0.49699826  1
  Te  Te113  1  0.16845245  0.50381936  0.83188876  1
  Te  Te114  1  0.16277180  0.83574520  0.16679120  1
  Te  Te115  1  0.16788924  0.83602612  0.50185186  1
  Te  Te116  1  0.16828056  0.82877293  0.82978903  1
  Te  Te117  1  0.50128430  0.16429506  0.16212647  1
  Te  Te118  1  0.50866796  0.16818307  0.50261974  1
  Te  Te119  1  0.49974953  0.16736997  0.83962192  1
  Te  Te120  1  0.49228871  0.49749880  0.17061707  1
  Te  Te121  1  0.49983549  0.50545702  0.49501613  1
  Te  Te122  1  0.49770024  0.50066048  0.83304046  1
  Te  Te123  1  0.50304940  0.83765389  0.16175631  1
  Te  Te124  1  0.49977190  0.83096227  0.49810068  1
  Te  Te125  1  0.50018982  0.83292309  0.83522765  1
  Te  Te126  1  0.83000418  0.16662903  0.17283846  1
  Te  Te127  1  0.83115822  0.16309130  0.49638807  1
  Te  Te128  1  0.82686168  0.16738276  0.83076289  1
  Te  Te129  1  0.83156262  0.50010533  0.16756314  1
  Te  Te130  1  0.84081272  0.49883071  0.50159843  1
  Te  Te131  1  0.83555076  0.49994098  0.83136000  1
  Te  Te132  1  0.83462013  0.83329149  0.17177378  1
  Te  Te133  1  0.83301798  0.83638761  0.49847356  1
  Te  Te134  1  0.83022927  0.83387578  0.82690244  1
  Te  Te135  1  0.16561915  0.00234178  0.00311392  1
  Te  Te136  1  0.16886801  0.00047012  0.33324181  1
  Te  Te137  1  0.16931742  -0.00139938  0.66720033  1
  Te  Te138  1  0.16248090  0.32934685  0.00413069  1
  Te  Te139  1  0.16785376  0.33233106  0.33231399  1
  Te  Te140  1  0.16653171  0.32975072  0.66089269  1
  Te  Te141  1  0.16942707  0.66722001  0.00139035  1
  Te  Te142  1  0.17287902  0.66256075  0.32968862  1
  Te  Te143  1  0.16671860  0.67148512  0.67077846  1
  Te  Te144  1  0.49942250  -0.00081781  0.00119819  1
  Te  Te145  1  0.49996027  0.00005142  0.32719678  1
  Te  Te146  1  0.49898223  0.00068708  0.67384097  1
  Te  Te147  1  0.50013169  0.32962447  0.00963075  1
  Te  Te148  1  0.49825140  0.33639122  0.32706538  1
  Te  Te149  1  0.49947246  0.33278423  0.66580743  1
  Te  Te150  1  0.49788497  0.66741087  -0.00257412  1
  Te  Te151  1  0.49362017  0.66322698  0.33267255  1
  Te  Te152  1  0.50013630  0.66598315  0.66498795  1
  Te  Te153  1  0.83765542  -0.00013581  -0.00212642  1
  Te  Te154  1  0.83267772  0.00057093  0.33866264  1
  Te  Te155  1  0.83099903  -0.00399346  0.65897875  1
  Te  Te156  1  0.84367223  0.33223746  -0.00067028  1
  Te  Te157  1  0.82835135  0.33246844  0.33787625  1
  Te  Te158  1  0.83329513  0.33303330  0.65487058  1
  Te  Te159  1  0.83831170  0.66723952  0.00076713  1
  Te  Te160  1  0.83390355  0.67181483  0.33298875  1
  Te  Te161  1  0.83325183  0.67705992  0.66628252  1
  Te  Te162  1  0.00111263  0.16601815  0.00542401  1
  Te  Te163  1  -0.00516505  0.17191381  0.32717964  1
  Te  Te164  1  0.00746209  0.16538018  0.67065913  1
  Te  Te165  1  0.00057791  0.50446580  -0.00336622  1
  Te  Te166  1  0.00281269  0.49620197  0.33672140  1
  Te  Te167  1  0.00021391  0.50035242  0.66742212  1
  Te  Te168  1  -0.00045130  0.83315862  0.00384712  1
  Te  Te169  1  -0.00307987  0.83249983  0.33266120  1
  Te  Te170  1  0.00233174  0.83442640  0.66342294  1
  Te  Te171  1  0.33287263  0.16766749  -0.00355744  1
  Te  Te172  1  0.33469348  0.16106356  0.33393706  1
  Te  Te173  1  0.32828314  0.16036379  0.67062332  1
  Te  Te174  1  0.33311279  0.50430405  -0.00329649  1
  Te  Te175  1  0.33166708  0.50018043  0.33463627  1
  Te  Te176  1  0.33287442  0.49793467  0.67454815  1
  Te  Te177  1  0.33727452  0.82876426  -0.00250613  1
  Te  Te178  1  0.33361628  0.83534919  0.33627186  1
  Te  Te179  1  0.33103035  0.83884404  0.66580955  1
  Te  Te180  1  0.66542629  0.16387696  0.00123693  1
  Te  Te181  1  0.66718298  0.16422874  0.33011293  1
  Te  Te182  1  0.66736907  0.15873216  0.67407665  1
  Te  Te183  1  0.66728544  0.49865185  -0.00538567  1
  Te  Te184  1  0.66535121  0.50089110  0.33422176  1
  Te  Te185  1  0.66690084  0.49903062  0.67364395  1
  Te  Te186  1  0.66644686  0.83671075  0.00131737  1
  Te  Te187  1  0.66814076  0.83504597  0.33241561  1
  Te  Te188  1  0.66662451  0.83984952  0.66169379  1
  Te  Te189  1  0.00171145  0.00046614  0.16590534  1
  Te  Te190  1  0.00634027  -0.00410401  0.49999797  1
  Te  Te191  1  -0.00055999  0.00037846  0.84120426  1
  Te  Te192  1  0.00370080  0.33311795  0.16902436  1
  Te  Te193  1  0.00226229  0.33134626  0.49582666  1
  Te  Te194  1  -0.00016698  0.33911252  0.83507691  1
  Te  Te195  1  0.00692772  0.66690893  0.16257006  1
  Te  Te196  1  0.00057888  0.66910556  0.49906825  1
  Te  Te197  1  0.00095317  0.66360761  0.83853673  1
  Te  Te198  1  0.32835983  -0.00052540  0.17045718  1
  Te  Te199  1  0.33383724  -0.00331541  0.49923160  1
  Te  Te200  1  0.33709087  -0.00197369  0.83384174  1
  Te  Te201  1  0.33076392  0.33486989  0.17060181  1
  Te  Te202  1  0.32831184  0.33257018  0.49378410  1
  Te  Te203  1  0.33327779  0.33016524  0.83212744  1
  Te  Te204  1  0.32993558  0.66524572  0.16676692  1
  Te  Te205  1  0.33633980  0.67169916  0.49894651  1
  Te  Te206  1  0.33482739  0.67116276  0.83329741  1
  Te  Te207  1  0.66693114  -0.00076011  0.16721800  1
  Te  Te208  1  0.66305268  -0.00111269  0.49666793  1
  Te  Te209  1  0.66361007  -0.00287420  0.83769495  1
  Te  Te210  1  0.66648112  0.33260881  0.17160812  1
  Te  Te211  1  0.66684997  0.33342801  0.49425866  1
  Te  Te212  1  0.66708977  0.33830474  0.83307087  1
  Te  Te213  1  0.66621847  0.66921516  0.15904588  1
  Te  Te214  1  0.66184535  0.67079617  0.49984761  1
  Te  Te215  1  0.66287429  0.66884280  0.83781485  1
