# generated using pymatgen
data_AgSbTe2
_symmetry_space_group_name_H-M   'P 1'
_cell_length_a   18.33284382
_cell_length_b   18.33760275
_cell_length_c   18.32882970
_cell_angle_alpha   90.00217875
_cell_angle_beta   90.00145197
_cell_angle_gamma   89.99782600
_symmetry_Int_Tables_number   1
_chemical_formula_structural   AgSbTe2
_chemical_formula_sum   'Ag54 Sb54 Te108'
_cell_volume   6161.79342387
_cell_formula_units_Z   54
loop_
 _symmetry_equiv_pos_site_id
 _symmetry_equiv_pos_as_xyz
  1  'x, y, z'
loop_
 _atom_site_type_symbol
 _atom_site_label
 _atom_site_symmetry_multiplicity
 _atom_site_fract_x
 _atom_site_fract_y
 _atom_site_fract_z
 _atom_site_occupancy
  Ag  Ag0  1  0.49276372  0.49909628  0.00426713  1
  Ag  Ag1  1  0.83022303  0.01272959  0.49542140  1
  Ag  Ag2  1  0.83144206  0.01186254  0.82808158  1
  Ag  Ag3  1  0.83932125  0.66015318  0.17357521  1
  Ag  Ag4  1  0.66511583  0.33397486  0.66608644  1
  Ag  Ag5  1  0.00632216  0.50113769  0.17333586  1
  Ag  Ag6  1  0.00378337  0.66348440  0.33371209  1
  Ag  Ag7  1  0.67048878  0.49023857  0.50334322  1
  Ag  Ag8  1  0.16784312  0.33189397  0.50452926  1
  Ag  Ag9  1  0.17340285  0.33355128  0.82443257  1
  Ag  Ag10  1  0.66544676  0.66485497  -0.00432581  1
  Ag  Ag11  1  0.33239237  0.65767859  0.00892280  1
  Ag  Ag12  1  0.50298898  0.33052278  0.49985577  1
  Ag  Ag13  1  0.32920358  0.49684810  0.16409208  1
  Ag  Ag14  1  0.49333044  0.16249199  0.33800475  1
  Ag  Ag15  1  0.83050721  0.32945409  0.50085025  1
  Ag  Ag16  1  0.83393894  0.66299520  0.49454666  1
  Ag  Ag17  1  0.50736948  0.01353005  0.48987328  1
  Ag  Ag18  1  -0.00186024  0.83205424  0.49388749  1
  Ag  Ag19  1  0.33277437  0.33482707  -0.00360570  1
  Ag  Ag20  1  -0.00778227  0.17057162  0.83173831  1
  Ag  Ag21  1  0.16871429  0.84294402  0.33334800  1
  Ag  Ag22  1  0.17315818  0.50150709  -0.00131788  1
  Ag  Ag23  1  0.16588627  0.17231738  0.66028285  1
  Ag  Ag24  1  0.83453156  0.17036025  0.65979923  1
  Ag  Ag25  1  0.48979034  0.00231354  0.17840381  1
  Ag  Ag26  1  0.66855318  0.65479836  0.67025952  1
  Ag  Ag27  1  0.17307381  0.00115408  0.17284780  1
  Ag  Ag28  1  0.34074657  0.17026169  0.49265720  1
  Ag  Ag29  1  0.83389050  0.16600891  0.34213454  1
  Ag  Ag30  1  0.83132990  0.83173761  -0.00113608  1
  Ag  Ag31  1  0.83501725  0.33565916  0.17386472  1
  Ag  Ag32  1  0.83032252  0.32809430  0.82685654  1
  Ag  Ag33  1  0.16873195  0.66332068  0.16919399  1
  Ag  Ag34  1  0.16714325  0.48886419  0.67023143  1
  Ag  Ag35  1  0.66820107  0.83011242  0.83336171  1
  Ag  Ag36  1  0.65185852  0.00285721  0.33654696  1
  Ag  Ag37  1  0.49403532  0.84888111  0.33385502  1
  Ag  Ag38  1  0.17075429  0.16286709  0.33641348  1
  Ag  Ag39  1  0.33777808  0.00803317  0.32977289  1
  Ag  Ag40  1  0.49720749  0.33217082  0.82639738  1
  Ag  Ag41  1  0.49827846  0.49665670  0.33193951  1
  Ag  Ag42  1  0.00395936  0.00590972  0.33471997  1
  Ag  Ag43  1  0.32822628  0.33144223  0.67173632  1
  Ag  Ag44  1  -0.00558808  0.49766176  0.49278855  1
  Ag  Ag45  1  0.66671037  0.49494482  0.82543614  1
  Ag  Ag46  1  0.67262236  0.17541569  0.82469170  1
  Ag  Ag47  1  0.16872556  0.65490207  0.83990379  1
  Ag  Ag48  1  0.33391107  0.00986487  0.01322107  1
  Ag  Ag49  1  0.66760993  0.17189994  0.50188070  1
  Ag  Ag50  1  0.32746474  0.66833950  0.32810539  1
  Ag  Ag51  1  -0.00132431  0.33280074  0.33576540  1
  Ag  Ag52  1  0.33239718  0.16606505  0.17395999  1
  Ag  Ag53  1  0.33283065  0.17189448  0.83234302  1
  Sb  Sb54  1  0.83128912  0.16584044  -0.00207206  1
  Sb  Sb55  1  0.83271948  0.49466915  0.33524003  1
  Sb  Sb56  1  0.33772318  0.83782094  0.83528771  1
  Sb  Sb57  1  0.66803418  0.66922828  0.33320761  1
  Sb  Sb58  1  0.16655443  0.83325419  0.66055980  1
  Sb  Sb59  1  0.49953658  0.49473715  0.66634040  1
  Sb  Sb60  1  0.00326812  0.33426197  0.00235853  1
  Sb  Sb61  1  0.00078510  0.49442810  0.83224855  1
  Sb  Sb62  1  0.00107464  0.66492588  0.00598686  1
  Sb  Sb63  1  0.66421337  0.16699501  0.17229836  1
  Sb  Sb64  1  0.49533027  0.66832506  0.16874015  1
  Sb  Sb65  1  -0.00161534  0.00514657  0.65886304  1
  Sb  Sb66  1  0.66827538  0.83167752  0.16559330  1
  Sb  Sb67  1  0.49758536  0.17162978  0.00372506  1
  Sb  Sb68  1  0.66534910  0.49958014  0.16868567  1
  Sb  Sb69  1  0.00019679  0.82779064  0.17470343  1
  Sb  Sb70  1  0.83262890  0.50169273  0.00079005  1
  Sb  Sb71  1  0.83292788  0.66370009  0.83197050  1
  Sb  Sb72  1  -0.00233717  0.17155017  0.49812601  1
  Sb  Sb73  1  0.50180802  0.82994591  0.00415947  1
  Sb  Sb74  1  -0.00414741  0.83592256  0.82907279  1
  Sb  Sb75  1  0.33541311  0.49151016  0.84168645  1
  Sb  Sb76  1  0.50449579  0.00966825  0.83323098  1
  Sb  Sb77  1  0.50285764  0.83311854  0.66132200  1
  Sb  Sb78  1  0.49830598  0.65984570  0.83596595  1
  Sb  Sb79  1  0.33035976  0.32971886  0.33325424  1
  Sb  Sb80  1  0.16349579  0.00751334  0.83904939  1
  Sb  Sb81  1  0.33231187  0.83684273  0.16906276  1
  Sb  Sb82  1  0.16707001  0.49731336  0.33227969  1
  Sb  Sb83  1  0.00349707  0.00032793  0.00553721  1
  Sb  Sb84  1  0.50154533  0.33126851  0.17010761  1
  Sb  Sb85  1  0.16281880  0.65953843  0.49623258  1
  Sb  Sb86  1  0.66999975  0.83501796  0.50251431  1
  Sb  Sb87  1  0.83472651  0.83736503  0.33316567  1
  Sb  Sb88  1  0.83117744  0.83697934  0.66733077  1
  Sb  Sb89  1  0.16506265  0.00874713  0.49192402  1
  Sb  Sb90  1  0.66367102  -0.00239753  0.00176836  1
  Sb  Sb91  1  0.17145672  0.17292373  0.00121254  1
  Sb  Sb92  1  0.16450160  0.82809410  0.00557590  1
  Sb  Sb93  1  0.50423768  0.66201848  0.49703484  1
  Sb  Sb94  1  0.33378106  0.65530691  0.66642508  1
  Sb  Sb95  1  0.50049987  0.17049541  0.65877087  1
  Sb  Sb96  1  0.66187825  0.33900340  -0.00970291  1
  Sb  Sb97  1  0.66802051  0.00708121  0.66273298  1
  Sb  Sb98  1  0.33237150  0.01223957  0.66177511  1
  Sb  Sb99  1  0.83552799  0.00231745  0.17181480  1
  Sb  Sb100  1  0.00356259  0.17103115  0.16954355  1
  Sb  Sb101  1  0.66918257  0.32825119  0.34200056  1
  Sb  Sb102  1  -0.00436376  0.66363522  0.66005703  1
  Sb  Sb103  1  0.83391175  0.49265934  0.66368385  1
  Sb  Sb104  1  0.00182305  0.33198473  0.66074007  1
  Sb  Sb105  1  0.33025161  0.84150505  0.49472388  1
  Sb  Sb106  1  0.16638577  0.33542670  0.16845774  1
  Sb  Sb107  1  0.33418958  0.49241705  0.49349726  1
  Te  Te108  1  0.17068633  0.16559910  0.16966918  1
  Te  Te109  1  0.16389632  0.17132738  0.49967301  1
  Te  Te110  1  0.17167569  0.17084894  0.83446829  1
  Te  Te111  1  0.16780089  0.50146773  0.16564946  1
  Te  Te112  1  0.16650059  0.49302386  0.50255575  1
  Te  Te113  1  0.16611948  0.49678651  0.83387247  1
  Te  Te114  1  0.16566927  0.82899062  0.17279513  1
  Te  Te115  1  0.16135128  0.83213397  0.49421034  1
  Te  Te116  1  0.16537241  0.83379356  0.83183444  1
  Te  Te117  1  0.49664340  0.16354499  0.17272257  1
  Te  Te118  1  0.50221291  0.16987562  0.49797371  1
  Te  Te119  1  0.49778097  0.17259648  0.83387783  1
  Te  Te120  1  0.49664714  0.49930770  0.16671601  1
  Te  Te121  1  0.50356865  0.49436087  0.49760038  1
  Te  Te122  1  0.50548143  0.49405923  0.83629750  1
  Te  Te123  1  0.50134130  0.83966144  0.17301188  1
  Te  Te124  1  0.49978573  0.83382758  0.49373730  1
  Te  Te125  1  0.50666585  0.83547896  0.83346167  1
  Te  Te126  1  0.83420641  0.17188960  0.16916072  1
  Te  Te127  1  0.83445127  0.16851312  0.50039758  1
  Te  Te128  1  0.83096217  0.16789913  0.83573782  1
  Te  Te129  1  0.83574547  0.49957435  0.16799818  1
  Te  Te130  1  0.83240000  0.49934798  0.50036252  1
  Te  Te131  1  0.82994113  0.49434226  0.83249248  1
  Te  Te132  1  0.83389250  0.82945846  0.16197369  1
  Te  Te133  1  0.83663750  0.82872625  0.50009098  1
  Te  Te134  1  0.83011177  0.83282177  0.83515818  1
  Te  Te135  1  0.17250875  -0.00309890  0.00760249  1
  Te  Te136  1  0.16624204  0.00138850  0.33235204  1
  Te  Te137  1  0.16610874  0.00532858  0.66798546  1
  Te  Te138  1  0.17091919  0.33944068  -0.00171716  1
  Te  Te139  1  0.16250733  0.32866016  0.33637514  1
  Te  Te140  1  0.16600429  0.32939362  0.66693449  1
  Te  Te141  1  0.16889799  0.66412566  0.00186784  1
  Te  Te142  1  0.16636907  0.66407664  0.33164032  1
  Te  Te143  1  0.16705845  0.66502538  0.66964262  1
  Te  Te144  1  0.49417624  -0.00127522  0.00234933  1
  Te  Te145  1  0.49553357  0.00455201  0.33448285  1
  Te  Te146  1  0.49962025  -0.00104644  0.65817774  1
  Te  Te147  1  0.49494789  0.33873653  0.00083354  1
  Te  Te148  1  0.50055465  0.33404678  0.33718905  1
  Te  Te149  1  0.50102226  0.33354192  0.66600058  1
  Te  Te150  1  0.49824130  0.66237034  0.00146625  1
  Te  Te151  1  0.49690103  0.65868001  0.33287281  1
  Te  Te152  1  0.50717178  0.66503189  0.66694837  1
  Te  Te153  1  0.83338158  -0.00448686  0.00131643  1
  Te  Te154  1  0.84176424  0.00395829  0.33542908  1
  Te  Te155  1  0.83279585  0.00640838  0.66579238  1
  Te  Te156  1  0.83370441  0.33425502  -0.00068695  1
  Te  Te157  1  0.83494419  0.32933490  0.33603669  1
  Te  Te158  1  0.83202964  0.32970855  0.66607769  1
  Te  Te159  1  0.83100335  0.66867193  0.00044923  1
  Te  Te160  1  0.83554764  0.66895086  0.33317873  1
  Te  Te161  1  0.82820235  0.66590478  0.66287061  1
  Te  Te162  1  0.00150271  0.16568851  -0.00761504  1
  Te  Te163  1  -0.00007611  0.16898934  0.33173927  1
  Te  Te164  1  0.00074004  0.16622016  0.67320536  1
  Te  Te165  1  0.00485233  0.50031867  0.00494938  1
  Te  Te166  1  -0.00059287  0.49940515  0.33317880  1
  Te  Te167  1  0.00711618  0.50027086  0.66208455  1
  Te  Te168  1  -0.00653966  0.83331002  -0.00185129  1
  Te  Te169  1  0.00201686  0.82971784  0.33658770  1
  Te  Te170  1  -0.00040387  0.83297197  0.65642447  1
  Te  Te171  1  0.33408392  0.16794172  0.00023476  1
  Te  Te172  1  0.33219082  0.16774452  0.33327275  1
  Te  Te173  1  0.32942745  0.17304024  0.66753409  1
  Te  Te174  1  0.33345830  0.49959926  0.00222745  1
  Te  Te175  1  0.33459150  0.50164543  0.32723546  1
  Te  Te176  1  0.32816522  0.49248589  0.66506940  1
  Te  Te177  1  0.33338679  0.82748244  -0.00130176  1
  Te  Te178  1  0.33151915  0.82878571  0.33435596  1
  Te  Te179  1  0.33383488  0.83211235  0.66493270  1
  Te  Te180  1  0.66408190  0.16603690  -0.00675866  1
  Te  Te181  1  0.66925063  0.16258758  0.33672125  1
  Te  Te182  1  0.66928628  0.17118822  0.66494267  1
  Te  Te183  1  0.66454647  0.50519982  0.00090472  1
  Te  Te184  1  0.66128479  0.50105685  0.33786679  1
  Te  Te185  1  0.66660525  0.49590314  0.66503380  1
  Te  Te186  1  0.66839543  0.82961565  -0.00484672  1
  Te  Te187  1  0.66193969  0.83865006  0.33382034  1
  Te  Te188  1  0.66640669  0.82932760  0.67335657  1
  Te  Te189  1  0.00526067  0.00040325  0.17311875  1
  Te  Te190  1  -0.00389896  -0.00188588  0.49405253  1
  Te  Te191  1  -0.00593510  0.00358161  0.83488894  1
  Te  Te192  1  -0.00325186  0.33825047  0.17088007  1
  Te  Te193  1  -0.00281534  0.33691860  0.49544305  1
  Te  Te194  1  -0.00307790  0.33074719  0.83514154  1
  Te  Te195  1  0.00038819  0.66222634  0.17179105  1
  Te  Te196  1  -0.00373449  0.66045808  0.49500712  1
  Te  Te197  1  0.00657098  0.66660440  0.83218477  1
  Te  Te198  1  0.33096619  0.00099642  0.16902280  1
  Te  Te199  1  0.33583980  0.00846294  0.49453184  1
  Te  Te200  1  0.33388257  0.00639360  0.83310628  1
  Te  Te201  1  0.33442403  0.33256303  0.16273412  1
  Te  Te202  1  0.33362339  0.32873783  0.50041094  1
  Te  Te203  1  0.33337566  0.33191206  0.83387197  1
  Te  Te204  1  0.33122916  0.66487816  0.16742852  1
  Te  Te205  1  0.33375152  0.66664450  0.49654906  1
  Te  Te206  1  0.32931778  0.66853356  0.83368378  1
  Te  Te207  1  0.66548521  0.00023790  0.17192387  1
  Te  Te208  1  0.66908692  0.00127488  0.49727117  1
  Te  Te209  1  0.67111017  0.00208306  0.83304647  1
  Te  Te210  1  0.67411397  0.33330497  0.16319190  1
  Te  Te211  1  0.66809683  0.33183600  0.50232174  1
  Te  Te212  1  0.66704597  0.33417253  0.82992524  1
  Te  Te213  1  0.67291035  0.66594445  0.16281477  1
  Te  Te214  1  0.67202236  0.66623212  0.50193273  1
  Te  Te215  1  0.66664462  0.66234815  0.83390389  1
