# generated using pymatgen
data_AgSbTe2
_symmetry_space_group_name_H-M   'P 1'
_cell_length_a   18.34617417
_cell_length_b   18.35248163
_cell_length_c   18.34481923
_cell_angle_alpha   90.00018902
_cell_angle_beta   89.99809730
_cell_angle_gamma   90.00169626
_symmetry_Int_Tables_number   1
_chemical_formula_structural   AgSbTe2
_chemical_formula_sum   'Ag54 Sb54 Te108'
_cell_volume   6176.66072075
_cell_formula_units_Z   54
loop_
 _symmetry_equiv_pos_site_id
 _symmetry_equiv_pos_as_xyz
  1  'x, y, z'
loop_
 _atom_site_type_symbol
 _atom_site_label
 _atom_site_symmetry_multiplicity
 _atom_site_fract_x
 _atom_site_fract_y
 _atom_site_fract_z
 _atom_site_occupancy
  Ag  Ag0  1  0.16700600  0.00112110  0.16709973  1
  Ag  Ag1  1  0.15885976  0.34169818  0.83261299  1
  Ag  Ag2  1  0.00450145  0.66317070  -0.00881064  1
  Ag  Ag3  1  0.17736331  0.66337135  0.83299343  1
  Ag  Ag4  1  0.51594920  -0.00054784  0.49970651  1
  Ag  Ag5  1  0.67861272  0.82308588  0.82582461  1
  Ag  Ag6  1  0.32347510  0.16759809  0.49760877  1
  Ag  Ag7  1  0.82090422  0.66404123  0.82907495  1
  Ag  Ag8  1  0.49405150  0.83548163  0.33772704  1
  Ag  Ag9  1  0.33155441  0.66297973  0.67680897  1
  Ag  Ag10  1  -0.00114122  0.33704132  -0.01279211  1
  Ag  Ag11  1  0.67044115  0.15294141  0.50361462  1
  Ag  Ag12  1  0.83379955  0.82911937  -0.01376055  1
  Ag  Ag13  1  -0.00419507  0.83782055  0.50799519  1
  Ag  Ag14  1  0.32956657  -0.00120141  -0.00297754  1
  Ag  Ag15  1  0.67534991  0.33964244  -0.01526599  1
  Ag  Ag16  1  0.32555659  0.33079865  0.34218995  1
  Ag  Ag17  1  0.67614199  0.51222267  0.82976146  1
  Ag  Ag18  1  0.00163043  -0.00185310  0.34622924  1
  Ag  Ag19  1  0.50345778  0.66775416  0.83309450  1
  Ag  Ag20  1  0.49798043  0.16729537  -0.00054713  1
  Ag  Ag21  1  0.16648868  0.83468450  0.33689740  1
  Ag  Ag22  1  0.67845859  0.84090461  0.50813167  1
  Ag  Ag23  1  0.16598329  0.66385156  0.15572964  1
  Ag  Ag24  1  0.82955672  -0.00563356  0.50625775  1
  Ag  Ag25  1  -0.00044829  0.15772185  0.50265677  1
  Ag  Ag26  1  0.32403325  0.33762055  0.66645406  1
  Ag  Ag27  1  0.32671486  0.81843119  0.83259117  1
  Ag  Ag28  1  0.16499206  0.33373953  0.17137204  1
  Ag  Ag29  1  -0.00493060  0.00151090  0.66366685  1
  Ag  Ag30  1  0.84286872  0.34193982  0.82859407  1
  Ag  Ag31  1  0.32094053  0.50839177  0.83141581  1
  Ag  Ag32  1  0.16607972  -0.00941565  0.83619784  1
  Ag  Ag33  1  0.83243288  0.82989962  0.66837817  1
  Ag  Ag34  1  0.16526862  0.50192518  -0.00781209  1
  Ag  Ag35  1  0.16683318  0.49281461  0.33255772  1
  Ag  Ag36  1  0.83234351  0.16517332  0.66441706  1
  Ag  Ag37  1  0.67017082  -0.00181904  0.34853610  1
  Ag  Ag38  1  0.00138261  0.50794802  0.83333814  1
  Ag  Ag39  1  0.67050183  0.50201662  0.51354530  1
  Ag  Ag40  1  0.32812461  0.16798014  0.17077349  1
  Ag  Ag41  1  0.67837126  0.33937060  0.66969066  1
  Ag  Ag42  1  0.83054215  0.50204453  0.67063707  1
  Ag  Ag43  1  0.67721239  0.66684271  0.67220038  1
  Ag  Ag44  1  0.84431525  0.33266962  0.15616739  1
  Ag  Ag45  1  0.67740719  -0.00902418  0.66158239  1
  Ag  Ag46  1  0.67005559  0.66440068  -0.01480000  1
  Ag  Ag47  1  0.32214895  0.66967198  -0.01260698  1
  Ag  Ag48  1  0.83659890  0.67542363  0.51340404  1
  Ag  Ag49  1  0.16932432  0.16903279  0.33527385  1
  Ag  Ag50  1  0.16670638  0.33535189  0.50069329  1
  Ag  Ag51  1  -0.00398265  0.32947121  0.67049446  1
  Ag  Ag52  1  -0.00232326  0.82341046  0.82912814  1
  Ag  Ag53  1  0.16197520  0.66386597  0.50436600  1
  Sb  Sb54  1  0.66440859  -0.00131382  -0.00634873  1
  Sb  Sb55  1  0.16223005  0.82605630  -0.00286158  1
  Sb  Sb56  1  0.83834607  -0.00613032  0.82459232  1
  Sb  Sb57  1  0.49463510  0.33116604  0.16421201  1
  Sb  Sb58  1  0.66426770  0.16732914  0.17105425  1
  Sb  Sb59  1  0.83949777  0.50189412  -0.01037563  1
  Sb  Sb60  1  0.83857546  0.49819205  0.34257744  1
  Sb  Sb61  1  0.50474812  0.16575981  0.66757486  1
  Sb  Sb62  1  0.32717871  0.49655845  0.16155792  1
  Sb  Sb63  1  0.83715863  0.83449263  0.34011215  1
  Sb  Sb64  1  0.66691904  0.67231344  0.34332440  1
  Sb  Sb65  1  0.00015381  0.16872401  0.82727102  1
  Sb  Sb66  1  0.33113524  0.16989600  0.83056426  1
  Sb  Sb67  1  0.49643885  0.49774667  -0.00388707  1
  Sb  Sb68  1  0.83909290  0.00404118  0.17152820  1
  Sb  Sb69  1  0.32788154  0.66409158  0.33473399  1
  Sb  Sb70  1  0.33042083  0.83624945  0.50476944  1
  Sb  Sb71  1  0.00235015  0.83305254  0.16544846  1
  Sb  Sb72  1  0.50145085  0.67261340  0.50721039  1
  Sb  Sb73  1  0.16029295  0.83204880  0.66651451  1
  Sb  Sb74  1  0.49357501  0.66841211  0.15868537  1
  Sb  Sb75  1  0.00712076  0.16830938  0.17310730  1
  Sb  Sb76  1  0.49541375  0.50402348  0.33759688  1
  Sb  Sb77  1  0.66455256  0.32996797  0.34088654  1
  Sb  Sb78  1  0.67058702  0.49843846  0.15787427  1
  Sb  Sb79  1  0.83093183  0.16755533  -0.00691579  1
  Sb  Sb80  1  0.50735372  0.50202664  0.66906063  1
  Sb  Sb81  1  0.50111225  0.83445688  -0.00120887  1
  Sb  Sb82  1  0.49700638  0.32782958  0.50173014  1
  Sb  Sb83  1  0.32965108  0.00042438  0.66916816  1
  Sb  Sb84  1  0.00664959  0.33030323  0.33786911  1
  Sb  Sb85  1  0.32886867  0.83639083  0.16221016  1
  Sb  Sb86  1  0.83827087  0.16735806  0.34166340  1
  Sb  Sb87  1  0.66768688  0.16737298  0.82577246  1
  Sb  Sb88  1  0.00287441  0.49851081  0.15981426  1
  Sb  Sb89  1  0.49696565  -0.00567751  0.82907078  1
  Sb  Sb90  1  0.00387005  0.67062173  0.33433959  1
  Sb  Sb91  1  0.33259413  0.49700115  0.50791869  1
  Sb  Sb92  1  0.00502967  -0.00102785  -0.00511881  1
  Sb  Sb93  1  0.16802405  0.17123386  0.00341514  1
  Sb  Sb94  1  0.16147943  0.16950426  0.66154197  1
  Sb  Sb95  1  0.50826280  0.83223214  0.66484766  1
  Sb  Sb96  1  0.16143428  0.00120056  0.49919095  1
  Sb  Sb97  1  0.49476872  0.00039289  0.17044431  1
  Sb  Sb98  1  0.83746188  0.33183961  0.50819671  1
  Sb  Sb99  1  -0.00053061  0.50171160  0.50878306  1
  Sb  Sb100  1  0.32748846  0.33461480  -0.00387485  1
  Sb  Sb101  1  -0.00393803  0.66815945  0.67398062  1
  Sb  Sb102  1  0.66888672  0.83277493  0.16757530  1
  Sb  Sb103  1  0.50007398  0.33814644  0.83260712  1
  Sb  Sb104  1  0.49473204  0.16222343  0.33437556  1
  Sb  Sb105  1  0.83847598  0.66259030  0.15731602  1
  Sb  Sb106  1  0.32787187  0.00319240  0.33206655  1
  Sb  Sb107  1  0.16093371  0.49998750  0.67140352  1
  Te  Te108  1  0.17070231  0.16750690  0.17037297  1
  Te  Te109  1  0.16480548  0.16879067  0.49719236  1
  Te  Te110  1  0.16746127  0.16938160  0.83406249  1
  Te  Te111  1  0.16704573  0.49985019  0.16927583  1
  Te  Te112  1  0.16690081  0.50017919  0.49740533  1
  Te  Te113  1  0.16250019  0.50136327  0.83275604  1
  Te  Te114  1  0.16630292  0.83364737  0.17203905  1
  Te  Te115  1  0.16402093  0.82993258  0.49887527  1
  Te  Te116  1  0.16541342  0.83092566  0.83290293  1
  Te  Te117  1  0.49185585  0.16582454  0.16334001  1
  Te  Te118  1  0.50689142  0.16105900  0.49995573  1
  Te  Te119  1  0.49931147  0.16382818  0.83931944  1
  Te  Te120  1  0.49946979  0.50017205  0.16786542  1
  Te  Te121  1  0.50905793  0.50154169  0.49986406  1
  Te  Te122  1  0.50024350  0.50578359  0.83411639  1
  Te  Te123  1  0.49970126  0.83372264  0.17596017  1
  Te  Te124  1  0.49813376  0.83789544  0.49659443  1
  Te  Te125  1  0.49524112  0.82946950  0.83412119  1
  Te  Te126  1  0.83341124  0.17242021  0.16606633  1
  Te  Te127  1  0.83469541  0.16559610  0.50410927  1
  Te  Te128  1  0.83298045  0.17423479  0.82610880  1
  Te  Te129  1  0.83512389  0.49262755  0.16981920  1
  Te  Te130  1  0.83102529  0.50464561  0.50550076  1
  Te  Te131  1  0.83481470  0.50135112  0.83074472  1
  Te  Te132  1  0.83450842  0.83299407  0.16181159  1
  Te  Te133  1  0.83540820  0.83270179  0.50139700  1
  Te  Te134  1  0.83556686  0.83346885  0.82923176  1
  Te  Te135  1  0.16950024  -0.00003687  0.00006651  1
  Te  Te136  1  0.16406571  0.00013262  0.33226211  1
  Te  Te137  1  0.16212375  0.00119254  0.67432766  1
  Te  Te138  1  0.16439749  0.33804324  -0.00398392  1
  Te  Te139  1  0.16795289  0.33210875  0.33356051  1
  Te  Te140  1  0.16555026  0.33367576  0.66688557  1
  Te  Te141  1  0.16474892  0.66569364  -0.00298909  1
  Te  Te142  1  0.16650754  0.67001813  0.33873949  1
  Te  Te143  1  0.17023933  0.66594606  0.66664180  1
  Te  Te144  1  0.49491915  0.00249099  0.00064007  1
  Te  Te145  1  0.50221294  -0.00376312  0.33716606  1
  Te  Te146  1  0.50166492  -0.00060138  0.66061140  1
  Te  Te147  1  0.50610103  0.32931079  0.00004560  1
  Te  Te148  1  0.49072234  0.33420018  0.33264282  1
  Te  Te149  1  0.49671214  0.33299997  0.66641960  1
  Te  Te150  1  0.50529295  0.66681219  -0.00378792  1
  Te  Te151  1  0.49791026  0.67297050  0.33194699  1
  Te  Te152  1  0.49209783  0.66736916  0.67187312  1
  Te  Te153  1  0.83373080  -0.00315770  0.00127833  1
  Te  Te154  1  0.83618150  0.00092959  0.33796881  1
  Te  Te155  1  0.83440705  0.00007823  0.66573641  1
  Te  Te156  1  0.83400288  0.33310324  -0.00339848  1
  Te  Te157  1  0.83354867  0.33325497  0.32690135  1
  Te  Te158  1  0.83464111  0.33442432  0.66770083  1
  Te  Te159  1  0.83280535  0.66828273  -0.00399518  1
  Te  Te160  1  0.83485823  0.66529466  0.33081844  1
  Te  Te161  1  0.83432409  0.66791478  0.66934161  1
  Te  Te162  1  -0.00151836  0.17248377  0.00221670  1
  Te  Te163  1  0.00546219  0.16243369  0.34066957  1
  Te  Te164  1  -0.00390100  0.16676605  0.66160499  1
  Te  Te165  1  0.00481684  0.49821914  -0.00541061  1
  Te  Te166  1  0.00708625  0.50071123  0.33435098  1
  Te  Te167  1  -0.00656014  0.49239741  0.67247188  1
  Te  Te168  1  -0.00429716  0.83096274  -0.00485895  1
  Te  Te169  1  0.00447079  0.83772434  0.33548764  1
  Te  Te170  1  -0.00409344  0.83524501  0.66730577  1
  Te  Te171  1  0.33549495  0.16588105  0.00023653  1
  Te  Te172  1  0.32989169  0.16942023  0.33529077  1
  Te  Te173  1  0.33509896  0.16926228  0.66014085  1
  Te  Te174  1  0.32862564  0.50431017  -0.00537898  1
  Te  Te175  1  0.32780639  0.49403519  0.33456356  1
  Te  Te176  1  0.33417706  0.49908934  0.67084193  1
  Te  Te177  1  0.33358268  0.83246901  -0.00494791  1
  Te  Te178  1  0.32984514  0.83353505  0.33415874  1
  Te  Te179  1  0.33258821  0.83204375  0.67278985  1
  Te  Te180  1  0.66300782  0.16794755  0.00177015  1
  Te  Te181  1  0.66578205  0.16132714  0.33987063  1
  Te  Te182  1  0.66949760  0.17070502  0.66176011  1
  Te  Te183  1  0.66594976  0.49891895  -0.00693418  1
  Te  Te184  1  0.66564649  0.50100397  0.33306083  1
  Te  Te185  1  0.66927973  0.50137606  0.67095131  1
  Te  Te186  1  0.66917586  0.83022596  -0.00217971  1
  Te  Te187  1  0.66734164  0.83818342  0.33550468  1
  Te  Te188  1  0.66890997  0.83056688  0.66639069  1
  Te  Te189  1  0.00672063  0.00085312  0.16734558  1
  Te  Te190  1  0.00061064  -0.00151849  0.50290368  1
  Te  Te191  1  0.00531151  -0.00141003  0.82951743  1
  Te  Te192  1  0.00429961  0.33289339  0.16682663  1
  Te  Te193  1  0.00492890  0.33399446  0.50468385  1
  Te  Te194  1  0.00079678  0.32934872  0.83138999  1
  Te  Te195  1  0.00679371  0.66592734  0.15839678  1
  Te  Te196  1  -0.00019424  0.66892352  0.50053829  1
  Te  Te197  1  0.00091586  0.66669481  0.83272084  1
  Te  Te198  1  0.32770832  0.00435544  0.16233272  1
  Te  Te199  1  0.33105874  0.00571185  0.50085600  1
  Te  Te200  1  0.32912719  0.00171268  0.83609322  1
  Te  Te201  1  0.32682759  0.32916008  0.16425821  1
  Te  Te202  1  0.33032056  0.33055314  0.50256592  1
  Te  Te203  1  0.33157477  0.33740264  0.82839756  1
  Te  Te204  1  0.32643542  0.66645232  0.16222593  1
  Te  Te205  1  0.33120516  0.66637269  0.50342846  1
  Te  Te206  1  0.33398692  0.66357958  0.83306726  1
  Te  Te207  1  0.66821313  0.00111693  0.16811648  1
  Te  Te208  1  0.67190450  -0.00318279  0.50393507  1
  Te  Te209  1  0.66609061  -0.00455821  0.82680742  1
  Te  Te210  1  0.66630977  0.33234896  0.16869532  1
  Te  Te211  1  0.66678644  0.34031454  0.50415866  1
  Te  Te212  1  0.66481959  0.33235442  0.82929491  1
  Te  Te213  1  0.66631765  0.66566361  0.16446802  1
  Te  Te214  1  0.66859332  0.66709152  0.50590554  1
  Te  Te215  1  0.66582135  0.66831507  0.83002912  1
