# generated using pymatgen
data_AgSbTe2
_symmetry_space_group_name_H-M   'P 1'
_cell_length_a   18.34259349
_cell_length_b   18.33780629
_cell_length_c   18.33535511
_cell_angle_alpha   90.00098488
_cell_angle_beta   89.99956578
_cell_angle_gamma   89.99993632
_symmetry_Int_Tables_number   1
_chemical_formula_structural   AgSbTe2
_chemical_formula_sum   'Ag54 Sb54 Te108'
_cell_volume   6167.33369502
_cell_formula_units_Z   54
loop_
 _symmetry_equiv_pos_site_id
 _symmetry_equiv_pos_as_xyz
  1  'x, y, z'
loop_
 _atom_site_type_symbol
 _atom_site_label
 _atom_site_symmetry_multiplicity
 _atom_site_fract_x
 _atom_site_fract_y
 _atom_site_fract_z
 _atom_site_occupancy
  Ag  Ag0  1  0.83179320  0.50556665  -0.00504649  1
  Ag  Ag1  1  0.32881007  0.50399930  0.83463475  1
  Ag  Ag2  1  0.83141129  0.17225277  0.66484626  1
  Ag  Ag3  1  0.33316951  0.66712506  -0.00422982  1
  Ag  Ag4  1  0.16817460  0.16242557  0.00803001  1
  Ag  Ag5  1  0.49950811  0.00754924  0.50533599  1
  Ag  Ag6  1  0.83801551  -0.00562532  0.16132690  1
  Ag  Ag7  1  0.67438879  0.66135701  0.67414090  1
  Ag  Ag8  1  0.17092293  0.32132591  0.16549445  1
  Ag  Ag9  1  0.49887419  0.50147952  -0.00450862  1
  Ag  Ag10  1  0.66814093  0.33519520  -0.01017444  1
  Ag  Ag11  1  0.82707935  0.66047867  0.83359481  1
  Ag  Ag12  1  0.82812204  0.33748584  0.82961877  1
  Ag  Ag13  1  0.16086730  0.16750163  0.32004292  1
  Ag  Ag14  1  0.67005752  0.17260838  0.83117087  1
  Ag  Ag15  1  0.83939824  0.16229221  0.34098445  1
  Ag  Ag16  1  0.50518823  0.17016056  0.66721088  1
  Ag  Ag17  1  0.50320387  -0.00133721  0.83748942  1
  Ag  Ag18  1  0.15762581  0.00900087  0.50117938  1
  Ag  Ag19  1  0.16495414  0.32799175  0.50314555  1
  Ag  Ag20  1  0.16962123  0.65832699  0.83438784  1
  Ag  Ag21  1  0.83676532  0.32325796  0.51100979  1
  Ag  Ag22  1  0.00877163  0.16233878  0.17062887  1
  Ag  Ag23  1  0.32938232  -0.00288048  -0.00052215  1
  Ag  Ag24  1  0.49796310  0.32837314  0.50851091  1
  Ag  Ag25  1  0.16938568  0.49948909  -0.00697552  1
  Ag  Ag26  1  0.16489493  0.00869026  0.15701520  1
  Ag  Ag27  1  0.33175916  0.32972618  0.33557265  1
  Ag  Ag28  1  0.50301491  0.66412980  0.83573477  1
  Ag  Ag29  1  0.84026757  0.00348011  0.50007829  1
  Ag  Ag30  1  -0.00741721  0.33530583  0.66655073  1
  Ag  Ag31  1  0.49481388  0.32637848  0.16482995  1
  Ag  Ag32  1  -0.00063600  0.50303003  0.83131269  1
  Ag  Ag33  1  0.67221458  0.50092778  0.83516389  1
  Ag  Ag34  1  -0.00453716  0.84351501  0.49851238  1
  Ag  Ag35  1  0.83471212  0.83941811  0.31948152  1
  Ag  Ag36  1  0.83536532  0.66859357  0.51035792  1
  Ag  Ag37  1  0.32127805  0.16855154  0.16506151  1
  Ag  Ag38  1  0.16760357  -0.00101797  0.84235084  1
  Ag  Ag39  1  0.33308824  0.65943711  0.67943488  1
  Ag  Ag40  1  0.83533993  0.82939866  0.00599370  1
  Ag  Ag41  1  -0.00797019  0.66169082  0.67037988  1
  Ag  Ag42  1  0.33266032  0.33501155  0.66572716  1
  Ag  Ag43  1  0.67924185  0.83268762  0.15678965  1
  Ag  Ag44  1  -0.00919509  0.84009500  0.16810474  1
  Ag  Ag45  1  0.16714799  0.49818311  0.67543992  1
  Ag  Ag46  1  0.50484384  0.66859750  0.15487712  1
  Ag  Ag47  1  -0.00204058  0.16393402  0.49894299  1
  Ag  Ag48  1  0.67169147  0.82768586  0.83668321  1
  Ag  Ag49  1  0.16276909  0.84344244  -0.00055282  1
  Ag  Ag50  1  0.49733284  0.00211621  0.15895553  1
  Ag  Ag51  1  0.67376362  0.33381373  0.67200675  1
  Ag  Ag52  1  0.83024205  0.68153530  0.15448925  1
  Ag  Ag53  1  0.82964393  -0.00139109  0.83508410  1
  Sb  Sb54  1  0.15920329  0.84224773  0.32690060  1
  Sb  Sb55  1  0.66389320  0.33069921  0.33664930  1
  Sb  Sb56  1  0.33127621  0.00611118  0.32775270  1
  Sb  Sb57  1  0.49659661  0.16841796  -0.00253801  1
  Sb  Sb58  1  0.16416404  0.82991150  0.67425534  1
  Sb  Sb59  1  0.33458724  0.82730314  0.83625003  1
  Sb  Sb60  1  0.33490179  0.33521614  -0.00281548  1
  Sb  Sb61  1  0.67030791  0.00033941  0.33174897  1
  Sb  Sb62  1  0.66607347  0.66225466  -0.00769989  1
  Sb  Sb63  1  0.33325432  0.00343521  0.67201807  1
  Sb  Sb64  1  0.16750100  0.49110863  0.33225799  1
  Sb  Sb65  1  0.66818791  0.00376770  0.67105271  1
  Sb  Sb66  1  -0.00338171  0.16901255  0.83120937  1
  Sb  Sb67  1  0.67482596  0.83480131  0.50370407  1
  Sb  Sb68  1  0.50454401  0.66546451  0.50867881  1
  Sb  Sb69  1  0.33520656  0.16995851  0.83569051  1
  Sb  Sb70  1  0.83400529  0.49906883  0.32807618  1
  Sb  Sb71  1  0.66914763  0.66840136  0.33419731  1
  Sb  Sb72  1  0.50279436  0.83012339  -0.00109816  1
  Sb  Sb73  1  0.33236675  0.83930922  0.16355922  1
  Sb  Sb74  1  0.83876906  0.49615533  0.67614473  1
  Sb  Sb75  1  0.50659372  0.33497332  0.83284247  1
  Sb  Sb76  1  0.16445340  0.17242121  0.66853089  1
  Sb  Sb77  1  0.66856129  0.16397535  0.16078904  1
  Sb  Sb78  1  0.16493330  0.67054599  0.15601989  1
  Sb  Sb79  1  0.00052993  0.50010813  0.15705990  1
  Sb  Sb80  1  0.16293860  0.33633942  0.83261315  1
  Sb  Sb81  1  0.83759760  0.16395411  -0.00237339  1
  Sb  Sb82  1  0.32598758  0.83619098  0.50118937  1
  Sb  Sb83  1  -0.00180876  0.49581749  0.50931779  1
  Sb  Sb84  1  0.33305318  0.49633310  0.50938800  1
  Sb  Sb85  1  0.50030404  0.16677975  0.33590689  1
  Sb  Sb86  1  0.66625792  0.50423362  0.15690269  1
  Sb  Sb87  1  0.33325532  0.49386931  0.15722590  1
  Sb  Sb88  1  0.00505135  -0.00097932  0.00101369  1
  Sb  Sb89  1  -0.00409635  0.82916315  0.83479114  1
  Sb  Sb90  1  0.50700308  0.83571089  0.32954141  1
  Sb  Sb91  1  0.83435939  0.32848829  0.16459748  1
  Sb  Sb92  1  0.50159974  0.83733402  0.66919617  1
  Sb  Sb93  1  -0.00219383  0.00302092  0.33127364  1
  Sb  Sb94  1  0.32807438  0.16866805  0.49691261  1
  Sb  Sb95  1  0.00418098  0.32891887  0.34008005  1
  Sb  Sb96  1  0.83412321  0.83327142  0.67022111  1
  Sb  Sb97  1  -0.00116854  0.00147885  0.66537413  1
  Sb  Sb98  1  0.67339396  0.16613567  0.50645065  1
  Sb  Sb99  1  0.00017076  0.66729661  -0.00638474  1
  Sb  Sb100  1  0.49587792  0.49443038  0.67577929  1
  Sb  Sb101  1  -0.00080422  0.66898104  0.33724532  1
  Sb  Sb102  1  0.49958889  0.49726255  0.32506010  1
  Sb  Sb103  1  0.16003220  0.66594368  0.51105740  1
  Sb  Sb104  1  -0.00187582  0.33353826  -0.00506772  1
  Sb  Sb105  1  0.66893079  0.49800313  0.51264006  1
  Sb  Sb106  1  0.33280125  0.66018271  0.32768209  1
  Sb  Sb107  1  0.66452234  0.00184885  -0.00271472  1
  Te  Te108  1  0.16544738  0.16481794  0.16532877  1
  Te  Te109  1  0.16231449  0.16854736  0.50353563  1
  Te  Te110  1  0.16587152  0.16067323  0.83638477  1
  Te  Te111  1  0.16582683  0.49972530  0.16183261  1
  Te  Te112  1  0.16585578  0.49372372  0.50081569  1
  Te  Te113  1  0.16613027  0.49808930  0.83444181  1
  Te  Te114  1  0.16246288  0.83936832  0.16202802  1
  Te  Te115  1  0.15859964  0.83523601  0.49679730  1
  Te  Te116  1  0.16480694  0.83908848  0.83957765  1
  Te  Te117  1  0.50153377  0.16460957  0.16773558  1
  Te  Te118  1  0.49988017  0.16860787  0.50206612  1
  Te  Te119  1  0.50310414  0.16186220  0.83061983  1
  Te  Te120  1  0.49997353  0.50283946  0.15810768  1
  Te  Te121  1  0.50111459  0.49529536  0.49671270  1
  Te  Te122  1  0.50081549  0.50244095  0.83759728  1
  Te  Te123  1  0.50093087  0.83646577  0.16616344  1
  Te  Te124  1  0.50081825  0.83588316  0.49842877  1
  Te  Te125  1  0.50589053  0.83605256  0.83378862  1
  Te  Te126  1  0.83641804  0.16078068  0.16715662  1
  Te  Te127  1  0.83497720  0.16547028  0.50206939  1
  Te  Te128  1  0.83165170  0.16327364  0.83228472  1
  Te  Te129  1  0.83394007  0.50073271  0.15820569  1
  Te  Te130  1  0.83298891  0.50446253  0.49655462  1
  Te  Te131  1  0.83306544  0.50063227  0.83598788  1
  Te  Te132  1  0.83473370  0.83637620  0.16501382  1
  Te  Te133  1  0.83610804  0.83625110  0.50325003  1
  Te  Te134  1  0.83225777  0.83726013  0.83548152  1
  Te  Te135  1  0.16874712  0.00057595  0.00017542  1
  Te  Te136  1  0.16836017  0.00725787  0.34167329  1
  Te  Te137  1  0.16740803  -0.00050819  0.66108461  1
  Te  Te138  1  0.16674147  0.33506974  0.00190660  1
  Te  Te139  1  0.17051017  0.32782966  0.33456861  1
  Te  Te140  1  0.16971985  0.33603625  0.66488660  1
  Te  Te141  1  0.16865988  0.66097289  -0.00519976  1
  Te  Te142  1  0.16820595  0.66632233  0.33346756  1
  Te  Te143  1  0.17140904  0.66298665  0.67323577  1
  Te  Te144  1  0.49498434  -0.00052223  -0.00069652  1
  Te  Te145  1  0.49957621  0.00055665  0.33381557  1
  Te  Te146  1  0.49950658  0.00560636  0.66776770  1
  Te  Te147  1  0.50231411  0.33590087  0.00376857  1
  Te  Te148  1  0.49536300  0.33232481  0.32957457  1
  Te  Te149  1  0.49893923  0.33046425  0.66661237  1
  Te  Te150  1  0.49800320  0.66568119  -0.00261402  1
  Te  Te151  1  0.50012654  0.66641190  0.32968411  1
  Te  Te152  1  0.49583444  0.66625323  0.67085304  1
  Te  Te153  1  0.83176879  -0.00374354  -0.00125043  1
  Te  Te154  1  0.83268220  0.00056903  0.33749578  1
  Te  Te155  1  0.83311779  0.00583087  0.66616246  1
  Te  Te156  1  0.82966731  0.33456469  -0.00351773  1
  Te  Te157  1  0.83268380  0.33024393  0.33649358  1
  Te  Te158  1  0.83257598  0.33395815  0.66811173  1
  Te  Te159  1  0.83331058  0.66746306  -0.00332155  1
  Te  Te160  1  0.83346004  0.66826897  0.33350693  1
  Te  Te161  1  0.83326628  0.66503170  0.67093386  1
  Te  Te162  1  0.00631602  0.16780431  0.00536749  1
  Te  Te163  1  0.00037931  0.16766058  0.33421995  1
  Te  Te164  1  -0.00384618  0.17128576  0.66360832  1
  Te  Te165  1  0.00000472  0.50024676  -0.00841189  1
  Te  Te166  1  0.00079045  0.49967336  0.33211607  1
  Te  Te167  1  0.00576762  0.49976434  0.67195460  1
  Te  Te168  1  -0.00081455  0.83274651  0.00459464  1
  Te  Te169  1  -0.00671634  0.83345578  0.33416276  1
  Te  Te170  1  0.00082389  0.82688485  0.65973577  1
  Te  Te171  1  0.32961820  0.16390594  0.00299116  1
  Te  Te172  1  0.33122874  0.17205290  0.32763147  1
  Te  Te173  1  0.33851891  0.17134393  0.66684928  1
  Te  Te174  1  0.33368879  0.50276345  -0.00566717  1
  Te  Te175  1  0.33324970  0.49066398  0.33300525  1
  Te  Te176  1  0.32962726  0.49948266  0.67302346  1
  Te  Te177  1  0.32742202  0.83253109  0.00035901  1
  Te  Te178  1  0.33218245  0.83087604  0.33307258  1
  Te  Te179  1  0.33296987  0.82480423  0.66627977  1
  Te  Te180  1  0.66721864  0.17338978  -0.00706012  1
  Te  Te181  1  0.67613708  0.16690116  0.33217996  1
  Te  Te182  1  0.66720546  0.16982040  0.67157124  1
  Te  Te183  1  0.66704972  0.49561760  -0.00587138  1
  Te  Te184  1  0.66680929  0.49966968  0.33371725  1
  Te  Te185  1  0.66318640  0.49887015  0.67571942  1
  Te  Te186  1  0.67042435  0.83470971  -0.00123508  1
  Te  Te187  1  0.67568985  0.83326370  0.32939200  1
  Te  Te188  1  0.66668575  0.82509750  0.67307463  1
  Te  Te189  1  -0.00041391  0.00072334  0.16624275  1
  Te  Te190  1  -0.00116651  0.00247917  0.50069203  1
  Te  Te191  1  -0.00111833  -0.00038687  0.83150858  1
  Te  Te192  1  0.00480885  0.33115908  0.16727054  1
  Te  Te193  1  -0.00207330  0.33026123  0.50568951  1
  Te  Te194  1  -0.00652055  0.33678205  0.82723958  1
  Te  Te195  1  -0.00535008  0.66883218  0.16790715  1
  Te  Te196  1  -0.00503538  0.66565124  0.50645384  1
  Te  Te197  1  0.00130461  0.66508132  0.82848305  1
  Te  Te198  1  0.33340362  0.00488528  0.16325108  1
  Te  Te199  1  0.33902883  0.00057153  0.50112273  1
  Te  Te200  1  0.33299755  -0.00012725  0.83679813  1
  Te  Te201  1  0.33285522  0.32980652  0.16416321  1
  Te  Te202  1  0.33517890  0.33277333  0.50317418  1
  Te  Te203  1  0.33446682  0.33806630  0.82855235  1
  Te  Te204  1  0.33810950  0.66667591  0.16088374  1
  Te  Te205  1  0.33380875  0.66653170  0.49910976  1
  Te  Te206  1  0.33327966  0.66606540  0.83571547  1
  Te  Te207  1  0.66510991  -0.00387814  0.16487391  1
  Te  Te208  1  0.65979382  -0.00104819  0.50181157  1
  Te  Te209  1  0.66660298  -0.00162601  0.83323989  1
  Te  Te210  1  0.66276353  0.33362952  0.16763698  1
  Te  Te211  1  0.66577037  0.33290087  0.50523313  1
  Te  Te212  1  0.66781544  0.33281759  0.83143013  1
  Te  Te213  1  0.66630991  0.67098166  0.16687696  1
  Te  Te214  1  0.67202569  0.66649113  0.50767529  1
  Te  Te215  1  0.66622518  0.66658784  0.83157758  1
