# generated using pymatgen
data_AgSbTe2
_symmetry_space_group_name_H-M   'P 1'
_cell_length_a   18.33504245
_cell_length_b   18.33005761
_cell_length_c   18.33230044
_cell_angle_alpha   90.00317302
_cell_angle_beta   90.00183554
_cell_angle_gamma   90.00144520
_symmetry_Int_Tables_number   1
_chemical_formula_structural   AgSbTe2
_chemical_formula_sum   'Ag54 Sb54 Te108'
_cell_volume   6161.16322679
_cell_formula_units_Z   54
loop_
 _symmetry_equiv_pos_site_id
 _symmetry_equiv_pos_as_xyz
  1  'x, y, z'
loop_
 _atom_site_type_symbol
 _atom_site_label
 _atom_site_symmetry_multiplicity
 _atom_site_fract_x
 _atom_site_fract_y
 _atom_site_fract_z
 _atom_site_occupancy
  Ag  Ag0  1  -0.00404234  0.49538836  0.16145048  1
  Ag  Ag1  1  0.16328772  0.16544051  0.67719012  1
  Ag  Ag2  1  0.84573200  0.33582166  0.84438147  1
  Ag  Ag3  1  0.83747928  0.83119636  0.32886452  1
  Ag  Ag4  1  0.84037488  -0.00517899  0.50022328  1
  Ag  Ag5  1  0.16372652  0.83102091  0.33577797  1
  Ag  Ag6  1  0.66463194  0.50040431  0.16470552  1
  Ag  Ag7  1  -0.00153791  0.48978812  0.84440261  1
  Ag  Ag8  1  0.49533204  0.17378436  0.00259644  1
  Ag  Ag9  1  0.17609511  0.66294295  0.16759116  1
  Ag  Ag10  1  0.16976482  0.49815620  0.32505668  1
  Ag  Ag11  1  0.50100905  0.49858018  0.00355118  1
  Ag  Ag12  1  0.00788500  0.17796904  0.84201430  1
  Ag  Ag13  1  0.65967111  0.66548730  0.00486543  1
  Ag  Ag14  1  0.84229772  0.33886524  0.16232220  1
  Ag  Ag15  1  0.00384660  0.66330953  0.66801093  1
  Ag  Ag16  1  0.16306361  0.83581271  0.66061481  1
  Ag  Ag17  1  0.66645036  -0.00202508  0.00263997  1
  Ag  Ag18  1  0.00165345  0.33204889  -0.00140467  1
  Ag  Ag19  1  0.00277579  0.00378026  0.66868406  1
  Ag  Ag20  1  0.50144832  0.00329330  0.49810395  1
  Ag  Ag21  1  0.49444592  0.49907578  0.32069727  1
  Ag  Ag22  1  0.49924645  0.33287945  0.84474633  1
  Ag  Ag23  1  0.15710274  0.32960300  0.83592409  1
  Ag  Ag24  1  0.49723832  0.65694040  0.84796983  1
  Ag  Ag25  1  0.66020961  0.66644551  0.32152904  1
  Ag  Ag26  1  0.83773770  0.49687564  0.67573319  1
  Ag  Ag27  1  0.00644132  0.33430577  0.32042514  1
  Ag  Ag28  1  0.33227397  0.16722854  0.16206376  1
  Ag  Ag29  1  0.83051538  0.65902554  0.16337965  1
  Ag  Ag30  1  0.00512481  0.17604575  0.15986436  1
  Ag  Ag31  1  0.65713807  0.17524515  0.16348243  1
  Ag  Ag32  1  0.83406476  0.82601548  0.00660944  1
  Ag  Ag33  1  0.67275812  0.83474176  0.49793954  1
  Ag  Ag34  1  0.32634300  0.17007512  0.84303866  1
  Ag  Ag35  1  0.15782606  0.49442994  0.00542237  1
  Ag  Ag36  1  0.32819181  0.66792047  0.67047337  1
  Ag  Ag37  1  0.15917992  -0.00097911  0.50110758  1
  Ag  Ag38  1  -0.00297253  0.33340320  0.68200213  1
  Ag  Ag39  1  0.32713834  0.33854397  0.32866183  1
  Ag  Ag40  1  0.83968330  0.49963720  0.00447458  1
  Ag  Ag41  1  0.67272915  0.33377805  0.66829440  1
  Ag  Ag42  1  0.50063360  0.00661064  0.84505129  1
  Ag  Ag43  1  0.16421197  0.17301829  0.00161633  1
  Ag  Ag44  1  -0.00057481  0.83707724  0.50018893  1
  Ag  Ag45  1  0.16666077  0.17587830  0.32209779  1
  Ag  Ag46  1  0.33385389  0.66166757  0.32360206  1
  Ag  Ag47  1  0.34165495  0.66539059  0.00678138  1
  Ag  Ag48  1  0.50098516  0.33031300  0.49245736  1
  Ag  Ag49  1  0.50313879  0.33929489  0.16430793  1
  Ag  Ag50  1  0.33363210  0.82047660  0.16718334  1
  Ag  Ag51  1  0.49816340  0.65631179  0.16380518  1
  Ag  Ag52  1  0.50122129  0.00569075  0.16117513  1
  Ag  Ag53  1  -0.00245351  0.01333883  -0.00218304  1
  Sb  Sb54  1  0.49498227  0.83265840  0.66455909  1
  Sb  Sb55  1  0.33306987  0.33410882  0.00566284  1
  Sb  Sb56  1  0.00156382  0.83216953  0.16918293  1
  Sb  Sb57  1  0.66397867  0.82714760  0.16830245  1
  Sb  Sb58  1  0.33290665  0.16632480  0.49719714  1
  Sb  Sb59  1  0.67028368  0.00475651  0.66826685  1
  Sb  Sb60  1  0.49860124  0.82863848  0.33075330  1
  Sb  Sb61  1  0.66757558  0.66227727  0.66877942  1
  Sb  Sb62  1  0.50404685  0.49748250  0.67110713  1
  Sb  Sb63  1  0.33433008  0.49932013  0.16546472  1
  Sb  Sb64  1  0.16827519  0.32846025  0.49947319  1
  Sb  Sb65  1  0.00282477  0.16328944  0.50037639  1
  Sb  Sb66  1  0.66628938  0.83283096  0.83244952  1
  Sb  Sb67  1  0.83863826  0.16439962  0.32992201  1
  Sb  Sb68  1  0.66642217  0.50303393  0.49440214  1
  Sb  Sb69  1  0.67037465  0.49690831  0.84221347  1
  Sb  Sb70  1  0.50376175  0.83126000  0.00302689  1
  Sb  Sb71  1  0.84023997  0.82886524  0.66583258  1
  Sb  Sb72  1  0.16049071  0.49918143  0.66899580  1
  Sb  Sb73  1  0.83442276  0.67082378  0.49435831  1
  Sb  Sb74  1  -0.00035506  0.50145653  0.49796496  1
  Sb  Sb75  1  -0.00014655  0.66080856  -0.00103875  1
  Sb  Sb76  1  0.83174820  0.65988745  0.84001588  1
  Sb  Sb77  1  0.33378722  0.50015931  0.49687180  1
  Sb  Sb78  1  0.33297244  -0.00051577  0.33103492  1
  Sb  Sb79  1  0.33046540  0.83370281  0.49441552  1
  Sb  Sb80  1  0.16880917  0.00146161  0.16941713  1
  Sb  Sb81  1  0.66578677  0.33835020  0.33023930  1
  Sb  Sb82  1  0.49371847  0.16782260  0.67496459  1
  Sb  Sb83  1  0.83181540  0.33001711  0.49870739  1
  Sb  Sb84  1  0.66570972  -0.00551718  0.32824839  1
  Sb  Sb85  1  0.16161573  0.83311865  0.00198205  1
  Sb  Sb86  1  0.00275836  0.66361031  0.33178509  1
  Sb  Sb87  1  0.83465970  0.50328577  0.32579311  1
  Sb  Sb88  1  0.33322010  0.83460150  0.83832798  1
  Sb  Sb89  1  0.16812753  0.00815099  0.83100468  1
  Sb  Sb90  1  0.83038741  0.00030196  0.16647155  1
  Sb  Sb91  1  0.16975457  0.66087217  0.83764770  1
  Sb  Sb92  1  0.66549793  0.17008009  0.84043003  1
  Sb  Sb93  1  0.33440604  0.00072660  0.00134130  1
  Sb  Sb94  1  0.83605346  0.17120860  0.00200975  1
  Sb  Sb95  1  0.49322644  0.17360407  0.32244464  1
  Sb  Sb96  1  0.16565659  0.67109366  0.49548298  1
  Sb  Sb97  1  0.84057107  0.17182060  0.66778097  1
  Sb  Sb98  1  0.32760728  -0.00221722  0.66729839  1
  Sb  Sb99  1  0.00094684  0.83376451  0.83135239  1
  Sb  Sb100  1  0.33088020  0.33575363  0.66686729  1
  Sb  Sb101  1  0.33000303  0.49469343  0.83647124  1
  Sb  Sb102  1  0.66728638  0.33494322  0.00055624  1
  Sb  Sb103  1  0.66354194  0.16340743  0.49301726  1
  Sb  Sb104  1  0.83320026  0.00607104  0.83369687  1
  Sb  Sb105  1  0.49971712  0.66571588  0.49509753  1
  Sb  Sb106  1  0.16578788  0.33795252  0.16271764  1
  Sb  Sb107  1  0.00193811  0.00336317  0.33206774  1
  Te  Te108  1  0.16626004  0.16594577  0.16396768  1
  Te  Te109  1  0.16778345  0.16022919  0.49776343  1
  Te  Te110  1  0.16680281  0.16920142  0.83720160  1
  Te  Te111  1  0.16391297  0.50247597  0.16540300  1
  Te  Te112  1  0.16604797  0.49908259  0.49019751  1
  Te  Te113  1  0.16157559  0.49326586  0.83756772  1
  Te  Te114  1  0.17004155  0.83058453  0.16974403  1
  Te  Te115  1  0.16469894  0.83725839  0.49956641  1
  Te  Te116  1  0.16761633  0.83274633  0.82794728  1
  Te  Te117  1  0.49924730  0.16540192  0.16331545  1
  Te  Te118  1  0.49994157  0.16788695  0.50174391  1
  Te  Te119  1  0.49946395  0.16701335  0.84003645  1
  Te  Te120  1  0.49985677  0.50018730  0.16449129  1
  Te  Te121  1  0.50148331  0.49373511  0.49931445  1
  Te  Te122  1  0.50022780  0.49890642  0.83846810  1
  Te  Te123  1  0.49447423  0.83981999  0.16810250  1
  Te  Te124  1  0.50241840  0.83677111  0.49873461  1
  Te  Te125  1  0.49927917  0.83807587  0.83144412  1
  Te  Te126  1  0.83777147  0.17123582  0.16785365  1
  Te  Te127  1  0.83146054  0.15656895  0.49899648  1
  Te  Te128  1  0.83737016  0.17517010  0.83366710  1
  Te  Te129  1  0.83383746  0.49946651  0.16537657  1
  Te  Te130  1  0.83234731  0.50021735  0.50375467  1
  Te  Te131  1  0.83623548  0.49486285  0.83661984  1
  Te  Te132  1  0.83372048  0.83242872  0.16757405  1
  Te  Te133  1  0.83597888  0.83552238  0.49931166  1
  Te  Te134  1  0.83250581  0.83309770  0.84006413  1
  Te  Te135  1  0.16095946  0.00240068  -0.00025155  1
  Te  Te136  1  0.16731429  -0.00608998  0.33828390  1
  Te  Te137  1  0.16250989  0.00087990  0.66394628  1
  Te  Te138  1  0.16748953  0.33420579  -0.00344612  1
  Te  Te139  1  0.16728110  0.33359357  0.33527144  1
  Te  Te140  1  0.16282673  0.33016354  0.66857711  1
  Te  Te141  1  0.16802401  0.66474963  0.00509700  1
  Te  Te142  1  0.16894642  0.66681162  0.32958196  1
  Te  Te143  1  0.16533421  0.66726008  0.66753598  1
  Te  Te144  1  0.50073399  -0.00270255  0.00147867  1
  Te  Te145  1  0.50018075  0.00141972  0.33529932  1
  Te  Te146  1  0.50078743  0.00034077  0.66245728  1
  Te  Te147  1  0.50026617  0.33379582  0.00345222  1
  Te  Te148  1  0.49975732  0.33805457  0.33071141  1
  Te  Te149  1  0.49979167  0.33345942  0.66519467  1
  Te  Te150  1  0.50041607  0.66935898  0.00364751  1
  Te  Te151  1  0.49774739  0.66180098  0.33041831  1
  Te  Te152  1  0.49753500  0.66585057  0.66724540  1
  Te  Te153  1  0.83253580  -0.00079198  -0.00065823  1
  Te  Te154  1  0.83351604  -0.00743153  0.33756940  1
  Te  Te155  1  0.83893748  -0.00096120  0.66419948  1
  Te  Te156  1  0.83300859  0.33751784  0.00179448  1
  Te  Te157  1  0.83798352  0.33379290  0.32969095  1
  Te  Te158  1  0.83607877  0.33660205  0.66441998  1
  Te  Te159  1  0.83306914  0.66305949  0.00326221  1
  Te  Te160  1  0.83254182  0.67062956  0.32773801  1
  Te  Te161  1  0.83649393  0.66067480  0.66880654  1
  Te  Te162  1  -0.00043420  0.17044255  0.00030731  1
  Te  Te163  1  0.00609191  0.17113400  0.32967037  1
  Te  Te164  1  0.00414216  0.16704042  0.66711071  1
  Te  Te165  1  -0.00009235  0.49881582  0.00129625  1
  Te  Te166  1  0.00340515  0.49619922  0.33036713  1
  Te  Te167  1  -0.00180713  0.49762776  0.66434318  1
  Te  Te168  1  -0.00526981  0.83648620  0.00011642  1
  Te  Te169  1  0.00147850  0.83309106  0.33660582  1
  Te  Te170  1  0.00308109  0.83612024  0.66416328  1
  Te  Te171  1  0.33353311  0.16662417  0.00110547  1
  Te  Te172  1  0.32662820  0.17029272  0.32984152  1
  Te  Te173  1  0.32507659  0.16657372  0.66960101  1
  Te  Te174  1  0.33650030  0.50519947  -0.00178525  1
  Te  Te175  1  0.33269673  0.50019055  0.33326122  1
  Te  Te176  1  0.33184738  0.50646649  0.66692836  1
  Te  Te177  1  0.33025788  0.82813692  0.00577017  1
  Te  Te178  1  0.32903581  0.82802578  0.32816315  1
  Te  Te179  1  0.32653916  0.82933866  0.66682957  1
  Te  Te180  1  0.66256187  0.16352701  0.00533289  1
  Te  Te181  1  0.66661827  0.16645565  0.32427131  1
  Te  Te182  1  0.66655282  0.17278283  0.66586024  1
  Te  Te183  1  0.66308019  0.50182027  0.00533496  1
  Te  Te184  1  0.66384426  0.50585909  0.32749159  1
  Te  Te185  1  0.67222639  0.49565382  0.66502196  1
  Te  Te186  1  0.67363875  0.83225099  -0.00024911  1
  Te  Te187  1  0.66936993  0.82753784  0.33661946  1
  Te  Te188  1  0.66829199  0.83354188  0.66063424  1
  Te  Te189  1  -0.00096845  0.00326589  0.16089210  1
  Te  Te190  1  0.00080973  -0.00272058  0.49997698  1
  Te  Te191  1  -0.00042802  0.00273203  0.83398213  1
  Te  Te192  1  0.00165758  0.33465589  0.16272215  1
  Te  Te193  1  -0.00100721  0.33238769  0.49750495  1
  Te  Te194  1  0.00109895  0.33382403  0.83710363  1
  Te  Te195  1  -0.00427075  0.66327471  0.16676664  1
  Te  Te196  1  -0.00038507  0.67283870  0.50727634  1
  Te  Te197  1  0.00074538  0.66402164  0.82762190  1
  Te  Te198  1  0.33843747  0.00744500  0.16586791  1
  Te  Te199  1  0.34008403  -0.00094498  0.49966555  1
  Te  Te200  1  0.34071686  0.00551536  0.83377227  1
  Te  Te201  1  0.33870374  0.32665582  0.16993730  1
  Te  Te202  1  0.33955425  0.33305716  0.49480725  1
  Te  Te203  1  0.34106096  0.32823601  0.83200787  1
  Te  Te204  1  0.33513103  0.66355474  0.16671999  1
  Te  Te205  1  0.33374590  0.66775586  0.50417341  1
  Te  Te206  1  0.33755159  0.66666146  0.83274512  1
  Te  Te207  1  0.66366223  0.00031071  0.16166630  1
  Te  Te208  1  0.66393436  -0.00322572  0.50008187  1
  Te  Te209  1  0.66229763  0.00108226  0.83749376  1
  Te  Te210  1  0.66405111  0.33507029  0.16678375  1
  Te  Te211  1  0.66340990  0.33287062  0.50253042  1
  Te  Te212  1  0.65811000  0.33337327  0.82817378  1
  Te  Te213  1  0.66504106  0.66686466  0.16509371  1
  Te  Te214  1  0.66661747  0.67296308  0.49887711  1
  Te  Te215  1  0.65859481  0.66595172  0.83781443  1
