# generated using pymatgen
data_AgSbTe2
_symmetry_space_group_name_H-M   'P 1'
_cell_length_a   18.34401414
_cell_length_b   18.34813447
_cell_length_c   18.35189628
_cell_angle_alpha   89.99886070
_cell_angle_beta   90.00228905
_cell_angle_gamma   90.00081626
_symmetry_Int_Tables_number   1
_chemical_formula_structural   AgSbTe2
_chemical_formula_sum   'Ag54 Sb54 Te108'
_cell_volume   6176.85258003
_cell_formula_units_Z   54
loop_
 _symmetry_equiv_pos_site_id
 _symmetry_equiv_pos_as_xyz
  1  'x, y, z'
loop_
 _atom_site_type_symbol
 _atom_site_label
 _atom_site_symmetry_multiplicity
 _atom_site_fract_x
 _atom_site_fract_y
 _atom_site_fract_z
 _atom_site_occupancy
  Ag  Ag0  1  0.83210045  0.82667617  0.33167749  1
  Ag  Ag1  1  0.00155065  0.50403043  0.17238889  1
  Ag  Ag2  1  0.83339096  0.17190148  0.66818691  1
  Ag  Ag3  1  0.16807698  0.17972335  0.32558593  1
  Ag  Ag4  1  0.16143513  0.49749446  0.65082342  1
  Ag  Ag5  1  0.50363345  -0.00965946  0.49880357  1
  Ag  Ag6  1  0.16253135  0.65702566  0.17234633  1
  Ag  Ag7  1  0.50355695  0.49036522  0.01424380  1
  Ag  Ag8  1  0.00224298  0.83114689  0.84223525  1
  Ag  Ag9  1  0.00000405  0.17933087  0.83520558  1
  Ag  Ag10  1  0.32937360  0.83060892  0.83695103  1
  Ag  Ag11  1  0.00651788  0.00541053  -0.00092131  1
  Ag  Ag12  1  0.82739957  0.66417019  0.83757455  1
  Ag  Ag13  1  0.33978666  0.33030761  0.00518353  1
  Ag  Ag14  1  0.17043993  0.33753630  0.16921481  1
  Ag  Ag15  1  0.50545069  0.34010425  0.16164581  1
  Ag  Ag16  1  0.00469658  0.50232406  0.49358241  1
  Ag  Ag17  1  0.50182417  0.33733412  0.84840024  1
  Ag  Ag18  1  0.16352340  0.66009022  0.49009782  1
  Ag  Ag19  1  0.66368659  0.18229074  0.16727912  1
  Ag  Ag20  1  -0.00265526  0.82255100  0.16633594  1
  Ag  Ag21  1  0.16326359  0.34228959  0.49094246  1
  Ag  Ag22  1  0.66555858  -0.01079961  0.66398817  1
  Ag  Ag23  1  0.65428487  0.33939817  0.00574943  1
  Ag  Ag24  1  0.66075956  0.50284520  0.17269839  1
  Ag  Ag25  1  0.00262962  0.17859995  0.50128691  1
  Ag  Ag26  1  0.50731103  0.66268283  0.83692645  1
  Ag  Ag27  1  0.50440276  0.49819120  0.33059322  1
  Ag  Ag28  1  0.66891153  0.33816623  0.66778681  1
  Ag  Ag29  1  0.16668240  0.17639020  0.00443207  1
  Ag  Ag30  1  0.51153292  0.66669409  0.49091263  1
  Ag  Ag31  1  0.82530919  0.66722450  0.16689892  1
  Ag  Ag32  1  -0.00200129  0.33358967  0.67380776  1
  Ag  Ag33  1  0.49794472  0.17718643  0.00658968  1
  Ag  Ag34  1  -0.00234262  0.82636275  0.49659264  1
  Ag  Ag35  1  0.66891961  0.81713310  0.17204729  1
  Ag  Ag36  1  0.66433081  0.66388554  0.66015433  1
  Ag  Ag37  1  0.16884285  0.49810394  0.33302432  1
  Ag  Ag38  1  0.51188221  0.65730091  0.17221658  1
  Ag  Ag39  1  0.33731488  0.65932558  0.33328088  1
  Ag  Ag40  1  0.50560677  0.82824644  0.66525903  1
  Ag  Ag41  1  0.33801375  0.33998385  0.32651522  1
  Ag  Ag42  1  -0.00037219  0.66456938  0.32954755  1
  Ag  Ag43  1  0.66363953  0.66224283  0.32938682  1
  Ag  Ag44  1  0.15913792  0.33381883  0.84622081  1
  Ag  Ag45  1  0.16411959  0.83355251  0.00103093  1
  Ag  Ag46  1  0.66187860  0.65946080  0.01481444  1
  Ag  Ag47  1  0.00696477  0.33149694  -0.00462603  1
  Ag  Ag48  1  0.65822513  0.34515493  0.32349872  1
  Ag  Ag49  1  0.83573688  0.33623211  0.83266168  1
  Ag  Ag50  1  0.32877380  0.00701313  -0.00158574  1
  Ag  Ag51  1  0.66634547  0.82136869  0.49602591  1
  Ag  Ag52  1  0.66627663  0.50364075  0.49264389  1
  Ag  Ag53  1  0.49965877  0.17956195  0.32725630  1
  Sb  Sb54  1  0.16788439  -0.00188045  0.49821941  1
  Sb  Sb55  1  0.33277432  0.33412938  0.66803391  1
  Sb  Sb56  1  0.50132651  0.50362159  0.66222651  1
  Sb  Sb57  1  0.66510178  0.50039727  0.83558250  1
  Sb  Sb58  1  0.33870711  -0.00269010  0.67154719  1
  Sb  Sb59  1  0.83088980  0.50379748  0.33203817  1
  Sb  Sb60  1  0.83830383  0.82999134  0.00392483  1
  Sb  Sb61  1  0.49943473  0.33821015  0.49443628  1
  Sb  Sb62  1  0.66527649  0.00194380  -0.00208515  1
  Sb  Sb63  1  0.00162378  0.34091380  0.33231253  1
  Sb  Sb64  1  0.33104513  0.50044380  0.49593673  1
  Sb  Sb65  1  0.49763832  0.83181567  -0.00172840  1
  Sb  Sb66  1  0.83794132  0.33409721  0.50365681  1
  Sb  Sb67  1  0.33744213  0.49844475  0.16833182  1
  Sb  Sb68  1  0.33453026  0.50184636  0.83536563  1
  Sb  Sb69  1  0.16973150  0.49612941  0.00754865  1
  Sb  Sb70  1  0.33822198  0.17088921  0.16523449  1
  Sb  Sb71  1  0.66818846  0.82796194  0.83304614  1
  Sb  Sb72  1  -0.00264753  0.66215891  0.00704912  1
  Sb  Sb73  1  0.66410772  -0.00337354  0.33674700  1
  Sb  Sb74  1  0.16609495  0.66222596  0.83542929  1
  Sb  Sb75  1  0.50443630  0.82409805  0.33596301  1
  Sb  Sb76  1  0.33614623  0.82988456  0.50236873  1
  Sb  Sb77  1  0.50016770  0.00008175  0.83140215  1
  Sb  Sb78  1  0.15933606  0.17674524  0.66803367  1
  Sb  Sb79  1  0.83510905  0.17110658  -0.00279937  1
  Sb  Sb80  1  0.00203598  -0.00477295  0.32970938  1
  Sb  Sb81  1  0.16573960  0.00181496  0.16404890  1
  Sb  Sb82  1  0.32964354  0.16849492  0.49719562  1
  Sb  Sb83  1  -0.00564820  0.66154652  0.66291897  1
  Sb  Sb84  1  0.50200670  0.00087271  0.16983089  1
  Sb  Sb85  1  0.33869891  0.66558268  0.66237451  1
  Sb  Sb86  1  0.83382485  0.49771840  0.66660649  1
  Sb  Sb87  1  0.33877963  0.66245775  0.00562826  1
  Sb  Sb88  1  0.83004935  0.83278178  0.66431500  1
  Sb  Sb89  1  0.50836034  0.16611597  0.66693429  1
  Sb  Sb90  1  0.16217574  0.82392210  0.32776240  1
  Sb  Sb91  1  -0.00296452  0.17104872  0.16569182  1
  Sb  Sb92  1  0.66869355  0.17076523  0.49705828  1
  Sb  Sb93  1  0.83481498  -0.00017552  0.83317875  1
  Sb  Sb94  1  -0.00457126  0.00442882  0.66936636  1
  Sb  Sb95  1  0.67015316  0.17314424  0.83640955  1
  Sb  Sb96  1  0.82947542  0.34071559  0.16224402  1
  Sb  Sb97  1  0.83125126  0.66660785  0.49526660  1
  Sb  Sb98  1  0.16672592  0.82616640  0.66941416  1
  Sb  Sb99  1  0.00133938  0.49839224  0.83518672  1
  Sb  Sb100  1  0.33544512  0.00224193  0.32870567  1
  Sb  Sb101  1  0.82731744  0.49995639  0.00155188  1
  Sb  Sb102  1  0.83306951  -0.00718977  0.16637895  1
  Sb  Sb103  1  0.82936175  -0.00103190  0.50148703  1
  Sb  Sb104  1  0.83293796  0.16595190  0.33529775  1
  Sb  Sb105  1  0.32927012  0.16714575  0.83796819  1
  Sb  Sb106  1  0.33316098  0.82900207  0.16350196  1
  Sb  Sb107  1  0.16534525  0.00512974  0.83577821  1
  Te  Te108  1  0.16343944  0.17187237  0.16529041  1
  Te  Te109  1  0.16198865  0.16612575  0.50015232  1
  Te  Te110  1  0.16105092  0.17375169  0.83737041  1
  Te  Te111  1  0.16423175  0.49786333  0.17013770  1
  Te  Te112  1  0.16679354  0.50232609  0.49387996  1
  Te  Te113  1  0.16728777  0.49323588  0.83487743  1
  Te  Te114  1  0.16343800  0.83463220  0.16186239  1
  Te  Te115  1  0.16370271  0.82950063  0.49998712  1
  Te  Te116  1  0.16415363  0.83116063  0.83608226  1
  Te  Te117  1  0.50408464  0.16774810  0.16736916  1
  Te  Te118  1  0.49915500  0.16803145  0.49717900  1
  Te  Te119  1  0.49905750  0.17108544  0.83763673  1
  Te  Te120  1  0.50103958  0.50062986  0.17052227  1
  Te  Te121  1  0.50398922  0.50594214  0.49544615  1
  Te  Te122  1  0.49959314  0.50054687  0.82961350  1
  Te  Te123  1  0.50440586  0.83050502  0.16748262  1
  Te  Te124  1  0.50318785  0.82814941  0.50250704  1
  Te  Te125  1  0.50020992  0.83133018  0.82972049  1
  Te  Te126  1  0.82586497  0.16503760  0.16774274  1
  Te  Te127  1  0.84166554  0.16588827  0.50393813  1
  Te  Te128  1  0.83973488  0.17047546  0.83034034  1
  Te  Te129  1  0.83900911  0.50735738  0.16621099  1
  Te  Te130  1  0.83733987  0.49977492  0.49967840  1
  Te  Te131  1  0.83405782  0.50034451  0.83409722  1
  Te  Te132  1  0.83302475  0.82741605  0.16959937  1
  Te  Te133  1  0.83278899  0.83326084  0.49658284  1
  Te  Te134  1  0.83933347  0.82971712  0.83266070  1
  Te  Te135  1  0.16659006  -0.00104692  -0.00090591  1
  Te  Te136  1  0.16994755  0.01274791  0.33257161  1
  Te  Te137  1  0.16796039  -0.00132080  0.66644666  1
  Te  Te138  1  0.16655357  0.33478134  0.00377349  1
  Te  Te139  1  0.16259847  0.33665433  0.33096478  1
  Te  Te140  1  0.16503875  0.33731693  0.66292444  1
  Te  Te141  1  0.16941323  0.66779181  0.00351693  1
  Te  Te142  1  0.16257623  0.66477626  0.33215499  1
  Te  Te143  1  0.16635636  0.65996832  0.66501549  1
  Te  Te144  1  0.49660492  0.00401411  0.00018214  1
  Te  Te145  1  0.49804950  0.00796832  0.33866648  1
  Te  Te146  1  0.50560877  -0.00266718  0.66291628  1
  Te  Te147  1  0.49969545  0.33282667  0.00379820  1
  Te  Te148  1  0.49887233  0.33681418  0.33284502  1
  Te  Te149  1  0.50220929  0.33486586  0.66567848  1
  Te  Te150  1  0.50306735  0.66631605  -0.00116640  1
  Te  Te151  1  0.50059545  0.66383604  0.33179467  1
  Te  Te152  1  0.50299761  0.66826884  0.66900311  1
  Te  Te153  1  0.84059536  0.00120719  -0.00087214  1
  Te  Te154  1  0.83313713  -0.00885488  0.33395279  1
  Te  Te155  1  0.82608399  0.00700819  0.66774560  1
  Te  Te156  1  0.83746894  0.33396891  -0.00670114  1
  Te  Te157  1  0.82146564  0.33026991  0.33207450  1
  Te  Te158  1  0.83498500  0.33232579  0.67047125  1
  Te  Te159  1  0.82535020  0.66580193  -0.00045527  1
  Te  Te160  1  0.83485029  0.66922377  0.32943540  1
  Te  Te161  1  0.82712701  0.66658216  0.67491904  1
  Te  Te162  1  0.00265547  0.16775465  -0.00070173  1
  Te  Te163  1  0.00179356  0.16398968  0.33593295  1
  Te  Te164  1  -0.00405271  0.17024646  0.66744628  1
  Te  Te165  1  0.00144754  0.49429008  0.00429972  1
  Te  Te166  1  0.00044319  0.50362645  0.33391604  1
  Te  Te167  1  0.00239091  0.49440673  0.66287281  1
  Te  Te168  1  0.00302662  0.82906202  0.00186017  1
  Te  Te169  1  -0.00170250  0.82998392  0.33248813  1
  Te  Te170  1  -0.00111258  0.83473659  0.66205649  1
  Te  Te171  1  0.33027457  0.16864955  -0.00005627  1
  Te  Te172  1  0.33225741  0.17099498  0.33199849  1
  Te  Te173  1  0.33373514  0.16439195  0.66830282  1
  Te  Te174  1  0.34287090  0.49299645  -0.00028020  1
  Te  Te175  1  0.33205293  0.49971181  0.33323941  1
  Te  Te176  1  0.32259346  0.49950333  0.66694649  1
  Te  Te177  1  0.32906828  0.83118592  -0.00334661  1
  Te  Te178  1  0.33190156  0.83177411  0.33278756  1
  Te  Te179  1  0.33849120  0.83290326  0.67454492  1
  Te  Te180  1  0.66341584  0.16831661  0.00391123  1
  Te  Te181  1  0.66432614  0.16558148  0.32988345  1
  Te  Te182  1  0.67193552  0.17628291  0.66623305  1
  Te  Te183  1  0.66209477  0.49993135  0.00164961  1
  Te  Te184  1  0.66736723  0.50163469  0.33315581  1
  Te  Te185  1  0.66705087  0.49985490  0.66027497  1
  Te  Te186  1  0.66702895  0.83350875  0.00450819  1
  Te  Te187  1  0.66831080  0.83028669  0.33508214  1
  Te  Te188  1  0.66540512  0.83058556  0.66433941  1
  Te  Te189  1  -0.00088676  -0.00591478  0.16038481  1
  Te  Te190  1  0.00023260  -0.00739464  0.49998949  1
  Te  Te191  1  0.00006417  -0.00702279  0.83752392  1
  Te  Te192  1  -0.00241616  0.33666734  0.16388512  1
  Te  Te193  1  0.00337761  0.33590401  0.49851238  1
  Te  Te194  1  0.00010535  0.33582216  0.83310868  1
  Te  Te195  1  0.00406257  0.66586892  0.16723483  1
  Te  Te196  1  -0.00052071  0.66534445  0.49874828  1
  Te  Te197  1  -0.00242203  0.66925415  0.83297573  1
  Te  Te198  1  0.33396646  -0.00258197  0.15745554  1
  Te  Te199  1  0.34150548  -0.00137926  0.50086033  1
  Te  Te200  1  0.33284201  -0.00657820  0.83937438  1
  Te  Te201  1  0.33187128  0.33287450  0.16747780  1
  Te  Te202  1  0.32464523  0.33281369  0.49601058  1
  Te  Te203  1  0.33877106  0.33364016  0.83626299  1
  Te  Te204  1  0.32469470  0.66680165  0.17291175  1
  Te  Te205  1  0.32867340  0.66763213  0.49432861  1
  Te  Te206  1  0.33608835  0.67007585  0.83373521  1
  Te  Te207  1  0.66711689  -0.00309749  0.16489160  1
  Te  Te208  1  0.66206969  0.00128400  0.50455970  1
  Te  Te209  1  0.66672322  0.00045697  0.82685016  1
  Te  Te210  1  0.66702403  0.33946687  0.16470382  1
  Te  Te211  1  0.66787999  0.33726617  0.50393921  1
  Te  Te212  1  0.66527293  0.33442857  0.83194392  1
  Te  Te213  1  0.66636521  0.66209390  0.16970011  1
  Te  Te214  1  0.66873329  0.66542459  0.49920067  1
  Te  Te215  1  0.66624843  0.66600279  0.82631503  1
