# generated using pymatgen
data_AgSbTe2
_symmetry_space_group_name_H-M   'P 1'
_cell_length_a   18.35118393
_cell_length_b   18.36142932
_cell_length_c   18.35390826
_cell_angle_alpha   90.00365569
_cell_angle_beta   89.99506337
_cell_angle_gamma   90.00088724
_symmetry_Int_Tables_number   1
_chemical_formula_structural   AgSbTe2
_chemical_formula_sum   'Ag54 Sb54 Te108'
_cell_volume   6184.42215676
_cell_formula_units_Z   54
loop_
 _symmetry_equiv_pos_site_id
 _symmetry_equiv_pos_as_xyz
  1  'x, y, z'
loop_
 _atom_site_type_symbol
 _atom_site_label
 _atom_site_symmetry_multiplicity
 _atom_site_fract_x
 _atom_site_fract_y
 _atom_site_fract_z
 _atom_site_occupancy
  Ag  Ag0  1  0.66217973  0.00049274  0.66224778  1
  Ag  Ag1  1  0.16105926  0.67922837  0.50331401  1
  Ag  Ag2  1  0.16874975  -0.00388484  0.50402605  1
  Ag  Ag3  1  -0.00499881  0.66602715  0.34079847  1
  Ag  Ag4  1  0.00120763  0.83061011  0.17372952  1
  Ag  Ag5  1  0.16208298  0.33224005  0.82697738  1
  Ag  Ag6  1  -0.00114726  0.48774262  0.83647302  1
  Ag  Ag7  1  0.33579594  0.15863229  0.16901664  1
  Ag  Ag8  1  0.83687393  0.50544924  0.33321484  1
  Ag  Ag9  1  0.32777553  0.15984652  0.50003479  1
  Ag  Ag10  1  0.83584096  0.82807977  0.33969763  1
  Ag  Ag11  1  -0.00205194  0.50074628  0.16410221  1
  Ag  Ag12  1  0.33215121  0.84019389  0.17419502  1
  Ag  Ag13  1  0.00843537  0.15913071  0.50784476  1
  Ag  Ag14  1  0.83962854  0.17464354  -0.00244916  1
  Ag  Ag15  1  0.50000071  0.83148496  0.34199027  1
  Ag  Ag16  1  0.49965882  0.33006309  0.17007077  1
  Ag  Ag17  1  0.33766585  -0.00281252  0.33600395  1
  Ag  Ag18  1  -0.00167854  0.33643791  -0.00256322  1
  Ag  Ag19  1  0.83853413  -0.00457527  0.49817285  1
  Ag  Ag20  1  0.49690102  0.68238937  0.49667333  1
  Ag  Ag21  1  0.16298570  0.49215278  0.66174103  1
  Ag  Ag22  1  0.84005765  0.49344951  0.01666010  1
  Ag  Ag23  1  0.00218111  0.83436629  0.81819095  1
  Ag  Ag24  1  0.65230931  0.83476144  0.49762222  1
  Ag  Ag25  1  0.84516852  0.67890493  0.49551460  1
  Ag  Ag26  1  0.84615992  0.33032429  0.84334975  1
  Ag  Ag27  1  0.83262720  0.00330967  0.17271976  1
  Ag  Ag28  1  0.49470535  0.32776951  0.82961321  1
  Ag  Ag29  1  0.16496232  0.83748070  0.66241258  1
  Ag  Ag30  1  -0.00101091  0.65758360  -0.00023885  1
  Ag  Ag31  1  0.16893074  0.32939148  0.50585037  1
  Ag  Ag32  1  0.84784155  0.16481136  0.66638620  1
  Ag  Ag33  1  0.68263838  0.49736534  0.17146777  1
  Ag  Ag34  1  0.49231123  0.00200195  0.17259936  1
  Ag  Ag35  1  0.33201225  0.49842213  0.49896875  1
  Ag  Ag36  1  0.00175268  0.67547280  0.65834613  1
  Ag  Ag37  1  0.49236077  -0.00428816  0.49976956  1
  Ag  Ag38  1  0.49494714  0.00160073  0.81665211  1
  Ag  Ag39  1  0.33014562  0.32905173  0.00067386  1
  Ag  Ag40  1  0.00288269  0.83591220  0.49975940  1
  Ag  Ag41  1  -0.00101059  0.17163716  0.82466633  1
  Ag  Ag42  1  0.49262256  0.84250548  0.65355462  1
  Ag  Ag43  1  0.16420013  0.16316397  0.66222962  1
  Ag  Ag44  1  -0.00144730  -0.00018264  0.66180694  1
  Ag  Ag45  1  0.83888824  0.33491383  0.16222058  1
  Ag  Ag46  1  0.50284702  0.50354805  0.33630248  1
  Ag  Ag47  1  0.33927976  0.84083227  0.49930331  1
  Ag  Ag48  1  0.49580229  0.15895031  0.66410365  1
  Ag  Ag49  1  0.33564411  0.00321890  0.00773339  1
  Ag  Ag50  1  -0.00229351  0.34022396  0.33113465  1
  Ag  Ag51  1  0.33076463  0.83857659  0.82149717  1
  Ag  Ag52  1  0.49253247  0.32870771  0.49782388  1
  Ag  Ag53  1  0.67757511  0.66690615  0.33684970  1
  Sb  Sb54  1  0.66406725  0.16921778  0.16675494  1
  Sb  Sb55  1  0.15884558  0.49774036  -0.00621748  1
  Sb  Sb56  1  0.66156036  0.50611068  0.49476575  1
  Sb  Sb57  1  0.66789303  0.83618512  0.82169338  1
  Sb  Sb58  1  0.50389613  0.49507894  0.00677951  1
  Sb  Sb59  1  0.33349101  -0.00083000  0.66101705  1
  Sb  Sb60  1  0.49765814  0.16402244  0.33882401  1
  Sb  Sb61  1  0.83833341  0.66332049  0.82672577  1
  Sb  Sb62  1  0.16437681  0.49956323  0.34083547  1
  Sb  Sb63  1  0.67480821  0.66512653  0.00890238  1
  Sb  Sb64  1  0.17034547  0.00233206  0.82486367  1
  Sb  Sb65  1  0.83487674  0.00407240  0.83047275  1
  Sb  Sb66  1  0.32867734  0.66760052  0.00045871  1
  Sb  Sb67  1  0.49420933  0.49964230  0.65830532  1
  Sb  Sb68  1  0.66783322  0.83140250  0.17554276  1
  Sb  Sb69  1  0.16490986  0.33251407  0.16608538  1
  Sb  Sb70  1  0.83938522  0.84066493  0.65806471  1
  Sb  Sb71  1  0.83584679  0.16496339  0.33535614  1
  Sb  Sb72  1  0.33067226  0.16331044  0.83013776  1
  Sb  Sb73  1  0.67128887  0.16666835  0.83105427  1
  Sb  Sb74  1  0.16820261  -0.00085279  0.17329022  1
  Sb  Sb75  1  0.00494428  0.50103629  0.50063675  1
  Sb  Sb76  1  0.66390566  -0.00685097  0.33888646  1
  Sb  Sb77  1  0.32902111  0.49843176  0.82925261  1
  Sb  Sb78  1  0.83833597  0.83295357  0.00784408  1
  Sb  Sb79  1  0.33066088  0.49916192  0.17202377  1
  Sb  Sb80  1  0.50065558  0.16693484  -0.00353137  1
  Sb  Sb81  1  0.33127549  0.33109341  0.66628635  1
  Sb  Sb82  1  0.16555842  0.83381537  -0.00695794  1
  Sb  Sb83  1  0.67259618  0.67407057  0.65656502  1
  Sb  Sb84  1  0.16639743  0.16651415  0.34237660  1
  Sb  Sb85  1  0.66880894  0.34048937  0.33297468  1
  Sb  Sb86  1  0.49807934  0.67013275  0.82270444  1
  Sb  Sb87  1  0.00280833  0.00148708  -0.00310660  1
  Sb  Sb88  1  0.66532464  0.15985027  0.50216135  1
  Sb  Sb89  1  0.49670471  0.83432521  0.00163133  1
  Sb  Sb90  1  0.66535630  0.32897996  0.66488383  1
  Sb  Sb91  1  0.33112008  0.67193226  0.33822901  1
  Sb  Sb92  1  0.67380306  0.49741411  0.83816791  1
  Sb  Sb93  1  0.83783058  0.33011598  0.49824752  1
  Sb  Sb94  1  0.67230013  0.33264176  0.00069905  1
  Sb  Sb95  1  0.84113666  0.49499938  0.66269065  1
  Sb  Sb96  1  0.00202874  0.33005312  0.66752333  1
  Sb  Sb97  1  0.16165362  0.66858222  0.17462980  1
  Sb  Sb98  1  0.16523276  0.16782730  -0.00668764  1
  Sb  Sb99  1  0.66374192  -0.00100310  -0.00213805  1
  Sb  Sb100  1  0.16628519  0.83325371  0.34274134  1
  Sb  Sb101  1  0.32592455  0.67105197  0.66180073  1
  Sb  Sb102  1  0.00228932  0.16683443  0.16749539  1
  Sb  Sb103  1  0.49919115  0.66840159  0.17518722  1
  Sb  Sb104  1  0.00111821  -0.00287406  0.34013643  1
  Sb  Sb105  1  0.83787683  0.66315255  0.17580876  1
  Sb  Sb106  1  0.33190134  0.32931144  0.33411262  1
  Sb  Sb107  1  0.16096847  0.66385141  0.82458125  1
  Te  Te108  1  0.17516525  0.16650127  0.16524003  1
  Te  Te109  1  0.16769223  0.16723970  0.50323492  1
  Te  Te110  1  0.16293575  0.17072061  0.82639684  1
  Te  Te111  1  0.15995715  0.50064122  0.16713856  1
  Te  Te112  1  0.17090466  0.49153712  0.50362422  1
  Te  Te113  1  0.16261804  0.49529471  0.82585306  1
  Te  Te114  1  0.16544441  0.83396886  0.16525434  1
  Te  Te115  1  0.16257782  0.83553745  0.50343350  1
  Te  Te116  1  0.16649472  0.83318070  0.82623279  1
  Te  Te117  1  0.49685706  0.16716406  0.16495342  1
  Te  Te118  1  0.49880537  0.16739852  0.50236723  1
  Te  Te119  1  0.49933281  0.16484019  0.82995704  1
  Te  Te120  1  0.49588962  0.49800351  0.17283772  1
  Te  Te121  1  0.49554014  0.48888287  0.49638823  1
  Te  Te122  1  0.49929909  0.49916964  0.83286471  1
  Te  Te123  1  0.49932689  0.83581034  0.17008453  1
  Te  Te124  1  0.49622461  0.83849815  0.49761875  1
  Te  Te125  1  0.49777462  0.83740318  0.83201279  1
  Te  Te126  1  0.83352312  0.16746479  0.16669794  1
  Te  Te127  1  0.83466727  0.16265138  0.50401667  1
  Te  Te128  1  0.83732459  0.16971660  0.83134767  1
  Te  Te129  1  0.83979785  0.49934173  0.17251937  1
  Te  Te130  1  0.82995466  0.49805956  0.49425356  1
  Te  Te131  1  0.83815363  0.49312256  0.83119489  1
  Te  Te132  1  0.83449244  0.83798595  0.17383650  1
  Te  Te133  1  0.84471874  0.83532846  0.49915580  1
  Te  Te134  1  0.83781298  0.83392634  0.83416996  1
  Te  Te135  1  0.17460416  0.00111054  0.00016523  1
  Te  Te136  1  0.17335550  0.00017337  0.34117091  1
  Te  Te137  1  0.16105361  0.00042312  0.66338331  1
  Te  Te138  1  0.16541615  0.33333067  -0.00404983  1
  Te  Te139  1  0.16074798  0.33365486  0.33639846  1
  Te  Te140  1  0.16733365  0.33183327  0.66691306  1
  Te  Te141  1  0.15993859  0.66570034  -0.00004802  1
  Te  Te142  1  0.15767562  0.66595964  0.34267097  1
  Te  Te143  1  0.16069488  0.67322289  0.66076046  1
  Te  Te144  1  0.49713531  0.00107319  0.01310899  1
  Te  Te145  1  0.49911427  -0.00263689  0.33335245  1
  Te  Te146  1  0.49721649  -0.00100245  0.66049511  1
  Te  Te147  1  0.49735301  0.33227167  0.00464797  1
  Te  Te148  1  0.49986199  0.33427165  0.33161652  1
  Te  Te149  1  0.49892116  0.33261942  0.66619295  1
  Te  Te150  1  0.50064983  0.66425099  -0.00148068  1
  Te  Te151  1  0.49666877  0.66775984  0.33789283  1
  Te  Te152  1  0.50280848  0.66818727  0.65803031  1
  Te  Te153  1  0.83271781  0.00181034  0.00204153  1
  Te  Te154  1  0.83279493  -0.00219323  0.33385669  1
  Te  Te155  1  0.83608950  0.00548166  0.66616792  1
  Te  Te156  1  0.83569587  0.33428837  0.00165618  1
  Te  Te157  1  0.83600930  0.33585349  0.32947120  1
  Te  Te158  1  0.82973284  0.32613148  0.66978437  1
  Te  Te159  1  0.83892109  0.66145526  -0.00254196  1
  Te  Te160  1  0.83729347  0.66668147  0.33710988  1
  Te  Te161  1  0.83972636  0.66439417  0.65860492  1
  Te  Te162  1  -0.00218100  0.17026234  -0.00131160  1
  Te  Te163  1  -0.00040007  0.17224790  0.33624135  1
  Te  Te164  1  0.00389649  0.16683371  0.66560687  1
  Te  Te165  1  -0.00226716  0.49659559  -0.00154090  1
  Te  Te166  1  -0.00094350  0.50143055  0.33304442  1
  Te  Te167  1  0.00325110  0.50381209  0.67103155  1
  Te  Te168  1  0.00083897  0.83292473  0.00939382  1
  Te  Te169  1  -0.00055271  0.83294586  0.33442502  1
  Te  Te170  1  -0.00087914  0.83574654  0.66162278  1
  Te  Te171  1  0.33343600  0.16785833  0.00093281  1
  Te  Te172  1  0.33289334  0.16188549  0.33359424  1
  Te  Te173  1  0.33416926  0.16646184  0.66210024  1
  Te  Te174  1  0.33266163  0.49667791  0.00014451  1
  Te  Te175  1  0.33773927  0.50021098  0.33753718  1
  Te  Te176  1  0.32533831  0.50246641  0.66122924  1
  Te  Te177  1  0.33219890  0.83547191  0.00597109  1
  Te  Te178  1  0.33454210  0.83571283  0.33634930  1
  Te  Te179  1  0.33230674  0.83343612  0.66342705  1
  Te  Te180  1  0.67940081  0.16500184  -0.00045770  1
  Te  Te181  1  0.66689783  0.16713353  0.33318771  1
  Te  Te182  1  0.65567122  0.16073525  0.66672353  1
  Te  Te183  1  0.67533736  0.50024265  0.00857114  1
  Te  Te184  1  0.66481179  0.50548232  0.33031451  1
  Te  Te185  1  0.66726120  0.50267170  0.66836235  1
  Te  Te186  1  0.66815601  0.83119726  -0.00123776  1
  Te  Te187  1  0.66804453  0.82764340  0.33828164  1
  Te  Te188  1  0.66094126  0.83929614  0.65921771  1
  Te  Te189  1  -0.00265895  -0.00180575  0.16764079  1
  Te  Te190  1  -0.00084362  0.00145260  0.49993424  1
  Te  Te191  1  0.00176157  -0.00329222  0.83025828  1
  Te  Te192  1  -0.00109827  0.33300653  0.16551173  1
  Te  Te193  1  0.00137604  0.33207687  0.49680969  1
  Te  Te194  1  0.00189327  0.33132789  0.83201233  1
  Te  Te195  1  0.00034457  0.66825293  0.16378295  1
  Te  Te196  1  0.00155359  0.66189160  0.50046825  1
  Te  Te197  1  -0.00029070  0.67663920  0.83736794  1
  Te  Te198  1  0.33143329  -0.00083430  0.16912624  1
  Te  Te199  1  0.33284759  0.00017025  0.49918320  1
  Te  Te200  1  0.33677152  -0.00246382  0.83983452  1
  Te  Te201  1  0.33368294  0.33361315  0.16441283  1
  Te  Te202  1  0.33113249  0.33111345  0.49855568  1
  Te  Te203  1  0.33628987  0.33384337  0.83836451  1
  Te  Te204  1  0.33032994  0.67468513  0.16623017  1
  Te  Te205  1  0.33505034  0.66689506  0.49952489  1
  Te  Te206  1  0.33190280  0.67566236  0.83463305  1
  Te  Te207  1  0.66992755  0.00030628  0.16648947  1
  Te  Te208  1  0.67155327  -0.00471896  0.50293807  1
  Te  Te209  1  0.65642070  -0.00049059  0.82857749  1
  Te  Te210  1  0.66293008  0.33733436  0.16661648  1
  Te  Te211  1  0.66100102  0.33333830  0.49948743  1
  Te  Te212  1  0.65335588  0.33394090  0.83303714  1
  Te  Te213  1  0.66635459  0.66012957  0.17502439  1
  Te  Te214  1  0.66197756  0.67234005  0.49481092  1
  Te  Te215  1  0.66756184  0.66686728  0.83412321  1
