# generated using pymatgen
data_AgSbTe2
_symmetry_space_group_name_H-M   'P 1'
_cell_length_a   18.32558325
_cell_length_b   18.32882080
_cell_length_c   18.32841768
_cell_angle_alpha   90.00258523
_cell_angle_beta   89.99801598
_cell_angle_gamma   89.99890667
_symmetry_Int_Tables_number   1
_chemical_formula_structural   AgSbTe2
_chemical_formula_sum   'Ag54 Sb54 Te108'
_cell_volume   6156.26496461
_cell_formula_units_Z   54
loop_
 _symmetry_equiv_pos_site_id
 _symmetry_equiv_pos_as_xyz
  1  'x, y, z'
loop_
 _atom_site_type_symbol
 _atom_site_label
 _atom_site_symmetry_multiplicity
 _atom_site_fract_x
 _atom_site_fract_y
 _atom_site_fract_z
 _atom_site_occupancy
  Ag  Ag0  1  0.16596438  0.49045049  0.00612601  1
  Ag  Ag1  1  0.16493758  0.32911753  0.48680587  1
  Ag  Ag2  1  0.16671003  0.32888520  0.16698878  1
  Ag  Ag3  1  0.32541861  0.16495241  0.16589393  1
  Ag  Ag4  1  0.66416778  0.16089935  0.83309549  1
  Ag  Ag5  1  0.00206738  0.49280733  0.49461553  1
  Ag  Ag6  1  0.83431142  0.17016438  0.00045291  1
  Ag  Ag7  1  0.16192786  0.16930660  0.00844953  1
  Ag  Ag8  1  0.49759806  0.32840703  0.16613866  1
  Ag  Ag9  1  0.50947760  0.84006165  0.00050461  1
  Ag  Ag10  1  0.66217158  0.00271839  0.68034677  1
  Ag  Ag11  1  0.83641833  0.32859220  0.84343615  1
  Ag  Ag12  1  0.83442640  0.48714642  0.00301858  1
  Ag  Ag13  1  0.65823868  0.16675011  0.50489923  1
  Ag  Ag14  1  0.17344456  0.01304922  0.16255775  1
  Ag  Ag15  1  0.33247145  0.16689225  0.83691365  1
  Ag  Ag16  1  0.50568411  0.16265553  0.66329229  1
  Ag  Ag17  1  0.16399414  0.48987574  0.32276834  1
  Ag  Ag18  1  0.16550421  0.66313971  0.16801253  1
  Ag  Ag19  1  -0.00126903  0.66919936  0.66784403  1
  Ag  Ag20  1  0.82652847  0.84121221  0.67771290  1
  Ag  Ag21  1  0.01125843  0.16771917  0.16909675  1
  Ag  Ag22  1  0.66188123  0.83384518  0.15848792  1
  Ag  Ag23  1  0.00198626  0.66138488  0.33008437  1
  Ag  Ag24  1  0.49453694  0.00389742  0.16252563  1
  Ag  Ag25  1  0.67218545  0.32465393  0.00259369  1
  Ag  Ag26  1  -0.00732840  0.83574734  0.83754787  1
  Ag  Ag27  1  -0.00284739  -0.00008388  -0.00067854  1
  Ag  Ag28  1  0.50108138  0.00618514  0.51002047  1
  Ag  Ag29  1  0.67010611  0.66761890  0.32977760  1
  Ag  Ag30  1  0.66703803  0.00161548  -0.00230989  1
  Ag  Ag31  1  0.00377611  0.32975799  0.33253608  1
  Ag  Ag32  1  0.17114430  0.00908582  0.84357638  1
  Ag  Ag33  1  0.49737671  0.32406356  0.49452028  1
  Ag  Ag34  1  0.33137005  0.49118719  0.84513353  1
  Ag  Ag35  1  0.33661733  0.16728103  0.49606353  1
  Ag  Ag36  1  0.83572617  0.33023123  0.16193308  1
  Ag  Ag37  1  0.82827684  0.83766975  -0.00272264  1
  Ag  Ag38  1  0.16484562  0.83699200  0.32632519  1
  Ag  Ag39  1  0.50563303  0.84608876  0.67350663  1
  Ag  Ag40  1  0.00070445  0.67129596  0.00458103  1
  Ag  Ag41  1  0.50222753  0.00253750  0.83558624  1
  Ag  Ag42  1  0.50097715  0.66732067  0.49982363  1
  Ag  Ag43  1  0.33392876  0.84674384  0.16587985  1
  Ag  Ag44  1  0.16370181  0.32660666  0.84514963  1
  Ag  Ag45  1  0.49987740  0.50061859  0.00369736  1
  Ag  Ag46  1  0.32857336  0.49481796  0.16311194  1
  Ag  Ag47  1  0.16226580  0.17002695  0.32062731  1
  Ag  Ag48  1  0.66085210  0.50001501  0.16340621  1
  Ag  Ag49  1  0.33235325  0.00279362  0.32771466  1
  Ag  Ag50  1  0.67147162  0.84244374  0.84223708  1
  Ag  Ag51  1  0.84104395  0.16796742  0.32472410  1
  Ag  Ag52  1  0.00177512  0.16958992  0.49127017  1
  Ag  Ag53  1  0.82701675  0.16374600  0.67083572  1
  Sb  Sb54  1  0.00697749  0.00477457  0.32733020  1
  Sb  Sb55  1  0.83329257  0.00612652  0.16241917  1
  Sb  Sb56  1  0.16625995  0.83841880  0.00621770  1
  Sb  Sb57  1  0.33501355  0.00248200  0.00656798  1
  Sb  Sb58  1  -0.00253289  0.32950016  0.00572534  1
  Sb  Sb59  1  -0.00089456  0.16270559  0.83800097  1
  Sb  Sb60  1  0.33408139  0.32992769  0.66740015  1
  Sb  Sb61  1  0.66471983  0.16666689  0.16355457  1
  Sb  Sb62  1  0.33059322  0.67030957  0.33041261  1
  Sb  Sb63  1  0.00303819  0.50068793  0.83644745  1
  Sb  Sb64  1  0.49748754  0.83416052  0.32865209  1
  Sb  Sb65  1  0.16554334  0.49931117  0.66948196  1
  Sb  Sb66  1  0.83447596  0.49728258  0.67292859  1
  Sb  Sb67  1  0.50122476  0.49620963  0.67070544  1
  Sb  Sb68  1  0.83935456  0.49456795  0.32609953  1
  Sb  Sb69  1  0.00065121  0.83572508  0.50292764  1
  Sb  Sb70  1  0.83794741  0.66150028  0.16423370  1
  Sb  Sb71  1  0.16620752  0.83565373  0.66634712  1
  Sb  Sb72  1  0.17194177  0.00889918  0.49467055  1
  Sb  Sb73  1  0.83232029  0.66644201  0.49908583  1
  Sb  Sb74  1  0.66948014  0.67629519  0.66169823  1
  Sb  Sb75  1  0.50066123  0.67226953  0.83224972  1
  Sb  Sb76  1  0.83417196  0.66744635  0.83586039  1
  Sb  Sb77  1  0.32854409  0.66421443  0.00278523  1
  Sb  Sb78  1  0.34068220  0.00239198  0.66524374  1
  Sb  Sb79  1  0.32943401  0.49250005  0.49517167  1
  Sb  Sb80  1  0.49896014  0.32625019  0.83863505  1
  Sb  Sb81  1  0.16432772  0.66614548  0.84063277  1
  Sb  Sb82  1  0.33623800  0.84001648  0.84073705  1
  Sb  Sb83  1  0.16751090  0.66069982  0.49174696  1
  Sb  Sb84  1  0.49773191  0.66715948  0.16785090  1
  Sb  Sb85  1  0.33135265  0.66830537  0.66602309  1
  Sb  Sb86  1  0.50087570  0.16539749  -0.00094225  1
  Sb  Sb87  1  0.33568293  0.83979808  0.49406556  1
  Sb  Sb88  1  0.67107948  0.33246301  0.32559016  1
  Sb  Sb89  1  0.82796205  0.00450639  0.83722629  1
  Sb  Sb90  1  0.83444417  0.32820588  0.49744587  1
  Sb  Sb91  1  -0.00616656  -0.00103619  0.67333142  1
  Sb  Sb92  1  0.83669469  0.83727627  0.32893775  1
  Sb  Sb93  1  0.33426852  0.33285235  0.00313421  1
  Sb  Sb94  1  0.82872142  0.00524907  0.50093394  1
  Sb  Sb95  1  0.66321725  0.49620423  0.84362062  1
  Sb  Sb96  1  0.66176456  -0.00018636  0.32829251  1
  Sb  Sb97  1  0.32516413  0.32577693  0.32889275  1
  Sb  Sb98  1  0.00601793  0.49394956  0.16784324  1
  Sb  Sb99  1  0.66369454  0.83948864  0.49923244  1
  Sb  Sb100  1  0.66694551  0.32363969  0.67270228  1
  Sb  Sb101  1  0.67042172  0.67020387  0.00494807  1
  Sb  Sb102  1  -0.00049061  0.33256687  0.66230586  1
  Sb  Sb103  1  0.49477195  0.49908485  0.32663555  1
  Sb  Sb104  1  0.66799541  0.49450720  0.49318106  1
  Sb  Sb105  1  0.49627052  0.16619278  0.33614246  1
  Sb  Sb106  1  0.16603824  0.16665073  0.66871721  1
  Sb  Sb107  1  0.00143534  0.83759016  0.16097525  1
  Te  Te108  1  0.16844818  0.16797083  0.16557006  1
  Te  Te109  1  0.16812937  0.17094263  0.50232353  1
  Te  Te110  1  0.16701952  0.16715953  0.83354712  1
  Te  Te111  1  0.16615395  0.49693855  0.16475923  1
  Te  Te112  1  0.16276456  0.49309252  0.49986490  1
  Te  Te113  1  0.17086714  0.49711502  0.83790898  1
  Te  Te114  1  0.16857501  0.83056256  0.16893522  1
  Te  Te115  1  0.16873095  0.83456936  0.49315721  1
  Te  Te116  1  0.16693209  0.83609827  0.83374402  1
  Te  Te117  1  0.49630880  0.16745593  0.16678062  1
  Te  Te118  1  0.49860390  0.16619235  0.49873598  1
  Te  Te119  1  0.49957762  0.16370055  0.83228368  1
  Te  Te120  1  0.49927040  0.49999744  0.16297841  1
  Te  Te121  1  0.49943358  0.49692918  0.50050676  1
  Te  Te122  1  0.49415447  0.49863445  0.83903287  1
  Te  Te123  1  0.49948382  0.83336796  0.16370314  1
  Te  Te124  1  0.49913996  0.83660999  0.50176429  1
  Te  Te125  1  0.50115400  0.83857980  0.83544766  1
  Te  Te126  1  0.83087751  0.17057154  0.16259076  1
  Te  Te127  1  0.83716727  0.16733833  0.50435552  1
  Te  Te128  1  0.83288250  0.16922274  0.83668327  1
  Te  Te129  1  0.82964842  0.49454451  0.16167599  1
  Te  Te130  1  0.83919145  0.49797131  0.50005781  1
  Te  Te131  1  0.83228264  0.49358832  0.84094553  1
  Te  Te132  1  0.82849959  0.83382957  0.16223582  1
  Te  Te133  1  0.83260348  0.83495438  0.50447029  1
  Te  Te134  1  0.83229105  0.83303550  0.83463799  1
  Te  Te135  1  0.16600813  0.00255050  0.00138310  1
  Te  Te136  1  0.17095236  0.00265165  0.32952319  1
  Te  Te137  1  0.16600905  -0.00096179  0.67238233  1
  Te  Te138  1  0.16452121  0.33169078  0.00274567  1
  Te  Te139  1  0.16350657  0.33100017  0.32997857  1
  Te  Te140  1  0.16613548  0.33434173  0.66859381  1
  Te  Te141  1  0.16155635  0.66479434  0.00548304  1
  Te  Te142  1  0.16337890  0.66754692  0.32972402  1
  Te  Te143  1  0.15943340  0.66805450  0.66511225  1
  Te  Te144  1  0.50311885  -0.00000767  0.00133167  1
  Te  Te145  1  0.49496252  -0.00080197  0.32414671  1
  Te  Te146  1  0.50274879  0.00202938  0.66760972  1
  Te  Te147  1  0.50748738  0.33602699  0.00406646  1
  Te  Te148  1  0.50232046  0.33429358  0.33144497  1
  Te  Te149  1  0.50120837  0.32764425  0.66134755  1
  Te  Te150  1  0.50089885  0.66225321  -0.00098427  1
  Te  Te151  1  0.50400664  0.66650880  0.33892855  1
  Te  Te152  1  0.50016470  0.66722475  0.66143071  1
  Te  Te153  1  0.83300955  -0.00101194  0.00069236  1
  Te  Te154  1  0.83404582  0.00678862  0.33209249  1
  Te  Te155  1  0.82679800  0.00024229  0.66732464  1
  Te  Te156  1  0.83408205  0.33094724  0.00167162  1
  Te  Te157  1  0.83915577  0.32769822  0.32784733  1
  Te  Te158  1  0.83286890  0.32833013  0.67252708  1
  Te  Te159  1  0.84039914  0.67339059  -0.00020083  1
  Te  Te160  1  0.83576866  0.66693164  0.33288126  1
  Te  Te161  1  0.83829034  0.66957681  0.66663739  1
  Te  Te162  1  -0.00060014  0.16348361  0.00270346  1
  Te  Te163  1  0.00107201  0.16630379  0.33160782  1
  Te  Te164  1  -0.00667565  0.16558773  0.66194024  1
  Te  Te165  1  -0.00026975  0.50478389  0.00001906  1
  Te  Te166  1  0.00363254  0.50041826  0.33463063  1
  Te  Te167  1  -0.00168751  0.50666456  0.66224568  1
  Te  Te168  1  -0.00063567  0.83503886  -0.00295234  1
  Te  Te169  1  0.00320614  0.83146676  0.33356605  1
  Te  Te170  1  -0.00247350  0.83122911  0.67109682  1
  Te  Te171  1  0.32734358  0.16698839  -0.00035448  1
  Te  Te172  1  0.32989802  0.16322182  0.33179663  1
  Te  Te173  1  0.33817872  0.16596539  0.66948651  1
  Te  Te174  1  0.33141966  0.49922591  0.00226923  1
  Te  Te175  1  0.32527067  0.50139633  0.32793814  1
  Te  Te176  1  0.33410978  0.50078629  0.67089057  1
  Te  Te177  1  0.34038375  0.83075283  0.00687937  1
  Te  Te178  1  0.32804782  0.83782321  0.32678551  1
  Te  Te179  1  0.34139726  0.83286721  0.66759285  1
  Te  Te180  1  0.66783962  0.16445398  -0.00209279  1
  Te  Te181  1  0.67360246  0.16638759  0.33782002  1
  Te  Te182  1  0.66654068  0.16332007  0.66869496  1
  Te  Te183  1  0.66847196  0.50268230  0.00416242  1
  Te  Te184  1  0.66786105  0.50374985  0.32654071  1
  Te  Te185  1  0.66788940  0.50297496  0.66730870  1
  Te  Te186  1  0.66686456  0.83218907  0.00022995  1
  Te  Te187  1  0.66954702  0.82992177  0.32951846  1
  Te  Te188  1  0.66578765  0.83984565  0.66619509  1
  Te  Te189  1  0.00360508  0.00563904  0.16063063  1
  Te  Te190  1  0.00193753  0.00580588  0.50179181  1
  Te  Te191  1  0.00606365  -0.00391886  0.83809933  1
  Te  Te192  1  0.00120742  0.32843346  0.17075336  1
  Te  Te193  1  0.00157148  0.33155889  0.49555404  1
  Te  Te194  1  0.00313687  0.33342331  0.83103556  1
  Te  Te195  1  0.00400953  0.66858998  0.16754583  1
  Te  Te196  1  0.00020128  0.66666506  0.49569695  1
  Te  Te197  1  0.00049725  0.67143744  0.83356545  1
  Te  Te198  1  0.33341156  0.00277476  0.16727381  1
  Te  Te199  1  0.33936164  0.00654152  0.49488091  1
  Te  Te200  1  0.33400894  0.00487088  0.83226573  1
  Te  Te201  1  0.33556914  0.33210313  0.16711787  1
  Te  Te202  1  0.33364978  0.32839116  0.49984002  1
  Te  Te203  1  0.32971631  0.32986394  0.83376572  1
  Te  Te204  1  0.32767467  0.65964656  0.16741424  1
  Te  Te205  1  0.33939982  0.66569433  0.49942397  1
  Te  Te206  1  0.33237528  0.66060121  0.83249230  1
  Te  Te207  1  0.66221822  -0.00397061  0.16190768  1
  Te  Te208  1  0.66040834  0.00637636  0.49587708  1
  Te  Te209  1  0.66454021  0.00014332  0.83671537  1
  Te  Te210  1  0.66333299  0.33478425  0.16220997  1
  Te  Te211  1  0.66361237  0.32807361  0.49959605  1
  Te  Te212  1  0.66898143  0.32891947  0.84040563  1
  Te  Te213  1  0.66645215  0.66703946  0.17091012  1
  Te  Te214  1  0.66260886  0.66433529  0.49385831  1
  Te  Te215  1  0.66616481  0.67276565  0.83084289  1
