# generated using pymatgen
data_AgSbTe2
_symmetry_space_group_name_H-M   'P 1'
_cell_length_a   18.31776406
_cell_length_b   18.30617770
_cell_length_c   18.31539929
_cell_angle_alpha   90.00036746
_cell_angle_beta   90.00039554
_cell_angle_gamma   90.00135900
_symmetry_Int_Tables_number   1
_chemical_formula_structural   AgSbTe2
_chemical_formula_sum   'Ag54 Sb54 Te108'
_cell_volume   6141.67067922
_cell_formula_units_Z   54
loop_
 _symmetry_equiv_pos_site_id
 _symmetry_equiv_pos_as_xyz
  1  'x, y, z'
loop_
 _atom_site_type_symbol
 _atom_site_label
 _atom_site_symmetry_multiplicity
 _atom_site_fract_x
 _atom_site_fract_y
 _atom_site_fract_z
 _atom_site_occupancy
  Ag  Ag0  1  0.16527164  0.83046667  0.33312845  1
  Ag  Ag1  1  0.33412374  0.16736980  0.50197326  1
  Ag  Ag2  1  0.00089324  0.82862954  0.16987470  1
  Ag  Ag3  1  0.16572264  0.16693658  0.66090459  1
  Ag  Ag4  1  -0.00094964  0.16837229  0.17042758  1
  Ag  Ag5  1  -0.00643374  0.66663727  0.33170248  1
  Ag  Ag6  1  0.50231820  0.67195535  0.83114998  1
  Ag  Ag7  1  0.50518637  0.67503072  0.16681808  1
  Ag  Ag8  1  0.00345554  0.16685602  0.49638933  1
  Ag  Ag9  1  0.83239619  0.50650791  0.33755965  1
  Ag  Ag10  1  0.32206892  0.66726672  0.66452296  1
  Ag  Ag11  1  0.50463551  -0.00004725  0.50168544  1
  Ag  Ag12  1  0.82762441  -0.00439905  0.17130076  1
  Ag  Ag13  1  0.33587146  0.83021319  0.83746258  1
  Ag  Ag14  1  0.33987717  0.82980725  0.16453823  1
  Ag  Ag15  1  0.16930106  0.66593213  0.50929422  1
  Ag  Ag16  1  0.83446992  0.34369588  0.83367510  1
  Ag  Ag17  1  0.83594987  0.66412950  0.83252029  1
  Ag  Ag18  1  0.67262077  0.66333067  0.33239873  1
  Ag  Ag19  1  0.50058528  0.83008744  0.32680615  1
  Ag  Ag20  1  0.49758747  0.83609252  0.00784768  1
  Ag  Ag21  1  0.66710508  0.16904787  0.17047163  1
  Ag  Ag22  1  0.16866991  0.16814850  0.00721088  1
  Ag  Ag23  1  -0.00502015  0.66314135  -0.00022787  1
  Ag  Ag24  1  0.66879162  0.33499648  0.00827804  1
  Ag  Ag25  1  0.83696173  0.50465019  0.66436396  1
  Ag  Ag26  1  0.82975808  0.67079619  0.17313817  1
  Ag  Ag27  1  0.33621521  0.50485583  0.49772926  1
  Ag  Ag28  1  0.83324734  0.82614244  0.33015047  1
  Ag  Ag29  1  0.83139174  0.16834607  0.66247948  1
  Ag  Ag30  1  0.66643233  0.66785792  0.66320118  1
  Ag  Ag31  1  0.66743874  0.66270701  0.00525957  1
  Ag  Ag32  1  -0.00425856  0.33405076  0.32661344  1
  Ag  Ag33  1  0.16081893  0.51076620  0.66465208  1
  Ag  Ag34  1  -0.00257196  0.50402972  0.83060697  1
  Ag  Ag35  1  0.16157965  0.16634522  0.33349891  1
  Ag  Ag36  1  0.33467004  0.50648646  0.17184974  1
  Ag  Ag37  1  0.66555804  0.16613142  0.49938020  1
  Ag  Ag38  1  0.16091157  0.66673445  0.82236591  1
  Ag  Ag39  1  0.01015705  0.66444133  0.66733795  1
  Ag  Ag40  1  0.66437139  0.00195522  0.66115026  1
  Ag  Ag41  1  0.34020615  -0.00155322  0.00161514  1
  Ag  Ag42  1  0.16744887  0.82177481  0.66187645  1
  Ag  Ag43  1  -0.00328629  0.33488430  0.00658127  1
  Ag  Ag44  1  0.50081826  0.67073367  0.50244421  1
  Ag  Ag45  1  0.82498459  0.00388286  0.49717568  1
  Ag  Ag46  1  0.50405102  -0.00450321  0.16382816  1
  Ag  Ag47  1  0.66521854  0.50407260  0.49810323  1
  Ag  Ag48  1  0.50396815  0.16153685  0.66192495  1
  Ag  Ag49  1  0.50218356  0.32913633  0.16558299  1
  Ag  Ag50  1  0.49848342  0.15939370  0.00373230  1
  Ag  Ag51  1  0.16329034  0.32969341  0.16741911  1
  Ag  Ag52  1  0.49950018  -0.00685581  0.83851005  1
  Ag  Ag53  1  0.67141823  0.33565613  0.32858332  1
  Sb  Sb54  1  0.83314579  0.33466129  0.16570539  1
  Sb  Sb55  1  0.50071308  0.50221369  0.66477667  1
  Sb  Sb56  1  0.82885101  0.82839074  0.00658215  1
  Sb  Sb57  1  0.00024926  0.17205098  0.83378328  1
  Sb  Sb58  1  0.00270644  -0.00010001  0.00320356  1
  Sb  Sb59  1  -0.00388349  -0.00235767  0.66481747  1
  Sb  Sb60  1  0.83795295  0.82880839  0.66211807  1
  Sb  Sb61  1  0.00472676  0.82359369  0.83854902  1
  Sb  Sb62  1  0.33587111  -0.00095257  0.33058658  1
  Sb  Sb63  1  0.33547369  0.67129763  -0.00210216  1
  Sb  Sb64  1  0.00040190  0.83404095  0.49344508  1
  Sb  Sb65  1  -0.00166435  0.49944493  0.50227719  1
  Sb  Sb66  1  0.50263746  0.33185713  0.49472715  1
  Sb  Sb67  1  0.49681943  0.83345950  0.66693114  1
  Sb  Sb68  1  -0.00217231  -0.00090649  0.33246754  1
  Sb  Sb69  1  0.16618700  0.66589296  0.16731736  1
  Sb  Sb70  1  0.16832786  0.00272412  0.16686935  1
  Sb  Sb71  1  0.50668879  0.33305264  0.83953888  1
  Sb  Sb72  1  0.66461756  0.49933939  0.17256318  1
  Sb  Sb73  1  0.33400483  0.32861483  0.00371441  1
  Sb  Sb74  1  0.65997580  0.00034527  0.00077561  1
  Sb  Sb75  1  0.83290943  0.32969374  0.50117765  1
  Sb  Sb76  1  0.33382923  0.33250960  0.33118950  1
  Sb  Sb77  1  0.32942444  0.50954622  0.83007503  1
  Sb  Sb78  1  0.33457532  0.16209440  0.82977339  1
  Sb  Sb79  1  0.16508343  0.49817840  -0.00169269  1
  Sb  Sb80  1  0.83355775  0.50219078  -0.00063748  1
  Sb  Sb81  1  0.66837333  0.33370216  0.66405258  1
  Sb  Sb82  1  0.33238698  0.33642350  0.66553915  1
  Sb  Sb83  1  0.33419641  0.16407776  0.16931757  1
  Sb  Sb84  1  0.33418185  0.83181412  0.49872564  1
  Sb  Sb85  1  0.16227941  0.50236046  0.33693154  1
  Sb  Sb86  1  0.50571131  0.50620960  0.33315464  1
  Sb  Sb87  1  0.66724495  -0.00055515  0.33643523  1
  Sb  Sb88  1  0.83115823  0.66850863  0.49787709  1
  Sb  Sb89  1  0.16123693  0.33742418  0.83714096  1
  Sb  Sb90  1  0.16562207  0.33406698  0.49507427  1
  Sb  Sb91  1  0.83192633  0.16783422  0.00003377  1
  Sb  Sb92  1  0.16876494  -0.00018358  0.50043007  1
  Sb  Sb93  1  0.00140621  0.50045237  0.16602227  1
  Sb  Sb94  1  0.50092146  0.50372250  0.00233634  1
  Sb  Sb95  1  0.17114251  0.83504342  0.00225967  1
  Sb  Sb96  1  0.82611738  -0.00341506  0.83163315  1
  Sb  Sb97  1  -0.00102595  0.33650899  0.66592053  1
  Sb  Sb98  1  0.33430174  0.66732631  0.33708053  1
  Sb  Sb99  1  0.66556543  0.16768675  0.83164181  1
  Sb  Sb100  1  0.66583335  0.83206950  0.49893186  1
  Sb  Sb101  1  0.33907086  -0.00381227  0.66846594  1
  Sb  Sb102  1  0.49974739  0.16287133  0.33237878  1
  Sb  Sb103  1  0.66109745  0.82900658  0.83421345  1
  Sb  Sb104  1  0.17215730  -0.00508226  0.83223230  1
  Sb  Sb105  1  0.67226635  0.50379129  0.82748858  1
  Sb  Sb106  1  0.66404931  0.83366681  0.16859376  1
  Sb  Sb107  1  0.83644832  0.16708827  0.33641973  1
  Te  Te108  1  0.16624727  0.16823349  0.16827286  1
  Te  Te109  1  0.16592663  0.16631639  0.49799103  1
  Te  Te110  1  0.16695311  0.16700578  0.83202770  1
  Te  Te111  1  0.17297631  0.49370989  0.16754636  1
  Te  Te112  1  0.16886856  0.50310829  0.50451985  1
  Te  Te113  1  0.16221595  0.50484152  0.82768655  1
  Te  Te114  1  0.16466339  0.83467650  0.17033371  1
  Te  Te115  1  0.16731446  0.83104296  0.49856864  1
  Te  Te116  1  0.17191703  0.82764886  0.83226008  1
  Te  Te117  1  0.50054026  0.16573432  0.16638184  1
  Te  Te118  1  0.50220166  0.16560027  0.50013735  1
  Te  Te119  1  0.49903175  0.16412695  0.83579545  1
  Te  Te120  1  0.49503886  0.50023196  0.16738999  1
  Te  Te121  1  0.49904204  0.50293396  0.49958041  1
  Te  Te122  1  0.49927472  0.50681044  0.83333305  1
  Te  Te123  1  0.49982585  0.83370728  0.16737637  1
  Te  Te124  1  0.49865555  0.83262234  0.49563714  1
  Te  Te125  1  0.49590767  0.83209707  0.83337948  1
  Te  Te126  1  0.83309150  0.16418355  0.16731260  1
  Te  Te127  1  0.82914057  0.16381066  0.50206720  1
  Te  Te128  1  0.83406686  0.16481784  0.82596935  1
  Te  Te129  1  0.83285641  0.50845759  0.17197410  1
  Te  Te130  1  0.82997387  0.49886801  0.50184447  1
  Te  Te131  1  0.83682977  0.50401696  0.83057339  1
  Te  Te132  1  0.83537229  0.83152962  0.17002834  1
  Te  Te133  1  0.83434369  0.84345395  0.49394916  1
  Te  Te134  1  0.83449759  0.82654296  0.83343653  1
  Te  Te135  1  0.17240554  0.00746144  -0.00140095  1
  Te  Te136  1  0.16667403  -0.00206410  0.33434992  1
  Te  Te137  1  0.16660346  0.00779408  0.66718712  1
  Te  Te138  1  0.16267761  0.32865196  0.00432986  1
  Te  Te139  1  0.16270938  0.33174502  0.32808945  1
  Te  Te140  1  0.16591953  0.32599646  0.66779696  1
  Te  Te141  1  0.16142689  0.66711312  -0.00255114  1
  Te  Te142  1  0.16239425  0.66931712  0.33486008  1
  Te  Te143  1  0.16588131  0.66618455  0.66589002  1
  Te  Te144  1  0.50014074  -0.00055345  0.00120821  1
  Te  Te145  1  0.50187180  -0.00637835  0.33188379  1
  Te  Te146  1  0.50341006  0.00079697  0.66293586  1
  Te  Te147  1  0.50420392  0.32906558  0.00417543  1
  Te  Te148  1  0.50524611  0.33408455  0.32636775  1
  Te  Te149  1  0.50050571  0.32438351  0.66964973  1
  Te  Te150  1  0.50170042  0.66955328  0.00220344  1
  Te  Te151  1  0.50082322  0.66968112  0.33242488  1
  Te  Te152  1  0.50758407  0.66695538  0.66466696  1
  Te  Te153  1  0.83148191  -0.00191870  0.00432298  1
  Te  Te154  1  0.83189551  -0.00570499  0.33084932  1
  Te  Te155  1  0.82765156  0.00017434  0.66477798  1
  Te  Te156  1  0.83383592  0.33418363  -0.00381958  1
  Te  Te157  1  0.83335499  0.33734719  0.33324155  1
  Te  Te158  1  0.83368744  0.33481170  0.67234298  1
  Te  Te159  1  0.83326547  0.66673226  -0.00055900  1
  Te  Te160  1  0.83365642  0.66654392  0.33477001  1
  Te  Te161  1  0.82787798  0.66481161  0.66525339  1
  Te  Te162  1  0.00198728  0.16941376  0.00336194  1
  Te  Te163  1  0.00145488  0.16800992  0.33102560  1
  Te  Te164  1  -0.00274934  0.16682747  0.66426240  1
  Te  Te165  1  0.00003027  0.50105063  -0.00399573  1
  Te  Te166  1  -0.00543165  0.50005026  0.33396621  1
  Te  Te167  1  -0.00126319  0.50289083  0.66786238  1
  Te  Te168  1  0.00176470  0.82959454  0.00842358  1
  Te  Te169  1  0.00106685  0.83090383  0.32914446  1
  Te  Te170  1  0.00663989  0.82818339  0.66652006  1
  Te  Te171  1  0.33416415  0.16171253  -0.00068033  1
  Te  Te172  1  0.32594813  0.16680146  0.34061577  1
  Te  Te173  1  0.33466927  0.16709192  0.66262945  1
  Te  Te174  1  0.33239694  0.49870181  0.00607324  1
  Te  Te175  1  0.33190219  0.49950926  0.33624374  1
  Te  Te176  1  0.33055241  0.50498232  0.66220226  1
  Te  Te177  1  0.33640096  0.83726739  0.00242016  1
  Te  Te178  1  0.33174771  0.83328429  0.32778458  1
  Te  Te179  1  0.32828133  0.82898667  0.66858716  1
  Te  Te180  1  0.66418822  0.16882269  0.00324917  1
  Te  Te181  1  0.66807160  0.17029716  0.33317489  1
  Te  Te182  1  0.66679487  0.16707002  0.66395526  1
  Te  Te183  1  0.66699432  0.50114146  -0.00006994  1
  Te  Te184  1  0.67110490  0.50132689  0.33796091  1
  Te  Te185  1  0.66982416  0.50145259  0.65913796  1
  Te  Te186  1  0.65884500  0.82638089  0.00095849  1
  Te  Te187  1  0.66647991  0.82602989  0.33296716  1
  Te  Te188  1  0.66831932  0.83027098  0.66662426  1
  Te  Te189  1  -0.00400268  0.00296984  0.16574918  1
  Te  Te190  1  -0.00363498  0.00800027  0.50014718  1
  Te  Te191  1  -0.00220717  -0.00163578  0.83446239  1
  Te  Te192  1  0.00005355  0.33199901  0.16631942  1
  Te  Te193  1  -0.00039939  0.32599063  0.49318847  1
  Te  Te194  1  -0.00531116  0.33906890  0.83822473  1
  Te  Te195  1  -0.00074359  0.66726433  0.16829576  1
  Te  Te196  1  0.00272402  0.66687921  0.49936791  1
  Te  Te197  1  -0.00164452  0.66488504  0.83292895  1
  Te  Te198  1  0.33815482  -0.00420852  0.16333513  1
  Te  Te199  1  0.33999490  0.00520038  0.50017422  1
  Te  Te200  1  0.33947520  -0.00634322  0.83691429  1
  Te  Te201  1  0.33623910  0.33602735  0.16669025  1
  Te  Te202  1  0.33445045  0.33404217  0.49905175  1
  Te  Te203  1  0.33444114  0.33699946  0.83491497  1
  Te  Te204  1  0.33620348  0.66757083  0.16650623  1
  Te  Te205  1  0.33516312  0.66590013  0.50330309  1
  Te  Te206  1  0.33692511  0.67055520  0.83024929  1
  Te  Te207  1  0.66591588  0.00634832  0.16771543  1
  Te  Te208  1  0.66489193  0.00308863  0.50109823  1
  Te  Te209  1  0.65919005  -0.00054982  0.82671607  1
  Te  Te210  1  0.66631001  0.33192213  0.16710198  1
  Te  Te211  1  0.66634483  0.33224510  0.49442007  1
  Te  Te212  1  0.67332093  0.33554993  0.84110029  1
  Te  Te213  1  0.66573385  0.66535572  0.16732918  1
  Te  Te214  1  0.66441806  0.66594176  0.49831120  1
  Te  Te215  1  0.66586833  0.66533336  0.83362842  1
