# generated using pymatgen
data_AgSbTe2
_symmetry_space_group_name_H-M   'P 1'
_cell_length_a   18.33668601
_cell_length_b   18.33209044
_cell_length_c   18.33079200
_cell_angle_alpha   90.00463335
_cell_angle_beta   89.99963110
_cell_angle_gamma   89.99707291
_symmetry_Int_Tables_number   1
_chemical_formula_structural   AgSbTe2
_chemical_formula_sum   'Ag54 Sb54 Te108'
_cell_volume   6161.89178634
_cell_formula_units_Z   54
loop_
 _symmetry_equiv_pos_site_id
 _symmetry_equiv_pos_as_xyz
  1  'x, y, z'
loop_
 _atom_site_type_symbol
 _atom_site_label
 _atom_site_symmetry_multiplicity
 _atom_site_fract_x
 _atom_site_fract_y
 _atom_site_fract_z
 _atom_site_occupancy
  Ag  Ag0  1  0.66865080  0.00433121  0.66444748  1
  Ag  Ag1  1  0.50433813  0.00237238  0.16293996  1
  Ag  Ag2  1  0.15879886  0.49924748  0.66985621  1
  Ag  Ag3  1  -0.00160474  0.49722001  0.82686489  1
  Ag  Ag4  1  0.83020169  -0.01200656  0.49905262  1
  Ag  Ag5  1  0.15993616  0.82571539  0.66248885  1
  Ag  Ag6  1  0.66688179  0.16957732  0.49996122  1
  Ag  Ag7  1  0.83716109  0.50288846  0.66494190  1
  Ag  Ag8  1  0.17496526  0.33273294  0.16421148  1
  Ag  Ag9  1  0.33815632  0.33772875  0.00759101  1
  Ag  Ag10  1  0.82983818  -0.00156941  0.17146732  1
  Ag  Ag11  1  0.66157645  0.65633396  0.33603985  1
  Ag  Ag12  1  0.67657921  0.83341675  0.50020517  1
  Ag  Ag13  1  0.16320495  0.66912576  0.50264661  1
  Ag  Ag14  1  -0.00173654  0.83184150  0.17245022  1
  Ag  Ag15  1  0.50187252  -0.00410661  0.83525460  1
  Ag  Ag16  1  -0.00088771  0.66296985  0.66311519  1
  Ag  Ag17  1  -0.01108719  0.83058771  0.50139655  1
  Ag  Ag18  1  -0.00670754  -0.00969754  0.66504738  1
  Ag  Ag19  1  0.49950093  0.81994913  0.00323578  1
  Ag  Ag20  1  0.49918159  0.66236249  0.84363651  1
  Ag  Ag21  1  0.66672538  0.33835748  0.32697327  1
  Ag  Ag22  1  0.83151837  0.67232587  0.49924954  1
  Ag  Ag23  1  0.50098292  0.34093228  0.16879737  1
  Ag  Ag24  1  0.49768428  0.65449833  0.16689224  1
  Ag  Ag25  1  0.66302994  0.17825620  0.16861835  1
  Ag  Ag26  1  0.17048457  0.33657545  0.83587054  1
  Ag  Ag27  1  0.83834861  0.82867137  0.65752677  1
  Ag  Ag28  1  0.83293028  0.82503700  0.34662644  1
  Ag  Ag29  1  0.50175407  0.66403990  0.49546682  1
  Ag  Ag30  1  0.16586520  0.17212512  0.32721809  1
  Ag  Ag31  1  0.33383746  0.17779994  0.16629672  1
  Ag  Ag32  1  0.00674835  0.17479092  0.16844315  1
  Ag  Ag33  1  0.66445350  0.17965040  0.82818026  1
  Ag  Ag34  1  0.50445772  0.34165109  0.49426999  1
  Ag  Ag35  1  0.34676286  0.49458594  0.16012757  1
  Ag  Ag36  1  -0.00350957  0.49551111  0.16566123  1
  Ag  Ag37  1  0.65923186  0.49550536  0.16706063  1
  Ag  Ag38  1  -0.00327972  0.33595699  0.33055406  1
  Ag  Ag39  1  0.65967116  0.33834314  0.01039117  1
  Ag  Ag40  1  0.50080230  0.50205535  0.00857135  1
  Ag  Ag41  1  0.33668030  0.00040095  0.66649938  1
  Ag  Ag42  1  0.34326772  0.66423204  0.33323875  1
  Ag  Ag43  1  0.34025248  0.49759607  0.83877756  1
  Ag  Ag44  1  0.82398171  0.50004820  0.00874244  1
  Ag  Ag45  1  0.33992525  0.65555104  0.00496969  1
  Ag  Ag46  1  0.16804898  0.17394021  0.00825988  1
  Ag  Ag47  1  0.66379645  0.49605050  0.83945758  1
  Ag  Ag48  1  0.00118967  0.34273251  0.66276579  1
  Ag  Ag49  1  0.33386394  0.33603628  0.67055888  1
  Ag  Ag50  1  0.50791234  0.50234592  0.32188171  1
  Ag  Ag51  1  0.66532160  0.33394217  0.66575473  1
  Ag  Ag52  1  0.82396908  0.50428661  0.33214579  1
  Ag  Ag53  1  0.33448959  0.82757645  0.50199013  1
  Sb  Sb54  1  0.00067796  0.82673572  0.82586341  1
  Sb  Sb55  1  0.17118461  0.83528063  -0.00216406  1
  Sb  Sb56  1  0.50122621  0.83247515  0.66600385  1
  Sb  Sb57  1  0.66429477  0.00704124  -0.00256134  1
  Sb  Sb58  1  0.82775216  0.33712651  0.50013654  1
  Sb  Sb59  1  0.33852256  0.17316978  0.83728835  1
  Sb  Sb60  1  0.33616850  0.33893218  0.32980958  1
  Sb  Sb61  1  0.82785643  0.82661667  0.00269792  1
  Sb  Sb62  1  0.66400834  0.82913790  0.82805606  1
  Sb  Sb63  1  0.66013480  0.65810721  0.00548786  1
  Sb  Sb64  1  0.16982038  0.33773243  0.49957225  1
  Sb  Sb65  1  -0.00471960  0.16362473  0.49700518  1
  Sb  Sb66  1  0.16603778  0.49720133  0.33466561  1
  Sb  Sb67  1  0.50201644  0.16744886  0.66770393  1
  Sb  Sb68  1  0.82848204  0.66538406  0.17354499  1
  Sb  Sb69  1  0.33086965  0.66371727  0.66410202  1
  Sb  Sb70  1  0.16217587  -0.00576941  0.50307224  1
  Sb  Sb71  1  0.49981070  0.33734603  0.83573268  1
  Sb  Sb72  1  -0.00306366  0.00182307  0.33467021  1
  Sb  Sb73  1  0.66642036  0.49963933  0.49650928  1
  Sb  Sb74  1  0.49949907  0.17425905  0.32956341  1
  Sb  Sb75  1  0.00517614  0.66199664  -0.00250095  1
  Sb  Sb76  1  0.17305266  0.49515149  -0.00273582  1
  Sb  Sb77  1  0.50279891  0.49947279  0.66763912  1
  Sb  Sb78  1  -0.00271307  0.17355938  0.83558955  1
  Sb  Sb79  1  0.82843889  -0.00084802  0.82888188  1
  Sb  Sb80  1  -0.00203488  0.66234810  0.33748105  1
  Sb  Sb81  1  0.17116108  0.65876087  0.17186887  1
  Sb  Sb82  1  0.50639099  0.82420888  0.33044184  1
  Sb  Sb83  1  0.33524372  0.82773822  0.82848757  1
  Sb  Sb84  1  0.49848667  0.17369175  0.00296014  1
  Sb  Sb85  1  -0.00189109  0.00093336  -0.00205801  1
  Sb  Sb86  1  0.66770805  0.00249719  0.33605989  1
  Sb  Sb87  1  0.66785520  0.83172251  0.17162394  1
  Sb  Sb88  1  -0.00128817  0.50432020  0.50248838  1
  Sb  Sb89  1  0.83238302  0.33694573  0.83221008  1
  Sb  Sb90  1  0.83407168  0.16975803  0.33098549  1
  Sb  Sb91  1  0.33260592  0.83042448  0.17027338  1
  Sb  Sb92  1  0.16664902  0.00811744  0.16662048  1
  Sb  Sb93  1  0.82749703  0.66163894  0.82705887  1
  Sb  Sb94  1  0.83128442  0.16745662  0.66512392  1
  Sb  Sb95  1  0.00190622  0.33710627  0.00306846  1
  Sb  Sb96  1  0.83320590  0.17378367  0.00546072  1
  Sb  Sb97  1  0.83048344  0.33535080  0.16804360  1
  Sb  Sb98  1  0.33802405  0.00351448  -0.00285819  1
  Sb  Sb99  1  0.33760395  0.16613740  0.49651577  1
  Sb  Sb100  1  0.67010995  0.66338690  0.65962615  1
  Sb  Sb101  1  0.16194090  0.83417045  0.33820491  1
  Sb  Sb102  1  0.17154285  0.65777858  0.82769847  1
  Sb  Sb103  1  0.17144442  0.00715627  0.82911918  1
  Sb  Sb104  1  0.33500180  0.50402870  0.49939602  1
  Sb  Sb105  1  0.16623504  0.17174625  0.66505317  1
  Sb  Sb106  1  0.50520081  -0.00253677  0.49983260  1
  Sb  Sb107  1  0.33547086  -0.00362593  0.33644871  1
  Te  Te108  1  0.16660194  0.17062178  0.16650460  1
  Te  Te109  1  0.16694694  0.16700295  0.49466066  1
  Te  Te110  1  0.16674983  0.17516390  0.83548486  1
  Te  Te111  1  0.15715598  0.49365140  0.16599253  1
  Te  Te112  1  0.16740037  0.50632021  0.50687773  1
  Te  Te113  1  0.16551534  0.49487085  0.83086775  1
  Te  Te114  1  0.15944795  0.83344743  0.16705625  1
  Te  Te115  1  0.17022993  0.82948923  0.50316508  1
  Te  Te116  1  0.16681672  0.83459585  0.82709311  1
  Te  Te117  1  0.50086457  0.16518489  0.16578863  1
  Te  Te118  1  0.50642646  0.16871983  0.49766311  1
  Te  Te119  1  0.50650950  0.16060185  0.83599306  1
  Te  Te120  1  0.50176871  0.49853807  0.16607759  1
  Te  Te121  1  0.49944912  0.50022762  0.49771110  1
  Te  Te122  1  0.50044702  0.50184599  0.83362868  1
  Te  Te123  1  0.49982902  0.83810611  0.16404278  1
  Te  Te124  1  0.49626985  0.82974216  0.49778396  1
  Te  Te125  1  0.49958279  0.83113236  0.83772386  1
  Te  Te126  1  0.82985677  0.15929850  0.16663936  1
  Te  Te127  1  0.82684190  0.16081462  0.49795781  1
  Te  Te128  1  0.82386672  0.16596762  0.83698988  1
  Te  Te129  1  0.83597330  0.50187194  0.16973525  1
  Te  Te130  1  0.83320242  0.50516479  0.49922590  1
  Te  Te131  1  0.83298717  0.50038171  0.82770083  1
  Te  Te132  1  0.83689482  0.83523779  0.16554699  1
  Te  Te133  1  0.83303989  0.83242554  0.50202267  1
  Te  Te134  1  0.83338905  0.83109492  0.82884102  1
  Te  Te135  1  0.16753900  0.00691156  -0.00230693  1
  Te  Te136  1  0.16648838  0.00704008  0.33450795  1
  Te  Te137  1  0.16720603  -0.00081665  0.66712402  1
  Te  Te138  1  0.16873252  0.33202455  0.00240678  1
  Te  Te139  1  0.16386514  0.33152531  0.33150640  1
  Te  Te140  1  0.16652257  0.33686207  0.66617539  1
  Te  Te141  1  0.17687552  0.66921088  -0.00021147  1
  Te  Te142  1  0.16925755  0.66642733  0.34049043  1
  Te  Te143  1  0.16459650  0.66556787  0.66351954  1
  Te  Te144  1  0.50052739  -0.00188035  0.00001165  1
  Te  Te145  1  0.50009677  -0.00084406  0.32604843  1
  Te  Te146  1  0.50216311  -0.00036129  0.66840094  1
  Te  Te147  1  0.49882928  0.33896802  0.00236066  1
  Te  Te148  1  0.50264652  0.33916419  0.33237054  1
  Te  Te149  1  0.49999604  0.33317261  0.66386503  1
  Te  Te150  1  0.49830712  0.66290741  0.00282512  1
  Te  Te151  1  0.50171158  0.66375397  0.33217296  1
  Te  Te152  1  0.49988653  0.66725474  0.65961515  1
  Te  Te153  1  0.83254671  -0.00288227  0.00471084  1
  Te  Te154  1  0.83321816  -0.00438337  0.33281718  1
  Te  Te155  1  0.83099951  -0.00017670  0.66504768  1
  Te  Te156  1  0.82577351  0.34127835  -0.00087003  1
  Te  Te157  1  0.83249849  0.33889170  0.33500261  1
  Te  Te158  1  0.83527480  0.33711708  0.66529923  1
  Te  Te159  1  0.83482418  0.65939991  -0.00012567  1
  Te  Te160  1  0.83191646  0.66515262  0.33805846  1
  Te  Te161  1  0.83616643  0.66583555  0.66198410  1
  Te  Te162  1  0.00344636  0.16783304  0.00561015  1
  Te  Te163  1  0.00140839  0.17167295  0.32909977  1
  Te  Te164  1  -0.00085797  0.16923556  0.66716207  1
  Te  Te165  1  -0.00539369  0.50027034  0.00034484  1
  Te  Te166  1  -0.00061367  0.49562630  0.33149305  1
  Te  Te167  1  -0.00107109  0.50068444  0.66579311  1
  Te  Te168  1  -0.00008728  0.83171951  0.00241086  1
  Te  Te169  1  -0.00460368  0.83284315  0.33473535  1
  Te  Te170  1  -0.00034873  0.83201340  0.66489005  1
  Te  Te171  1  0.32985100  0.17161494  0.00471941  1
  Te  Te172  1  0.32925963  0.16489750  0.32797504  1
  Te  Te173  1  0.33278577  0.16719222  0.66637644  1
  Te  Te174  1  0.33383641  0.49728968  0.00033162  1
  Te  Te175  1  0.33304243  0.50492291  0.32817806  1
  Te  Te176  1  0.33277151  0.49661607  0.67013563  1
  Te  Te177  1  0.33808244  0.83250041  0.00032174  1
  Te  Te178  1  0.33102597  0.82821588  0.33903916  1
  Te  Te179  1  0.33113811  0.83521756  0.66305341  1
  Te  Te180  1  0.66668604  0.17428981  0.00515792  1
  Te  Te181  1  0.66669435  0.17255617  0.33074630  1
  Te  Te182  1  0.66717672  0.16830720  0.66648048  1
  Te  Te183  1  0.66479651  0.49808599  0.00103970  1
  Te  Te184  1  0.66659092  0.49820245  0.33296828  1
  Te  Te185  1  0.67000837  0.49653684  0.66981814  1
  Te  Te186  1  0.66125210  0.83305925  -0.00090714  1
  Te  Te187  1  0.67275943  0.83385122  0.33898226  1
  Te  Te188  1  0.67049719  0.83498507  0.66119347  1
  Te  Te189  1  -0.00185431  -0.00043962  0.16585036  1
  Te  Te190  1  -0.00525282  -0.00413659  0.50467140  1
  Te  Te191  1  -0.00038560  0.00159444  0.82690944  1
  Te  Te192  1  -0.00328209  0.33304137  0.16802898  1
  Te  Te193  1  0.00065338  0.33143430  0.50135058  1
  Te  Te194  1  0.00369998  0.33722140  0.83030003  1
  Te  Te195  1  0.00163315  0.66593372  0.16679921  1
  Te  Te196  1  -0.00014267  0.67072848  0.50236398  1
  Te  Te197  1  0.00155055  0.65899724  0.82775552  1
  Te  Te198  1  0.33617881  0.00079832  0.16689398  1
  Te  Te199  1  0.33492874  -0.00201097  0.50543018  1
  Te  Te200  1  0.33952769  0.00148745  0.82732751  1
  Te  Te201  1  0.33458547  0.33494186  0.16814662  1
  Te  Te202  1  0.33902706  0.33244002  0.50341576  1
  Te  Te203  1  0.33335866  0.33640998  0.83132840  1
  Te  Te204  1  0.33612226  0.66462150  0.16770683  1
  Te  Te205  1  0.33801028  0.66772677  0.49824283  1
  Te  Te206  1  0.33870272  0.66042102  0.83533238  1
  Te  Te207  1  0.66679459  -0.00104338  0.16583808  1
  Te  Te208  1  0.66841573  -0.00007611  0.50276904  1
  Te  Te209  1  0.66184471  -0.00175603  0.82866502  1
  Te  Te210  1  0.66664842  0.33534498  0.16749269  1
  Te  Te211  1  0.66431329  0.33116361  0.50399266  1
  Te  Te212  1  0.66547499  0.33569585  0.82694483  1
  Te  Te213  1  0.66112082  0.66437886  0.17350139  1
  Te  Te214  1  0.66563281  0.66838602  0.49635882  1
  Te  Te215  1  0.65978935  0.66046400  0.83229440  1
