# generated using pymatgen
data_AgSbTe2
_symmetry_space_group_name_H-M   'P 1'
_cell_length_a   18.33419614
_cell_length_b   18.33206079
_cell_length_c   18.33649461
_cell_angle_alpha   90.00047040
_cell_angle_beta   90.00054191
_cell_angle_gamma   89.99666694
_symmetry_Int_Tables_number   1
_chemical_formula_structural   AgSbTe2
_chemical_formula_sum   'Ag54 Sb54 Te108'
_cell_volume   6162.96180357
_cell_formula_units_Z   54
loop_
 _symmetry_equiv_pos_site_id
 _symmetry_equiv_pos_as_xyz
  1  'x, y, z'
loop_
 _atom_site_type_symbol
 _atom_site_label
 _atom_site_symmetry_multiplicity
 _atom_site_fract_x
 _atom_site_fract_y
 _atom_site_fract_z
 _atom_site_occupancy
  Ag  Ag0  1  0.17036996  0.33435390  0.83498177  1
  Ag  Ag1  1  -0.00628736  0.67543648  0.32718496  1
  Ag  Ag2  1  0.49136879  -0.00195491  0.16756283  1
  Ag  Ag3  1  0.49514273  0.15295654  0.32854523  1
  Ag  Ag4  1  0.00479549  -0.00119574  0.65343051  1
  Ag  Ag5  1  0.16687920  0.67470684  0.16725573  1
  Ag  Ag6  1  0.33179548  -0.00249069  0.66357781  1
  Ag  Ag7  1  0.33574342  0.15663620  0.17157220  1
  Ag  Ag8  1  0.49852857  0.66934007  0.83077046  1
  Ag  Ag9  1  0.83324676  0.83667890  0.01003884  1
  Ag  Ag10  1  0.01138921  -0.00505698  0.33399852  1
  Ag  Ag11  1  0.66884843  0.33234625  0.00876750  1
  Ag  Ag12  1  0.66336620  0.83512283  0.17147914  1
  Ag  Ag13  1  0.82631822  0.83168440  0.32899551  1
  Ag  Ag14  1  0.50222912  0.83502469  0.33176774  1
  Ag  Ag15  1  0.32858655  0.00147776  0.01436370  1
  Ag  Ag16  1  0.49939023  0.50351556  0.32591016  1
  Ag  Ag17  1  0.17773239  -0.00477956  0.17751332  1
  Ag  Ag18  1  0.49275353  0.50230452  0.00656109  1
  Ag  Ag19  1  0.17847538  0.83716236  0.65980346  1
  Ag  Ag20  1  0.83288871  0.50148597  0.00480973  1
  Ag  Ag21  1  0.83392562  0.15911730  0.00336209  1
  Ag  Ag22  1  0.16592434  0.16066115  0.00572768  1
  Ag  Ag23  1  0.82900300  0.00053505  0.83405922  1
  Ag  Ag24  1  -0.00112405  0.66996303  0.00738275  1
  Ag  Ag25  1  0.34103460  0.50052331  0.16528537  1
  Ag  Ag26  1  0.17342189  0.49740855  -0.00019514  1
  Ag  Ag27  1  0.16565932  0.00069182  0.48853528  1
  Ag  Ag28  1  0.49154562  0.50812911  0.66915630  1
  Ag  Ag29  1  0.32593547  0.00133605  0.32757702  1
  Ag  Ag30  1  0.66571972  0.16347468  0.84614823  1
  Ag  Ag31  1  0.17652776  0.15681894  0.32689848  1
  Ag  Ag32  1  0.66499371  0.33433928  0.32444050  1
  Ag  Ag33  1  0.66214990  0.49552031  0.16703139  1
  Ag  Ag34  1  0.50082217  -0.00252802  0.83608120  1
  Ag  Ag35  1  0.17882929  0.50461752  0.67126585  1
  Ag  Ag36  1  0.84005982  -0.00346264  0.49942156  1
  Ag  Ag37  1  0.33514124  0.50014577  0.82544839  1
  Ag  Ag38  1  0.66309372  0.16561308  0.16552247  1
  Ag  Ag39  1  0.66861506  0.67469176  0.33028606  1
  Ag  Ag40  1  0.66770232  0.83535075  0.48938599  1
  Ag  Ag41  1  0.83400317  0.67636110  0.48658907  1
  Ag  Ag42  1  0.33679776  0.84424510  0.17058826  1
  Ag  Ag43  1  0.66036437  -0.00115888  0.66790188  1
  Ag  Ag44  1  0.00278156  -0.00202809  0.00397465  1
  Ag  Ag45  1  0.82438656  0.33871134  0.16386791  1
  Ag  Ag46  1  0.33403475  0.65949137  0.66599889  1
  Ag  Ag47  1  0.16891985  0.84429512  0.33220779  1
  Ag  Ag48  1  0.83367970  0.66894399  0.16891482  1
  Ag  Ag49  1  0.33394935  0.49793881  0.51255349  1
  Ag  Ag50  1  0.32971448  0.15960174  0.49222594  1
  Ag  Ag51  1  0.49640057  0.83496955  0.66337018  1
  Ag  Ag52  1  0.00853242  0.15869390  0.49673291  1
  Ag  Ag53  1  0.33274889  0.34630567  0.66660217  1
  Sb  Sb54  1  0.33490828  0.83215133  0.83337526  1
  Sb  Sb55  1  0.16352085  0.67370913  0.49432453  1
  Sb  Sb56  1  0.00201638  0.16197269  0.16916146  1
  Sb  Sb57  1  0.66564671  0.83855887  0.83577784  1
  Sb  Sb58  1  0.33582943  0.33289525  -0.00105974  1
  Sb  Sb59  1  0.83288120  0.16265694  0.66973585  1
  Sb  Sb60  1  0.17020846  0.00264186  0.83521085  1
  Sb  Sb61  1  0.00003327  0.83599074  0.83432424  1
  Sb  Sb62  1  0.83120122  0.15865440  0.32788553  1
  Sb  Sb63  1  0.16562163  0.33074457  0.16365071  1
  Sb  Sb64  1  0.65785640  0.49513179  0.84224373  1
  Sb  Sb65  1  0.67021735  0.66284021  0.00852653  1
  Sb  Sb66  1  0.16402869  0.83571707  0.00569191  1
  Sb  Sb67  1  0.49692641  0.16176408  0.66297024  1
  Sb  Sb68  1  0.17517235  0.50127818  0.33088938  1
  Sb  Sb69  1  0.00653386  0.50123195  0.83595122  1
  Sb  Sb70  1  0.83180842  0.33009199  0.49213260  1
  Sb  Sb71  1  0.82716007  0.67135642  0.84039687  1
  Sb  Sb72  1  0.82692126  0.50949568  0.32562933  1
  Sb  Sb73  1  0.49994219  0.66815492  0.50112712  1
  Sb  Sb74  1  0.66096981  0.67276800  0.66125044  1
  Sb  Sb75  1  -0.00217546  0.33173869  0.00117047  1
  Sb  Sb76  1  0.00682281  0.67361865  0.66430260  1
  Sb  Sb77  1  -0.00093431  0.50403716  0.16609792  1
  Sb  Sb78  1  0.65999607  0.32946835  0.66751254  1
  Sb  Sb79  1  -0.00405883  0.32967257  0.33108802  1
  Sb  Sb80  1  0.83055085  0.83741181  0.66373261  1
  Sb  Sb81  1  0.50517201  0.33055919  0.16710132  1
  Sb  Sb82  1  0.66432318  -0.00400113  0.33384641  1
  Sb  Sb83  1  0.33493885  0.67150818  0.33442414  1
  Sb  Sb84  1  0.82988195  0.50321098  0.67189493  1
  Sb  Sb85  1  0.16991304  0.16188661  0.66599191  1
  Sb  Sb86  1  0.49981247  0.66833248  0.16562029  1
  Sb  Sb87  1  0.33648889  0.83607459  0.49822262  1
  Sb  Sb88  1  0.33623532  0.16657635  0.83549693  1
  Sb  Sb89  1  -0.00162888  0.16200863  0.83267741  1
  Sb  Sb90  1  0.66158702  0.50675419  0.49213630  1
  Sb  Sb91  1  0.66408703  0.15840350  0.49372273  1
  Sb  Sb92  1  0.66712460  0.00376426  -0.00162974  1
  Sb  Sb93  1  0.33063433  0.66766661  0.00037559  1
  Sb  Sb94  1  0.50269005  0.83192376  0.00336438  1
  Sb  Sb95  1  0.49597771  0.33215857  0.83445912  1
  Sb  Sb96  1  0.17138580  0.66390102  0.83771325  1
  Sb  Sb97  1  0.50004212  0.16686935  0.00529747  1
  Sb  Sb98  1  0.49883238  0.33438820  0.49834866  1
  Sb  Sb99  1  0.00747710  0.32780296  0.66659862  1
  Sb  Sb100  1  -0.00482956  0.84023228  0.49567639  1
  Sb  Sb101  1  0.17035040  0.32727470  0.50230745  1
  Sb  Sb102  1  0.00014197  0.83340292  0.16953223  1
  Sb  Sb103  1  0.83238517  -0.00452787  0.16683776  1
  Sb  Sb104  1  0.83502480  0.32878466  0.84107588  1
  Sb  Sb105  1  0.49576619  -0.00178052  0.49699009  1
  Sb  Sb106  1  0.33877661  0.32775356  0.33486294  1
  Sb  Sb107  1  0.00502829  0.49853754  0.49880836  1
  Te  Te108  1  0.16910448  0.16635494  0.16586437  1
  Te  Te109  1  0.16969142  0.16154612  0.49945159  1
  Te  Te110  1  0.16769127  0.17086757  0.83989918  1
  Te  Te111  1  0.16644466  0.49877037  0.16277196  1
  Te  Te112  1  0.17180965  0.50055051  0.50201778  1
  Te  Te113  1  0.17231709  0.49921336  0.83491038  1
  Te  Te114  1  0.17226065  0.83447984  0.16939327  1
  Te  Te115  1  0.16863142  0.83868200  0.49813190  1
  Te  Te116  1  0.16760060  0.83231163  0.82518116  1
  Te  Te117  1  0.49853646  0.16390066  0.16922368  1
  Te  Te118  1  0.49426532  0.16657579  0.49099156  1
  Te  Te119  1  0.50430560  0.16029521  0.83352459  1
  Te  Te120  1  0.50330327  0.50268442  0.16551857  1
  Te  Te121  1  0.49473478  0.50156637  0.50129267  1
  Te  Te122  1  0.49552943  0.49925166  0.83212939  1
  Te  Te123  1  0.49939328  0.83471013  0.16843271  1
  Te  Te124  1  0.50548084  0.83268048  0.49824360  1
  Te  Te125  1  0.50056001  0.83528415  0.83069524  1
  Te  Te126  1  0.82993358  0.16513284  0.16269293  1
  Te  Te127  1  0.83334567  0.16137403  0.49903201  1
  Te  Te128  1  0.82880481  0.16200521  0.83939093  1
  Te  Te129  1  0.83107484  0.50498036  0.16269230  1
  Te  Te130  1  0.83400071  0.50083341  0.50179888  1
  Te  Te131  1  0.83198376  0.50018028  0.84075723  1
  Te  Te132  1  0.82939538  0.83053612  0.16867100  1
  Te  Te133  1  0.82888107  0.83489291  0.49812943  1
  Te  Te134  1  0.83210710  0.83938614  0.83731643  1
  Te  Te135  1  0.16757274  0.00120780  -0.00047283  1
  Te  Te136  1  0.16743252  0.00106783  0.33294288  1
  Te  Te137  1  0.16531917  -0.00286550  0.67075307  1
  Te  Te138  1  0.16595018  0.33587976  -0.00232318  1
  Te  Te139  1  0.16464615  0.32717453  0.33309306  1
  Te  Te140  1  0.17183885  0.33721436  0.67002092  1
  Te  Te141  1  0.16205897  0.66621043  0.00493556  1
  Te  Te142  1  0.16434671  0.66883127  0.32745172  1
  Te  Te143  1  0.17007783  0.66811244  0.66549796  1
  Te  Te144  1  0.49546128  -0.00068704  0.00075167  1
  Te  Te145  1  0.49836584  -0.00386909  0.33093318  1
  Te  Te146  1  0.50071134  -0.00248998  0.66408663  1
  Te  Te147  1  0.50625332  0.34110675  -0.00084362  1
  Te  Te148  1  0.50549913  0.34177337  0.33314128  1
  Te  Te149  1  0.49412460  0.33706707  0.66661339  1
  Te  Te150  1  0.49980794  0.66259486  -0.00630811  1
  Te  Te151  1  0.50347708  0.66904688  0.33397872  1
  Te  Te152  1  0.49661214  0.66945148  0.66757044  1
  Te  Te153  1  0.83339302  -0.00027945  0.00070388  1
  Te  Te154  1  0.83458179  -0.00694017  0.33625240  1
  Te  Te155  1  0.83798170  0.00012568  0.66726859  1
  Te  Te156  1  0.83067277  0.33391796  0.00350096  1
  Te  Te157  1  0.82759263  0.33304555  0.32624171  1
  Te  Te158  1  0.83353376  0.33483813  0.66813798  1
  Te  Te159  1  0.83691891  0.66802754  0.00308429  1
  Te  Te160  1  0.83314589  0.67047406  0.33022922  1
  Te  Te161  1  0.83510665  0.66805830  0.66691586  1
  Te  Te162  1  -0.00029590  0.16330905  0.00064713  1
  Te  Te163  1  -0.00041223  0.16175004  0.33619634  1
  Te  Te164  1  0.00126635  0.15962942  0.66142216  1
  Te  Te165  1  -0.00009787  0.50277039  -0.00055133  1
  Te  Te166  1  0.00124417  0.50305422  0.33505105  1
  Te  Te167  1  0.00356433  0.50024530  0.66687135  1
  Te  Te168  1  -0.00403127  0.83477412  0.00068063  1
  Te  Te169  1  0.00452429  0.83383911  0.33396943  1
  Te  Te170  1  0.00304105  0.83944092  0.66626991  1
  Te  Te171  1  0.33123561  0.16429632  0.00368705  1
  Te  Te172  1  0.33486286  0.16621268  0.33215300  1
  Te  Te173  1  0.33390678  0.15907479  0.66402723  1
  Te  Te174  1  0.33293410  0.50001618  0.00392773  1
  Te  Te175  1  0.33818946  0.49915264  0.32624896  1
  Te  Te176  1  0.33467452  0.50269539  0.66930420  1
  Te  Te177  1  0.33348380  0.83881797  0.00496385  1
  Te  Te178  1  0.33413086  0.83604352  0.33191839  1
  Te  Te179  1  0.33614617  0.83568035  0.66588032  1
  Te  Te180  1  0.66680093  0.16938920  0.00432623  1
  Te  Te181  1  0.66307525  0.16821938  0.32778544  1
  Te  Te182  1  0.66510342  0.16129328  0.66563033  1
  Te  Te183  1  0.66941068  0.49646433  0.00525945  1
  Te  Te184  1  0.66163577  0.49932940  0.32905497  1
  Te  Te185  1  0.66047639  0.49939926  0.66639967  1
  Te  Te186  1  0.67138772  0.83225636  0.00591973  1
  Te  Te187  1  0.66556100  0.83449247  0.33053775  1
  Te  Te188  1  0.66215211  0.83875132  0.66732919  1
  Te  Te189  1  0.00484835  -0.00049605  0.16587712  1
  Te  Te190  1  0.00134145  0.00135229  0.49647549  1
  Te  Te191  1  -0.00553934  0.00069829  0.84305647  1
  Te  Te192  1  -0.01214126  0.33256039  0.16711978  1
  Te  Te193  1  -0.00041444  0.32320941  0.50002608  1
  Te  Te194  1  0.00788622  0.33232733  0.83261932  1
  Te  Te195  1  0.00011810  0.66775285  0.16738046  1
  Te  Te196  1  -0.00540909  0.66576940  0.49566464  1
  Te  Te197  1  -0.00205590  0.66769340  0.83885430  1
  Te  Te198  1  0.33421230  0.00072353  0.17015393  1
  Te  Te199  1  0.32976245  0.00036560  0.50118266  1
  Te  Te200  1  0.33878978  -0.00007789  0.82518376  1
  Te  Te201  1  0.33259347  0.33968448  0.16677476  1
  Te  Te202  1  0.33298439  0.33514396  0.50496863  1
  Te  Te203  1  0.32951643  0.33506535  0.83062020  1
  Te  Te204  1  0.32994559  0.66097832  0.16686723  1
  Te  Te205  1  0.33100774  0.66148011  0.50382125  1
  Te  Te206  1  0.33780034  0.66307406  0.83073662  1
  Te  Te207  1  0.66391581  0.00019547  0.16616266  1
  Te  Te208  1  0.67078088  -0.00385967  0.50439562  1
  Te  Te209  1  0.66518442  0.00346696  0.83156535  1
  Te  Te210  1  0.66702690  0.33313666  0.16689229  1
  Te  Te211  1  0.66752102  0.33274319  0.49744830  1
  Te  Te212  1  0.66705774  0.32472018  0.83437569  1
  Te  Te213  1  0.66679716  0.66813545  0.17109561  1
  Te  Te214  1  0.67330102  0.67235646  0.49454276  1
  Te  Te215  1  0.65944894  0.66497000  0.83082414  1
