# generated using pymatgen
data_AgSbTe2
_symmetry_space_group_name_H-M   'P 1'
_cell_length_a   18.34966441
_cell_length_b   18.34812600
_cell_length_c   18.33972167
_cell_angle_alpha   90.00490258
_cell_angle_beta   89.99825273
_cell_angle_gamma   90.00177195
_symmetry_Int_Tables_number   1
_chemical_formula_structural   AgSbTe2
_chemical_formula_sum   'Ag54 Sb54 Te108'
_cell_volume   6174.65331564
_cell_formula_units_Z   54
loop_
 _symmetry_equiv_pos_site_id
 _symmetry_equiv_pos_as_xyz
  1  'x, y, z'
loop_
 _atom_site_type_symbol
 _atom_site_label
 _atom_site_symmetry_multiplicity
 _atom_site_fract_x
 _atom_site_fract_y
 _atom_site_fract_z
 _atom_site_occupancy
  Ag  Ag0  1  0.66441597  0.49978807  0.16429854  1
  Ag  Ag1  1  0.83544642  0.49393484  0.00315907  1
  Ag  Ag2  1  0.49881295  0.83322535  0.33884551  1
  Ag  Ag3  1  0.50239779  0.66075380  0.16247509  1
  Ag  Ag4  1  0.67051857  0.00544531  -0.00081430  1
  Ag  Ag5  1  0.83424800  0.16766378  0.34482077  1
  Ag  Ag6  1  0.00192613  0.48654993  0.50566668  1
  Ag  Ag7  1  0.83757902  0.84395735  0.66676094  1
  Ag  Ag8  1  0.68048072  0.16305884  0.50084512  1
  Ag  Ag9  1  -0.00188937  0.00439487  -0.00720583  1
  Ag  Ag10  1  0.16098688  0.67391468  0.49506484  1
  Ag  Ag11  1  0.49933738  0.66145341  0.84379016  1
  Ag  Ag12  1  -0.00680778  0.00879614  0.66534010  1
  Ag  Ag13  1  -0.00152224  0.66529900  -0.00320006  1
  Ag  Ag14  1  -0.00129755  0.33293233  0.34846628  1
  Ag  Ag15  1  0.65626970  0.33004795  0.00141920  1
  Ag  Ag16  1  0.00198508  0.32075342  0.66310567  1
  Ag  Ag17  1  0.16497305  0.16848630  -0.00630867  1
  Ag  Ag18  1  0.16332878  0.32830275  0.83267624  1
  Ag  Ag19  1  0.84682982  0.15759479  0.65735600  1
  Ag  Ag20  1  0.00283111  0.17196656  0.82590756  1
  Ag  Ag21  1  0.00033157  0.33091781  -0.00477679  1
  Ag  Ag22  1  0.49504297  0.17692833  -0.00215131  1
  Ag  Ag23  1  0.49093052  0.33260642  0.84561421  1
  Ag  Ag24  1  -0.00817091  0.17280601  0.51415865  1
  Ag  Ag25  1  0.83555187  0.00129158  0.82261851  1
  Ag  Ag26  1  0.50435464  0.48907004  0.00493844  1
  Ag  Ag27  1  0.66835972  -0.00190956  0.34386083  1
  Ag  Ag28  1  0.00034769  0.48989373  0.83267429  1
  Ag  Ag29  1  0.33956395  0.49956649  0.16340663  1
  Ag  Ag30  1  0.15763848  0.17004461  0.67155196  1
  Ag  Ag31  1  0.15883953  0.83999824  0.00253729  1
  Ag  Ag32  1  0.66716530  0.67125065  0.33003286  1
  Ag  Ag33  1  0.50700249  -0.00187724  0.50249205  1
  Ag  Ag34  1  0.15345984  -0.00069778  0.50165828  1
  Ag  Ag35  1  0.31937574  0.33107699  0.67617090  1
  Ag  Ag36  1  0.34467112  0.32919851  -0.00544031  1
  Ag  Ag37  1  0.16241762  0.66525815  0.16932671  1
  Ag  Ag38  1  0.50450857  0.34109961  0.15717983  1
  Ag  Ag39  1  0.83315137  0.33742727  0.15927559  1
  Ag  Ag40  1  0.32513695  0.01023071  -0.00241741  1
  Ag  Ag41  1  0.16631345  0.83011167  0.34326324  1
  Ag  Ag42  1  0.16343294  0.50550963  0.33458769  1
  Ag  Ag43  1  0.32248426  0.17064694  0.83626929  1
  Ag  Ag44  1  -0.00003245  0.66892247  0.66685078  1
  Ag  Ag45  1  0.83568345  0.00869713  0.51145934  1
  Ag  Ag46  1  0.15785114  0.32799873  0.50806928  1
  Ag  Ag47  1  0.00260190  0.83838852  0.50362126  1
  Ag  Ag48  1  0.84683278  0.31962711  0.49718940  1
  Ag  Ag49  1  0.83983669  0.83643666  -0.00179462  1
  Ag  Ag50  1  0.68182141  0.00185341  0.65993046  1
  Ag  Ag51  1  0.50238728  0.83598775  0.66012253  1
  Ag  Ag52  1  0.32101473  0.83633831  0.50096000  1
  Ag  Ag53  1  0.83440357  0.66010436  0.16266524  1
  Sb  Sb54  1  0.32968305  0.66445156  0.00007356  1
  Sb  Sb55  1  0.33252746  0.83893409  0.83052582  1
  Sb  Sb56  1  0.66654472  0.83358422  0.83369201  1
  Sb  Sb57  1  0.49688904  0.67354220  0.49686016  1
  Sb  Sb58  1  0.32518435  0.50196754  0.49590600  1
  Sb  Sb59  1  0.66875110  0.17140624  0.16656480  1
  Sb  Sb60  1  0.83207217  0.67029325  0.83759561  1
  Sb  Sb61  1  0.67008957  0.84207266  0.49977546  1
  Sb  Sb62  1  -0.00068471  0.16905003  0.16437557  1
  Sb  Sb63  1  0.15963535  0.00693428  0.83167654  1
  Sb  Sb64  1  0.32757496  0.33333092  0.33119348  1
  Sb  Sb65  1  0.32897478  0.49142864  0.83912879  1
  Sb  Sb66  1  0.00033451  0.83569030  0.83153451  1
  Sb  Sb67  1  0.50411930  0.00218665  0.83145925  1
  Sb  Sb68  1  -0.00451089  0.00377904  0.34105236  1
  Sb  Sb69  1  0.50023223  0.16354304  0.67103926  1
  Sb  Sb70  1  0.50029113  0.83379930  0.00029615  1
  Sb  Sb71  1  0.16412498  0.33745023  0.16406775  1
  Sb  Sb72  1  0.16551620  0.66167439  0.83384383  1
  Sb  Sb73  1  0.00024757  0.83146207  0.16601554  1
  Sb  Sb74  1  0.50599202  0.16324036  0.32963692  1
  Sb  Sb75  1  0.67259771  0.32633502  0.67101248  1
  Sb  Sb76  1  0.67380243  0.33087901  0.32737173  1
  Sb  Sb77  1  0.33553871  -0.00135537  0.33265012  1
  Sb  Sb78  1  0.16311538  0.49636928  0.00358337  1
  Sb  Sb79  1  0.84037198  0.66770206  0.49639891  1
  Sb  Sb80  1  0.67151772  0.67447016  0.66072496  1
  Sb  Sb81  1  0.33468001  0.17306786  0.15649482  1
  Sb  Sb82  1  0.50213655  -0.00077277  0.16769923  1
  Sb  Sb83  1  -0.00174802  0.49961490  0.16449939  1
  Sb  Sb84  1  0.83903721  0.49580580  0.32833185  1
  Sb  Sb85  1  0.32684651  0.16275981  0.50670130  1
  Sb  Sb86  1  0.67083082  0.16621941  0.83152214  1
  Sb  Sb87  1  0.33294028  0.82833865  0.16882359  1
  Sb  Sb88  1  0.50013982  0.50350509  0.67541882  1
  Sb  Sb89  1  0.49763085  0.50412475  0.32616506  1
  Sb  Sb90  1  0.83843017  0.49761402  0.67122984  1
  Sb  Sb91  1  0.32947846  0.00479900  0.66945968  1
  Sb  Sb92  1  0.83567492  0.83604161  0.33449059  1
  Sb  Sb93  1  0.67368548  0.49305141  0.49265350  1
  Sb  Sb94  1  0.16044096  0.16596854  0.33694492  1
  Sb  Sb95  1  -0.00023012  0.66330227  0.33353087  1
  Sb  Sb96  1  0.33231425  0.66785081  0.33207482  1
  Sb  Sb97  1  0.16194922  0.83914665  0.66449109  1
  Sb  Sb98  1  0.83664737  0.16664368  -0.00245949  1
  Sb  Sb99  1  0.16262440  0.49190079  0.66172234  1
  Sb  Sb100  1  0.84039536  0.32821317  0.83461959  1
  Sb  Sb101  1  0.67110588  0.66500410  0.00469184  1
  Sb  Sb102  1  0.49867037  0.32774206  0.50023101  1
  Sb  Sb103  1  0.67112365  0.49683285  0.84103791  1
  Sb  Sb104  1  0.83260786  0.00123569  0.16549180  1
  Sb  Sb105  1  0.66684338  0.82830088  0.16752406  1
  Sb  Sb106  1  0.32748708  0.66463735  0.66630418  1
  Sb  Sb107  1  0.16633103  -0.00450849  0.16638235  1
  Te  Te108  1  0.16775993  0.16532488  0.16301781  1
  Te  Te109  1  0.16283935  0.16581383  0.50139593  1
  Te  Te110  1  0.16370067  0.16824056  0.83378613  1
  Te  Te111  1  0.16738386  0.50474312  0.17111372  1
  Te  Te112  1  0.16278326  0.49878122  0.49569014  1
  Te  Te113  1  0.16108527  0.49339450  0.83367943  1
  Te  Te114  1  0.16723673  0.82731924  0.16408711  1
  Te  Te115  1  0.16389761  0.83647553  0.50263959  1
  Te  Te116  1  0.16878961  0.83115401  0.84175109  1
  Te  Te117  1  0.50117486  0.17088775  0.15997570  1
  Te  Te118  1  0.49585174  0.16030355  0.49887232  1
  Te  Te119  1  0.50170781  0.16990319  0.83812018  1
  Te  Te120  1  0.50048929  0.50116563  0.16499978  1
  Te  Te121  1  0.49963335  0.50001788  0.49992080  1
  Te  Te122  1  0.50017870  0.49815528  0.84037755  1
  Te  Te123  1  0.49909699  0.82750834  0.17292672  1
  Te  Te124  1  0.50284486  0.83651686  0.49915505  1
  Te  Te125  1  0.49872191  0.82973266  0.82916717  1
  Te  Te126  1  0.83305684  0.17450048  0.16972141  1
  Te  Te127  1  0.83608505  0.16434940  0.50110913  1
  Te  Te128  1  0.83814876  0.16217991  0.82984730  1
  Te  Te129  1  0.83226170  0.49928728  0.16304744  1
  Te  Te130  1  0.84011122  0.49856043  0.50002151  1
  Te  Te131  1  0.83873202  0.50124854  0.84047667  1
  Te  Te132  1  0.83378225  0.82805987  0.16289763  1
  Te  Te133  1  0.83894842  0.83499116  0.50161107  1
  Te  Te134  1  0.83323970  0.83766081  0.83423995  1
  Te  Te135  1  0.16457094  0.00113597  -0.00070375  1
  Te  Te136  1  0.16652666  -0.00470493  0.33722540  1
  Te  Te137  1  0.16326884  0.00605494  0.66284574  1
  Te  Te138  1  0.16035475  0.33113435  -0.00064482  1
  Te  Te139  1  0.16037019  0.33330846  0.33297578  1
  Te  Te140  1  0.16258030  0.33097557  0.66785314  1
  Te  Te141  1  0.16249868  0.66632254  0.00229477  1
  Te  Te142  1  0.16602242  0.66923612  0.33303530  1
  Te  Te143  1  0.16172818  0.66781882  0.66464079  1
  Te  Te144  1  0.50654811  -0.00031129  -0.00057480  1
  Te  Te145  1  0.50452906  -0.00459231  0.33585769  1
  Te  Te146  1  0.49753465  -0.00419924  0.66413901  1
  Te  Te147  1  0.50038061  0.33347972  0.00154238  1
  Te  Te148  1  0.49989945  0.33337030  0.32961449  1
  Te  Te149  1  0.50270347  0.33395804  0.66852239  1
  Te  Te150  1  0.50014079  0.66763129  0.00239027  1
  Te  Te151  1  0.50283504  0.67144008  0.32891164  1
  Te  Te152  1  0.50040696  0.67267151  0.66613081  1
  Te  Te153  1  0.83451428  -0.00069679  0.00302218  1
  Te  Te154  1  0.82838875  0.00289608  0.33229370  1
  Te  Te155  1  0.83682724  -0.00089570  0.66683762  1
  Te  Te156  1  0.83931540  0.33346024  -0.00133368  1
  Te  Te157  1  0.83771558  0.33066082  0.33611950  1
  Te  Te158  1  0.83816831  0.33039191  0.66395892  1
  Te  Te159  1  0.83621297  0.66950847  0.00226424  1
  Te  Te160  1  0.82992800  0.66724913  0.32665524  1
  Te  Te161  1  0.83757251  0.67034261  0.66770286  1
  Te  Te162  1  0.00233519  0.16484038  -0.00122733  1
  Te  Te163  1  -0.00451284  0.17125875  0.33379293  1
  Te  Te164  1  0.00225863  0.16460174  0.66912835  1
  Te  Te165  1  -0.00153992  0.50285939  -0.00170943  1
  Te  Te166  1  0.00406892  0.49602289  0.33875073  1
  Te  Te167  1  -0.00037824  0.50780580  0.66685002  1
  Te  Te168  1  -0.00028560  0.83197954  -0.00042918  1
  Te  Te169  1  0.00423858  0.83489203  0.33714189  1
  Te  Te170  1  -0.00148402  0.83199642  0.66514827  1
  Te  Te171  1  0.33184042  0.16918458  -0.00392490  1
  Te  Te172  1  0.33397258  0.16552434  0.33131442  1
  Te  Te173  1  0.33258918  0.17244478  0.67389159  1
  Te  Te174  1  0.33616131  0.49694796  0.00361381  1
  Te  Te175  1  0.32598460  0.50038553  0.32723621  1
  Te  Te176  1  0.33399585  0.49189211  0.66552779  1
  Te  Te177  1  0.33095439  0.83599634  -0.00070044  1
  Te  Te178  1  0.33163472  0.83445255  0.33850960  1
  Te  Te179  1  0.33551976  0.83323625  0.66272775  1
  Te  Te180  1  0.66650003  0.16820821  -0.00076165  1
  Te  Te181  1  0.67051394  0.16248295  0.33797221  1
  Te  Te182  1  0.66739180  0.16078253  0.66236344  1
  Te  Te183  1  0.66845730  0.49835162  0.00450961  1
  Te  Te184  1  0.66659908  0.50252453  0.32688963  1
  Te  Te185  1  0.66888742  0.50156147  0.66469486  1
  Te  Te186  1  0.67111821  0.83681383  0.00042939  1
  Te  Te187  1  0.66626014  0.83526809  0.33334648  1
  Te  Te188  1  0.66912206  0.84038387  0.66676317  1
  Te  Te189  1  -0.00003481  0.00001318  0.15735768  1
  Te  Te190  1  -0.00349375  0.00114748  0.50063402  1
  Te  Te191  1  -0.00298438  0.00192758  0.83231542  1
  Te  Te192  1  -0.00405767  0.33452200  0.15661574  1
  Te  Te193  1  0.00217993  0.33181477  0.50415652  1
  Te  Te194  1  0.00054392  0.33232092  0.83283823  1
  Te  Te195  1  -0.00031165  0.66577088  0.16299598  1
  Te  Te196  1  0.00308486  0.67433163  0.49997558  1
  Te  Te197  1  0.00033055  0.66444285  0.83502898  1
  Te  Te198  1  0.33489416  -0.00048261  0.15762973  1
  Te  Te199  1  0.33631985  -0.00422476  0.50068026  1
  Te  Te200  1  0.33553379  0.00637208  0.83834797  1
  Te  Te201  1  0.33505380  0.33880160  0.16303712  1
  Te  Te202  1  0.32883202  0.33252178  0.50139922  1
  Te  Te203  1  0.33098002  0.33101498  0.83546064  1
  Te  Te204  1  0.33368604  0.66122262  0.16540110  1
  Te  Te205  1  0.32500387  0.67213500  0.50044625  1
  Te  Te206  1  0.33851566  0.66512489  0.83164940  1
  Te  Te207  1  0.66645889  0.00012006  0.16110794  1
  Te  Te208  1  0.66860702  0.00290733  0.50086741  1
  Te  Te209  1  0.67196052  0.00008349  0.83715910  1
  Te  Te210  1  0.66895673  0.33749696  0.16255037  1
  Te  Te211  1  0.66839820  0.32688854  0.49957548  1
  Te  Te212  1  0.66121266  0.33330394  0.83962055  1
  Te  Te213  1  0.66696187  0.66257330  0.16894973  1
  Te  Te214  1  0.66721921  0.66309541  0.49243812  1
  Te  Te215  1  0.65909410  0.66434924  0.83018104  1
