# generated using pymatgen
data_AgSbTe2
_symmetry_space_group_name_H-M   'P 1'
_cell_length_a   18.34450884
_cell_length_b   18.34466591
_cell_length_c   18.34617163
_cell_angle_alpha   90.00335540
_cell_angle_beta   89.99746916
_cell_angle_gamma   90.00201361
_symmetry_Int_Tables_number   1
_chemical_formula_structural   AgSbTe2
_chemical_formula_sum   'Ag54 Sb54 Te108'
_cell_volume   6173.92494879
_cell_formula_units_Z   54
loop_
 _symmetry_equiv_pos_site_id
 _symmetry_equiv_pos_as_xyz
  1  'x, y, z'
loop_
 _atom_site_type_symbol
 _atom_site_label
 _atom_site_symmetry_multiplicity
 _atom_site_fract_x
 _atom_site_fract_y
 _atom_site_fract_z
 _atom_site_occupancy
  Ag  Ag0  1  0.01325762  -0.00075086  0.00501297  1
  Ag  Ag1  1  0.49037665  0.66628007  0.50142503  1
  Ag  Ag2  1  0.33323807  0.50724140  0.51184411  1
  Ag  Ag3  1  0.49207691  0.82759100  0.67582450  1
  Ag  Ag4  1  0.01430341  0.66322683  0.66813313  1
  Ag  Ag5  1  0.33265447  0.33368644  0.33118327  1
  Ag  Ag6  1  0.83719546  0.34286912  0.83235521  1
  Ag  Ag7  1  0.84406165  0.17042929  0.33068686  1
  Ag  Ag8  1  0.49153785  0.83248903  0.33378918  1
  Ag  Ag9  1  0.48796949  0.50894002  -0.00880640  1
  Ag  Ag10  1  0.01078749  0.15916298  0.16916701  1
  Ag  Ag11  1  0.16417171  0.00915456  0.16505724  1
  Ag  Ag12  1  0.48790659  0.50634115  0.67148083  1
  Ag  Ag13  1  0.49385367  0.50259895  0.33410036  1
  Ag  Ag14  1  0.32595772  0.16294173  0.15845643  1
  Ag  Ag15  1  0.49051854  0.16047779  0.33192477  1
  Ag  Ag16  1  0.32971591  0.33916208  -0.00492936  1
  Ag  Ag17  1  0.16926326  0.32424338  0.15930459  1
  Ag  Ag18  1  0.17130374  0.66692818  0.50827393  1
  Ag  Ag19  1  0.32960670  0.49952029  0.82828043  1
  Ag  Ag20  1  0.00114806  0.00458445  0.32353107  1
  Ag  Ag21  1  0.16588667  0.66567097  0.16759739  1
  Ag  Ag22  1  0.33217816  0.66630012  0.67007972  1
  Ag  Ag23  1  0.00276017  0.16558054  0.48779782  1
  Ag  Ag24  1  0.17196819  0.17507960  0.00842915  1
  Ag  Ag25  1  0.65140826  0.83478778  0.83656951  1
  Ag  Ag26  1  0.33175869  0.35262300  0.67649894  1
  Ag  Ag27  1  0.83447067  0.49469136  0.33488401  1
  Ag  Ag28  1  0.66435837  0.00062047  0.33099553  1
  Ag  Ag29  1  0.16988275  0.49711622  -0.00547898  1
  Ag  Ag30  1  0.33273176  0.82484079  0.51299732  1
  Ag  Ag31  1  0.65422016  0.16210625  0.83507756  1
  Ag  Ag32  1  0.33174407  0.83613527  0.16340400  1
  Ag  Ag33  1  0.49602447  0.82948399  -0.00721950  1
  Ag  Ag34  1  0.83680901  0.50073572  0.67164524  1
  Ag  Ag35  1  0.33413427  0.83411390  0.82982058  1
  Ag  Ag36  1  0.82855163  0.82952447  0.00080518  1
  Ag  Ag37  1  0.17331722  0.83566971  0.32998089  1
  Ag  Ag38  1  0.00408749  0.49982368  0.16154240  1
  Ag  Ag39  1  0.33195268  -0.00605977  -0.00300608  1
  Ag  Ag40  1  0.49426171  -0.00447852  0.83466913  1
  Ag  Ag41  1  0.84168341  0.67068270  0.15918646  1
  Ag  Ag42  1  0.33300552  0.16694476  0.83811448  1
  Ag  Ag43  1  0.83619328  0.33748260  0.50081733  1
  Ag  Ag44  1  0.01299986  0.50130798  0.83578682  1
  Ag  Ag45  1  0.84483090  -0.00460278  0.16586712  1
  Ag  Ag46  1  0.16617268  0.16176546  0.32391546  1
  Ag  Ag47  1  0.65458827  0.66844443  -0.00095874  1
  Ag  Ag48  1  0.17144510  0.50270377  0.67572605  1
  Ag  Ag49  1  0.17551561  0.82189525  0.66344066  1
  Ag  Ag50  1  0.33351305  0.66646245  -0.00499353  1
  Ag  Ag51  1  0.33206005  -0.02092212  0.67866011  1
  Ag  Ag52  1  0.17098583  0.33747837  0.84006438  1
  Ag  Ag53  1  0.83418653  0.66285150  0.83998086  1
  Sb  Sb54  1  0.66637464  0.16291797  0.16492067  1
  Sb  Sb55  1  0.33059924  -0.00069582  0.32903703  1
  Sb  Sb56  1  0.49083187  0.16526073  0.00132038  1
  Sb  Sb57  1  0.16783627  0.49985949  0.33105933  1
  Sb  Sb58  1  0.83931952  0.16350792  0.00320646  1
  Sb  Sb59  1  0.66072023  0.66588796  0.67285897  1
  Sb  Sb60  1  0.83835091  0.50338427  -0.00056038  1
  Sb  Sb61  1  0.00562820  0.66868362  -0.00155065  1
  Sb  Sb62  1  0.84246179  0.33410988  0.16572461  1
  Sb  Sb63  1  0.66831958  0.16676968  0.49971032  1
  Sb  Sb64  1  0.16750171  0.33664423  0.50044582  1
  Sb  Sb65  1  0.49560681  -0.00485321  0.50057386  1
  Sb  Sb66  1  0.32601215  0.50053596  0.16210171  1
  Sb  Sb67  1  0.00808279  0.33199641  0.00025578  1
  Sb  Sb68  1  0.00670665  0.17092136  0.83672466  1
  Sb  Sb69  1  0.66083165  0.50068306  0.49975970  1
  Sb  Sb70  1  0.17553345  0.83156242  0.00151438  1
  Sb  Sb71  1  0.33041467  0.16594003  0.49736823  1
  Sb  Sb72  1  0.83278204  0.82728027  0.67268921  1
  Sb  Sb73  1  0.83599568  0.66151634  0.50081866  1
  Sb  Sb74  1  0.66295611  0.50307996  0.83475030  1
  Sb  Sb75  1  0.00470544  0.33881935  0.66768306  1
  Sb  Sb76  1  0.65799627  0.83220555  0.50219568  1
  Sb  Sb77  1  0.83499914  0.00301792  0.49368358  1
  Sb  Sb78  1  0.00549752  0.32934617  0.33372014  1
  Sb  Sb79  1  0.17058178  0.16854758  0.66628491  1
  Sb  Sb80  1  0.83359939  0.83566576  0.32628730  1
  Sb  Sb81  1  0.49352009  -0.00159978  0.16472262  1
  Sb  Sb82  1  0.83415762  0.17280923  0.66390406  1
  Sb  Sb83  1  0.00155110  0.66816487  0.33408864  1
  Sb  Sb84  1  0.66343677  0.33060913  0.33259472  1
  Sb  Sb85  1  0.00396495  0.49775453  0.50133927  1
  Sb  Sb86  1  0.49746356  0.67100867  0.83320333  1
  Sb  Sb87  1  0.66262517  -0.00120522  0.66660193  1
  Sb  Sb88  1  0.00721483  -0.00508414  0.66857531  1
  Sb  Sb89  1  0.66218162  -0.00393570  0.00286091  1
  Sb  Sb90  1  0.67118605  0.50228364  0.16559146  1
  Sb  Sb91  1  0.00746258  0.83621765  0.16480032  1
  Sb  Sb92  1  0.66206342  0.83303597  0.16293698  1
  Sb  Sb93  1  0.16965681  -0.00441227  0.49374164  1
  Sb  Sb94  1  0.00671284  0.83578754  0.49876017  1
  Sb  Sb95  1  0.49245645  0.33250764  0.83299488  1
  Sb  Sb96  1  0.48877172  0.33457136  0.16691083  1
  Sb  Sb97  1  0.17449571  0.00394627  0.83890186  1
  Sb  Sb98  1  0.83026444  -0.00242977  0.83779411  1
  Sb  Sb99  1  0.66231306  0.33456377  0.66905062  1
  Sb  Sb100  1  0.49837058  0.33874593  0.49979331  1
  Sb  Sb101  1  0.65941153  0.33746061  -0.00335819  1
  Sb  Sb102  1  0.16871585  0.66219809  0.83297052  1
  Sb  Sb103  1  0.49505106  0.16571317  0.66603553  1
  Sb  Sb104  1  0.66532463  0.66925842  0.32767125  1
  Sb  Sb105  1  0.33137264  0.66699761  0.33497251  1
  Sb  Sb106  1  0.00597045  0.82846257  0.83538985  1
  Sb  Sb107  1  0.49412990  0.66582397  0.16587725  1
  Te  Te108  1  0.16783236  0.16665502  0.16635168  1
  Te  Te109  1  0.16137198  0.16658884  0.49771124  1
  Te  Te110  1  0.17255419  0.17373290  0.83580548  1
  Te  Te111  1  0.16136779  0.50634587  0.16774308  1
  Te  Te112  1  0.17158750  0.50383427  0.49972666  1
  Te  Te113  1  0.16777537  0.49839256  0.83340942  1
  Te  Te114  1  0.17113934  0.82729685  0.16690306  1
  Te  Te115  1  0.17115567  0.82926981  0.49924552  1
  Te  Te116  1  0.17381034  0.83659938  0.82838315  1
  Te  Te117  1  0.49782208  0.16627939  0.17261761  1
  Te  Te118  1  0.50040857  0.16691961  0.49252389  1
  Te  Te119  1  0.49579807  0.16240154  0.83287664  1
  Te  Te120  1  0.50424930  0.50076724  0.17410648  1
  Te  Te121  1  0.49513991  0.50392953  0.49821175  1
  Te  Te122  1  0.49540154  0.49832885  0.83230949  1
  Te  Te123  1  0.49451559  0.83263122  0.17205391  1
  Te  Te124  1  0.49457766  0.82842288  0.49469618  1
  Te  Te125  1  0.49606164  0.83323606  0.83403376  1
  Te  Te126  1  0.83397444  0.16503282  0.17059909  1
  Te  Te127  1  0.83618536  0.17005575  0.49537661  1
  Te  Te128  1  0.83672180  0.16747124  0.83302227  1
  Te  Te129  1  0.84038007  0.50290090  0.16812049  1
  Te  Te130  1  0.83393743  0.49768364  0.49569127  1
  Te  Te131  1  0.82778627  0.50109205  0.83369905  1
  Te  Te132  1  0.83189039  0.83261899  0.16267407  1
  Te  Te133  1  0.83122322  0.83205604  0.50150308  1
  Te  Te134  1  0.83791084  0.83002188  0.83805779  1
  Te  Te135  1  0.17014333  -0.00257655  0.00444986  1
  Te  Te136  1  0.16437459  -0.00073129  0.32815680  1
  Te  Te137  1  0.17139710  -0.00091016  0.66635788  1
  Te  Te138  1  0.16950649  0.33439953  -0.00064383  1
  Te  Te139  1  0.17228776  0.33047544  0.33390554  1
  Te  Te140  1  0.17248707  0.33803636  0.66818548  1
  Te  Te141  1  0.17188086  0.66184684  0.00270243  1
  Te  Te142  1  0.16497918  0.67181296  0.32987326  1
  Te  Te143  1  0.16967312  0.66488736  0.66928528  1
  Te  Te144  1  0.49517146  -0.00405952  -0.00293424  1
  Te  Te145  1  0.50130165  -0.00082922  0.33282434  1
  Te  Te146  1  0.49525903  -0.00320059  0.66954078  1
  Te  Te147  1  0.49168211  0.33947666  0.00054218  1
  Te  Te148  1  0.49677113  0.33691053  0.33377570  1
  Te  Te149  1  0.49392433  0.34081022  0.66560239  1
  Te  Te150  1  0.49706678  0.66737699  0.00192921  1
  Te  Te151  1  0.50265711  0.66743039  0.33462708  1
  Te  Te152  1  0.49791513  0.66631595  0.66456959  1
  Te  Te153  1  0.82941384  -0.00272736  0.00423688  1
  Te  Te154  1  0.83931661  0.00250052  0.32945021  1
  Te  Te155  1  0.83460844  -0.00125100  0.66597409  1
  Te  Te156  1  0.83023755  0.33315315  -0.00565005  1
  Te  Te157  1  0.83109523  0.33299300  0.33276852  1
  Te  Te158  1  0.83305787  0.33834026  0.66890112  1
  Te  Te159  1  0.84074617  0.66768007  -0.00015750  1
  Te  Te160  1  0.83333184  0.66271442  0.33107048  1
  Te  Te161  1  0.82790222  0.66228402  0.66806950  1
  Te  Te162  1  0.00717868  0.16187480  0.00480934  1
  Te  Te163  1  0.00220916  0.16707731  0.33033642  1
  Te  Te164  1  0.00077347  0.16463355  0.66589926  1
  Te  Te165  1  0.00610116  0.50038521  -0.00166108  1
  Te  Te166  1  -0.00425415  0.50040940  0.33131225  1
  Te  Te167  1  -0.00315789  0.50389425  0.66759545  1
  Te  Te168  1  -0.00760800  0.83891723  -0.00070633  1
  Te  Te169  1  0.00396205  0.83990029  0.33379439  1
  Te  Te170  1  0.00294038  0.82634184  0.66653987  1
  Te  Te171  1  0.33259634  0.16701872  -0.00018417  1
  Te  Te172  1  0.33148577  0.16598259  0.33378007  1
  Te  Te173  1  0.33424127  0.17036568  0.66991757  1
  Te  Te174  1  0.33109523  0.50058660  0.00297716  1
  Te  Te175  1  0.33525894  0.49703725  0.32902215  1
  Te  Te176  1  0.33252780  0.50736977  0.66701316  1
  Te  Te177  1  0.33461437  0.83204803  0.00030038  1
  Te  Te178  1  0.33197171  0.83422402  0.32539698  1
  Te  Te179  1  0.33429819  0.82482329  0.66787875  1
  Te  Te180  1  0.66423725  0.16902996  -0.00542220  1
  Te  Te181  1  0.66413816  0.16251345  0.33396996  1
  Te  Te182  1  0.66586949  0.16613123  0.67428051  1
  Te  Te183  1  0.65666789  0.50683930  0.00028877  1
  Te  Te184  1  0.66834580  0.49990942  0.33330162  1
  Te  Te185  1  0.67419351  0.49873910  0.66691904  1
  Te  Te186  1  0.66394443  0.82984728  -0.00311876  1
  Te  Te187  1  0.66422528  0.83827273  0.33446488  1
  Te  Te188  1  0.66119978  0.83440661  0.67361249  1
  Te  Te189  1  0.00211585  -0.00072913  0.16426586  1
  Te  Te190  1  0.00118198  0.00586261  0.50101004  1
  Te  Te191  1  -0.00065039  -0.00003524  0.83858010  1
  Te  Te192  1  0.00800919  0.33721628  0.16710266  1
  Te  Te193  1  -0.00458268  0.32879404  0.50143649  1
  Te  Te194  1  -0.00094664  0.33918471  0.83341246  1
  Te  Te195  1  0.00123472  0.66469794  0.16661323  1
  Te  Te196  1  0.00593850  0.66683800  0.50536729  1
  Te  Te197  1  -0.00479291  0.66212820  0.82971956  1
  Te  Te198  1  0.32929935  0.00131778  0.16335401  1
  Te  Te199  1  0.33335890  -0.00275202  0.50918065  1
  Te  Te200  1  0.33439427  0.00051496  0.83527638  1
  Te  Te201  1  0.32716740  0.32997953  0.16846549  1
  Te  Te202  1  0.33434607  0.33484310  0.49687632  1
  Te  Te203  1  0.33219008  0.33680046  0.83467937  1
  Te  Te204  1  0.32961217  0.67066890  0.16213383  1
  Te  Te205  1  0.33218710  0.66681473  0.49657868  1
  Te  Te206  1  0.33416433  0.66278790  0.83503784  1
  Te  Te207  1  0.67266221  -0.00057975  0.17145589  1
  Te  Te208  1  0.66672717  0.00029766  0.49340466  1
  Te  Te209  1  0.66135539  -0.00056055  0.83337257  1
  Te  Te210  1  0.66722642  0.33246670  0.16526085  1
  Te  Te211  1  0.67569180  0.33267251  0.50024132  1
  Te  Te212  1  0.67211218  0.32696146  0.83385234  1
  Te  Te213  1  0.67588236  0.66768043  0.15906405  1
  Te  Te214  1  0.66207684  0.66726066  0.49797778  1
  Te  Te215  1  0.67153316  0.67073874  0.83899482  1
