# generated using pymatgen
data_AgSbTe2
_symmetry_space_group_name_H-M   'P 1'
_cell_length_a   18.34889261
_cell_length_b   18.34601897
_cell_length_c   18.34797932
_cell_angle_alpha   90.00029952
_cell_angle_beta   89.99536237
_cell_angle_gamma   89.99938999
_symmetry_Int_Tables_number   1
_chemical_formula_structural   AgSbTe2
_chemical_formula_sum   'Ag54 Sb54 Te108'
_cell_volume   6176.46432933
_cell_formula_units_Z   54
loop_
 _symmetry_equiv_pos_site_id
 _symmetry_equiv_pos_as_xyz
  1  'x, y, z'
loop_
 _atom_site_type_symbol
 _atom_site_label
 _atom_site_symmetry_multiplicity
 _atom_site_fract_x
 _atom_site_fract_y
 _atom_site_fract_z
 _atom_site_occupancy
  Ag  Ag0  1  0.49495368  0.33733835  0.49841574  1
  Ag  Ag1  1  0.65737468  0.82878803  0.50123605  1
  Ag  Ag2  1  0.82770783  0.17577374  0.00363020  1
  Ag  Ag3  1  0.48945827  0.65447901  0.16861397  1
  Ag  Ag4  1  0.49471782  0.49419769  0.00873903  1
  Ag  Ag5  1  0.49896745  0.00584273  0.50190348  1
  Ag  Ag6  1  0.17442720  0.49943334  0.01044239  1
  Ag  Ag7  1  0.66106728  0.17973998  0.49750819  1
  Ag  Ag8  1  0.49821326  0.17537831  -0.00381866  1
  Ag  Ag9  1  0.65263115  0.49878221  0.49585865  1
  Ag  Ag10  1  0.32563743  0.49608046  0.17980766  1
  Ag  Ag11  1  0.49690424  0.33522234  0.83506139  1
  Ag  Ag12  1  0.17708709  0.49891887  0.32600482  1
  Ag  Ag13  1  0.83536843  0.49475542  0.00061473  1
  Ag  Ag14  1  0.49701453  0.17705216  0.66614227  1
  Ag  Ag15  1  0.00873466  0.83286490  0.82574701  1
  Ag  Ag16  1  0.33104740  0.65762299  0.33132671  1
  Ag  Ag17  1  0.16702735  -0.01241836  0.83257473  1
  Ag  Ag18  1  0.17715064  0.34409099  0.17529710  1
  Ag  Ag19  1  0.00902861  0.33332962  0.66470022  1
  Ag  Ag20  1  0.49095805  0.49846774  0.33219178  1
  Ag  Ag21  1  0.33437812  0.82186489  0.17165782  1
  Ag  Ag22  1  0.00881210  0.82747430  0.50613541  1
  Ag  Ag23  1  0.82535823  0.33586682  0.84192965  1
  Ag  Ag24  1  0.49606954  0.83303544  -0.00710496  1
  Ag  Ag25  1  0.16739081  0.66856559  0.83219939  1
  Ag  Ag26  1  0.33417585  0.33467866  0.66278015  1
  Ag  Ag27  1  0.83474889  0.17246806  0.32769257  1
  Ag  Ag28  1  0.01325254  0.50345790  0.49506799  1
  Ag  Ag29  1  0.33227841  0.83300164  0.82987751  1
  Ag  Ag30  1  0.01128139  0.49883412  0.17498612  1
  Ag  Ag31  1  0.17183802  0.65852547  0.17470077  1
  Ag  Ag32  1  0.00186148  -0.00171031  -0.00689545  1
  Ag  Ag33  1  0.33550903  0.82575506  0.50108855  1
  Ag  Ag34  1  0.33337143  0.18028442  0.16504610  1
  Ag  Ag35  1  0.33868285  0.33384933  0.01117266  1
  Ag  Ag36  1  0.33631679  0.34171146  0.32827954  1
  Ag  Ag37  1  0.00410387  -0.00280271  0.66855545  1
  Ag  Ag38  1  0.49152363  0.33675108  0.16717182  1
  Ag  Ag39  1  0.16700043  0.65935944  0.49371574  1
  Ag  Ag40  1  0.83230995  0.82781388  0.33397203  1
  Ag  Ag41  1  0.49729434  0.49234054  0.65323168  1
  Ag  Ag42  1  0.00892056  0.66351959  0.33468815  1
  Ag  Ag43  1  0.65434773  0.34080049  0.33569562  1
  Ag  Ag44  1  0.33113370  0.49866199  0.49438147  1
  Ag  Ag45  1  0.17286630  0.83156619  0.66872194  1
  Ag  Ag46  1  0.66372421  0.65738581  0.33573957  1
  Ag  Ag47  1  0.65649056  0.82995008  0.82509963  1
  Ag  Ag48  1  0.17793870  0.34292371  0.49209207  1
  Ag  Ag49  1  0.33568420  0.17722510  0.83840963  1
  Ag  Ag50  1  0.49147215  0.83203468  0.66677296  1
  Ag  Ag51  1  0.83432226  0.33662013  0.16466314  1
  Ag  Ag52  1  0.84124362  0.66626364  0.83607173  1
  Ag  Ag53  1  0.17134274  0.18076385  0.33356589  1
  Sb  Sb54  1  0.17275118  0.82873780  -0.00476876  1
  Sb  Sb55  1  0.33345853  0.66020324  0.00710514  1
  Sb  Sb56  1  0.65929842  0.33352049  0.66175956  1
  Sb  Sb57  1  0.83139372  0.83186737  0.00032841  1
  Sb  Sb58  1  0.83553751  0.00549584  0.16663249  1
  Sb  Sb59  1  0.00419945  0.17392450  0.16673663  1
  Sb  Sb60  1  0.65835161  0.49865230  0.17252831  1
  Sb  Sb61  1  0.00463110  0.82608980  0.16730945  1
  Sb  Sb62  1  0.66169760  0.82924696  0.16927448  1
  Sb  Sb63  1  0.83425507  0.49813013  0.32946017  1
  Sb  Sb64  1  0.17068419  -0.00214806  0.50223366  1
  Sb  Sb65  1  0.00059475  0.33430772  -0.00192196  1
  Sb  Sb66  1  0.00314796  0.66597256  0.66315143  1
  Sb  Sb67  1  0.66449145  0.66520587  0.00258509  1
  Sb  Sb68  1  0.00292511  0.66691513  0.00117968  1
  Sb  Sb69  1  0.33487251  0.50019403  0.83434414  1
  Sb  Sb70  1  0.00386144  0.16498809  0.83409340  1
  Sb  Sb71  1  0.33333919  0.00211020  0.33489899  1
  Sb  Sb72  1  0.50026536  0.82566261  0.33524552  1
  Sb  Sb73  1  0.83712925  0.66703901  0.49964999  1
  Sb  Sb74  1  0.66279674  0.17169954  0.17057615  1
  Sb  Sb75  1  0.66666438  -0.00060143  0.66507374  1
  Sb  Sb76  1  0.33093893  0.00417231  -0.00228572  1
  Sb  Sb77  1  0.83549472  0.66109491  0.16529553  1
  Sb  Sb78  1  0.49737240  0.00411394  0.16955399  1
  Sb  Sb79  1  -0.00038450  0.50189333  0.83165868  1
  Sb  Sb80  1  -0.00133814  0.16735810  0.49886094  1
  Sb  Sb81  1  0.17073380  0.50198066  0.66256258  1
  Sb  Sb82  1  0.49464018  0.00088139  0.82874791  1
  Sb  Sb83  1  0.33320649  -0.00043001  0.66639726  1
  Sb  Sb84  1  0.17206990  0.33767249  0.83355589  1
  Sb  Sb85  1  0.16669073  0.82528643  0.33842206  1
  Sb  Sb86  1  0.83061016  0.17015157  0.66713444  1
  Sb  Sb87  1  0.00501452  0.33858704  0.33663722  1
  Sb  Sb88  1  0.83219082  0.33482396  0.49799824  1
  Sb  Sb89  1  0.66531752  0.00104675  0.33669552  1
  Sb  Sb90  1  0.66489376  0.66710014  0.66126523  1
  Sb  Sb91  1  0.83091899  -0.00269849  0.49964717  1
  Sb  Sb92  1  0.66682447  -0.00052723  -0.00306468  1
  Sb  Sb93  1  0.66078683  0.33484499  0.00381357  1
  Sb  Sb94  1  0.33688134  0.17434826  0.49900600  1
  Sb  Sb95  1  0.66452106  0.50265471  0.82984003  1
  Sb  Sb96  1  0.83163620  0.49825614  0.66794992  1
  Sb  Sb97  1  0.00149452  -0.00557064  0.33559848  1
  Sb  Sb98  1  0.83929993  -0.00004967  0.83383274  1
  Sb  Sb99  1  0.49828233  0.17681817  0.33462204  1
  Sb  Sb100  1  0.16783723  0.00117141  0.16272420  1
  Sb  Sb101  1  0.49405978  0.65982187  0.49434472  1
  Sb  Sb102  1  0.17163402  0.16621327  0.66418544  1
  Sb  Sb103  1  0.33345097  0.66553078  0.66184105  1
  Sb  Sb104  1  0.16933756  0.17188847  0.00264178  1
  Sb  Sb105  1  0.49687572  0.66551165  0.83866369  1
  Sb  Sb106  1  0.66135891  0.16684366  0.83044454  1
  Sb  Sb107  1  0.83448321  0.83232354  0.66493345  1
  Te  Te108  1  0.17175275  0.16902866  0.17058653  1
  Te  Te109  1  0.16591272  0.16828525  0.49540024  1
  Te  Te110  1  0.17494577  0.16850555  0.83321528  1
  Te  Te111  1  0.16641050  0.50106369  0.16607340  1
  Te  Te112  1  0.16921410  0.49932595  0.50188413  1
  Te  Te113  1  0.16532908  0.50697150  0.83313605  1
  Te  Te114  1  0.17260745  0.83144525  0.16758493  1
  Te  Te115  1  0.16728138  0.83340136  0.50367490  1
  Te  Te116  1  0.16738043  0.83120505  0.83352912  1
  Te  Te117  1  0.49478340  0.17100956  0.16271336  1
  Te  Te118  1  0.50099586  0.17045945  0.50115480  1
  Te  Te119  1  0.49741515  0.16767981  0.83321480  1
  Te  Te120  1  0.49766921  0.49728737  0.16821411  1
  Te  Te121  1  0.49551971  0.49892264  0.49634731  1
  Te  Te122  1  0.50182904  0.49674482  0.83798210  1
  Te  Te123  1  0.49403168  0.83645176  0.16687531  1
  Te  Te124  1  0.49740484  0.82597121  0.50178577  1
  Te  Te125  1  0.49772410  0.83335010  0.83242019  1
  Te  Te126  1  0.83364346  0.17269696  0.16552364  1
  Te  Te127  1  0.82677928  0.16560884  0.49833256  1
  Te  Te128  1  0.83212745  0.17042131  0.83710175  1
  Te  Te129  1  0.82936536  0.49749947  0.16097936  1
  Te  Te130  1  0.83619614  0.50107024  0.50160708  1
  Te  Te131  1  0.83183441  0.49850977  0.83630841  1
  Te  Te132  1  0.83358243  0.83326229  0.17263760  1
  Te  Te133  1  0.83339617  0.83267617  0.49633315  1
  Te  Te134  1  0.83526582  0.83052390  0.83596486  1
  Te  Te135  1  0.16190391  0.00269094  -0.00507658  1
  Te  Te136  1  0.16517092  0.00905643  0.33176856  1
  Te  Te137  1  0.16337938  -0.00219717  0.66961169  1
  Te  Te138  1  0.16874355  0.33875570  0.00230074  1
  Te  Te139  1  0.16546912  0.33764192  0.33433668  1
  Te  Te140  1  0.16979724  0.33361144  0.66381602  1
  Te  Te141  1  0.16668945  0.66077242  -0.00073242  1
  Te  Te142  1  0.16849012  0.66422952  0.33479768  1
  Te  Te143  1  0.16689820  0.67190356  0.66930227  1
  Te  Te144  1  0.50052934  -0.00192993  0.00087937  1
  Te  Te145  1  0.49992661  0.00033872  0.34156929  1
  Te  Te146  1  0.50097614  -0.00711340  0.66132449  1
  Te  Te147  1  0.50001504  0.33306271  -0.00012662  1
  Te  Te148  1  0.49802027  0.33590744  0.33230407  1
  Te  Te149  1  0.49854758  0.33536038  0.66545998  1
  Te  Te150  1  0.50014094  0.66923441  0.00741291  1
  Te  Te151  1  0.49991552  0.66261474  0.32869704  1
  Te  Te152  1  0.50014742  0.67168295  0.66967214  1
  Te  Te153  1  0.83786629  0.00335861  0.00078092  1
  Te  Te154  1  0.83369068  0.00089662  0.33241553  1
  Te  Te155  1  0.84240066  0.00151136  0.66743393  1
  Te  Te156  1  0.83383417  0.33363572  -0.00118866  1
  Te  Te157  1  0.83755038  0.33066883  0.33036348  1
  Te  Te158  1  0.83624950  0.33262450  0.67147689  1
  Te  Te159  1  0.83241513  0.66370408  -0.00392309  1
  Te  Te160  1  0.82948267  0.67003702  0.33228894  1
  Te  Te161  1  0.83227587  0.66607025  0.67837898  1
  Te  Te162  1  -0.00247571  0.16294941  0.00072643  1
  Te  Te163  1  -0.00432841  0.16345885  0.33279863  1
  Te  Te164  1  0.00046642  0.16927472  0.66594289  1
  Te  Te165  1  -0.00177269  0.49989933  -0.00012954  1
  Te  Te166  1  -0.00039160  0.50409823  0.33495576  1
  Te  Te167  1  -0.00097455  0.49419140  0.66150205  1
  Te  Te168  1  0.00043064  0.83719340  -0.00187491  1
  Te  Te169  1  -0.00163900  0.82719525  0.33510133  1
  Te  Te170  1  0.00006889  0.83253716  0.66649917  1
  Te  Te171  1  0.33589530  0.17070981  -0.00037911  1
  Te  Te172  1  0.32966683  0.16868125  0.32967294  1
  Te  Te173  1  0.33872802  0.16830394  0.66784639  1
  Te  Te174  1  0.33442544  0.49357900  -0.00094391  1
  Te  Te175  1  0.33386509  0.50044824  0.33610336  1
  Te  Te176  1  0.33929481  0.49754779  0.66574775  1
  Te  Te177  1  0.33756248  0.83492335  -0.00360433  1
  Te  Te178  1  0.33283983  0.83326357  0.33421131  1
  Te  Te179  1  0.33112636  0.83309114  0.66545615  1
  Te  Te180  1  0.66559308  0.16627048  -0.00036511  1
  Te  Te181  1  0.66964132  0.16842414  0.33792766  1
  Te  Te182  1  0.65912474  0.16536700  0.66068504  1
  Te  Te183  1  0.66541280  0.50009929  -0.00167223  1
  Te  Te184  1  0.66886875  0.49866349  0.33796767  1
  Te  Te185  1  0.65973472  0.50046542  0.65927174  1
  Te  Te186  1  0.66019097  0.83324106  -0.00171417  1
  Te  Te187  1  0.66963649  0.83355017  0.33660153  1
  Te  Te188  1  0.66694864  0.83346700  0.66580637  1
  Te  Te189  1  0.00047551  -0.00067048  0.16295448  1
  Te  Te190  1  0.00051391  -0.00446758  0.50447436  1
  Te  Te191  1  0.00464432  -0.00172460  0.83176121  1
  Te  Te192  1  -0.00287650  0.34002130  0.16559697  1
  Te  Te193  1  -0.00019839  0.33444395  0.50457264  1
  Te  Te194  1  0.00060491  0.33273137  0.82728700  1
  Te  Te195  1  0.00427592  0.65930918  0.17050479  1
  Te  Te196  1  0.00309312  0.66646026  0.49739922  1
  Te  Te197  1  0.00083214  0.67143850  0.83341027  1
  Te  Te198  1  0.33312257  -0.00710814  0.16648092  1
  Te  Te199  1  0.33886456  -0.00964706  0.50080524  1
  Te  Te200  1  0.32752511  -0.00508503  0.83231738  1
  Te  Te201  1  0.33397393  0.33554231  0.16689488  1
  Te  Te202  1  0.33422082  0.33354712  0.50092277  1
  Te  Te203  1  0.33769083  0.33345703  0.82628185  1
  Te  Te204  1  0.33270566  0.66366249  0.16805141  1
  Te  Te205  1  0.32768080  0.66477330  0.49682102  1
  Te  Te206  1  0.32871610  0.67187249  0.83446381  1
  Te  Te207  1  0.66707938  0.00015857  0.16601409  1
  Te  Te208  1  0.66074877  -0.01051610  0.50142934  1
  Te  Te209  1  0.66718319  -0.00818210  0.83243182  1
  Te  Te210  1  0.67302629  0.33252386  0.17430819  1
  Te  Te211  1  0.66555512  0.33691134  0.49611201  1
  Te  Te212  1  0.66510519  0.33263878  0.83205656  1
  Te  Te213  1  0.66485947  0.66654364  0.17445110  1
  Te  Te214  1  0.66988293  0.66641430  0.49440672  1
  Te  Te215  1  0.66582849  0.67164121  0.83356470  1
