# generated using pymatgen
data_AgSbTe2
_symmetry_space_group_name_H-M   'P 1'
_cell_length_a   18.32759982
_cell_length_b   18.32457719
_cell_length_c   18.32218644
_cell_angle_alpha   89.99723578
_cell_angle_beta   90.00143755
_cell_angle_gamma   89.99672289
_symmetry_Int_Tables_number   1
_chemical_formula_structural   AgSbTe2
_chemical_formula_sum   'Ag54 Sb54 Te108'
_cell_volume   6153.42416879
_cell_formula_units_Z   54
loop_
 _symmetry_equiv_pos_site_id
 _symmetry_equiv_pos_as_xyz
  1  'x, y, z'
loop_
 _atom_site_type_symbol
 _atom_site_label
 _atom_site_symmetry_multiplicity
 _atom_site_fract_x
 _atom_site_fract_y
 _atom_site_fract_z
 _atom_site_occupancy
  Ag  Ag0  1  0.50308179  0.83097247  0.67071810  1
  Ag  Ag1  1  0.16210584  0.66837682  0.82712480  1
  Ag  Ag2  1  0.66287615  0.34283025  0.66149051  1
  Ag  Ag3  1  0.17468066  -0.01123377  0.49885808  1
  Ag  Ag4  1  -0.00240542  -0.00419388  -0.00777605  1
  Ag  Ag5  1  0.33305228  0.83102487  0.82820460  1
  Ag  Ag6  1  0.66957974  0.17917116  0.16347398  1
  Ag  Ag7  1  0.66647233  0.49874737  0.15808843  1
  Ag  Ag8  1  0.66308036  0.33459595  0.33600445  1
  Ag  Ag9  1  0.66795770  -0.01354172  0.00025748  1
  Ag  Ag10  1  0.50777639  0.50700375  -0.00868939  1
  Ag  Ag11  1  0.33133128  -0.00116776  0.33761040  1
  Ag  Ag12  1  0.16633287  0.67369800  0.15978545  1
  Ag  Ag13  1  0.17417424  0.50632027  0.66743300  1
  Ag  Ag14  1  0.33659400  0.67035441  -0.01147053  1
  Ag  Ag15  1  0.82295128  0.34098825  0.50377640  1
  Ag  Ag16  1  0.83303359  0.83212850  0.33692260  1
  Ag  Ag17  1  0.82769061  0.82158572  0.66899389  1
  Ag  Ag18  1  -0.00803797  0.51390158  0.83002516  1
  Ag  Ag19  1  0.50694492  0.82976753  -0.00768355  1
  Ag  Ag20  1  0.50311635  0.16887601  0.66800506  1
  Ag  Ag21  1  0.50321994  0.33215086  0.50516871  1
  Ag  Ag22  1  0.33513311  0.50662601  0.50720279  1
  Ag  Ag23  1  0.16595341  -0.00779700  0.16883750  1
  Ag  Ag24  1  0.82206987  0.33469497  0.16989548  1
  Ag  Ag25  1  -0.00946148  0.66971548  0.67126674  1
  Ag  Ag26  1  0.82513555  0.50906226  -0.01104922  1
  Ag  Ag27  1  0.00205805  0.83117553  0.83250523  1
  Ag  Ag28  1  0.33217337  0.66476582  0.66903519  1
  Ag  Ag29  1  0.33485662  0.82971187  0.50664624  1
  Ag  Ag30  1  0.34020492  0.33086175  0.33969584  1
  Ag  Ag31  1  -0.00291690  0.16604203  0.15984547  1
  Ag  Ag32  1  0.33266334  0.15978802  0.83030634  1
  Ag  Ag33  1  0.66376483  0.83124201  0.50316774  1
  Ag  Ag34  1  0.83678930  0.66642617  0.82775303  1
  Ag  Ag35  1  0.50263815  0.50073491  0.67084817  1
  Ag  Ag36  1  0.16726760  0.83070276  0.00090792  1
  Ag  Ag37  1  0.49563083  -0.00408825  0.50924399  1
  Ag  Ag38  1  0.82915218  0.17050179  0.66816832  1
  Ag  Ag39  1  -0.00015235  -0.00892302  0.67387584  1
  Ag  Ag40  1  0.50735190  0.33449834  0.17118321  1
  Ag  Ag41  1  0.16814894  0.67116073  0.51156140  1
  Ag  Ag42  1  0.49979599  -0.00315871  0.82787822  1
  Ag  Ag43  1  0.66624025  0.66851115  -0.00588134  1
  Ag  Ag44  1  0.00061198  0.15958095  0.83322157  1
  Ag  Ag45  1  0.34327273  0.34323497  0.66162694  1
  Ag  Ag46  1  0.16834263  0.33371285  0.16819055  1
  Ag  Ag47  1  0.16561000  0.83393554  0.33193678  1
  Ag  Ag48  1  0.83443214  0.66666684  0.51313135  1
  Ag  Ag49  1  0.66778295  0.83095820  0.15683595  1
  Ag  Ag50  1  0.67631760  0.66262534  0.67285748  1
  Ag  Ag51  1  0.82764635  0.50756380  0.67120950  1
  Ag  Ag52  1  0.66938547  0.50224497  0.83399353  1
  Ag  Ag53  1  0.82507817  0.82770534  -0.00409780  1
  Sb  Sb54  1  0.83343663  0.34122007  0.83107052  1
  Sb  Sb55  1  0.16765165  0.50880868  -0.00374899  1
  Sb  Sb56  1  0.49914659  0.33225606  0.82687525  1
  Sb  Sb57  1  0.66663115  0.34063296  0.00084306  1
  Sb  Sb58  1  0.33066988  0.66823839  0.33786815  1
  Sb  Sb59  1  0.83204849  0.16453010  0.33541047  1
  Sb  Sb60  1  0.00037505  0.66957357  0.34019243  1
  Sb  Sb61  1  0.66572555  0.16629490  0.50011511  1
  Sb  Sb62  1  0.66354932  0.50235160  0.50652204  1
  Sb  Sb63  1  0.00473235  -0.00266658  0.33329649  1
  Sb  Sb64  1  0.83117799  -0.00623706  0.50427900  1
  Sb  Sb65  1  0.16785735  0.33963805  0.83468323  1
  Sb  Sb66  1  0.33672777  0.49997610  0.16890833  1
  Sb  Sb67  1  0.17143718  0.33595601  0.49863085  1
  Sb  Sb68  1  0.83033531  0.50265863  0.33708009  1
  Sb  Sb69  1  0.16831103  0.82516688  0.66744953  1
  Sb  Sb70  1  0.66592370  0.82691485  0.83325975  1
  Sb  Sb71  1  -0.00422803  0.33662652  0.66794783  1
  Sb  Sb72  1  0.83600583  0.00130820  0.16497714  1
  Sb  Sb73  1  0.66237498  0.00046517  0.32996480  1
  Sb  Sb74  1  -0.00084976  0.33279366  0.33097441  1
  Sb  Sb75  1  -0.00180418  0.16488459  0.50435279  1
  Sb  Sb76  1  0.16645371  -0.00810063  0.83179609  1
  Sb  Sb77  1  0.33259897  -0.00442446  0.66409999  1
  Sb  Sb78  1  0.49927935  0.83478469  0.33674829  1
  Sb  Sb79  1  0.00143378  0.83321696  0.50998021  1
  Sb  Sb80  1  0.83255637  0.16651531  -0.00345051  1
  Sb  Sb81  1  0.83567030  0.66486194  0.16327341  1
  Sb  Sb82  1  0.66831576  0.66480712  0.33450698  1
  Sb  Sb83  1  0.50188596  0.67194278  0.83137716  1
  Sb  Sb84  1  0.66844435  0.17061745  0.83493175  1
  Sb  Sb85  1  0.83234483  -0.00780878  0.83267098  1
  Sb  Sb86  1  0.33397118  0.16821697  0.16179999  1
  Sb  Sb87  1  0.16812960  0.16147663  0.33136255  1
  Sb  Sb88  1  0.49972707  0.66311163  0.16028621  1
  Sb  Sb89  1  0.33301932  -0.00880633  0.00032948  1
  Sb  Sb90  1  0.49822292  0.00210804  0.16499678  1
  Sb  Sb91  1  0.33377886  0.83224824  0.16599618  1
  Sb  Sb92  1  0.49920939  0.66832564  0.50627229  1
  Sb  Sb93  1  0.33602142  0.34048560  -0.00234978  1
  Sb  Sb94  1  0.33614289  0.50735048  0.82674566  1
  Sb  Sb95  1  0.50038221  0.16868295  0.33797491  1
  Sb  Sb96  1  0.50102104  0.49702094  0.33729176  1
  Sb  Sb97  1  -0.00432010  0.49684596  0.15596214  1
  Sb  Sb98  1  0.00178906  0.50180676  0.50977734  1
  Sb  Sb99  1  0.50199064  0.16550344  -0.00506820  1
  Sb  Sb100  1  -0.00221300  0.67251763  -0.00908846  1
  Sb  Sb101  1  0.16899284  0.50500297  0.33681494  1
  Sb  Sb102  1  0.16852606  0.16959376  0.66885741  1
  Sb  Sb103  1  -0.00024939  0.83657750  0.15790264  1
  Sb  Sb104  1  0.66617422  -0.00411500  0.67119696  1
  Sb  Sb105  1  -0.00064083  0.33006606  -0.00022256  1
  Sb  Sb106  1  0.33489076  0.16488064  0.50619285  1
  Sb  Sb107  1  0.16575767  0.15954939  -0.00011044  1
  Te  Te108  1  0.16505810  0.16856442  0.16515570  1
  Te  Te109  1  0.16565087  0.16188156  0.49960890  1
  Te  Te110  1  0.16480934  0.16733753  0.83400850  1
  Te  Te111  1  0.16522174  0.49911330  0.16620894  1
  Te  Te112  1  0.17125882  0.50461483  0.50463624  1
  Te  Te113  1  0.16433536  0.50619889  0.82880769  1
  Te  Te114  1  0.16651484  0.83337865  0.16607445  1
  Te  Te115  1  0.16763585  0.83201931  0.50024703  1
  Te  Te116  1  0.16901428  0.82917216  0.83530419  1
  Te  Te117  1  0.50398218  0.17142674  0.16554985  1
  Te  Te118  1  0.50064167  0.16735667  0.50782879  1
  Te  Te119  1  0.49896274  0.16154368  0.82789929  1
  Te  Te120  1  0.50368305  0.49569193  0.16572793  1
  Te  Te121  1  0.49623363  0.49597348  0.50503530  1
  Te  Te122  1  0.50318180  0.49909938  0.83249426  1
  Te  Te123  1  0.50517874  0.83346437  0.16341194  1
  Te  Te124  1  0.49879120  0.83486902  0.50199212  1
  Te  Te125  1  0.49810440  0.83636091  0.83283504  1
  Te  Te126  1  0.83260804  0.17091835  0.16742515  1
  Te  Te127  1  0.83292924  0.17125869  0.50450467  1
  Te  Te128  1  0.83701128  0.16765205  0.82917185  1
  Te  Te129  1  0.83064867  0.49633399  0.16752524  1
  Te  Te130  1  0.83285496  0.50116560  0.50443990  1
  Te  Te131  1  0.83253914  0.50231741  0.83219929  1
  Te  Te132  1  0.83058638  0.83331825  0.16232317  1
  Te  Te133  1  0.83266553  0.83010951  0.50573648  1
  Te  Te134  1  0.83402515  0.82904249  0.83239127  1
  Te  Te135  1  0.16413496  -0.00715928  0.00280066  1
  Te  Te136  1  0.17035263  -0.00464476  0.33449293  1
  Te  Te137  1  0.16140379  0.00152936  0.66290841  1
  Te  Te138  1  0.16849372  0.33525350  0.00647297  1
  Te  Te139  1  0.16956586  0.33420179  0.32959291  1
  Te  Te140  1  0.16981097  0.34117831  0.66560656  1
  Te  Te141  1  0.16643117  0.67110130  -0.00077128  1
  Te  Te142  1  0.16623307  0.67305174  0.33292115  1
  Te  Te143  1  0.17230342  0.66490669  0.66722518  1
  Te  Te144  1  0.50211909  -0.00366600  -0.00248537  1
  Te  Te145  1  0.49320259  0.00159597  0.33763563  1
  Te  Te146  1  0.49951790  -0.00493363  0.66722920  1
  Te  Te147  1  0.49887395  0.33707472  0.00474727  1
  Te  Te148  1  0.50109374  0.33257281  0.33442999  1
  Te  Te149  1  0.50207233  0.33556524  0.66590684  1
  Te  Te150  1  0.50178889  0.66761526  -0.00149818  1
  Te  Te151  1  0.49930190  0.66589410  0.33188390  1
  Te  Te152  1  0.49477165  0.66813953  0.66638750  1
  Te  Te153  1  0.83295151  -0.00395518  -0.00049478  1
  Te  Te154  1  0.83220346  -0.00822565  0.33493182  1
  Te  Te155  1  0.83681337  0.00715381  0.66665254  1
  Te  Te156  1  0.83356167  0.33703652  0.00683769  1
  Te  Te157  1  0.83002785  0.33341131  0.33458292  1
  Te  Te158  1  0.83072270  0.33234854  0.66450061  1
  Te  Te159  1  0.83092587  0.66707371  -0.00081586  1
  Te  Te160  1  0.83392511  0.67319570  0.33762629  1
  Te  Te161  1  0.83260037  0.66584857  0.66821158  1
  Te  Te162  1  -0.00109414  0.15915699  -0.00101698  1
  Te  Te163  1  -0.00059034  0.16495576  0.32403091  1
  Te  Te164  1  -0.00115254  0.16621165  0.67072628  1
  Te  Te165  1  -0.00394645  0.49890126  -0.01046457  1
  Te  Te166  1  -0.00019483  0.50072192  0.33098607  1
  Te  Te167  1  -0.00440374  0.50365198  0.67228997  1
  Te  Te168  1  0.00094441  0.83761904  -0.00583701  1
  Te  Te169  1  -0.00034512  0.83382556  0.33131651  1
  Te  Te170  1  -0.00260662  0.83211969  0.67203422  1
  Te  Te171  1  0.33395883  0.16714540  -0.00997086  1
  Te  Te172  1  0.33352501  0.17026567  0.33134127  1
  Te  Te173  1  0.33667433  0.16816848  0.67196671  1
  Te  Te174  1  0.33797269  0.50929684  -0.00059098  1
  Te  Te175  1  0.33369219  0.49384782  0.34152596  1
  Te  Te176  1  0.33615826  0.50122030  0.66650360  1
  Te  Te177  1  0.33313812  0.82828860  -0.00100235  1
  Te  Te178  1  0.33055819  0.83572390  0.33759806  1
  Te  Te179  1  0.33562227  0.83146781  0.66636685  1
  Te  Te180  1  0.66711425  0.16184130  0.00457532  1
  Te  Te181  1  0.66754572  0.17187995  0.32522568  1
  Te  Te182  1  0.66559970  0.16647343  0.66741014  1
  Te  Te183  1  0.66616926  0.50209664  -0.00096683  1
  Te  Te184  1  0.66695622  0.49429008  0.32420957  1
  Te  Te185  1  0.66563879  0.50211985  0.66603290  1
  Te  Te186  1  0.66628161  0.82959858  -0.00319021  1
  Te  Te187  1  0.66978257  0.83331498  0.33798798  1
  Te  Te188  1  0.66589928  0.83137460  0.66547205  1
  Te  Te189  1  0.00509042  0.00387501  0.16514509  1
  Te  Te190  1  0.00362852  0.00111625  0.50413569  1
  Te  Te191  1  -0.00028987  -0.00267179  0.83271472  1
  Te  Te192  1  0.00445070  0.32853530  0.16672218  1
  Te  Te193  1  -0.00414358  0.33293271  0.49828200  1
  Te  Te194  1  0.00157755  0.32333206  0.83381111  1
  Te  Te195  1  0.00644208  0.66556943  0.16708989  1
  Te  Te196  1  0.00164270  0.66617635  0.50828308  1
  Te  Te197  1  -0.00048940  0.67008229  0.83066144  1
  Te  Te198  1  0.32770805  0.00112061  0.17218881  1
  Te  Te199  1  0.33402709  -0.00157794  0.49855652  1
  Te  Te200  1  0.33535048  -0.00341728  0.83328595  1
  Te  Te201  1  0.33196724  0.33338672  0.16867706  1
  Te  Te202  1  0.33567599  0.33148879  0.50149284  1
  Te  Te203  1  0.33175662  0.32902679  0.82834140  1
  Te  Te204  1  0.32648289  0.66567214  0.16663880  1
  Te  Te205  1  0.33163985  0.66831353  0.50263720  1
  Te  Te206  1  0.33052454  0.67055620  0.83182083  1
  Te  Te207  1  0.66560443  -0.00798111  0.16286844  1
  Te  Te208  1  0.66118119  -0.00515635  0.49893835  1
  Te  Te209  1  0.66219191  0.00283930  0.83943206  1
  Te  Te210  1  0.66600603  0.33572839  0.16343420  1
  Te  Te211  1  0.66488645  0.33362185  0.49995753  1
  Te  Te212  1  0.66668570  0.33931306  0.82658004  1
  Te  Te213  1  0.66765756  0.66810617  0.16490472  1
  Te  Te214  1  0.66937097  0.67017377  0.50182448  1
  Te  Te215  1  0.67001601  0.66181880  0.83302427  1
