# generated using pymatgen
data_AgSbTe2
_symmetry_space_group_name_H-M   'P 1'
_cell_length_a   18.35862702
_cell_length_b   18.35247659
_cell_length_c   18.35874625
_cell_angle_alpha   90.00621170
_cell_angle_beta   89.99806945
_cell_angle_gamma   89.99674459
_symmetry_Int_Tables_number   1
_chemical_formula_structural   AgSbTe2
_chemical_formula_sum   'Ag54 Sb54 Te108'
_cell_volume   6185.54389288
_cell_formula_units_Z   54
loop_
 _symmetry_equiv_pos_site_id
 _symmetry_equiv_pos_as_xyz
  1  'x, y, z'
loop_
 _atom_site_type_symbol
 _atom_site_label
 _atom_site_symmetry_multiplicity
 _atom_site_fract_x
 _atom_site_fract_y
 _atom_site_fract_z
 _atom_site_occupancy
  Ag  Ag0  1  0.16795616  0.51201430  0.66626468  1
  Ag  Ag1  1  0.84099261  0.15987578  0.32843749  1
  Ag  Ag2  1  0.84176544  0.50459239  -0.00129853  1
  Ag  Ag3  1  0.33091360  0.34910703  0.00625063  1
  Ag  Ag4  1  0.32981129  0.16205530  0.17042562  1
  Ag  Ag5  1  0.83502688  0.66470302  0.83666503  1
  Ag  Ag6  1  0.01001395  0.51154270  0.82939533  1
  Ag  Ag7  1  0.84921571  -0.00754444  0.16738791  1
  Ag  Ag8  1  0.33116049  0.66831363  -0.00917413  1
  Ag  Ag9  1  0.16999880  0.50828935  0.33666011  1
  Ag  Ag10  1  0.32866997  0.82690306  0.82651136  1
  Ag  Ag11  1  0.32791938  0.50963846  0.83004275  1
  Ag  Ag12  1  0.32608385  0.83241161  0.16365622  1
  Ag  Ag13  1  0.48336318  0.16797585  0.33149810  1
  Ag  Ag14  1  0.49313593  0.33524927  0.49911748  1
  Ag  Ag15  1  0.16654458  0.66544647  0.50404854  1
  Ag  Ag16  1  0.84139317  0.66748314  0.49952336  1
  Ag  Ag17  1  0.00655843  0.15465151  0.16733022  1
  Ag  Ag18  1  0.16912498  0.83281816  -0.00459596  1
  Ag  Ag19  1  0.48167360  0.82397430  0.66621703  1
  Ag  Ag20  1  0.32181450  -0.00835053  0.00086040  1
  Ag  Ag21  1  0.00328394  -0.00136983  0.32540409  1
  Ag  Ag22  1  0.32876672  0.50612179  0.50599297  1
  Ag  Ag23  1  0.83189539  0.67047650  0.16742879  1
  Ag  Ag24  1  0.33119269  0.50760804  0.16130244  1
  Ag  Ag25  1  0.00432224  0.16146371  0.83508654  1
  Ag  Ag26  1  0.16566985  0.83470934  0.32976822  1
  Ag  Ag27  1  0.48461987  0.50803164  0.66804578  1
  Ag  Ag28  1  0.66949229  0.66771932  0.33069867  1
  Ag  Ag29  1  0.33198913  0.33166295  0.33176232  1
  Ag  Ag30  1  0.01264994  0.83000645  0.83737703  1
  Ag  Ag31  1  0.17118859  0.50833782  -0.00895157  1
  Ag  Ag32  1  0.65965281  0.50715411  0.16348495  1
  Ag  Ag33  1  0.00471078  0.35063326  0.66790149  1
  Ag  Ag34  1  0.33036944  0.17099530  0.49043000  1
  Ag  Ag35  1  0.32774664  -0.01680346  0.67104188  1
  Ag  Ag36  1  0.66847779  0.50486176  0.83889504  1
  Ag  Ag37  1  0.65913002  0.82962248  0.49893517  1
  Ag  Ag38  1  0.01254802  0.66622706  0.66920589  1
  Ag  Ag39  1  0.16633643  0.16234418  0.33165614  1
  Ag  Ag40  1  0.16832414  0.16262713  0.66188340  1
  Ag  Ag41  1  0.16321151  -0.00459846  0.16278002  1
  Ag  Ag42  1  0.00920074  0.84137873  0.16443288  1
  Ag  Ag43  1  0.48756647  0.66527175  0.83313704  1
  Ag  Ag44  1  0.16642302  -0.00653793  0.84261445  1
  Ag  Ag45  1  0.01270143  0.50398463  0.51150399  1
  Ag  Ag46  1  0.00508399  -0.00281628  0.01330908  1
  Ag  Ag47  1  0.32990921  0.82837996  0.51297384  1
  Ag  Ag48  1  0.49187149  0.66526383  0.16545575  1
  Ag  Ag49  1  0.84591086  0.83233155  0.33006923  1
  Ag  Ag50  1  0.32999118  0.66882157  0.67215349  1
  Ag  Ag51  1  0.16990699  0.82929152  0.67333418  1
  Ag  Ag52  1  0.66696632  0.16372443  0.16923235  1
  Ag  Ag53  1  0.67096424  -0.00249413  0.00331591  1
  Sb  Sb54  1  0.49632112  0.16514294  0.00640836  1
  Sb  Sb55  1  0.33340164  0.66490910  0.33419108  1
  Sb  Sb56  1  0.16735258  0.15969253  0.00235795  1
  Sb  Sb57  1  0.16720455  0.33389424  0.83201740  1
  Sb  Sb58  1  0.49425161  -0.00472932  0.16689315  1
  Sb  Sb59  1  0.00976044  -0.00702278  0.66829005  1
  Sb  Sb60  1  0.66343598  0.66655851  0.66466246  1
  Sb  Sb61  1  0.66900063  0.33628811  0.66628882  1
  Sb  Sb62  1  0.66443971  0.66899254  0.00310490  1
  Sb  Sb63  1  0.49247693  0.50244962  -0.00394286  1
  Sb  Sb64  1  0.32791999  0.16520916  0.83556854  1
  Sb  Sb65  1  0.16762805  0.67323997  0.17080647  1
  Sb  Sb66  1  0.49392446  0.00028966  0.49951665  1
  Sb  Sb67  1  0.83947559  0.83070774  0.66251137  1
  Sb  Sb68  1  0.16910847  0.32910506  0.16644384  1
  Sb  Sb69  1  0.16848797  0.67205932  0.82656346  1
  Sb  Sb70  1  0.83942835  0.50436342  0.67131947  1
  Sb  Sb71  1  0.83480562  -0.00735753  0.49154807  1
  Sb  Sb72  1  0.16772933  -0.00505622  0.49789421  1
  Sb  Sb73  1  0.83618653  0.16799234  0.00684521  1
  Sb  Sb74  1  0.66164032  0.16027240  0.49103937  1
  Sb  Sb75  1  0.49424732  0.83487548  0.33608259  1
  Sb  Sb76  1  0.66115306  0.33625141  0.00230889  1
  Sb  Sb77  1  0.00681800  0.33169731  -0.00334304  1
  Sb  Sb78  1  0.49162905  0.49940026  0.33557625  1
  Sb  Sb79  1  0.65879762  -0.00141442  0.67182415  1
  Sb  Sb80  1  0.48897244  0.83128986  -0.00332997  1
  Sb  Sb81  1  0.66606335  0.83174676  0.16949461  1
  Sb  Sb82  1  -0.00120734  0.67113795  0.33441338  1
  Sb  Sb83  1  0.00708019  0.67066833  -0.00467266  1
  Sb  Sb84  1  0.83415727  0.33353702  0.16818819  1
  Sb  Sb85  1  0.84321833  -0.00775075  0.84184438  1
  Sb  Sb86  1  0.49501546  0.66501934  0.50125391  1
  Sb  Sb87  1  0.83838352  0.50527579  0.32877976  1
  Sb  Sb88  1  0.48864717  0.16798731  0.66201741  1
  Sb  Sb89  1  0.32588325  0.00226007  0.33027432  1
  Sb  Sb90  1  0.49457517  0.33752734  0.17018279  1
  Sb  Sb91  1  0.66124380  0.33567925  0.33225657  1
  Sb  Sb92  1  0.17287621  0.34214550  0.50039246  1
  Sb  Sb93  1  0.84438163  0.16399656  0.66092631  1
  Sb  Sb94  1  0.32610923  0.34054788  0.66371299  1
  Sb  Sb95  1  0.84015330  0.82858735  0.00664725  1
  Sb  Sb96  1  0.00769924  0.33001967  0.33568262  1
  Sb  Sb97  1  0.66341575  0.50689868  0.49816681  1
  Sb  Sb98  1  0.00980691  0.17213164  0.49828005  1
  Sb  Sb99  1  0.48979627  -0.00651382  0.83489369  1
  Sb  Sb100  1  0.83196271  0.33974961  0.49764331  1
  Sb  Sb101  1  0.49516564  0.34322227  0.82698039  1
  Sb  Sb102  1  0.00583476  0.50373136  0.16344020  1
  Sb  Sb103  1  0.67214787  -0.00370131  0.32588563  1
  Sb  Sb104  1  0.83773897  0.34108124  0.83442936  1
  Sb  Sb105  1  0.66426378  0.82728712  0.83136924  1
  Sb  Sb106  1  0.67367114  0.16899518  0.83857335  1
  Sb  Sb107  1  0.00739292  0.82744905  0.49867287  1
  Te  Te108  1  0.16835809  0.16261007  0.16751908  1
  Te  Te109  1  0.17150933  0.16582320  0.49739856  1
  Te  Te110  1  0.16337939  0.16162169  0.83345275  1
  Te  Te111  1  0.16961845  0.49972917  0.17279694  1
  Te  Te112  1  0.16949153  0.50229859  0.50163439  1
  Te  Te113  1  0.16744797  0.49833814  0.83119695  1
  Te  Te114  1  0.16586415  0.83343444  0.16854690  1
  Te  Te115  1  0.17051027  0.82909820  0.49715482  1
  Te  Te116  1  0.16909940  0.83404888  0.83449803  1
  Te  Te117  1  0.49753365  0.16729962  0.17136064  1
  Te  Te118  1  0.49408358  0.17043628  0.49452480  1
  Te  Te119  1  0.50495801  0.16733208  0.83134034  1
  Te  Te120  1  0.49882229  0.50471462  0.16746476  1
  Te  Te121  1  0.49544654  0.49762874  0.50382121  1
  Te  Te122  1  0.49549610  0.50637272  0.82904704  1
  Te  Te123  1  0.49678331  0.82666520  0.16754524  1
  Te  Te124  1  0.49453224  0.83253942  0.50403624  1
  Te  Te125  1  0.49660970  0.82647834  0.82716009  1
  Te  Te126  1  0.83222094  0.16655483  0.16965575  1
  Te  Te127  1  0.83236400  0.16609176  0.49298808  1
  Te  Te128  1  0.84021561  0.16605797  0.83323614  1
  Te  Te129  1  0.83676612  0.50276543  0.16274164  1
  Te  Te130  1  0.83277967  0.50650963  0.49813366  1
  Te  Te131  1  0.83332429  0.50525451  0.83693638  1
  Te  Te132  1  0.83130760  0.83345245  0.17117013  1
  Te  Te133  1  0.83615157  0.82762918  0.49421739  1
  Te  Te134  1  0.83322573  0.82622699  0.83380745  1
  Te  Te135  1  0.16525923  -0.00191631  0.00174320  1
  Te  Te136  1  0.16377059  -0.00159719  0.33065815  1
  Te  Te137  1  0.17103704  0.00004037  0.66507350  1
  Te  Te138  1  0.17208083  0.34353731  -0.00030522  1
  Te  Te139  1  0.17282732  0.32818258  0.33366562  1
  Te  Te140  1  0.16097539  0.32395947  0.66579992  1
  Te  Te141  1  0.17131512  0.66792950  0.00461824  1
  Te  Te142  1  0.16577804  0.66799194  0.33955202  1
  Te  Te143  1  0.16939991  0.66820564  0.66368345  1
  Te  Te144  1  0.50409283  -0.00110279  -0.00095895  1
  Te  Te145  1  0.50366890  0.00840104  0.33348890  1
  Te  Te146  1  0.49069645  -0.00348792  0.66792574  1
  Te  Te147  1  0.49120714  0.33267756  -0.00192520  1
  Te  Te148  1  0.49451347  0.32973640  0.33729964  1
  Te  Te149  1  0.50062100  0.33643536  0.66054574  1
  Te  Te150  1  0.49535500  0.66728344  -0.00067692  1
  Te  Te151  1  0.50613963  0.66707740  0.32922801  1
  Te  Te152  1  0.49766023  0.66529918  0.66763702  1
  Te  Te153  1  0.83585459  -0.00015692  0.00709773  1
  Te  Te154  1  0.83795643  -0.00303578  0.32683183  1
  Te  Te155  1  0.83076378  -0.00059773  0.66755859  1
  Te  Te156  1  0.83310699  0.34328015  0.00073028  1
  Te  Te157  1  0.83376073  0.32755390  0.33439831  1
  Te  Te158  1  0.84281528  0.33223911  0.66563877  1
  Te  Te159  1  0.83240404  0.66330404  0.00036716  1
  Te  Te160  1  0.83161898  0.66941035  0.33170304  1
  Te  Te161  1  0.83300677  0.66754859  0.66329880  1
  Te  Te162  1  0.00061976  0.16337723  0.00031326  1
  Te  Te163  1  0.00374489  0.16492078  0.33137745  1
  Te  Te164  1  0.00713839  0.16075659  0.66880003  1
  Te  Te165  1  0.00511230  0.49938752  -0.00527013  1
  Te  Te166  1  0.00751361  0.49835845  0.33339576  1
  Te  Te167  1  0.00236632  0.50666809  0.67062992  1
  Te  Te168  1  0.00446135  0.83641625  -0.00065570  1
  Te  Te169  1  0.00275050  0.83573943  0.33213848  1
  Te  Te170  1  0.00600794  0.82694377  0.67047749  1
  Te  Te171  1  0.33325542  0.15851012  0.00476890  1
  Te  Te172  1  0.32671839  0.16503316  0.33219710  1
  Te  Te173  1  0.32728401  0.17187569  0.66631905  1
  Te  Te174  1  0.33072271  0.50591713  0.00147721  1
  Te  Te175  1  0.32926719  0.49779103  0.33453042  1
  Te  Te176  1  0.32818117  0.50073240  0.66695924  1
  Te  Te177  1  0.32962730  0.83194929  0.00325950  1
  Te  Te178  1  0.33008243  0.83421740  0.32454740  1
  Te  Te179  1  0.32653051  0.82797201  0.66835180  1
  Te  Te180  1  0.66708275  0.16532601  0.00608848  1
  Te  Te181  1  0.67528481  0.16714340  0.32849448  1
  Te  Te182  1  0.66698382  0.16740946  0.66687162  1
  Te  Te183  1  0.66625549  0.50080518  0.00216483  1
  Te  Te184  1  0.66845957  0.50334237  0.32776266  1
  Te  Te185  1  0.66662354  0.49911832  0.67064569  1
  Te  Te186  1  0.66775617  0.83809403  -0.00012398  1
  Te  Te187  1  0.66230064  0.82985419  0.33768114  1
  Te  Te188  1  0.66770152  0.83501706  0.66047199  1
  Te  Te189  1  0.00387345  -0.00121437  0.16882376  1
  Te  Te190  1  -0.00117089  0.00174508  0.49551509  1
  Te  Te191  1  0.00539331  -0.00396530  0.83385304  1
  Te  Te192  1  0.00027042  0.32445532  0.16605869  1
  Te  Te193  1  -0.00185196  0.34113667  0.50459045  1
  Te  Te194  1  0.00070395  0.32736097  0.82911508  1
  Te  Te195  1  -0.00640379  0.67108758  0.16475781  1
  Te  Te196  1  0.00107386  0.66306438  0.50118423  1
  Te  Te197  1  -0.00320798  0.66850828  0.83325799  1
  Te  Te198  1  0.33021439  -0.00021496  0.16404894  1
  Te  Te199  1  0.33251077  -0.00351893  0.50550516  1
  Te  Te200  1  0.32758228  -0.00146716  0.83549185  1
  Te  Te201  1  0.33349963  0.33336187  0.16794844  1
  Te  Te202  1  0.33537787  0.33225610  0.49772981  1
  Te  Te203  1  0.33403282  0.33505849  0.84079268  1
  Te  Te204  1  0.33335705  0.66614728  0.16951136  1
  Te  Te205  1  0.33156970  0.66630317  0.49989673  1
  Te  Te206  1  0.33125345  0.66632563  0.83210410  1
  Te  Te207  1  0.66173204  0.00299121  0.16205205  1
  Te  Te208  1  0.66647733  -0.00794147  0.50177764  1
  Te  Te209  1  0.66914080  0.00080781  0.83976723  1
  Te  Te210  1  0.66483307  0.33322586  0.16684081  1
  Te  Te211  1  0.66120974  0.33257563  0.49989362  1
  Te  Te212  1  0.66703543  0.34179166  0.83441013  1
  Te  Te213  1  0.67065241  0.66557839  0.16755934  1
  Te  Te214  1  0.66784757  0.67032968  0.49599994  1
  Te  Te215  1  0.67129097  0.66292576  0.83371603  1
