# generated using pymatgen
data_AgSbTe2
_symmetry_space_group_name_H-M   'P 1'
_cell_length_a   18.32570712
_cell_length_b   18.33793039
_cell_length_c   18.33301430
_cell_angle_alpha   89.99960578
_cell_angle_beta   89.99967522
_cell_angle_gamma   89.99917761
_symmetry_Int_Tables_number   1
_chemical_formula_structural   AgSbTe2
_chemical_formula_sum   'Ag54 Sb54 Te108'
_cell_volume   6160.91104830
_cell_formula_units_Z   54
loop_
 _symmetry_equiv_pos_site_id
 _symmetry_equiv_pos_as_xyz
  1  'x, y, z'
loop_
 _atom_site_type_symbol
 _atom_site_label
 _atom_site_symmetry_multiplicity
 _atom_site_fract_x
 _atom_site_fract_y
 _atom_site_fract_z
 _atom_site_occupancy
  Ag  Ag0  1  0.65999637  0.83230114  0.82345854  1
  Ag  Ag1  1  0.16324930  0.16367677  0.33059355  1
  Ag  Ag2  1  0.49757118  0.66213465  0.17261066  1
  Ag  Ag3  1  0.84567763  0.33811796  0.17625809  1
  Ag  Ag4  1  -0.00129946  0.67347601  0.66605050  1
  Ag  Ag5  1  0.66050276  -0.00211030  0.33538218  1
  Ag  Ag6  1  0.49472012  0.49645989  0.00334836  1
  Ag  Ag7  1  0.49322033  0.66540799  0.49708986  1
  Ag  Ag8  1  0.66820163  0.67160749  0.66577891  1
  Ag  Ag9  1  0.50165818  0.82870822  0.66327389  1
  Ag  Ag10  1  0.49977406  0.34153083  0.16360912  1
  Ag  Ag11  1  0.83709024  0.00558265  0.50110227  1
  Ag  Ag12  1  0.49012456  0.33777458  0.84238047  1
  Ag  Ag13  1  0.33708790  0.66957752  0.33110590  1
  Ag  Ag14  1  0.00826669  0.50107223  0.83041949  1
  Ag  Ag15  1  0.49689776  0.66790064  0.82906648  1
  Ag  Ag16  1  0.84367631  0.82961338  0.66344965  1
  Ag  Ag17  1  -0.00014830  0.83605747  0.50654879  1
  Ag  Ag18  1  0.83409362  0.66039029  0.16955872  1
  Ag  Ag19  1  0.17074597  0.33196257  0.83270203  1
  Ag  Ag20  1  0.33140905  0.33665481  -0.00324420  1
  Ag  Ag21  1  0.49085749  -0.00853432  0.83266062  1
  Ag  Ag22  1  0.00393485  0.82925490  0.81947088  1
  Ag  Ag23  1  0.17114878  0.83789874  0.33703275  1
  Ag  Ag24  1  0.33222963  -0.01110136  0.33340368  1
  Ag  Ag25  1  0.16698001  0.00036773  0.16973487  1
  Ag  Ag26  1  -0.00235801  0.49246803  0.16509869  1
  Ag  Ag27  1  0.16335043  0.33786683  0.50254577  1
  Ag  Ag28  1  0.33150240  0.17545127  0.83719568  1
  Ag  Ag29  1  0.84375029  0.32995167  0.49532368  1
  Ag  Ag30  1  0.67015467  0.83192774  0.50532152  1
  Ag  Ag31  1  0.33504264  0.66149541  0.00262329  1
  Ag  Ag32  1  0.49013142  0.82416974  0.33845756  1
  Ag  Ag33  1  0.33311001  0.50074793  0.50207385  1
  Ag  Ag34  1  -0.00249247  0.16740417  0.49694388  1
  Ag  Ag35  1  0.49917574  0.50483852  0.33190339  1
  Ag  Ag36  1  0.00954571  0.33423656  0.00524607  1
  Ag  Ag37  1  0.33126032  0.49636642  0.83164561  1
  Ag  Ag38  1  0.00299725  0.17524791  0.17897541  1
  Ag  Ag39  1  0.33081149  0.83032442  0.17109266  1
  Ag  Ag40  1  0.16812453  0.83805254  -0.00679976  1
  Ag  Ag41  1  0.00015311  -0.01336665  0.66526101  1
  Ag  Ag42  1  0.17012735  -0.00138783  0.83496807  1
  Ag  Ag43  1  0.17063019  0.66569117  0.50164129  1
  Ag  Ag44  1  0.15678452  0.82846229  0.66454185  1
  Ag  Ag45  1  -0.00066069  0.33116910  0.33042527  1
  Ag  Ag46  1  0.84554890  0.17611818  0.33841358  1
  Ag  Ag47  1  0.84266356  0.50456461  0.65959943  1
  Ag  Ag48  1  0.16930761  0.16779791  -0.00020994  1
  Ag  Ag49  1  0.83690526  0.16538632  0.65666816  1
  Ag  Ag50  1  0.48815101  0.17842278  -0.00290889  1
  Ag  Ag51  1  0.49629475  0.34146706  0.49662633  1
  Ag  Ag52  1  0.16225283  0.50535120  0.66622466  1
  Ag  Ag53  1  0.83516041  0.49376571  0.33732689  1
  Sb  Sb54  1  0.17119379  0.49760022  -0.00544322  1
  Sb  Sb55  1  0.16732413  0.49934460  0.33781195  1
  Sb  Sb56  1  0.66095029  0.67082894  0.33889824  1
  Sb  Sb57  1  0.33044954  0.33587977  0.32917742  1
  Sb  Sb58  1  0.66814722  0.50085465  0.16893601  1
  Sb  Sb59  1  0.33010924  0.00027028  0.00072882  1
  Sb  Sb60  1  0.50423984  0.16412974  0.67030657  1
  Sb  Sb61  1  0.33138249  0.66674303  0.66446148  1
  Sb  Sb62  1  0.67232653  -0.00966944  0.66243879  1
  Sb  Sb63  1  0.83791865  0.33467412  0.83095940  1
  Sb  Sb64  1  0.84140346  0.83157378  -0.00552942  1
  Sb  Sb65  1  0.49248978  0.83022989  -0.00059576  1
  Sb  Sb66  1  0.00373752  0.00531523  0.33955649  1
  Sb  Sb67  1  0.00057212  0.33535239  0.66473950  1
  Sb  Sb68  1  0.65924582  0.16104979  0.83205685  1
  Sb  Sb69  1  0.32760066  0.16481127  0.16262408  1
  Sb  Sb70  1  0.32733411  0.17412757  0.50227262  1
  Sb  Sb71  1  0.67124171  0.16751233  0.16853610  1
  Sb  Sb72  1  0.49620802  0.16909373  0.32991857  1
  Sb  Sb73  1  0.49679070  0.50524649  0.66554813  1
  Sb  Sb74  1  0.67326376  0.16251273  0.49905703  1
  Sb  Sb75  1  0.83574176  0.83167495  0.33977323  1
  Sb  Sb76  1  0.17086923  0.66611524  0.82807160  1
  Sb  Sb77  1  0.00685521  0.66238542  -0.00303619  1
  Sb  Sb78  1  0.16245620  -0.00224453  0.49998761  1
  Sb  Sb79  1  0.83660880  -0.00110378  0.82476146  1
  Sb  Sb80  1  0.67129191  0.33059324  0.33504421  1
  Sb  Sb81  1  0.00556508  0.83252637  0.16914693  1
  Sb  Sb82  1  0.66233300  -0.00223056  0.00210238  1
  Sb  Sb83  1  0.33337569  0.33525144  0.67364156  1
  Sb  Sb84  1  0.33035085  0.82738280  0.49471384  1
  Sb  Sb85  1  0.66159768  0.33321154  -0.00076882  1
  Sb  Sb86  1  0.49296299  -0.00077115  0.16479564  1
  Sb  Sb87  1  0.84133064  0.00213167  0.17707491  1
  Sb  Sb88  1  0.83146695  0.66623668  0.83208007  1
  Sb  Sb89  1  0.16945371  0.67047030  0.17134844  1
  Sb  Sb90  1  0.33226569  0.50272461  0.16588695  1
  Sb  Sb91  1  0.83246157  0.49947085  0.00148766  1
  Sb  Sb92  1  0.84020916  0.17013888  0.00300055  1
  Sb  Sb93  1  0.66294855  0.50521805  0.50094291  1
  Sb  Sb94  1  0.66759912  0.33917632  0.66466505  1
  Sb  Sb95  1  0.16135709  0.16612510  0.66636901  1
  Sb  Sb96  1  0.00364399  0.00462414  -0.00518481  1
  Sb  Sb97  1  0.66164899  0.50413306  0.82984715  1
  Sb  Sb98  1  0.32819812  -0.00316957  0.66365635  1
  Sb  Sb99  1  0.65848674  0.66784434  -0.00369221  1
  Sb  Sb100  1  0.66159729  0.83162971  0.16996807  1
  Sb  Sb101  1  0.83486976  0.66434376  0.49950077  1
  Sb  Sb102  1  0.00360058  0.66336850  0.33743822  1
  Sb  Sb103  1  0.16500595  0.33031341  0.16552390  1
  Sb  Sb104  1  0.33042093  0.82985575  0.83617042  1
  Sb  Sb105  1  0.00605413  0.16858392  0.83054939  1
  Sb  Sb106  1  0.00289576  0.49904372  0.50201839  1
  Sb  Sb107  1  0.50301923  -0.00479788  0.50242154  1
  Te  Te108  1  0.16284578  0.16398738  0.16633986  1
  Te  Te109  1  0.16188240  0.17073485  0.49842703  1
  Te  Te110  1  0.16954452  0.16885726  0.83386005  1
  Te  Te111  1  0.15973341  0.50113282  0.16695858  1
  Te  Te112  1  0.16923537  0.49925677  0.50273691  1
  Te  Te113  1  0.16843678  0.49917044  0.82978649  1
  Te  Te114  1  0.16923678  0.83719699  0.17196503  1
  Te  Te115  1  0.16492430  0.83279009  0.50184943  1
  Te  Te116  1  0.16515627  0.83277081  0.83046238  1
  Te  Te117  1  0.50051372  0.16857363  0.16057160  1
  Te  Te118  1  0.49890103  0.17068695  0.50063825  1
  Te  Te119  1  0.49520941  0.17094189  0.83512745  1
  Te  Te120  1  0.49953495  0.50165284  0.16932886  1
  Te  Te121  1  0.49678649  0.50172195  0.49902051  1
  Te  Te122  1  0.49663868  0.50000760  0.83079705  1
  Te  Te123  1  0.49511137  0.83098603  0.17010610  1
  Te  Te124  1  0.49882442  0.83170866  0.49796709  1
  Te  Te125  1  0.49831555  0.83135794  0.83550727  1
  Te  Te126  1  0.83985636  0.17097922  0.17122063  1
  Te  Te127  1  0.83533666  0.16902241  0.49830725  1
  Te  Te128  1  0.83215700  0.16716158  0.83167439  1
  Te  Te129  1  0.83479816  0.49833109  0.16749430  1
  Te  Te130  1  0.83293612  0.49674792  0.49826559  1
  Te  Te131  1  0.83680710  0.49925198  0.83123975  1
  Te  Te132  1  0.83323461  0.83082457  0.16524237  1
  Te  Te133  1  0.83468372  0.83059356  0.50359145  1
  Te  Te134  1  0.83979684  0.83300960  0.82694934  1
  Te  Te135  1  0.16627898  0.00079729  -0.00526898  1
  Te  Te136  1  0.16898891  -0.00014893  0.33380379  1
  Te  Te137  1  0.16265650  -0.00403191  0.67002926  1
  Te  Te138  1  0.16890832  0.33188980  -0.00193549  1
  Te  Te139  1  0.16278071  0.33152934  0.33589952  1
  Te  Te140  1  0.16704888  0.33499837  0.66633795  1
  Te  Te141  1  0.17372604  0.66964071  0.00141872  1
  Te  Te142  1  0.17133089  0.66922832  0.33904664  1
  Te  Te143  1  0.16494202  0.66772243  0.66283262  1
  Te  Te144  1  0.49813080  0.00227135  -0.00647493  1
  Te  Te145  1  0.49645627  -0.00032085  0.33296773  1
  Te  Te146  1  0.50048992  -0.00375321  0.67217237  1
  Te  Te147  1  0.49830653  0.33513161  -0.00006369  1
  Te  Te148  1  0.49978345  0.33565154  0.33388356  1
  Te  Te149  1  0.50149889  0.33345568  0.66074739  1
  Te  Te150  1  0.49474073  0.66491914  0.00029028  1
  Te  Te151  1  0.49946626  0.66624486  0.33442155  1
  Te  Te152  1  0.49980052  0.66803260  0.66616998  1
  Te  Te153  1  0.83261133  0.00098377  0.00201244  1
  Te  Te154  1  0.83307803  0.00022692  0.33933487  1
  Te  Te155  1  0.83801747  -0.00291574  0.66100596  1
  Te  Te156  1  0.83411793  0.33339082  0.00521397  1
  Te  Te157  1  0.83448078  0.33409117  0.33411257  1
  Te  Te158  1  0.83289274  0.33605113  0.66206268  1
  Te  Te159  1  0.83302657  0.66604437  0.00833095  1
  Te  Te160  1  0.83259797  0.66227301  0.33049468  1
  Te  Te161  1  0.83551151  0.66691724  0.66627495  1
  Te  Te162  1  0.00608649  0.17238473  -0.00062881  1
  Te  Te163  1  0.00180783  0.16695758  0.33614688  1
  Te  Te164  1  -0.00447033  0.16744425  0.66253062  1
  Te  Te165  1  0.00023785  0.49547719  -0.00192119  1
  Te  Te166  1  -0.00295447  0.49614833  0.33127407  1
  Te  Te167  1  0.00121337  0.50099096  0.66821736  1
  Te  Te168  1  0.00885061  0.83193404  -0.00157060  1
  Te  Te169  1  0.00514516  0.83301299  0.33823776  1
  Te  Te170  1  0.00009138  0.83048373  0.66367441  1
  Te  Te171  1  0.33017354  0.16716744  -0.00254427  1
  Te  Te172  1  0.32671802  0.16626619  0.33265031  1
  Te  Te173  1  0.33418705  0.16500449  0.67463164  1
  Te  Te174  1  0.33612367  0.49990168  -0.00071313  1
  Te  Te175  1  0.33642228  0.50327396  0.33579513  1
  Te  Te176  1  0.32670471  0.50034858  0.66680305  1
  Te  Te177  1  0.32682574  0.83108897  0.00538718  1
  Te  Te178  1  0.33251581  0.83090588  0.33331603  1
  Te  Te179  1  0.34065036  0.83352768  0.66696327  1
  Te  Te180  1  0.66188274  0.16506060  0.00006783  1
  Te  Te181  1  0.66780168  0.15857347  0.33331725  1
  Te  Te182  1  0.67663867  0.16576712  0.66691553  1
  Te  Te183  1  0.65618423  0.50078055  -0.00179204  1
  Te  Te184  1  0.66561813  0.50033851  0.33458369  1
  Te  Te185  1  0.67763838  0.50839547  0.66690455  1
  Te  Te186  1  0.67009322  0.83349804  -0.00692434  1
  Te  Te187  1  0.66651808  0.83751006  0.33767451  1
  Te  Te188  1  0.66065392  0.83068606  0.66631107  1
  Te  Te189  1  0.00693027  0.00217322  0.16433874  1
  Te  Te190  1  -0.00277161  0.00029458  0.50452470  1
  Te  Te191  1  0.00437435  -0.00249870  0.82762364  1
  Te  Te192  1  0.00256213  0.33284453  0.16770335  1
  Te  Te193  1  0.00172830  0.33335025  0.49791641  1
  Te  Te194  1  0.00416416  0.33661949  0.83727187  1
  Te  Te195  1  -0.00316474  0.66381707  0.16625052  1
  Te  Te196  1  0.00379902  0.66862858  0.50364045  1
  Te  Te197  1  -0.00001088  0.66465232  0.83068254  1
  Te  Te198  1  0.32734111  -0.00421483  0.17167097  1
  Te  Te199  1  0.33390746  0.00507280  0.49399680  1
  Te  Te200  1  0.33159303  0.00033283  0.83183176  1
  Te  Te201  1  0.33884086  0.33377083  0.16046640  1
  Te  Te202  1  0.33168745  0.33903745  0.49870933  1
  Te  Te203  1  0.33270136  0.33568667  0.83652011  1
  Te  Te204  1  0.33624762  0.66818640  0.16842256  1
  Te  Te205  1  0.33265848  0.66218699  0.49784325  1
  Te  Te206  1  0.33750700  0.66234279  0.83689454  1
  Te  Te207  1  0.66719621  -0.00106363  0.17336757  1
  Te  Te208  1  0.67126000  -0.00622471  0.49629710  1
  Te  Te209  1  0.66464691  -0.00641176  0.83388567  1
  Te  Te210  1  0.66028047  0.33311246  0.16716809  1
  Te  Te211  1  0.66008796  0.33341337  0.49989272  1
  Te  Te212  1  0.66039381  0.33270193  0.83220172  1
  Te  Te213  1  0.66323704  0.66792146  0.16617346  1
  Te  Te214  1  0.66178128  0.67227312  0.50513299  1
  Te  Te215  1  0.66199244  0.67177736  0.82887180  1
