# generated using pymatgen
data_AgSbTe2
_symmetry_space_group_name_H-M   'P 1'
_cell_length_a   18.31811053
_cell_length_b   18.32271239
_cell_length_c   18.32100662
_cell_angle_alpha   89.99980691
_cell_angle_beta   90.00196594
_cell_angle_gamma   89.99973694
_symmetry_Int_Tables_number   1
_chemical_formula_structural   AgSbTe2
_chemical_formula_sum   'Ag54 Sb54 Te108'
_cell_volume   6149.21632080
_cell_formula_units_Z   54
loop_
 _symmetry_equiv_pos_site_id
 _symmetry_equiv_pos_as_xyz
  1  'x, y, z'
loop_
 _atom_site_type_symbol
 _atom_site_label
 _atom_site_symmetry_multiplicity
 _atom_site_fract_x
 _atom_site_fract_y
 _atom_site_fract_z
 _atom_site_occupancy
  Ag  Ag0  1  0.50154465  0.65512700  0.83378413  1
  Ag  Ag1  1  0.65447071  0.50327173  0.83132818  1
  Ag  Ag2  1  -0.00483048  0.33105580  0.66683413  1
  Ag  Ag3  1  0.33207788  0.66691251  -0.00168174  1
  Ag  Ag4  1  0.32835387  0.16626031  0.16240575  1
  Ag  Ag5  1  0.33214309  0.83050190  0.49522670  1
  Ag  Ag6  1  0.83030734  0.67345455  0.83022263  1
  Ag  Ag7  1  0.83506520  0.16187877  0.32994139  1
  Ag  Ag8  1  0.33278138  0.49980614  0.49890667  1
  Ag  Ag9  1  -0.00379720  0.66758027  0.66497988  1
  Ag  Ag10  1  0.67116883  0.32769757  0.66857452  1
  Ag  Ag11  1  0.83276877  0.84167985  -0.00861432  1
  Ag  Ag12  1  0.49495683  0.50075434  -0.01047765  1
  Ag  Ag13  1  0.83411987  -0.00042368  0.82243795  1
  Ag  Ag14  1  0.67127869  0.82933676  0.83179907  1
  Ag  Ag15  1  0.33465499  0.83895676  0.16865895  1
  Ag  Ag16  1  0.17026323  0.66268049  0.82960769  1
  Ag  Ag17  1  0.17293174  0.33236215  0.83164378  1
  Ag  Ag18  1  0.67248339  0.00085724  0.33915069  1
  Ag  Ag19  1  0.67010819  0.67371500  0.33490118  1
  Ag  Ag20  1  0.16458597  0.66262993  0.50253518  1
  Ag  Ag21  1  0.66973976  0.16161614  0.49752761  1
  Ag  Ag22  1  0.33300384  0.00019550  0.00239067  1
  Ag  Ag23  1  0.16741806  0.16665649  0.00449978  1
  Ag  Ag24  1  0.33101503  0.49727308  0.16584574  1
  Ag  Ag25  1  0.67570079  0.00575523  0.66069889  1
  Ag  Ag26  1  0.83670254  0.15940577  0.00001215  1
  Ag  Ag27  1  -0.01170981  0.00060259  0.66227244  1
  Ag  Ag28  1  0.17281520  0.33627336  0.49248577  1
  Ag  Ag29  1  0.16463237  0.17049853  0.32639804  1
  Ag  Ag30  1  0.49919285  0.34259107  0.82578231  1
  Ag  Ag31  1  0.83395667  0.84345658  0.66941686  1
  Ag  Ag32  1  0.83810321  0.67477164  0.50423130  1
  Ag  Ag33  1  0.51015144  0.00198687  0.49503041  1
  Ag  Ag34  1  0.16918796  0.32990314  0.17464188  1
  Ag  Ag35  1  0.16987035  0.49136580  0.33345856  1
  Ag  Ag36  1  -0.01030447  0.00314517  0.33759307  1
  Ag  Ag37  1  0.32903096  0.33435198  0.33383593  1
  Ag  Ag38  1  0.50323285  0.00134348  0.17280647  1
  Ag  Ag39  1  0.82836259  -0.00187210  0.50794875  1
  Ag  Ag40  1  0.83235495  0.15627776  0.66906021  1
  Ag  Ag41  1  0.34065665  0.49550562  0.83534208  1
  Ag  Ag42  1  0.50038667  0.49804597  0.67678573  1
  Ag  Ag43  1  0.67673082  0.16346964  0.17262078  1
  Ag  Ag44  1  0.16346950  0.00709658  0.83308937  1
  Ag  Ag45  1  0.83066360  0.32932757  0.82870385  1
  Ag  Ag46  1  0.00870579  0.49165080  0.16941608  1
  Ag  Ag47  1  0.32828616  0.17494171  0.83952383  1
  Ag  Ag48  1  0.82981973  0.00309501  0.16984699  1
  Ag  Ag49  1  0.83333020  0.67435892  0.16728956  1
  Ag  Ag50  1  0.00032063  0.16751821  0.17025769  1
  Ag  Ag51  1  0.49403096  0.33208681  0.50558501  1
  Ag  Ag52  1  -0.00387233  0.83481644  0.50220910  1
  Ag  Ag53  1  0.50029040  0.83635167  0.33504114  1
  Sb  Sb54  1  0.49476216  0.50245880  0.33362572  1
  Sb  Sb55  1  -0.00455052  0.16242969  0.49695586  1
  Sb  Sb56  1  0.49937295  0.66669994  0.50325195  1
  Sb  Sb57  1  0.16001141  0.16897592  0.66750455  1
  Sb  Sb58  1  0.16643338  0.00842889  0.16396462  1
  Sb  Sb59  1  -0.00402383  0.67161789  0.33751264  1
  Sb  Sb60  1  0.16418727  0.66056571  0.16802958  1
  Sb  Sb61  1  0.33481413  0.00042758  0.66930484  1
  Sb  Sb62  1  0.66228014  0.32840594  0.33884949  1
  Sb  Sb63  1  0.16456247  0.00198613  0.50344080  1
  Sb  Sb64  1  0.83054518  0.50008502  0.66772330  1
  Sb  Sb65  1  0.33477601  0.66385273  0.33100221  1
  Sb  Sb66  1  0.66197830  0.49673195  0.50479218  1
  Sb  Sb67  1  0.66886408  0.83893874  0.50226205  1
  Sb  Sb68  1  -0.00110763  0.00224440  -0.00125440  1
  Sb  Sb69  1  0.33457700  0.00451516  0.32816055  1
  Sb  Sb70  1  0.00121686  0.83755342  0.17249340  1
  Sb  Sb71  1  0.49790520  0.16947946  -0.00029554  1
  Sb  Sb72  1  0.17077275  0.49863119  0.66421423  1
  Sb  Sb73  1  0.50172966  0.83184167  0.00182115  1
  Sb  Sb74  1  0.83343024  0.32881078  0.50491027  1
  Sb  Sb75  1  -0.00748211  0.83355691  0.82694232  1
  Sb  Sb76  1  0.00111041  0.16698287  0.83510251  1
  Sb  Sb77  1  0.17296129  0.49510371  0.00169098  1
  Sb  Sb78  1  0.66375082  0.49702036  0.16331422  1
  Sb  Sb79  1  0.15974722  0.83276282  0.66633456  1
  Sb  Sb80  1  0.66533430  0.66734469  -0.00105487  1
  Sb  Sb81  1  0.66559157  0.83851203  0.16538156  1
  Sb  Sb82  1  0.50557592  0.83124703  0.66393400  1
  Sb  Sb83  1  0.83101059  0.50003994  -0.00215990  1
  Sb  Sb84  1  0.50274455  0.00163374  0.83226872  1
  Sb  Sb85  1  0.50088321  0.16184783  0.33265346  1
  Sb  Sb86  1  0.16498309  0.83796028  -0.00155544  1
  Sb  Sb87  1  0.83787083  0.49760902  0.33267038  1
  Sb  Sb88  1  0.82862389  0.84128605  0.33605937  1
  Sb  Sb89  1  0.00169158  0.33153312  -0.00357704  1
  Sb  Sb90  1  0.32995435  0.66568150  0.66985438  1
  Sb  Sb91  1  0.50647056  0.17134002  0.66608602  1
  Sb  Sb92  1  0.66736563  0.00135390  0.00055972  1
  Sb  Sb93  1  0.00613014  0.50298779  0.49722453  1
  Sb  Sb94  1  0.17058420  0.83596838  0.33485685  1
  Sb  Sb95  1  0.00238977  0.49938935  0.83445714  1
  Sb  Sb96  1  0.33576313  0.16797646  0.49875845  1
  Sb  Sb97  1  0.66685951  0.33184187  -0.00626448  1
  Sb  Sb98  1  0.49394716  0.32904992  0.16780794  1
  Sb  Sb99  1  0.50186347  0.66978285  0.16392839  1
  Sb  Sb100  1  0.33253931  0.33254391  0.00030873  1
  Sb  Sb101  1  0.83827724  0.32685892  0.16262155  1
  Sb  Sb102  1  0.33433283  0.33370480  0.66634392  1
  Sb  Sb103  1  0.66932395  0.16760216  0.83224589  1
  Sb  Sb104  1  0.00224507  0.66660989  -0.00407720  1
  Sb  Sb105  1  0.67213629  0.66753167  0.66614591  1
  Sb  Sb106  1  0.00552025  0.32784696  0.33731780  1
  Sb  Sb107  1  0.33748817  0.83085577  0.83422852  1
  Te  Te108  1  0.16800260  0.16902890  0.16605053  1
  Te  Te109  1  0.16677175  0.17197825  0.49673411  1
  Te  Te110  1  0.16706408  0.16708494  0.83379883  1
  Te  Te111  1  0.16918506  0.49553900  0.16842899  1
  Te  Te112  1  0.17170792  0.49877108  0.49770356  1
  Te  Te113  1  0.16973456  0.50045927  0.83370120  1
  Te  Te114  1  0.17374744  0.83124619  0.16638961  1
  Te  Te115  1  0.17107220  0.83013963  0.49998891  1
  Te  Te116  1  0.16756421  0.82937723  0.83374344  1
  Te  Te117  1  0.49358858  0.16126605  0.16633483  1
  Te  Te118  1  0.50394807  0.16559875  0.49951903  1
  Te  Te119  1  0.49394766  0.17071866  0.83358143  1
  Te  Te120  1  0.49421078  0.49949927  0.16407281  1
  Te  Te121  1  0.49395728  0.49686357  0.50106718  1
  Te  Te122  1  0.49841797  0.49901713  0.83323029  1
  Te  Te123  1  0.49625571  0.83806616  0.16919711  1
  Te  Te124  1  0.49643298  0.83507735  0.49752958  1
  Te  Te125  1  0.50716908  0.83170248  0.83297287  1
  Te  Te126  1  0.83530886  0.16593002  0.16684945  1
  Te  Te127  1  0.83025118  0.16349561  0.50007136  1
  Te  Te128  1  0.83381637  0.16560826  0.83372584  1
  Te  Te129  1  0.83372829  0.49936387  0.16516373  1
  Te  Te130  1  0.83271022  0.50685822  0.49894548  1
  Te  Te131  1  0.83484993  0.49785766  0.83505559  1
  Te  Te132  1  0.83354498  0.83457958  0.16677795  1
  Te  Te133  1  0.83430100  0.83455017  0.50147548  1
  Te  Te134  1  0.83212709  0.83483744  0.83193308  1
  Te  Te135  1  0.16850656  0.00453453  -0.00639375  1
  Te  Te136  1  0.16376519  0.00544228  0.33417669  1
  Te  Te137  1  0.16396291  0.00059887  0.67315569  1
  Te  Te138  1  0.16614552  0.32685327  -0.00723560  1
  Te  Te139  1  0.16767668  0.33165442  0.33399618  1
  Te  Te140  1  0.16087823  0.33301775  0.67150702  1
  Te  Te141  1  0.17042503  0.66751290  -0.00342094  1
  Te  Te142  1  0.16536954  0.66445935  0.33828962  1
  Te  Te143  1  0.16105527  0.66612303  0.66575390  1
  Te  Te144  1  0.49508878  0.00027406  0.00299516  1
  Te  Te145  1  0.50079948  -0.00286195  0.33406424  1
  Te  Te146  1  0.50416245  -0.00006771  0.66126243  1
  Te  Te147  1  0.50037096  0.33870333  -0.00414585  1
  Te  Te148  1  0.49381527  0.33355622  0.33912792  1
  Te  Te149  1  0.50174292  0.33580956  0.66557831  1
  Te  Te150  1  0.49604680  0.66452011  -0.00391594  1
  Te  Te151  1  0.50617722  0.67153384  0.33333497  1
  Te  Te152  1  0.50182482  0.66288873  0.67246168  1
  Te  Te153  1  0.83332943  0.00059764  0.00415378  1
  Te  Te154  1  0.83163559  0.00160752  0.33047701  1
  Te  Te155  1  0.83254823  -0.00044576  0.66508391  1
  Te  Te156  1  0.83427309  0.32744105  -0.00698374  1
  Te  Te157  1  0.83273272  0.32578683  0.33487065  1
  Te  Te158  1  0.83304395  0.33397930  0.66900441  1
  Te  Te159  1  0.83423121  0.66797505  -0.00366023  1
  Te  Te160  1  0.83022211  0.66554006  0.33348205  1
  Te  Te161  1  0.83589079  0.66617488  0.66744861  1
  Te  Te162  1  0.00019573  0.16627825  0.00812198  1
  Te  Te163  1  -0.00029819  0.16341334  0.33104629  1
  Te  Te164  1  -0.00717926  0.16587014  0.66604797  1
  Te  Te165  1  0.00048127  0.49969264  0.01064216  1
  Te  Te166  1  0.00606718  0.50054505  0.32807188  1
  Te  Te167  1  0.00046979  0.50038410  0.66591806  1
  Te  Te168  1  -0.00769232  0.83392670  0.00300299  1
  Te  Te169  1  0.00184884  0.84070225  0.34042167  1
  Te  Te170  1  -0.00564942  0.83366004  0.66173750  1
  Te  Te171  1  0.33168818  0.16442082  -0.00029046  1
  Te  Te172  1  0.33066447  0.17189710  0.33050756  1
  Te  Te173  1  0.33283548  0.16591821  0.67436796  1
  Te  Te174  1  0.33484539  0.50254759  -0.00080491  1
  Te  Te175  1  0.32988450  0.49725096  0.33310373  1
  Te  Te176  1  0.33912217  0.50017749  0.66763893  1
  Te  Te177  1  0.33311866  0.83438495  0.00340754  1
  Te  Te178  1  0.33751286  0.83261340  0.33212039  1
  Te  Te179  1  0.33391269  0.83329867  0.65935707  1
  Te  Te180  1  0.67163178  0.16675945  0.00714097  1
  Te  Te181  1  0.66811603  0.16300452  0.33385723  1
  Te  Te182  1  0.67181937  0.16664862  0.66572480  1
  Te  Te183  1  0.65974902  0.49953645  -0.00565008  1
  Te  Te184  1  0.66698359  0.50123649  0.33299799  1
  Te  Te185  1  0.66178517  0.49598640  0.67099122  1
  Te  Te186  1  0.67272108  0.83368709  -0.00502393  1
  Te  Te187  1  0.66200910  0.83552630  0.33267013  1
  Te  Te188  1  0.67237254  0.83661830  0.67056796  1
  Te  Te189  1  -0.00326110  0.00390393  0.17039572  1
  Te  Te190  1  -0.00062484  -0.00354533  0.50133282  1
  Te  Te191  1  -0.00129127  0.00004593  0.82929017  1
  Te  Te192  1  0.00583531  0.33205782  0.16757120  1
  Te  Te193  1  0.00360580  0.33433235  0.50597787  1
  Te  Te194  1  -0.00207709  0.33395741  0.82816430  1
  Te  Te195  1  -0.00549656  0.66824051  0.16671603  1
  Te  Te196  1  0.00051797  0.66965301  0.50295247  1
  Te  Te197  1  -0.00001273  0.66594532  0.82863627  1
  Te  Te198  1  0.33290028  0.00110665  0.16392127  1
  Te  Te199  1  0.33395191  -0.00203305  0.50003321  1
  Te  Te200  1  0.33271056  -0.00099053  0.83738088  1
  Te  Te201  1  0.33014643  0.33325082  0.16833871  1
  Te  Te202  1  0.33286215  0.33415906  0.49938908  1
  Te  Te203  1  0.33395567  0.33443198  0.83247969  1
  Te  Te204  1  0.33326101  0.66338163  0.16282348  1
  Te  Te205  1  0.33010866  0.66552991  0.49962261  1
  Te  Te206  1  0.33203511  0.66628582  0.83595104  1
  Te  Te207  1  0.66608312  0.00313773  0.16806834  1
  Te  Te208  1  0.66799695  0.00053246  0.49917902  1
  Te  Te209  1  0.67041329  -0.00071575  0.83041820  1
  Te  Te210  1  0.66474898  0.32665858  0.16866249  1
  Te  Te211  1  0.66334163  0.32861426  0.50614299  1
  Te  Te212  1  0.66656180  0.33444420  0.82874961  1
  Te  Te213  1  0.67225933  0.66551177  0.17016561  1
  Te  Te214  1  0.66949642  0.66579440  0.49650490  1
  Te  Te215  1  0.66898066  0.66459400  0.83243587  1
