# generated using pymatgen
data_AgSbTe2
_symmetry_space_group_name_H-M   'P 1'
_cell_length_a   18.32420893
_cell_length_b   18.32391566
_cell_length_c   18.32519548
_cell_angle_alpha   90.00032292
_cell_angle_beta   90.00055699
_cell_angle_gamma   89.99953299
_symmetry_Int_Tables_number   1
_chemical_formula_structural   AgSbTe2
_chemical_formula_sum   'Ag54 Sb54 Te108'
_cell_volume   6153.07395328
_cell_formula_units_Z   54
loop_
 _symmetry_equiv_pos_site_id
 _symmetry_equiv_pos_as_xyz
  1  'x, y, z'
loop_
 _atom_site_type_symbol
 _atom_site_label
 _atom_site_symmetry_multiplicity
 _atom_site_fract_x
 _atom_site_fract_y
 _atom_site_fract_z
 _atom_site_occupancy
  Ag  Ag0  1  0.49747948  0.00369168  0.16578375  1
  Ag  Ag1  1  0.33210674  0.33683460  0.32695988  1
  Ag  Ag2  1  0.49704796  0.49946032  0.33268817  1
  Ag  Ag3  1  0.00034130  0.00325348  0.33568500  1
  Ag  Ag4  1  0.84000651  0.66610139  0.83763380  1
  Ag  Ag5  1  0.16863733  0.17105671  0.33163358  1
  Ag  Ag6  1  -0.00387051  0.82396298  0.83478927  1
  Ag  Ag7  1  0.66748850  0.50263338  0.16712028  1
  Ag  Ag8  1  0.83305057  0.00082227  0.50277302  1
  Ag  Ag9  1  0.83174777  0.50028525  0.32576139  1
  Ag  Ag10  1  0.50075751  0.66502407  0.16425218  1
  Ag  Ag11  1  0.34257265  0.83055582  0.16237038  1
  Ag  Ag12  1  0.33810221  0.17714609  0.15823593  1
  Ag  Ag13  1  -0.00207707  0.82484946  0.16106451  1
  Ag  Ag14  1  0.33606155  0.00936761  0.00169650  1
  Ag  Ag15  1  0.00212289  0.66916078  0.67424898  1
  Ag  Ag16  1  0.83593583  0.83437890  0.67100803  1
  Ag  Ag17  1  0.49579526  0.33854987  0.49784958  1
  Ag  Ag18  1  -0.00707038  0.50331937  0.16552707  1
  Ag  Ag19  1  0.83329026  0.16264005  0.67367882  1
  Ag  Ag20  1  0.65880787  0.82177331  0.15911009  1
  Ag  Ag21  1  0.65604323  0.16887062  0.15958632  1
  Ag  Ag22  1  0.00810303  0.33653459  0.33122411  1
  Ag  Ag23  1  0.33412322  0.33446630  -0.00403410  1
  Ag  Ag24  1  0.00062994  0.50014319  0.49550267  1
  Ag  Ag25  1  0.33584600  0.65552485  0.32472702  1
  Ag  Ag26  1  0.65492528  0.50159878  0.49205820  1
  Ag  Ag27  1  0.66138473  0.66668800  0.00285401  1
  Ag  Ag28  1  0.48923595  0.32986422  0.83680749  1
  Ag  Ag29  1  0.17734172  0.33436250  0.16321400  1
  Ag  Ag30  1  0.33162734  0.66020061  0.67417380  1
  Ag  Ag31  1  -0.00235060  -0.00309663  0.66558463  1
  Ag  Ag32  1  0.49448361  0.33013577  0.16474291  1
  Ag  Ag33  1  0.33451106  0.33634255  0.68013482  1
  Ag  Ag34  1  0.33853265  0.17886841  0.83937869  1
  Ag  Ag35  1  0.49755772  0.65494036  0.49360117  1
  Ag  Ag36  1  0.33960950  0.66185212  0.00084774  1
  Ag  Ag37  1  0.49840725  0.83447511  0.00311301  1
  Ag  Ag38  1  0.49791168  0.16663650  0.00037890  1
  Ag  Ag39  1  0.32978491  0.49215045  0.83536699  1
  Ag  Ag40  1  0.16701436  0.00684598  0.83358591  1
  Ag  Ag41  1  0.33844654  0.49868482  0.49969216  1
  Ag  Ag42  1  0.50039312  0.00325693  0.49601675  1
  Ag  Ag43  1  0.17268941  0.16725928  0.67217968  1
  Ag  Ag44  1  0.49608563  0.16915596  0.67682583  1
  Ag  Ag45  1  0.65807093  0.16460839  0.83937708  1
  Ag  Ag46  1  0.16959618  0.49921053  -0.00236902  1
  Ag  Ag47  1  0.17615320  0.33628689  0.83813690  1
  Ag  Ag48  1  0.66984260  0.83385870  0.84048225  1
  Ag  Ag49  1  0.00978880  0.50558840  0.83619159  1
  Ag  Ag50  1  0.82581402  0.66208859  0.15946711  1
  Ag  Ag51  1  0.16383870  0.65898385  0.83430568  1
  Ag  Ag52  1  0.83720137  0.50156017  0.00533047  1
  Ag  Ag53  1  0.82351168  0.17069345  -0.00338199  1
  Sb  Sb54  1  0.16264534  0.83537581  0.67225762  1
  Sb  Sb55  1  0.17378116  0.33573765  0.49946288  1
  Sb  Sb56  1  0.83196683  0.33999668  0.16628361  1
  Sb  Sb57  1  0.16917120  0.49459889  0.32572832  1
  Sb  Sb58  1  0.16752191  0.00263309  0.50314736  1
  Sb  Sb59  1  0.83688865  0.50043653  0.66832145  1
  Sb  Sb60  1  0.83000616  -0.00372910  0.16816893  1
  Sb  Sb61  1  0.49555149  0.49536195  0.66105100  1
  Sb  Sb62  1  0.00342510  0.16805192  0.83283236  1
  Sb  Sb63  1  0.66502457  0.82836719  0.49945640  1
  Sb  Sb64  1  0.00673846  0.33707163  0.00374480  1
  Sb  Sb65  1  0.66550064  0.66574769  0.67239912  1
  Sb  Sb66  1  0.33377118  0.83020652  0.83989010  1
  Sb  Sb67  1  0.65867384  0.33225793  0.66763970  1
  Sb  Sb68  1  0.66797508  0.00122288  0.33136690  1
  Sb  Sb69  1  0.16909244  0.49555269  0.67543387  1
  Sb  Sb70  1  0.50281528  0.83710828  0.67323459  1
  Sb  Sb71  1  0.00473263  -0.00043023  -0.00144040  1
  Sb  Sb72  1  0.49934914  0.82850162  0.32311196  1
  Sb  Sb73  1  0.16931188  0.65910720  0.16018073  1
  Sb  Sb74  1  0.17216397  0.00480720  0.16248148  1
  Sb  Sb75  1  0.17428830  0.17176642  -0.00220432  1
  Sb  Sb76  1  0.83809060  -0.00304527  0.83045977  1
  Sb  Sb77  1  0.82959362  0.33295473  0.49960163  1
  Sb  Sb78  1  0.83445012  0.82830598  0.33315404  1
  Sb  Sb79  1  0.65923567  0.33403403  0.00133722  1
  Sb  Sb80  1  0.83693448  0.17053463  0.33109631  1
  Sb  Sb81  1  0.33751014  0.49701752  0.16415928  1
  Sb  Sb82  1  0.66075399  -0.00115860  0.00065358  1
  Sb  Sb83  1  -0.00096948  0.66467918  -0.00484653  1
  Sb  Sb84  1  0.67111099  0.00070867  0.66729472  1
  Sb  Sb85  1  0.82793829  0.82982552  -0.00311455  1
  Sb  Sb86  1  0.49457849  0.17264718  0.32700244  1
  Sb  Sb87  1  0.66048126  0.66256579  0.32371005  1
  Sb  Sb88  1  0.49823557  0.49802045  0.00630728  1
  Sb  Sb89  1  0.83553385  0.33585736  0.83529248  1
  Sb  Sb90  1  0.82933111  0.66618655  0.50085478  1
  Sb  Sb91  1  0.00570655  0.66302416  0.33478713  1
  Sb  Sb92  1  0.66171512  0.33655319  0.33095202  1
  Sb  Sb93  1  0.49506113  0.00686977  0.83791628  1
  Sb  Sb94  1  0.00198080  0.16925381  0.16597491  1
  Sb  Sb95  1  0.33609718  0.17334854  0.50208489  1
  Sb  Sb96  1  0.66306251  0.17006684  0.50068647  1
  Sb  Sb97  1  0.66450163  0.49953613  0.83780016  1
  Sb  Sb98  1  -0.00054507  0.17025316  0.50074492  1
  Sb  Sb99  1  -0.00195285  0.83055236  0.50301148  1
  Sb  Sb100  1  0.49729122  0.66148593  0.83704205  1
  Sb  Sb101  1  0.16699476  0.83677129  0.32865807  1
  Sb  Sb102  1  0.33104387  0.00369836  0.32792384  1
  Sb  Sb103  1  0.17274565  0.82720343  -0.00089431  1
  Sb  Sb104  1  0.17249390  0.66205775  0.50710590  1
  Sb  Sb105  1  0.33847572  0.82531013  0.49526942  1
  Sb  Sb106  1  0.00604902  0.33443555  0.66460321  1
  Sb  Sb107  1  0.33049953  0.00330589  0.67146261  1
  Te  Te108  1  0.17007506  0.17216872  0.16752587  1
  Te  Te109  1  0.16762972  0.16747351  0.50267568  1
  Te  Te110  1  0.16928130  0.16950377  0.83267584  1
  Te  Te111  1  0.15919625  0.49408508  0.15989590  1
  Te  Te112  1  0.16273438  0.50002709  0.49916409  1
  Te  Te113  1  0.16883193  0.49893834  0.83595692  1
  Te  Te114  1  0.16009184  0.83426939  0.16465661  1
  Te  Te115  1  0.16787134  0.83277472  0.49888954  1
  Te  Te116  1  0.16109609  0.83172462  0.83438378  1
  Te  Te117  1  0.49752553  0.16780427  0.16601628  1
  Te  Te118  1  0.50181149  0.16513063  0.50052191  1
  Te  Te119  1  0.49864598  0.16811050  0.83570183  1
  Te  Te120  1  0.50338848  0.50380329  0.17082529  1
  Te  Te121  1  0.49793333  0.49903815  0.49812997  1
  Te  Te122  1  0.49620154  0.49241955  0.83241856  1
  Te  Te123  1  0.49994207  0.82931878  0.16290106  1
  Te  Te124  1  0.50273649  0.83917227  0.50211139  1
  Te  Te125  1  0.50574882  0.83449966  0.83996288  1
  Te  Te126  1  0.83000577  0.16652713  0.16306354  1
  Te  Te127  1  0.83075438  0.16159950  0.50202390  1
  Te  Te128  1  0.83278573  0.16743723  0.83386002  1
  Te  Te129  1  0.83280660  0.50195249  0.16603440  1
  Te  Te130  1  0.83787475  0.49988493  0.49798260  1
  Te  Te131  1  0.83243288  0.50453776  0.83665573  1
  Te  Te132  1  0.83594193  0.82812324  0.16602325  1
  Te  Te133  1  0.83121862  0.83815225  0.50485487  1
  Te  Te134  1  0.83409596  0.83034337  0.83192179  1
  Te  Te135  1  0.17325960  -0.00006455  -0.00543969  1
  Te  Te136  1  0.16118576  0.00681366  0.33335061  1
  Te  Te137  1  0.16226923  0.00497528  0.67057907  1
  Te  Te138  1  0.17225176  0.33720112  0.00013152  1
  Te  Te139  1  0.16823841  0.33007175  0.33302256  1
  Te  Te140  1  0.17237657  0.32684874  0.66983796  1
  Te  Te141  1  0.17395648  0.66080010  -0.00618640  1
  Te  Te142  1  0.17534251  0.66753539  0.33392081  1
  Te  Te143  1  0.16691847  0.66805977  0.67370093  1
  Te  Te144  1  0.49499136  0.00253804  0.00397993  1
  Te  Te145  1  0.49961115  0.00033432  0.33155430  1
  Te  Te146  1  0.49933257  0.00562783  0.66423742  1
  Te  Te147  1  0.49518632  0.33150577  0.00230514  1
  Te  Te148  1  0.49614302  0.33748860  0.33142340  1
  Te  Te149  1  0.49404602  0.32896290  0.66605458  1
  Te  Te150  1  0.50029799  0.66501053  0.00201620  1
  Te  Te151  1  0.49522700  0.66331542  0.33238801  1
  Te  Te152  1  0.49558196  0.66926548  0.66587403  1
  Te  Te153  1  0.83434728  0.00676227  0.00027655  1
  Te  Te154  1  0.83922124  0.00078819  0.33803397  1
  Te  Te155  1  0.83734352  0.00118749  0.66454224  1
  Te  Te156  1  0.83366509  0.33375504  0.00024859  1
  Te  Te157  1  0.84056474  0.33906378  0.33406172  1
  Te  Te158  1  0.83477443  0.32537341  0.66648087  1
  Te  Te159  1  0.83119312  0.66537229  0.00044506  1
  Te  Te160  1  0.83604531  0.66019179  0.33108496  1
  Te  Te161  1  0.83482761  0.66920406  0.66990495  1
  Te  Te162  1  -0.00929511  0.16759502  -0.00047154  1
  Te  Te163  1  0.00463306  0.16779177  0.33333135  1
  Te  Te164  1  -0.00186056  0.16399506  0.66686371  1
  Te  Te165  1  -0.00257148  0.50053588  -0.00071029  1
  Te  Te166  1  0.00223543  0.49896493  0.33107964  1
  Te  Te167  1  0.00077569  0.50321131  0.66973932  1
  Te  Te168  1  -0.00015018  0.83399527  -0.00032027  1
  Te  Te169  1  -0.00030041  0.83632298  0.33059767  1
  Te  Te170  1  -0.00339431  0.83276672  0.66928856  1
  Te  Te171  1  0.33473636  0.16888115  -0.00081019  1
  Te  Te172  1  0.32820961  0.17063247  0.33206872  1
  Te  Te173  1  0.33455841  0.16778833  0.66877070  1
  Te  Te174  1  0.33300946  0.49913973  -0.00209963  1
  Te  Te175  1  0.33415558  0.49888449  0.33386566  1
  Te  Te176  1  0.33237275  0.49979527  0.66713110  1
  Te  Te177  1  0.33854669  0.82848787  0.00395893  1
  Te  Te178  1  0.33279475  0.83155384  0.32498925  1
  Te  Te179  1  0.33410483  0.82901776  0.66568583  1
  Te  Te180  1  0.66315458  0.16714947  -0.00036456  1
  Te  Te181  1  0.66810322  0.16883876  0.32558090  1
  Te  Te182  1  0.66578963  0.16668457  0.66997743  1
  Te  Te183  1  0.67081280  0.50313694  0.00356331  1
  Te  Te184  1  0.66834813  0.50021394  0.33239502  1
  Te  Te185  1  0.66776327  0.49996596  0.66212379  1
  Te  Te186  1  0.66278995  0.83184543  0.00098977  1
  Te  Te187  1  0.66795464  0.83312610  0.32317617  1
  Te  Te188  1  0.67228350  0.83271254  0.67267023  1
  Te  Te189  1  0.00017388  -0.00085534  0.16919804  1
  Te  Te190  1  -0.00105840  -0.00091903  0.50120695  1
  Te  Te191  1  0.00546916  -0.00160590  0.83014159  1
  Te  Te192  1  0.00132883  0.33716965  0.17073409  1
  Te  Te193  1  -0.00074546  0.33941020  0.49580976  1
  Te  Te194  1  0.00488977  0.34173043  0.83305890  1
  Te  Te195  1  0.00137574  0.66558781  0.16734419  1
  Te  Te196  1  -0.00047581  0.66226099  0.50500302  1
  Te  Te197  1  -0.00035543  0.66552441  0.83309998  1
  Te  Te198  1  0.33684915  -0.00272268  0.16302371  1
  Te  Te199  1  0.33806884  -0.00176972  0.49875255  1
  Te  Te200  1  0.32774380  -0.00168031  0.83836627  1
  Te  Te201  1  0.33417838  0.33505456  0.16756754  1
  Te  Te202  1  0.33806123  0.33867030  0.49347431  1
  Te  Te203  1  0.33316961  0.33421935  0.83504678  1
  Te  Te204  1  0.33393143  0.66551306  0.16437538  1
  Te  Te205  1  0.33813970  0.66104848  0.50246752  1
  Te  Te206  1  0.33208044  0.66606176  0.83414510  1
  Te  Te207  1  0.66132349  0.00388348  0.16732230  1
  Te  Te208  1  0.66497539  -0.00143346  0.49859535  1
  Te  Te209  1  0.66726628  0.00126767  0.83392651  1
  Te  Te210  1  0.66081070  0.33491219  0.16698444  1
  Te  Te211  1  0.65924643  0.34024472  0.49934489  1
  Te  Te212  1  0.66394027  0.32804715  0.83380283  1
  Te  Te213  1  0.66633118  0.66452882  0.16358032  1
  Te  Te214  1  0.66025099  0.66191997  0.50054618  1
  Te  Te215  1  0.66769973  0.66797109  0.83973512  1
