# generated using pymatgen
data_AgSbTe2
_symmetry_space_group_name_H-M   'P 1'
_cell_length_a   18.33247658
_cell_length_b   18.33854466
_cell_length_c   18.33046728
_cell_angle_alpha   90.00031907
_cell_angle_beta   90.00055647
_cell_angle_gamma   89.99903968
_symmetry_Int_Tables_number   1
_chemical_formula_structural   AgSbTe2
_chemical_formula_sum   'Ag54 Sb54 Te108'
_cell_volume   6162.53703422
_cell_formula_units_Z   54
loop_
 _symmetry_equiv_pos_site_id
 _symmetry_equiv_pos_as_xyz
  1  'x, y, z'
loop_
 _atom_site_type_symbol
 _atom_site_label
 _atom_site_symmetry_multiplicity
 _atom_site_fract_x
 _atom_site_fract_y
 _atom_site_fract_z
 _atom_site_occupancy
  Ag  Ag0  1  -0.00030412  0.16331442  0.83948763  1
  Ag  Ag1  1  0.66299366  0.33425135  0.66220143  1
  Ag  Ag2  1  0.17112965  0.00546983  0.17192254  1
  Ag  Ag3  1  0.00730637  0.33387341  0.65602695  1
  Ag  Ag4  1  0.66833722  0.16508816  0.83342294  1
  Ag  Ag5  1  0.83827224  0.82955912  0.67173158  1
  Ag  Ag6  1  0.66109462  0.00501670  0.33085553  1
  Ag  Ag7  1  0.32926684  0.50635140  0.17663480  1
  Ag  Ag8  1  0.83273174  0.66529777  0.16777361  1
  Ag  Ag9  1  0.66612721  0.66207631  0.32596209  1
  Ag  Ag10  1  0.49457317  -0.00555181  0.16486145  1
  Ag  Ag11  1  0.00568161  0.17409237  0.16664062  1
  Ag  Ag12  1  0.16340164  0.16772787  0.01549928  1
  Ag  Ag13  1  0.33320705  0.00288641  0.33146122  1
  Ag  Ag14  1  0.66447548  0.33596329  0.33433425  1
  Ag  Ag15  1  0.32531473  0.33663540  0.33668735  1
  Ag  Ag16  1  0.16978717  0.01218438  0.49304720  1
  Ag  Ag17  1  0.00873731  0.65688130  0.32477328  1
  Ag  Ag18  1  0.50490347  0.66977043  0.84655027  1
  Ag  Ag19  1  0.17142020  0.49871572  0.65866784  1
  Ag  Ag20  1  0.16838706  0.66196283  0.17358903  1
  Ag  Ag21  1  0.50080643  0.66689186  0.16459119  1
  Ag  Ag22  1  0.17218823  0.33576656  0.49469738  1
  Ag  Ag23  1  0.16847847  0.17075746  0.65879803  1
  Ag  Ag24  1  0.33794946  0.82276813  0.16860247  1
  Ag  Ag25  1  0.83866049  0.17607781  0.33146255  1
  Ag  Ag26  1  0.66221366  0.34157609  0.00918384  1
  Ag  Ag27  1  0.33107992  0.66414489  0.65749624  1
  Ag  Ag28  1  0.16869058  0.65362144  0.49023335  1
  Ag  Ag29  1  0.00866346  0.33871225  0.33410760  1
  Ag  Ag30  1  0.32807085  0.65582542  0.33069623  1
  Ag  Ag31  1  0.01226209  0.49825066  0.49244427  1
  Ag  Ag32  1  0.00868016  0.50266211  0.17538994  1
  Ag  Ag33  1  0.49764754  0.33832282  0.17461081  1
  Ag  Ag34  1  0.66183237  0.66486931  0.00710457  1
  Ag  Ag35  1  0.50267785  -0.00441275  0.84100764  1
  Ag  Ag36  1  0.50062247  0.50749628  0.00353451  1
  Ag  Ag37  1  0.16531142  0.82514983  0.66618438  1
  Ag  Ag38  1  0.82810533  0.67002707  0.83921906  1
  Ag  Ag39  1  0.83833956  0.49830671  0.33279961  1
  Ag  Ag40  1  0.16556145  0.17243672  0.33318429  1
  Ag  Ag41  1  0.16754273  0.33164524  0.17627187  1
  Ag  Ag42  1  0.00400552  -0.00426032  0.00148369  1
  Ag  Ag43  1  0.65920774  0.82500568  0.16274482  1
  Ag  Ag44  1  0.49316468  0.33716668  0.49341049  1
  Ag  Ag45  1  0.49474636  0.17548497  0.66750706  1
  Ag  Ag46  1  0.50272657  0.82496842  0.00454847  1
  Ag  Ag47  1  -0.00290828  0.66709681  0.00694928  1
  Ag  Ag48  1  0.65998720  0.49739987  0.49650351  1
  Ag  Ag49  1  -0.00543992  0.83397722  0.83394257  1
  Ag  Ag50  1  0.49591932  0.49645508  0.66598487  1
  Ag  Ag51  1  0.32922807  0.49736147  0.49415199  1
  Ag  Ag52  1  0.32898277  0.17909441  0.49810272  1
  Ag  Ag53  1  0.66751856  0.83086673  0.83787698  1
  Sb  Sb54  1  0.33565607  0.50243664  0.83004617  1
  Sb  Sb55  1  0.83349087  -0.00524365  0.16782924  1
  Sb  Sb56  1  0.66876029  0.16663013  0.16616408  1
  Sb  Sb57  1  0.49750893  0.16705969  -0.00289073  1
  Sb  Sb58  1  0.49641271  0.17037438  0.33395762  1
  Sb  Sb59  1  0.83525222  0.16635481  0.66331064  1
  Sb  Sb60  1  0.66073443  0.17419320  0.50080167  1
  Sb  Sb61  1  0.50248051  0.33465523  0.83122388  1
  Sb  Sb62  1  0.49955776  0.83230610  0.32557808  1
  Sb  Sb63  1  0.49792961  0.82973037  0.67507918  1
  Sb  Sb64  1  0.00174171  0.82785236  0.16303589  1
  Sb  Sb65  1  0.83036548  -0.00411434  0.83326216  1
  Sb  Sb66  1  0.33586399  0.66645374  0.00740440  1
  Sb  Sb67  1  0.83919959  -0.00001722  0.49678778  1
  Sb  Sb68  1  0.49430547  0.65840215  0.49551903  1
  Sb  Sb69  1  0.66374992  0.00277447  0.66370722  1
  Sb  Sb70  1  0.16928748  0.00180995  0.83450624  1
  Sb  Sb71  1  0.16310535  0.49455653  0.33841078  1
  Sb  Sb72  1  0.83499079  0.33419741  0.49704023  1
  Sb  Sb73  1  0.00432743  0.00473127  0.32784010  1
  Sb  Sb74  1  0.83750934  0.16823388  0.00417453  1
  Sb  Sb75  1  0.83855028  0.66380893  0.49568844  1
  Sb  Sb76  1  0.66521987  0.82759617  0.49875769  1
  Sb  Sb77  1  0.16674988  0.66786903  0.83460844  1
  Sb  Sb78  1  0.33166503  -0.00386706  0.66033167  1
  Sb  Sb79  1  0.32713113  0.16851623  0.17493067  1
  Sb  Sb80  1  0.83325548  0.50314703  0.66104331  1
  Sb  Sb81  1  0.17033184  0.49690236  0.00262218  1
  Sb  Sb82  1  0.49514671  0.00694254  0.49616100  1
  Sb  Sb83  1  0.49968996  0.49852661  0.33140018  1
  Sb  Sb84  1  0.66717066  -0.00262049  0.00288358  1
  Sb  Sb85  1  0.16478007  0.33034640  0.82959338  1
  Sb  Sb86  1  0.83227271  0.82824467  0.33450978  1
  Sb  Sb87  1  0.33079521  0.00118975  0.00848740  1
  Sb  Sb88  1  0.82962678  0.82964073  -0.00223094  1
  Sb  Sb89  1  0.00865566  0.17423804  0.49633741  1
  Sb  Sb90  1  0.83417216  0.33990958  0.17120681  1
  Sb  Sb91  1  -0.00032657  0.50152235  0.83383829  1
  Sb  Sb92  1  0.82882255  0.50345155  0.00801586  1
  Sb  Sb93  1  -0.00143891  0.33595122  0.00503015  1
  Sb  Sb94  1  0.66157544  0.50470914  0.17329271  1
  Sb  Sb95  1  0.66209992  0.66223400  0.66675908  1
  Sb  Sb96  1  0.33517430  0.83194858  0.83735242  1
  Sb  Sb97  1  0.00457743  0.82708026  0.50439247  1
  Sb  Sb98  1  0.16659349  0.83354675  0.33387227  1
  Sb  Sb99  1  0.33308980  0.33882888  0.65850495  1
  Sb  Sb100  1  0.66530569  0.50241952  0.83138554  1
  Sb  Sb101  1  0.16809139  0.83523210  0.00032297  1
  Sb  Sb102  1  0.00393085  0.00409865  0.66978249  1
  Sb  Sb103  1  0.00493851  0.66226826  0.66635081  1
  Sb  Sb104  1  0.83175230  0.33684315  0.83303447  1
  Sb  Sb105  1  0.33086506  0.82840083  0.49355537  1
  Sb  Sb106  1  0.33798608  0.33357153  0.01452878  1
  Sb  Sb107  1  0.33413907  0.16584666  0.82548544  1
  Te  Te108  1  0.16527265  0.16834731  0.17191558  1
  Te  Te109  1  0.16853317  0.17037093  0.49742616  1
  Te  Te110  1  0.16171958  0.16472160  0.82361979  1
  Te  Te111  1  0.16889857  0.50037573  0.16230894  1
  Te  Te112  1  0.16806043  0.49770081  0.50180816  1
  Te  Te113  1  0.16694113  0.49905742  0.82394560  1
  Te  Te114  1  0.17024138  0.83316771  0.16536816  1
  Te  Te115  1  0.16735435  0.83216898  0.50755006  1
  Te  Te116  1  0.16367843  0.83530775  0.82888387  1
  Te  Te117  1  0.49983738  0.16821402  0.16449995  1
  Te  Te118  1  0.49395943  0.17308224  0.50616006  1
  Te  Te119  1  0.50275770  0.16398547  0.82887783  1
  Te  Te120  1  0.49696156  0.49753130  0.16442136  1
  Te  Te121  1  0.49909698  0.49609801  0.50447955  1
  Te  Te122  1  0.50088086  0.50572735  0.83143220  1
  Te  Te123  1  0.49985014  0.83367136  0.16490914  1
  Te  Te124  1  0.49976620  0.83559114  0.50437561  1
  Te  Te125  1  0.50260607  0.83199020  0.83864369  1
  Te  Te126  1  0.83995841  0.16455477  0.17181667  1
  Te  Te127  1  0.83310508  0.16472467  0.49213423  1
  Te  Te128  1  0.83376993  0.16623910  0.83313700  1
  Te  Te129  1  0.84175739  0.50590426  0.17278954  1
  Te  Te130  1  0.82964155  0.50044610  0.49372420  1
  Te  Te131  1  0.83370416  0.50941508  0.83344505  1
  Te  Te132  1  0.82710364  0.82672743  0.16689696  1
  Te  Te133  1  0.83416592  0.83242106  0.50956203  1
  Te  Te134  1  0.83227796  0.83009652  0.83196474  1
  Te  Te135  1  0.16344190  0.00348279  0.00372712  1
  Te  Te136  1  0.16856740  0.00053178  0.33209451  1
  Te  Te137  1  0.16773034  0.00650923  0.66299044  1
  Te  Te138  1  0.16668487  0.32857089  0.00255235  1
  Te  Te139  1  0.16551627  0.33224743  0.33319310  1
  Te  Te140  1  0.16654853  0.33347534  0.66373446  1
  Te  Te141  1  0.16310196  0.66655146  0.00309249  1
  Te  Te142  1  0.16789141  0.66970198  0.33244166  1
  Te  Te143  1  0.16940697  0.66488493  0.66815411  1
  Te  Te144  1  0.50033512  -0.00021303  0.00333311  1
  Te  Te145  1  0.49958970  0.00243627  0.32828575  1
  Te  Te146  1  0.49902207  0.00357149  0.66805226  1
  Te  Te147  1  0.50491410  0.33464154  0.00170691  1
  Te  Te148  1  0.50425240  0.33224976  0.33377981  1
  Te  Te149  1  0.49984046  0.33475591  0.66627735  1
  Te  Te150  1  0.50022578  0.66562848  0.00283119  1
  Te  Te151  1  0.50002952  0.66660251  0.32798556  1
  Te  Te152  1  0.49492137  0.66221895  0.66340171  1
  Te  Te153  1  0.84369387  0.00080200  0.00049255  1
  Te  Te154  1  0.82898427  0.00062200  0.33344292  1
  Te  Te155  1  0.83346910  -0.00695478  0.66493626  1
  Te  Te156  1  0.82119191  0.33522709  0.00113107  1
  Te  Te157  1  0.82902628  0.33457255  0.33266507  1
  Te  Te158  1  0.83030979  0.33379089  0.66634033  1
  Te  Te159  1  0.83141964  0.66582868  0.00206509  1
  Te  Te160  1  0.82932543  0.66360431  0.33002815  1
  Te  Te161  1  0.83380586  0.66975692  0.66892210  1
  Te  Te162  1  0.00278308  0.16980162  0.00114659  1
  Te  Te163  1  0.00164202  0.16907288  0.33013514  1
  Te  Te164  1  0.00111968  0.17205891  0.66796738  1
  Te  Te165  1  0.00059197  0.50509684  0.00261574  1
  Te  Te166  1  0.00028361  0.49998227  0.33251377  1
  Te  Te167  1  0.00095121  0.49381225  0.66513560  1
  Te  Te168  1  0.00081473  0.83087690  -0.00461743  1
  Te  Te169  1  -0.00196459  0.82620176  0.33455060  1
  Te  Te170  1  0.00274473  0.83318822  0.67152108  1
  Te  Te171  1  0.32395454  0.16722384  -0.00525047  1
  Te  Te172  1  0.33024575  0.16897362  0.33852138  1
  Te  Te173  1  0.33258441  0.16508279  0.66039960  1
  Te  Te174  1  0.33994458  0.49895075  0.00144488  1
  Te  Te175  1  0.33415369  0.49849371  0.33383411  1
  Te  Te176  1  0.33395177  0.50339250  0.66387911  1
  Te  Te177  1  0.33892718  0.83416869  0.00713356  1
  Te  Te178  1  0.33343292  0.83652852  0.32688371  1
  Te  Te179  1  0.32803235  0.82766090  0.66688143  1
  Te  Te180  1  0.66749458  0.16660890  -0.00562294  1
  Te  Te181  1  0.66824395  0.16892980  0.33309575  1
  Te  Te182  1  0.66720685  0.17043385  0.66980855  1
  Te  Te183  1  0.66218292  0.50189377  -0.00067178  1
  Te  Te184  1  0.66804874  0.49945635  0.33522351  1
  Te  Te185  1  0.66497261  0.49507526  0.66150277  1
  Te  Te186  1  0.66354904  0.83139289  -0.00022259  1
  Te  Te187  1  0.66710529  0.82870926  0.33030339  1
  Te  Te188  1  0.66679807  0.83358207  0.67071271  1
  Te  Te189  1  0.00349035  -0.00177204  0.16275536  1
  Te  Te190  1  0.00840499  -0.00150376  0.49851267  1
  Te  Te191  1  0.00055033  0.00054097  0.83705414  1
  Te  Te192  1  0.00097970  0.33443470  0.16966087  1
  Te  Te193  1  0.00159053  0.33804656  0.49725580  1
  Te  Te194  1  -0.00262105  0.32828592  0.83435623  1
  Te  Te195  1  0.00329921  0.66715578  0.16656422  1
  Te  Te196  1  0.00636117  0.65958814  0.49775271  1
  Te  Te197  1  -0.00165168  0.66967041  0.83585774  1
  Te  Te198  1  0.33265715  0.00310309  0.17183186  1
  Te  Te199  1  0.32841895  -0.00275866  0.49270776  1
  Te  Te200  1  0.34209903  -0.00101999  0.83329629  1
  Te  Te201  1  0.33362480  0.33531855  0.17577148  1
  Te  Te202  1  0.33361858  0.33670574  0.49708605  1
  Te  Te203  1  0.33379091  0.33301422  0.83766940  1
  Te  Te204  1  0.33280390  0.66499884  0.16927464  1
  Te  Te205  1  0.32874707  0.66258951  0.49546087  1
  Te  Te206  1  0.33917389  0.66818920  0.82950890  1
  Te  Te207  1  0.66516613  -0.00236737  0.17014092  1
  Te  Te208  1  0.66604031  -0.00060285  0.49168249  1
  Te  Te209  1  0.66325583  -0.00069003  0.83312133  1
  Te  Te210  1  0.66468198  0.33353104  0.16795774  1
  Te  Te211  1  0.66522019  0.33643836  0.49880964  1
  Te  Te212  1  0.66709330  0.32945842  0.82811840  1
  Te  Te213  1  0.66233141  0.66538612  0.16567767  1
  Te  Te214  1  0.66643097  0.66086416  0.49503665  1
  Te  Te215  1  0.66551273  0.66920959  0.83291897  1
