# generated using pymatgen
data_AgSbTe2
_symmetry_space_group_name_H-M   'P 1'
_cell_length_a   18.33163710
_cell_length_b   18.31701733
_cell_length_c   18.32217532
_cell_angle_alpha   89.99938602
_cell_angle_beta   90.00228781
_cell_angle_gamma   90.00198997
_symmetry_Int_Tables_number   1
_chemical_formula_structural   AgSbTe2
_chemical_formula_sum   'Ag54 Sb54 Te108'
_cell_volume   6152.23677578
_cell_formula_units_Z   54
loop_
 _symmetry_equiv_pos_site_id
 _symmetry_equiv_pos_as_xyz
  1  'x, y, z'
loop_
 _atom_site_type_symbol
 _atom_site_label
 _atom_site_symmetry_multiplicity
 _atom_site_fract_x
 _atom_site_fract_y
 _atom_site_fract_z
 _atom_site_occupancy
  Ag  Ag0  1  0.49699330  0.00017788  0.50056673  1
  Ag  Ag1  1  0.16967173  0.32900309  0.50079972  1
  Ag  Ag2  1  0.66770338  0.49655710  0.83318660  1
  Ag  Ag3  1  0.00528946  0.66712339  0.67180417  1
  Ag  Ag4  1  0.33371041  0.16015089  0.17266883  1
  Ag  Ag5  1  -0.00123974  0.16315231  0.49110445  1
  Ag  Ag6  1  0.66784817  0.00069414  0.66912391  1
  Ag  Ag7  1  0.16837421  0.16629610  0.33546706  1
  Ag  Ag8  1  0.32963820  0.49172963  0.82542026  1
  Ag  Ag9  1  0.50144537  0.84300108  0.33497180  1
  Ag  Ag10  1  0.32542956  0.66295286  0.66657633  1
  Ag  Ag11  1  -0.00049441  0.00186352  0.00300843  1
  Ag  Ag12  1  0.00201078  0.49591763  0.83809586  1
  Ag  Ag13  1  0.66296931  0.84516361  0.49376303  1
  Ag  Ag14  1  0.00380860  0.00467452  0.32832293  1
  Ag  Ag15  1  0.83907030  0.66473719  0.16725907  1
  Ag  Ag16  1  0.49898467  0.00643349  0.83128315  1
  Ag  Ag17  1  0.83729023  0.16148787  0.33396729  1
  Ag  Ag18  1  0.17193948  0.32944102  0.82827844  1
  Ag  Ag19  1  0.50103040  0.16351960  0.00274689  1
  Ag  Ag20  1  0.16640492  0.00741987  0.82815466  1
  Ag  Ag21  1  -0.00647717  0.50921609  0.16366780  1
  Ag  Ag22  1  0.49270879  0.32572023  0.83274010  1
  Ag  Ag23  1  0.33414353  0.00311335  0.00278552  1
  Ag  Ag24  1  0.33052681  0.00285439  0.33126592  1
  Ag  Ag25  1  0.15736734  0.66656265  0.16793382  1
  Ag  Ag26  1  0.83383219  0.50139661  0.00852694  1
  Ag  Ag27  1  0.83391396  0.15890272  0.66432179  1
  Ag  Ag28  1  0.67196700  0.83857137  0.17410055  1
  Ag  Ag29  1  0.67514112  0.50019970  0.16648717  1
  Ag  Ag30  1  0.66559236  0.32595591  0.00000626  1
  Ag  Ag31  1  0.66678085  0.16272069  0.17042329  1
  Ag  Ag32  1  0.66655849  0.00502887  -0.00346282  1
  Ag  Ag33  1  0.16429288  0.83077764  0.66409856  1
  Ag  Ag34  1  0.17146482  0.50484119  0.66416105  1
  Ag  Ag35  1  0.83750475  0.49947984  0.32587155  1
  Ag  Ag36  1  0.17136513  0.00440179  0.50081316  1
  Ag  Ag37  1  -0.00170566  0.83144347  0.16797321  1
  Ag  Ag38  1  0.67022525  0.16152297  0.49319928  1
  Ag  Ag39  1  0.33100060  0.32096412  0.33333747  1
  Ag  Ag40  1  0.83037382  0.84070243  0.33288004  1
  Ag  Ag41  1  0.66292431  0.49604846  0.50090478  1
  Ag  Ag42  1  0.16457032  0.49277893  0.33827996  1
  Ag  Ag43  1  0.00407553  0.16411221  0.83453089  1
  Ag  Ag44  1  0.33162618  0.50227515  0.50667622  1
  Ag  Ag45  1  -0.00094949  0.16133993  0.17264710  1
  Ag  Ag46  1  0.48994933  0.50026015  0.66777609  1
  Ag  Ag47  1  0.33010388  0.16648207  0.83771851  1
  Ag  Ag48  1  0.83362304  0.00246927  0.83218681  1
  Ag  Ag49  1  0.83598114  0.83846327  0.66045973  1
  Ag  Ag50  1  0.33045770  0.84108134  0.17590627  1
  Ag  Ag51  1  0.49310684  0.16201011  0.33003673  1
  Ag  Ag52  1  -0.00046843  0.66697694  0.00417863  1
  Ag  Ag53  1  0.33598662  0.83902423  0.49517143  1
  Sb  Sb54  1  0.66519139  0.00118905  0.33352158  1
  Sb  Sb55  1  0.00575739  0.32631710  0.33344554  1
  Sb  Sb56  1  0.66608335  0.16734435  0.83564725  1
  Sb  Sb57  1  0.00320981  0.49574469  0.49742458  1
  Sb  Sb58  1  -0.00308362  -0.00164349  0.66737464  1
  Sb  Sb59  1  0.16896522  0.16473487  0.00174772  1
  Sb  Sb60  1  0.50083562  0.66855279  0.16656386  1
  Sb  Sb61  1  0.49869218  0.00283108  0.17021149  1
  Sb  Sb62  1  0.49529915  0.32934537  0.50374277  1
  Sb  Sb63  1  0.33252530  0.83852734  0.83110049  1
  Sb  Sb64  1  0.16156182  0.50002396  -0.00197041  1
  Sb  Sb65  1  0.83424072  0.66776163  0.49548817  1
  Sb  Sb66  1  0.50098149  0.33003753  0.16337752  1
  Sb  Sb67  1  0.83388570  0.33025879  0.83419320  1
  Sb  Sb68  1  -0.00018328  0.83745789  0.83588837  1
  Sb  Sb69  1  0.83550463  0.50282025  0.66562168  1
  Sb  Sb70  1  -0.00354806  0.33094419  -0.00030073  1
  Sb  Sb71  1  0.66613801  0.32959004  0.66974727  1
  Sb  Sb72  1  0.67214894  0.66645878  0.00227013  1
  Sb  Sb73  1  0.32657818  0.67153328  -0.00240564  1
  Sb  Sb74  1  0.66745193  0.83562386  0.83304231  1
  Sb  Sb75  1  0.50703038  0.49278004  -0.00655063  1
  Sb  Sb76  1  0.49938515  0.83234601  0.66122579  1
  Sb  Sb77  1  0.16457290  0.66524043  0.83204393  1
  Sb  Sb78  1  0.49857356  0.67115441  0.50004085  1
  Sb  Sb79  1  0.00181629  0.33541995  0.66772792  1
  Sb  Sb80  1  0.66277493  0.32999240  0.33064647  1
  Sb  Sb81  1  0.49948545  0.49688479  0.33762729  1
  Sb  Sb82  1  0.83409148  0.83280693  0.00519768  1
  Sb  Sb83  1  0.00008466  0.83974045  0.49713852  1
  Sb  Sb84  1  0.33152567  0.49981781  0.16881239  1
  Sb  Sb85  1  0.16724605  0.66669645  0.49869462  1
  Sb  Sb86  1  0.83649082  0.33041256  0.49849635  1
  Sb  Sb87  1  0.16559156  0.83719147  -0.00082411  1
  Sb  Sb88  1  0.16284627  0.16570393  0.66461887  1
  Sb  Sb89  1  0.50082752  0.84500436  0.00701186  1
  Sb  Sb90  1  0.83566536  0.66882696  0.83591228  1
  Sb  Sb91  1  0.83278204  0.33687575  0.16711649  1
  Sb  Sb92  1  0.83091516  0.00167045  0.50224095  1
  Sb  Sb93  1  0.33193598  0.33681595  0.66519865  1
  Sb  Sb94  1  0.33247155  0.16424013  0.49710669  1
  Sb  Sb95  1  0.16623025  -0.00120781  0.16929474  1
  Sb  Sb96  1  0.66885926  0.66888332  0.33274772  1
  Sb  Sb97  1  0.33473764  -0.00310572  0.66534572  1
  Sb  Sb98  1  0.16681896  0.33430085  0.16790360  1
  Sb  Sb99  1  0.00072814  0.66984965  0.33013568  1
  Sb  Sb100  1  0.50265776  0.16661795  0.66673583  1
  Sb  Sb101  1  0.66895141  0.66954902  0.66580127  1
  Sb  Sb102  1  0.33751817  0.32672020  -0.00015184  1
  Sb  Sb103  1  0.83455614  -0.00255246  0.16576286  1
  Sb  Sb104  1  0.83043103  0.16682986  0.00321002  1
  Sb  Sb105  1  0.16570530  0.83838851  0.33574092  1
  Sb  Sb106  1  0.49869945  0.66537488  0.83133290  1
  Sb  Sb107  1  0.33009349  0.67073075  0.33621660  1
  Te  Te108  1  0.16637046  0.16672275  0.17196478  1
  Te  Te109  1  0.16594996  0.16638359  0.49865958  1
  Te  Te110  1  0.16595060  0.16717440  0.83201852  1
  Te  Te111  1  0.16464467  0.50199338  0.16883502  1
  Te  Te112  1  0.16801327  0.49873100  0.49971167  1
  Te  Te113  1  0.16496123  0.49963392  0.83118052  1
  Te  Te114  1  0.16579287  0.83043697  0.16735654  1
  Te  Te115  1  0.16877693  0.83658884  0.50302719  1
  Te  Te116  1  0.16701190  0.83811794  0.82578640  1
  Te  Te117  1  0.50086047  0.16696872  0.16845151  1
  Te  Te118  1  0.50387672  0.16241592  0.49842954  1
  Te  Te119  1  0.49956838  0.16588147  0.83329692  1
  Te  Te120  1  0.50705553  0.49977499  0.16708554  1
  Te  Te121  1  0.49925892  0.49917585  0.50288925  1
  Te  Te122  1  0.49949987  0.49902354  0.82989249  1
  Te  Te123  1  0.50127883  0.83384286  0.17394440  1
  Te  Te124  1  0.50122763  0.83773979  0.49634295  1
  Te  Te125  1  0.50021755  0.84051831  0.83359654  1
  Te  Te126  1  0.83330141  0.16594144  0.17096703  1
  Te  Te127  1  0.83218980  0.16690637  0.49641916  1
  Te  Te128  1  0.83605739  0.16331133  0.83328953  1
  Te  Te129  1  0.83370218  0.50115922  0.16798825  1
  Te  Te130  1  0.83003900  0.49869952  0.49540983  1
  Te  Te131  1  0.83614891  0.49954930  0.83263107  1
  Te  Te132  1  0.83341940  0.83058649  0.17025273  1
  Te  Te133  1  0.82931137  0.83375159  0.49678181  1
  Te  Te134  1  0.83263226  0.83986369  0.82719844  1
  Te  Te135  1  0.16550982  0.00060172  -0.00830565  1
  Te  Te136  1  0.16727682  0.00360446  0.33586167  1
  Te  Te137  1  0.16645717  -0.00266181  0.66534213  1
  Te  Te138  1  0.16841082  0.33288773  -0.00920348  1
  Te  Te139  1  0.17094876  0.33237353  0.33440049  1
  Te  Te140  1  0.16649559  0.33947618  0.66640149  1
  Te  Te141  1  0.15887793  0.66804340  0.00563002  1
  Te  Te142  1  0.16570629  0.65896089  0.32898288  1
  Te  Te143  1  0.16561553  0.66640869  0.66593279  1
  Te  Te144  1  0.49910186  0.00572087  -0.00445486  1
  Te  Te145  1  0.49793723  0.00169454  0.33666330  1
  Te  Te146  1  0.50526073  -0.00095077  0.66586818  1
  Te  Te147  1  0.50477009  0.32582068  -0.00664840  1
  Te  Te148  1  0.49213814  0.32721000  0.33479946  1
  Te  Te149  1  0.50020883  0.34024223  0.67294009  1
  Te  Te150  1  0.49769600  0.66982652  -0.00121500  1
  Te  Te151  1  0.49879337  0.67557328  0.33253483  1
  Te  Te152  1  0.49757234  0.66009317  0.66674178  1
  Te  Te153  1  0.83398095  0.00007464  -0.00564913  1
  Te  Te154  1  0.83916751  0.00073652  0.33329939  1
  Te  Te155  1  0.83099340  -0.00117331  0.66874996  1
  Te  Te156  1  0.82529626  0.34024906  -0.00137301  1
  Te  Te157  1  0.83202552  0.33438545  0.33408003  1
  Te  Te158  1  0.83389201  0.32236324  0.66627753  1
  Te  Te159  1  0.83925036  0.66339409  0.00426342  1
  Te  Te160  1  0.83491584  0.66460342  0.32761614  1
  Te  Te161  1  0.83789476  0.67348742  0.66662443  1
  Te  Te162  1  -0.00128358  0.16313928  -0.00012692  1
  Te  Te163  1  -0.00019934  0.16471156  0.33249042  1
  Te  Te164  1  -0.00496533  0.16629338  0.67147969  1
  Te  Te165  1  -0.00388705  0.49797596  0.00149954  1
  Te  Te166  1  -0.00042975  0.49930733  0.33053337  1
  Te  Te167  1  0.00230345  0.50424717  0.66810202  1
  Te  Te168  1  -0.00091637  0.83664779  0.00601440  1
  Te  Te169  1  -0.00275638  0.83876730  0.32941233  1
  Te  Te170  1  -0.00074297  0.83027241  0.66610079  1
  Te  Te171  1  0.33632929  0.16199093  0.00002650  1
  Te  Te172  1  0.33214354  0.16308419  0.33474124  1
  Te  Te173  1  0.33341084  0.16580491  0.67497073  1
  Te  Te174  1  0.33602627  0.50096408  -0.00319947  1
  Te  Te175  1  0.33123863  0.50177194  0.33434812  1
  Te  Te176  1  0.33106477  0.50051985  0.66674677  1
  Te  Te177  1  0.33323726  0.84063159  0.00490213  1
  Te  Te178  1  0.33262404  0.83760790  0.33510621  1
  Te  Te179  1  0.33156375  0.82742988  0.66293331  1
  Te  Te180  1  0.66501055  0.16507558  0.00257955  1
  Te  Te181  1  0.66936011  0.16638429  0.33203073  1
  Te  Te182  1  0.67060818  0.16232313  0.66312645  1
  Te  Te183  1  0.67044997  0.50080086  0.00179901  1
  Te  Te184  1  0.66727196  0.49860058  0.33253388  1
  Te  Te185  1  0.66933306  0.50066670  0.66559707  1
  Te  Te186  1  0.66719487  0.83879399  0.00561537  1
  Te  Te187  1  0.66945063  0.83425172  0.33425891  1
  Te  Te188  1  0.66890891  0.83695453  0.66277120  1
  Te  Te189  1  0.00057550  0.00109911  0.16487575  1
  Te  Te190  1  0.00540065  0.00473702  0.49776628  1
  Te  Te191  1  0.00152976  0.00211036  0.83477896  1
  Te  Te192  1  0.00134638  0.32865913  0.16537552  1
  Te  Te193  1  0.00845807  0.32414915  0.50085339  1
  Te  Te194  1  0.00436398  0.33253845  0.83436891  1
  Te  Te195  1  -0.00089836  0.66719058  0.16700499  1
  Te  Te196  1  0.00013652  0.66738169  0.50791207  1
  Te  Te197  1  -0.00013968  0.66323190  0.83730853  1
  Te  Te198  1  0.33233960  0.00057657  0.16679682  1
  Te  Te199  1  0.33348879  -0.00188438  0.49853839  1
  Te  Te200  1  0.33318717  0.00266528  0.83376622  1
  Te  Te201  1  0.33366202  0.32762506  0.17122134  1
  Te  Te202  1  0.32930661  0.33636264  0.49526409  1
  Te  Te203  1  0.33331984  0.33230302  0.83437089  1
  Te  Te204  1  0.33095057  0.67149185  0.16461804  1
  Te  Te205  1  0.33287542  0.66384250  0.50512260  1
  Te  Te206  1  0.33245890  0.66290619  0.82933758  1
  Te  Te207  1  0.66690255  0.00083447  0.16188059  1
  Te  Te208  1  0.66445815  0.00175893  0.50024962  1
  Te  Te209  1  0.66573887  0.00015918  0.83432663  1
  Te  Te210  1  0.66616345  0.33123568  0.16153117  1
  Te  Te211  1  0.66463692  0.33425211  0.50004060  1
  Te  Te212  1  0.66451666  0.33712276  0.83673477  1
  Te  Te213  1  0.67063419  0.66687149  0.16592156  1
  Te  Te214  1  0.66617482  0.65973715  0.50056088  1
  Te  Te215  1  0.66697402  0.65743579  0.83404865  1
