# generated using pymatgen
data_AgSbTe2
_symmetry_space_group_name_H-M   'P 1'
_cell_length_a   18.31709053
_cell_length_b   18.31973412
_cell_length_c   18.32216563
_cell_angle_alpha   89.99965274
_cell_angle_beta   90.00448870
_cell_angle_gamma   90.00073974
_symmetry_Int_Tables_number   1
_chemical_formula_structural   AgSbTe2
_chemical_formula_sum   'Ag54 Sb54 Te108'
_cell_volume   6148.26335185
_cell_formula_units_Z   54
loop_
 _symmetry_equiv_pos_site_id
 _symmetry_equiv_pos_as_xyz
  1  'x, y, z'
loop_
 _atom_site_type_symbol
 _atom_site_label
 _atom_site_symmetry_multiplicity
 _atom_site_fract_x
 _atom_site_fract_y
 _atom_site_fract_z
 _atom_site_occupancy
  Ag  Ag0  1  0.83376341  0.16325818  0.66216372  1
  Ag  Ag1  1  -0.00080551  0.83014706  0.15948928  1
  Ag  Ag2  1  0.65866329  0.32464446  0.00234919  1
  Ag  Ag3  1  0.34002935  0.00417574  -0.00509105  1
  Ag  Ag4  1  0.34128136  -0.00179102  0.67164257  1
  Ag  Ag5  1  0.50213914  0.83605528  0.33459984  1
  Ag  Ag6  1  0.66041792  -0.00042988  -0.01062743  1
  Ag  Ag7  1  0.00102608  0.83900235  0.83265263  1
  Ag  Ag8  1  0.16160521  0.83243319  0.67274893  1
  Ag  Ag9  1  0.67086708  0.15428901  0.83953608  1
  Ag  Ag10  1  0.50137125  0.83482687  0.66716491  1
  Ag  Ag11  1  0.66620406  0.84119224  0.50489771  1
  Ag  Ag12  1  -0.00384943  0.15904650  0.83025351  1
  Ag  Ag13  1  0.49876721  0.66849437  0.50062401  1
  Ag  Ag14  1  0.16848558  0.49247204  0.32522991  1
  Ag  Ag15  1  0.50756612  0.66737897  0.15880922  1
  Ag  Ag16  1  0.33533030  0.00446718  0.33540455  1
  Ag  Ag17  1  0.82805989  0.00242353  0.50276888  1
  Ag  Ag18  1  0.49634718  0.49859044  -0.00173845  1
  Ag  Ag19  1  0.82891083  0.66439809  0.16491011  1
  Ag  Ag20  1  0.83505283  0.16220190  0.33717832  1
  Ag  Ag21  1  0.50822560  -0.00240715  0.83605462  1
  Ag  Ag22  1  0.33573854  0.49897186  0.50256053  1
  Ag  Ag23  1  0.00116019  0.33267305  0.66761783  1
  Ag  Ag24  1  0.16457943  0.66899433  0.83226650  1
  Ag  Ag25  1  0.16658756  0.33468516  0.84204248  1
  Ag  Ag26  1  0.33139417  0.32998068  0.32842575  1
  Ag  Ag27  1  0.82183869  0.00083371  0.82991267  1
  Ag  Ag28  1  0.82510654  0.83505150  -0.00088026  1
  Ag  Ag29  1  0.17414780  0.49161548  0.00122682  1
  Ag  Ag30  1  0.33315617  0.33110398  0.00305765  1
  Ag  Ag31  1  0.00276545  0.67152447  0.66658617  1
  Ag  Ag32  1  0.49979527  0.33528338  0.50069112  1
  Ag  Ag33  1  0.66664272  0.00168594  0.33627958  1
  Ag  Ag34  1  0.66837574  0.16802329  0.15702115  1
  Ag  Ag35  1  0.16584229  0.83343889  -0.00612989  1
  Ag  Ag36  1  0.50509887  0.83723960  -0.00325230  1
  Ag  Ag37  1  0.83537733  0.33487241  0.16502743  1
  Ag  Ag38  1  -0.00145300  0.50205789  0.16583538  1
  Ag  Ag39  1  0.66954639  0.49697328  0.16280089  1
  Ag  Ag40  1  0.16312308  0.16906549  0.33001409  1
  Ag  Ag41  1  -0.00235747  0.84007170  0.50389509  1
  Ag  Ag42  1  0.17115646  0.17369976  0.00171986  1
  Ag  Ag43  1  0.16896426  0.66820216  0.50531251  1
  Ag  Ag44  1  0.50556018  0.16133723  -0.00151619  1
  Ag  Ag45  1  0.49807244  0.50578054  0.67035715  1
  Ag  Ag46  1  -0.00537013  0.00149272  0.33601643  1
  Ag  Ag47  1  -0.00649095  0.15948574  0.50179744  1
  Ag  Ag48  1  0.33207906  0.49733756  0.83399943  1
  Ag  Ag49  1  0.66258302  0.67488117  0.00158666  1
  Ag  Ag50  1  0.16286218  0.33471837  0.15992409  1
  Ag  Ag51  1  0.66611881  0.84192995  0.83727570  1
  Ag  Ag52  1  0.67224189  0.15664797  0.49913983  1
  Ag  Ag53  1  0.66415228  -0.00045509  0.67559297  1
  Sb  Sb54  1  0.66926950  0.83514744  0.16023970  1
  Sb  Sb55  1  0.82901166  0.16220228  0.00034921  1
  Sb  Sb56  1  0.16576454  0.00474893  0.16541598  1
  Sb  Sb57  1  0.16056697  0.16199467  0.66754488  1
  Sb  Sb58  1  0.50256135  -0.00499119  0.15983743  1
  Sb  Sb59  1  0.66854396  0.67375399  0.67122288  1
  Sb  Sb60  1  0.83091343  0.00059431  0.16604320  1
  Sb  Sb61  1  0.33088015  0.33107900  0.66856359  1
  Sb  Sb62  1  0.50053108  0.33701824  0.16499874  1
  Sb  Sb63  1  0.83007766  0.84071290  0.32839532  1
  Sb  Sb64  1  0.83373976  0.83993984  0.67138723  1
  Sb  Sb65  1  0.33088544  0.67099250  0.66710144  1
  Sb  Sb66  1  0.00647133  0.50081429  0.83688483  1
  Sb  Sb67  1  0.16971725  0.33605410  0.50003668  1
  Sb  Sb68  1  0.33276466  0.49765933  0.16482238  1
  Sb  Sb69  1  0.16819085  0.83574375  0.33318407  1
  Sb  Sb70  1  0.49707390  0.32949105  0.83454516  1
  Sb  Sb71  1  0.82882184  0.49468998  0.66573987  1
  Sb  Sb72  1  0.49690167  0.67188720  0.83391285  1
  Sb  Sb73  1  0.50570843  0.16280316  0.66996454  1
  Sb  Sb74  1  0.50731064  -0.00255853  0.50392234  1
  Sb  Sb75  1  -0.00103794  -0.00221594  0.00182315  1
  Sb  Sb76  1  0.65993248  0.50160202  0.49511857  1
  Sb  Sb77  1  -0.00426574  -0.00119447  0.66452984  1
  Sb  Sb78  1  0.33738242  0.16783654  0.16464370  1
  Sb  Sb79  1  0.33160238  0.83367370  0.16442990  1
  Sb  Sb80  1  0.33306315  0.66598435  0.33535793  1
  Sb  Sb81  1  0.17129611  0.50434521  0.66959861  1
  Sb  Sb82  1  0.33242040  0.16771739  0.83617087  1
  Sb  Sb83  1  0.82912384  0.32404725  0.49537088  1
  Sb  Sb84  1  0.66160456  0.32654918  0.32814048  1
  Sb  Sb85  1  0.00386979  0.33263217  -0.00123509  1
  Sb  Sb86  1  0.00564736  0.32673847  0.33547853  1
  Sb  Sb87  1  0.33664719  0.66508089  -0.00131491  1
  Sb  Sb88  1  0.33453520  0.16823816  0.49852626  1
  Sb  Sb89  1  0.49560773  0.50263130  0.33058208  1
  Sb  Sb90  1  0.00621993  0.50106457  0.49722803  1
  Sb  Sb91  1  0.83676340  0.32492915  0.83876409  1
  Sb  Sb92  1  0.33567729  0.83226738  0.50093658  1
  Sb  Sb93  1  0.83225150  0.67634206  0.49650741  1
  Sb  Sb94  1  -0.00314470  0.16636972  0.16585835  1
  Sb  Sb95  1  0.16668451  -0.00121771  0.83457308  1
  Sb  Sb96  1  0.66853785  0.32600630  0.67122336  1
  Sb  Sb97  1  0.83708151  0.67566005  0.83827252  1
  Sb  Sb98  1  0.33263309  0.83279238  0.83405534  1
  Sb  Sb99  1  0.16518160  0.66227807  0.16425879  1
  Sb  Sb100  1  0.16293302  -0.00343375  0.49958178  1
  Sb  Sb101  1  0.66415555  0.67329004  0.32771174  1
  Sb  Sb102  1  0.83777481  0.49248407  0.32992366  1
  Sb  Sb103  1  -0.00100064  0.66969535  -0.00186335  1
  Sb  Sb104  1  0.83099725  0.50287862  0.00168059  1
  Sb  Sb105  1  0.66011260  0.50052263  0.84053858  1
  Sb  Sb106  1  0.50114567  0.16100156  0.32976341  1
  Sb  Sb107  1  0.00036956  0.67246401  0.33543334  1
  Te  Te108  1  0.16500808  0.17235190  0.16581296  1
  Te  Te109  1  0.16145109  0.16712419  0.49666515  1
  Te  Te110  1  0.16240184  0.16936151  0.83539840  1
  Te  Te111  1  0.16511443  0.49763183  0.16451112  1
  Te  Te112  1  0.17147684  0.50470189  0.50046612  1
  Te  Te113  1  0.16962520  0.49971600  0.83699796  1
  Te  Te114  1  0.15980610  0.83130417  0.16408210  1
  Te  Te115  1  0.16441506  0.82852034  0.50081459  1
  Te  Te116  1  0.16581443  0.83227522  0.83224171  1
  Te  Te117  1  0.50820152  0.16849560  0.16028561  1
  Te  Te118  1  0.50359899  0.17073392  0.50001116  1
  Te  Te119  1  0.50372496  0.16234662  0.83789892  1
  Te  Te120  1  0.50391175  0.50454280  0.16257658  1
  Te  Te121  1  0.49688484  0.50289277  0.49825879  1
  Te  Te122  1  0.49467888  0.50018289  0.83525049  1
  Te  Te123  1  0.49994544  0.82726099  0.16342441  1
  Te  Te124  1  0.50192707  0.83167306  0.50340887  1
  Te  Te125  1  0.49994512  0.83593829  0.83390892  1
  Te  Te126  1  0.82978846  0.17031109  0.16916611  1
  Te  Te127  1  0.83357278  0.16348655  0.49884801  1
  Te  Te128  1  0.83474526  0.16186639  0.83326099  1
  Te  Te129  1  0.83438065  0.49960677  0.16652926  1
  Te  Te130  1  0.83266201  0.50000932  0.49778349  1
  Te  Te131  1  0.83339093  0.50039864  0.83233685  1
  Te  Te132  1  0.83841560  0.83024288  0.16226711  1
  Te  Te133  1  0.83326864  0.83952480  0.49899665  1
  Te  Te134  1  0.83477158  0.83842646  0.83800160  1
  Te  Te135  1  0.17095549  -0.00254233  0.00095627  1
  Te  Te136  1  0.17077464  0.00460408  0.33249404  1
  Te  Te137  1  0.17342016  -0.00668368  0.66670777  1
  Te  Te138  1  0.16761899  0.33276724  0.00040320  1
  Te  Te139  1  0.17075218  0.33207637  0.33403359  1
  Te  Te140  1  0.16281120  0.33272323  0.66986081  1
  Te  Te141  1  0.16781252  0.67096151  -0.00257740  1
  Te  Te142  1  0.16667560  0.66337451  0.33660971  1
  Te  Te143  1  0.16471746  0.67074342  0.66644040  1
  Te  Te144  1  0.49975901  0.00010201  -0.00125878  1
  Te  Te145  1  0.49885725  -0.00400904  0.33227887  1
  Te  Te146  1  0.50206679  -0.00293993  0.67008698  1
  Te  Te147  1  0.49748773  0.33583348  0.00001143  1
  Te  Te148  1  0.49286050  0.33315052  0.33609608  1
  Te  Te149  1  0.49965331  0.33618762  0.66367649  1
  Te  Te150  1  0.50197266  0.66710328  -0.00109724  1
  Te  Te151  1  0.49937831  0.67235257  0.33874277  1
  Te  Te152  1  0.50092097  0.66905414  0.66477141  1
  Te  Te153  1  0.82943742  -0.00496537  -0.00313966  1
  Te  Te154  1  0.83243110  0.00423075  0.33464638  1
  Te  Te155  1  0.82961680  0.00348667  0.66648652  1
  Te  Te156  1  0.82981601  0.33402712  0.00579100  1
  Te  Te157  1  0.83322862  0.32486787  0.32693338  1
  Te  Te158  1  0.83812303  0.32673314  0.66728163  1
  Te  Te159  1  0.82870107  0.67087349  0.00459097  1
  Te  Te160  1  0.83232892  0.66521030  0.32663890  1
  Te  Te161  1  0.83974517  0.66421550  0.66557635  1
  Te  Te162  1  0.00559010  0.16509242  -0.00359650  1
  Te  Te163  1  0.00161045  0.16238018  0.33349184  1
  Te  Te164  1  -0.00334619  0.16559708  0.66742237  1
  Te  Te165  1  0.00473822  0.50134774  0.00544069  1
  Te  Te166  1  0.00656297  0.49935370  0.32837802  1
  Te  Te167  1  -0.00067960  0.49826103  0.66678314  1
  Te  Te168  1  0.00499596  0.83356871  -0.00256529  1
  Te  Te169  1  -0.00016708  0.83967116  0.33930946  1
  Te  Te170  1  0.00027643  0.83277007  0.66669115  1
  Te  Te171  1  0.33155782  0.16698427  -0.00003323  1
  Te  Te172  1  0.33009229  0.16710162  0.33188086  1
  Te  Te173  1  0.33353609  0.15920912  0.66693427  1
  Te  Te174  1  0.33399213  0.49795576  -0.00112062  1
  Te  Te175  1  0.32876120  0.49648934  0.33613230  1
  Te  Te176  1  0.33869885  0.49883410  0.66572471  1
  Te  Te177  1  0.33257506  0.83754351  -0.00019163  1
  Te  Te178  1  0.33798473  0.83826671  0.33244592  1
  Te  Te179  1  0.33671356  0.83831345  0.66704838  1
  Te  Te180  1  0.66676328  0.16397408  -0.00142928  1
  Te  Te181  1  0.66736265  0.16346275  0.33893541  1
  Te  Te182  1  0.67147415  0.16266300  0.66605259  1
  Te  Te183  1  0.66400414  0.49955233  0.00358216  1
  Te  Te184  1  0.66808754  0.49941895  0.32521820  1
  Te  Te185  1  0.65938901  0.49975827  0.66700504  1
  Te  Te186  1  0.66543142  0.83709276  -0.00071626  1
  Te  Te187  1  0.66325851  0.83823989  0.33658934  1
  Te  Te188  1  0.66622226  0.83699361  0.66709693  1
  Te  Te189  1  -0.00135593  -0.00563307  0.17289818  1
  Te  Te190  1  -0.00340615  0.00023378  0.49849789  1
  Te  Te191  1  -0.00118607  -0.00103634  0.83295928  1
  Te  Te192  1  0.00021533  0.33568260  0.16760662  1
  Te  Te193  1  -0.00143849  0.33056595  0.50458247  1
  Te  Te194  1  0.00403081  0.33169138  0.83046033  1
  Te  Te195  1  -0.00282733  0.66751747  0.16759775  1
  Te  Te196  1  0.00116053  0.67008656  0.50354063  1
  Te  Te197  1  0.00413477  0.67103050  0.82883682  1
  Te  Te198  1  0.33399703  0.00113973  0.16900173  1
  Te  Te199  1  0.33462323  0.00104887  0.49635605  1
  Te  Te200  1  0.33677883  0.00042524  0.83521501  1
  Te  Te201  1  0.32773472  0.33352164  0.16529547  1
  Te  Te202  1  0.33724345  0.33592333  0.50063407  1
  Te  Te203  1  0.32854945  0.33597402  0.83641722  1
  Te  Te204  1  0.34214775  0.66586086  0.16759404  1
  Te  Te205  1  0.33435044  0.66213857  0.50124846  1
  Te  Te206  1  0.32538750  0.65865998  0.83228126  1
  Te  Te207  1  0.66738385  0.00457071  0.17502831  1
  Te  Te208  1  0.66725840  -0.00091972  0.49688473  1
  Te  Te209  1  0.66590336  -0.00162613  0.83194789  1
  Te  Te210  1  0.66695973  0.33301129  0.16303776  1
  Te  Te211  1  0.66113331  0.33250651  0.50081624  1
  Te  Te212  1  0.66728139  0.33122613  0.84020499  1
  Te  Te213  1  0.66745018  0.66778673  0.16256260  1
  Te  Te214  1  0.66265512  0.67058345  0.50113605  1
  Te  Te215  1  0.66813553  0.67075750  0.83959638  1
