# generated using pymatgen
data_AgSbTe2
_symmetry_space_group_name_H-M   'P 1'
_cell_length_a   18.34732607
_cell_length_b   18.34926944
_cell_length_c   18.34351103
_cell_angle_alpha   89.99959403
_cell_angle_beta   89.99922056
_cell_angle_gamma   90.00152011
_symmetry_Int_Tables_number   1
_chemical_formula_structural   AgSbTe2
_chemical_formula_sum   'Ag54 Sb54 Te108'
_cell_volume   6175.52696389
_cell_formula_units_Z   54
loop_
 _symmetry_equiv_pos_site_id
 _symmetry_equiv_pos_as_xyz
  1  'x, y, z'
loop_
 _atom_site_type_symbol
 _atom_site_label
 _atom_site_symmetry_multiplicity
 _atom_site_fract_x
 _atom_site_fract_y
 _atom_site_fract_z
 _atom_site_occupancy
  Ag  Ag0  1  0.66825532  0.17094175  0.49786390  1
  Ag  Ag1  1  0.82092431  0.65413471  0.83019298  1
  Ag  Ag2  1  0.51055342  0.66201141  0.83163417  1
  Ag  Ag3  1  0.34232098  0.33614676  0.67319131  1
  Ag  Ag4  1  0.17365012  0.33226381  0.50535824  1
  Ag  Ag5  1  0.50535249  0.82439823  0.32900351  1
  Ag  Ag6  1  0.50212529  0.33456203  0.16667369  1
  Ag  Ag7  1  -0.01339176  0.66620196  0.66839616  1
  Ag  Ag8  1  0.66772606  0.81983057  0.84282074  1
  Ag  Ag9  1  0.82087653  0.83481763  0.33770682  1
  Ag  Ag10  1  0.65851489  0.49863972  0.51548412  1
  Ag  Ag11  1  0.50947219  0.83330469  0.00928506  1
  Ag  Ag12  1  0.33170731  0.17781942  0.83733147  1
  Ag  Ag13  1  0.66320005  0.49141443  0.16159853  1
  Ag  Ag14  1  0.50398710  0.65639829  0.49429246  1
  Ag  Ag15  1  0.66881786  0.65371986  0.67999306  1
  Ag  Ag16  1  0.81767769  0.33231820  0.15626418  1
  Ag  Ag17  1  0.16791251  0.83304329  -0.00141450  1
  Ag  Ag18  1  0.51090106  0.49896006  0.65656003  1
  Ag  Ag19  1  0.34767184  0.49600942  0.50186822  1
  Ag  Ag20  1  0.16629621  0.49808081  -0.00243562  1
  Ag  Ag21  1  -0.01661901  0.50008628  0.83484299  1
  Ag  Ag22  1  0.34022486  0.17442314  0.16108828  1
  Ag  Ag23  1  0.66598469  0.34243229  0.67440750  1
  Ag  Ag24  1  0.50064171  0.34417010  0.49809230  1
  Ag  Ag25  1  0.33950238  0.49582085  0.83640958  1
  Ag  Ag26  1  0.83035058  0.82195518  0.66480322  1
  Ag  Ag27  1  0.82167270  0.49978842  0.67551384  1
  Ag  Ag28  1  0.66307791  -0.00728494  0.32385347  1
  Ag  Ag29  1  0.83205283  0.17202403  0.67339953  1
  Ag  Ag30  1  0.50264767  0.50688906  0.34482348  1
  Ag  Ag31  1  -0.00781398  0.00645516  0.00022000  1
  Ag  Ag32  1  0.66865069  0.50598371  0.83025962  1
  Ag  Ag33  1  -0.01576750  0.33077426  -0.00076767  1
  Ag  Ag34  1  0.16306637  0.00376438  0.50274059  1
  Ag  Ag35  1  0.16269761  0.16944293  0.66682159  1
  Ag  Ag36  1  0.83055188  0.17583730  -0.00305074  1
  Ag  Ag37  1  0.34583318  0.49298506  0.16227277  1
  Ag  Ag38  1  0.66604982  0.65919485  -0.00810239  1
  Ag  Ag39  1  0.16775784  0.00127020  0.83512803  1
  Ag  Ag40  1  -0.00431307  0.83471057  0.50050795  1
  Ag  Ag41  1  0.34389097  -0.00292335  0.33186074  1
  Ag  Ag42  1  0.82621011  0.48618243  -0.01400424  1
  Ag  Ag43  1  0.82868508  0.34353457  0.84506227  1
  Ag  Ag44  1  0.66236445  0.67042134  0.33331367  1
  Ag  Ag45  1  0.66378925  0.83317978  0.16243790  1
  Ag  Ag46  1  0.67003868  -0.00258091  0.00480977  1
  Ag  Ag47  1  0.66506405  0.17195022  0.16477039  1
  Ag  Ag48  1  0.83220924  -0.00319060  0.50091681  1
  Ag  Ag49  1  0.50418652  0.00455097  0.16822312  1
  Ag  Ag50  1  0.33678732  0.33689559  -0.00367615  1
  Ag  Ag51  1  -0.01429447  0.16749886  0.16014180  1
  Ag  Ag52  1  0.34622685  0.66655698  0.33342679  1
  Ag  Ag53  1  0.67108799  0.33995763  0.00168721  1
  Sb  Sb54  1  0.66948870  0.83082448  0.49638913  1
  Sb  Sb55  1  0.66522602  0.17095048  0.83562848  1
  Sb  Sb56  1  -0.00603981  0.83047522  0.83194176  1
  Sb  Sb57  1  0.33578499  0.00417002  0.00343818  1
  Sb  Sb58  1  0.82829058  0.16295685  0.33063926  1
  Sb  Sb59  1  0.50474523  0.66096350  0.16915240  1
  Sb  Sb60  1  0.33776854  0.33493040  0.33253727  1
  Sb  Sb61  1  0.50633646  0.16568161  0.00130137  1
  Sb  Sb62  1  0.82294671  0.00494218  0.16743759  1
  Sb  Sb63  1  0.66807295  0.00086042  0.66742264  1
  Sb  Sb64  1  0.16460429  0.16968102  -0.00313444  1
  Sb  Sb65  1  0.16163702  0.83831468  0.66931557  1
  Sb  Sb66  1  0.16994896  0.16565358  0.33710693  1
  Sb  Sb67  1  0.16920681  0.66614398  0.16433625  1
  Sb  Sb68  1  0.33169728  0.00915551  0.66320549  1
  Sb  Sb69  1  0.17130277  0.66456869  0.50168310  1
  Sb  Sb70  1  0.50930578  0.82360756  0.66463037  1
  Sb  Sb71  1  -0.00535968  0.33701797  0.67245729  1
  Sb  Sb72  1  -0.00745000  0.66778308  0.34025963  1
  Sb  Sb73  1  -0.00357738  -0.00028352  0.32982658  1
  Sb  Sb74  1  0.50364045  -0.00056684  0.49340022  1
  Sb  Sb75  1  -0.00872487  0.83940184  0.16665354  1
  Sb  Sb76  1  0.50345818  0.17606728  0.66703522  1
  Sb  Sb77  1  0.82715314  0.66143473  0.16007942  1
  Sb  Sb78  1  0.50279843  0.34060285  0.83556183  1
  Sb  Sb79  1  0.82726682  0.33041094  0.50317525  1
  Sb  Sb80  1  0.17168731  0.33206318  0.16588936  1
  Sb  Sb81  1  0.33851148  0.82975438  0.83559548  1
  Sb  Sb82  1  0.50178046  0.16686909  0.33040334  1
  Sb  Sb83  1  0.66530168  0.33619503  0.33072084  1
  Sb  Sb84  1  -0.00085742  0.33505378  0.32747219  1
  Sb  Sb85  1  0.16767289  0.66677006  0.83329428  1
  Sb  Sb86  1  0.17148728  0.00202374  0.16515883  1
  Sb  Sb87  1  0.34236269  0.65964398  0.00335745  1
  Sb  Sb88  1  0.49871332  -0.00487917  0.83892567  1
  Sb  Sb89  1  0.17853252  0.49961134  0.33004996  1
  Sb  Sb90  1  0.82095424  0.50544459  0.33455799  1
  Sb  Sb91  1  -0.00644569  0.66438128  -0.00556473  1
  Sb  Sb92  1  0.16799867  0.49520562  0.67143904  1
  Sb  Sb93  1  0.50728076  0.50235323  -0.00151339  1
  Sb  Sb94  1  -0.00224538  -0.00126900  0.67019491  1
  Sb  Sb95  1  -0.00421037  0.50262999  0.50721713  1
  Sb  Sb96  1  0.33145364  0.83048564  0.49964860  1
  Sb  Sb97  1  0.83468071  0.00158376  0.83211260  1
  Sb  Sb98  1  -0.00394977  0.16423152  0.49727088  1
  Sb  Sb99  1  -0.00425363  0.49400528  0.15708183  1
  Sb  Sb100  1  0.00154712  0.17062200  0.83684041  1
  Sb  Sb101  1  0.33745389  0.17289456  0.49972746  1
  Sb  Sb102  1  0.16774701  0.33202362  0.83172496  1
  Sb  Sb103  1  0.34294639  0.83221185  0.16594396  1
  Sb  Sb104  1  0.34094136  0.65668642  0.66428182  1
  Sb  Sb105  1  0.82272333  0.66984371  0.50902849  1
  Sb  Sb106  1  0.17003741  0.83528539  0.33028777  1
  Sb  Sb107  1  0.82796468  0.83343649  -0.00125263  1
  Te  Te108  1  0.17777673  0.16642810  0.16771760  1
  Te  Te109  1  0.16590336  0.16609824  0.50396949  1
  Te  Te110  1  0.16994708  0.16369236  0.82917824  1
  Te  Te111  1  0.16737465  0.49919989  0.16106602  1
  Te  Te112  1  0.16540240  0.49602889  0.49936707  1
  Te  Te113  1  0.17939115  0.49966845  0.83752330  1
  Te  Te114  1  0.16482386  0.83412102  0.16040947  1
  Te  Te115  1  0.16258153  0.83801387  0.50045012  1
  Te  Te116  1  0.16602862  0.83756128  0.83706750  1
  Te  Te117  1  0.50125256  0.16811181  0.16569237  1
  Te  Te118  1  0.50660212  0.16990775  0.49935828  1
  Te  Te119  1  0.49109419  0.16407301  0.83289991  1
  Te  Te120  1  0.50219534  0.49560745  0.16271952  1
  Te  Te121  1  0.50322339  0.49977255  0.50055771  1
  Te  Te122  1  0.49912701  0.50221075  0.83301205  1
  Te  Te123  1  0.50430294  0.83486261  0.16854830  1
  Te  Te124  1  0.49863276  0.83122075  0.49576255  1
  Te  Te125  1  0.50577089  0.82765656  0.83322526  1
  Te  Te126  1  0.82878507  0.16985370  0.16419900  1
  Te  Te127  1  0.83009784  0.16243775  0.50014317  1
  Te  Te128  1  0.83370797  0.16895572  0.83413654  1
  Te  Te129  1  0.82928650  0.49418319  0.16592231  1
  Te  Te130  1  0.82833187  0.49937332  0.50275853  1
  Te  Te131  1  0.82885542  0.49922815  0.83178756  1
  Te  Te132  1  0.82711210  0.83336916  0.17162876  1
  Te  Te133  1  0.83511569  0.83496477  0.50284481  1
  Te  Te134  1  0.82873835  0.83411715  0.82833690  1
  Te  Te135  1  0.16761386  -0.00020507  -0.00224403  1
  Te  Te136  1  0.16766518  -0.00128223  0.33905056  1
  Te  Te137  1  0.16534118  0.00592347  0.66549161  1
  Te  Te138  1  0.17705036  0.33678951  -0.00105087  1
  Te  Te139  1  0.16689020  0.33347407  0.34400227  1
  Te  Te140  1  0.16424107  0.32918016  0.66448048  1
  Te  Te141  1  0.16459810  0.66577905  -0.00116093  1
  Te  Te142  1  0.16987956  0.66811741  0.33369938  1
  Te  Te143  1  0.16527294  0.66840347  0.66657007  1
  Te  Te144  1  0.50334067  -0.00577197  0.00549690  1
  Te  Te145  1  0.50264850  -0.00068151  0.32977651  1
  Te  Te146  1  0.49858200  -0.00071270  0.66586607  1
  Te  Te147  1  0.49684193  0.33130805  0.00375902  1
  Te  Te148  1  0.50022683  0.33941468  0.33355207  1
  Te  Te149  1  0.50277500  0.33845537  0.66678508  1
  Te  Te150  1  0.50602855  0.67451768  -0.00306548  1
  Te  Te151  1  0.50253309  0.66584662  0.33252762  1
  Te  Te152  1  0.50553726  0.66025238  0.66679534  1
  Te  Te153  1  0.83322297  0.00087648  0.00028009  1
  Te  Te154  1  0.82951131  -0.00442626  0.33745261  1
  Te  Te155  1  0.83348436  0.00788911  0.66329456  1
  Te  Te156  1  0.82889502  0.33213278  0.00111234  1
  Te  Te157  1  0.83486325  0.33511336  0.32788685  1
  Te  Te158  1  0.82948056  0.33396745  0.66680794  1
  Te  Te159  1  0.82788985  0.66509872  -0.00718921  1
  Te  Te160  1  0.82766711  0.67357376  0.33257592  1
  Te  Te161  1  0.82902368  0.66359058  0.66910103  1
  Te  Te162  1  -0.00198014  0.16834946  0.00200538  1
  Te  Te163  1  0.00085045  0.16693183  0.32268875  1
  Te  Te164  1  -0.00220682  0.16820522  0.66647868  1
  Te  Te165  1  0.00151463  0.49743921  -0.00514490  1
  Te  Te166  1  0.00094586  0.50207678  0.33281840  1
  Te  Te167  1  -0.00000607  0.50443961  0.67291747  1
  Te  Te168  1  0.00205551  0.83462099  0.00045482  1
  Te  Te169  1  -0.00252699  0.83352625  0.33785138  1
  Te  Te170  1  -0.00596571  0.83012090  0.66407762  1
  Te  Te171  1  0.33323809  0.17006812  -0.00028080  1
  Te  Te172  1  0.33450057  0.15966948  0.32866608  1
  Te  Te173  1  0.33173632  0.17478038  0.66771066  1
  Te  Te174  1  0.33344619  0.49917316  0.00219419  1
  Te  Te175  1  0.34014265  0.50208992  0.33275501  1
  Te  Te176  1  0.33284112  0.49398965  0.66377598  1
  Te  Te177  1  0.32992492  0.83207225  0.00022210  1
  Te  Te178  1  0.33777728  0.83256154  0.33310281  1
  Te  Te179  1  0.33248791  0.83263773  0.66748170  1
  Te  Te180  1  0.66974239  0.16838072  0.00191894  1
  Te  Te181  1  0.66658182  0.15992598  0.33140704  1
  Te  Te182  1  0.67064118  0.16908905  0.66499618  1
  Te  Te183  1  0.66751794  0.49994159  0.00075162  1
  Te  Te184  1  0.66168126  0.50343867  0.32164823  1
  Te  Te185  1  0.66641645  0.49836246  0.66985699  1
  Te  Te186  1  0.66761236  0.83565068  0.00130611  1
  Te  Te187  1  0.66428112  0.83399765  0.33607347  1
  Te  Te188  1  0.67164589  0.83352927  0.66881439  1
  Te  Te189  1  0.00217882  0.00589072  0.16117373  1
  Te  Te190  1  -0.00102999  -0.00229207  0.49846711  1
  Te  Te191  1  0.00479221  -0.00040234  0.83965135  1
  Te  Te192  1  0.00440208  0.32772544  0.15998001  1
  Te  Te193  1  0.00225920  0.33307770  0.49927395  1
  Te  Te194  1  -0.00301115  0.33828830  0.83962467  1
  Te  Te195  1  -0.00097761  0.66743209  0.16897257  1
  Te  Te196  1  0.00239979  0.67134186  0.50693567  1
  Te  Te197  1  -0.00036532  0.66245317  0.82830531  1
  Te  Te198  1  0.33910984  -0.00020165  0.17128550  1
  Te  Te199  1  0.33013868  0.00140565  0.49488171  1
  Te  Te200  1  0.32926932  -0.00057682  0.83227767  1
  Te  Te201  1  0.33641395  0.33386546  0.16639119  1
  Te  Te202  1  0.33629548  0.33580539  0.50015171  1
  Te  Te203  1  0.33475217  0.33504162  0.83217426  1
  Te  Te204  1  0.33460334  0.66080204  0.17259955  1
  Te  Te205  1  0.33868449  0.66078162  0.49653689  1
  Te  Te206  1  0.33668905  0.66124726  0.83303528  1
  Te  Te207  1  0.66401582  -0.00048789  0.16512059  1
  Te  Te208  1  0.66951973  0.00375036  0.49991768  1
  Te  Te209  1  0.66580485  0.00181564  0.84009547  1
  Te  Te210  1  0.66228748  0.33152899  0.16718626  1
  Te  Te211  1  0.66396765  0.33488956  0.49786742  1
  Te  Te212  1  0.66854977  0.33448473  0.83538931  1
  Te  Te213  1  0.66799935  0.67160244  0.16935474  1
  Te  Te214  1  0.66287337  0.66398105  0.49438699  1
  Te  Te215  1  0.66652413  0.66565521  0.83520164  1
