# generated using pymatgen
data_AgSbTe2
_symmetry_space_group_name_H-M   'P 1'
_cell_length_a   18.32147190
_cell_length_b   18.32961620
_cell_length_c   18.31855251
_cell_angle_alpha   89.99933450
_cell_angle_beta   90.00229202
_cell_angle_gamma   90.00104424
_symmetry_Int_Tables_number   1
_chemical_formula_structural   AgSbTe2
_chemical_formula_sum   'Ag54 Sb54 Te108'
_cell_volume   6151.83793301
_cell_formula_units_Z   54
loop_
 _symmetry_equiv_pos_site_id
 _symmetry_equiv_pos_as_xyz
  1  'x, y, z'
loop_
 _atom_site_type_symbol
 _atom_site_label
 _atom_site_symmetry_multiplicity
 _atom_site_fract_x
 _atom_site_fract_y
 _atom_site_fract_z
 _atom_site_occupancy
  Ag  Ag0  1  0.49317721  0.50624397  0.00312154  1
  Ag  Ag1  1  0.66131600  0.66757398  0.33597369  1
  Ag  Ag2  1  0.33343621  0.66767100  0.67356145  1
  Ag  Ag3  1  0.49709510  0.82680490  -0.00136287  1
  Ag  Ag4  1  0.65766020  0.83769104  0.50968795  1
  Ag  Ag5  1  0.17490856  0.00166272  0.49267769  1
  Ag  Ag6  1  0.00606071  0.83003739  0.16921815  1
  Ag  Ag7  1  0.00873393  -0.00590037  0.33202210  1
  Ag  Ag8  1  0.01008444  0.50314918  0.15985605  1
  Ag  Ag9  1  0.33208881  0.16094175  0.83168857  1
  Ag  Ag10  1  0.00341663  0.66958171  0.33412182  1
  Ag  Ag11  1  0.16976535  0.83671289  0.33738440  1
  Ag  Ag12  1  0.16897688  -0.00148225  0.83472942  1
  Ag  Ag13  1  0.17152725  0.50378007  0.32825871  1
  Ag  Ag14  1  0.17147038  0.32743733  0.49974151  1
  Ag  Ag15  1  -0.00140639  0.33462578  -0.00426255  1
  Ag  Ag16  1  0.50521865  0.66864205  0.83778025  1
  Ag  Ag17  1  0.66928791  0.33607222  -0.01076013  1
  Ag  Ag18  1  0.17102322  0.15510850  0.33533653  1
  Ag  Ag19  1  0.82005332  0.66465157  0.83328165  1
  Ag  Ag20  1  0.33463039  0.82699251  0.83144595  1
  Ag  Ag21  1  0.33580976  0.33669073  0.66565683  1
  Ag  Ag22  1  0.83746839  0.16872250  -0.00657356  1
  Ag  Ag23  1  0.83238536  0.33118133  0.50846503  1
  Ag  Ag24  1  0.66368393  0.66903017  0.67585290  1
  Ag  Ag25  1  0.17091894  0.67176572  0.83251715  1
  Ag  Ag26  1  0.17151296  0.49780387  0.00261177  1
  Ag  Ag27  1  0.49906756  0.33561525  0.16505529  1
  Ag  Ag28  1  0.33234276  -0.00318524  -0.00502951  1
  Ag  Ag29  1  0.33104669  0.50012432  0.16684488  1
  Ag  Ag30  1  0.16707080  0.16734910  -0.00507803  1
  Ag  Ag31  1  0.65750149  0.66183903  -0.01187636  1
  Ag  Ag32  1  0.65905273  0.82221077  0.82845813  1
  Ag  Ag33  1  0.49152191  -0.00154999  0.49443884  1
  Ag  Ag34  1  0.33852204  0.66901147  -0.00794878  1
  Ag  Ag35  1  0.17125931  -0.00058262  0.17293988  1
  Ag  Ag36  1  0.83292129  0.00913584  0.83412889  1
  Ag  Ag37  1  0.66323183  0.33088588  0.67182848  1
  Ag  Ag38  1  -0.00204453  0.50068481  0.83842749  1
  Ag  Ag39  1  0.66887779  0.50929881  0.83515733  1
  Ag  Ag40  1  0.33421360  0.16242944  0.50316325  1
  Ag  Ag41  1  0.65803749  0.16380613  0.50712933  1
  Ag  Ag42  1  -0.00301318  0.16952963  0.83694560  1
  Ag  Ag43  1  0.49312142  0.50381532  0.32701240  1
  Ag  Ag44  1  0.82696859  0.32925057  0.83294180  1
  Ag  Ag45  1  0.00743177  0.66712545  0.67312638  1
  Ag  Ag46  1  0.49571691  0.83397628  0.33281054  1
  Ag  Ag47  1  0.49239832  0.00027988  0.17137181  1
  Ag  Ag48  1  0.17074105  0.83208890  0.66702814  1
  Ag  Ag49  1  0.33581115  0.83615671  0.50459325  1
  Ag  Ag50  1  0.66568965  -0.00347890  0.67001405  1
  Ag  Ag51  1  0.33268661  0.50022059  0.49638972  1
  Ag  Ag52  1  0.66860896  0.16896365  0.82974275  1
  Ag  Ag53  1  0.49397345  0.15801020  0.33604043  1
  Sb  Sb54  1  0.49665722  0.16700543  0.00170247  1
  Sb  Sb55  1  0.33610025  -0.00329903  0.66817355  1
  Sb  Sb56  1  0.49827719  0.66739551  0.16142138  1
  Sb  Sb57  1  0.00173213  0.66141333  -0.00441658  1
  Sb  Sb58  1  0.33396089  0.33476106  -0.00542765  1
  Sb  Sb59  1  0.17237141  0.83383236  -0.00118441  1
  Sb  Sb60  1  0.33271535  0.66592233  0.33417405  1
  Sb  Sb61  1  0.17119831  0.33310337  0.16851714  1
  Sb  Sb62  1  0.00324050  0.33504305  0.32902895  1
  Sb  Sb63  1  0.49857200  0.50196566  0.66901808  1
  Sb  Sb64  1  0.00037572  -0.00427806  0.66698528  1
  Sb  Sb65  1  0.66421671  -0.00366221  0.33939718  1
  Sb  Sb66  1  0.16578773  0.33214328  0.83131423  1
  Sb  Sb67  1  0.83501065  0.66591043  0.16026295  1
  Sb  Sb68  1  0.33123586  0.83230533  0.16505315  1
  Sb  Sb69  1  0.33314880  0.16829552  0.16700929  1
  Sb  Sb70  1  0.00769499  0.49990169  0.50014452  1
  Sb  Sb71  1  0.83407106  0.50112433  0.33388443  1
  Sb  Sb72  1  0.83193649  0.83171609  0.66870581  1
  Sb  Sb73  1  0.16661211  0.66831233  0.16313176  1
  Sb  Sb74  1  0.50571317  0.33759176  0.83777687  1
  Sb  Sb75  1  0.66034921  -0.00004621  -0.00766844  1
  Sb  Sb76  1  0.50052484  0.16538272  0.66377209  1
  Sb  Sb77  1  0.00038751  0.33802531  0.67334393  1
  Sb  Sb78  1  0.83057268  0.33431872  0.16091794  1
  Sb  Sb79  1  0.65961336  0.49908845  0.50434133  1
  Sb  Sb80  1  0.49753296  0.83245154  0.66732362  1
  Sb  Sb81  1  0.00387977  0.16693271  0.50348371  1
  Sb  Sb82  1  0.33370605  0.50506003  0.83491956  1
  Sb  Sb83  1  0.66308328  0.33595466  0.33575267  1
  Sb  Sb84  1  0.83141175  0.50000742  0.66990560  1
  Sb  Sb85  1  0.16971901  0.16182853  0.66829546  1
  Sb  Sb86  1  0.33319027  0.33467315  0.33935114  1
  Sb  Sb87  1  0.16925688  0.50471512  0.66943971  1
  Sb  Sb88  1  0.83148838  0.00439128  0.50518850  1
  Sb  Sb89  1  0.00338298  0.83120675  0.83617758  1
  Sb  Sb90  1  0.00488913  0.83322424  0.49713063  1
  Sb  Sb91  1  0.49849217  -0.00444352  0.83361218  1
  Sb  Sb92  1  0.66313018  0.16681376  0.16460245  1
  Sb  Sb93  1  0.66204561  0.50054804  0.16018233  1
  Sb  Sb94  1  0.83332284  0.49631877  -0.00410649  1
  Sb  Sb95  1  0.49621085  0.32868038  0.49687403  1
  Sb  Sb96  1  0.83422546  0.16607759  0.33192250  1
  Sb  Sb97  1  0.16949302  0.66934532  0.50326428  1
  Sb  Sb98  1  0.66501033  0.83301330  0.16499792  1
  Sb  Sb99  1  0.82807087  0.83630521  -0.00466331  1
  Sb  Sb100  1  0.49932862  0.67210102  0.50233443  1
  Sb  Sb101  1  0.83646674  0.00036767  0.16090098  1
  Sb  Sb102  1  0.83016035  0.16796156  0.67469053  1
  Sb  Sb103  1  0.00425565  0.16748877  0.16136163  1
  Sb  Sb104  1  0.83066739  0.66352477  0.50551889  1
  Sb  Sb105  1  0.00826186  0.00301438  0.00121323  1
  Sb  Sb106  1  0.83383595  0.83255911  0.33447005  1
  Sb  Sb107  1  0.32975308  -0.00107814  0.33296374  1
  Te  Te108  1  0.16798069  0.16230344  0.16906783  1
  Te  Te109  1  0.16904241  0.16389261  0.49928612  1
  Te  Te110  1  0.17060855  0.16510028  0.83432114  1
  Te  Te111  1  0.16903060  0.49961202  0.16602547  1
  Te  Te112  1  0.17249239  0.49891966  0.49624897  1
  Te  Te113  1  0.16458593  0.50031564  0.83754008  1
  Te  Te114  1  0.16513849  0.83768566  0.17134720  1
  Te  Te115  1  0.16988013  0.83673171  0.49736064  1
  Te  Te116  1  0.16955759  0.83470015  0.83301420  1
  Te  Te117  1  0.49862852  0.16276157  0.17423605  1
  Te  Te118  1  0.49784554  0.16335771  0.49590740  1
  Te  Te119  1  0.49629627  0.16535482  0.83383504  1
  Te  Te120  1  0.49780856  0.50029809  0.16598089  1
  Te  Te121  1  0.49294257  0.49991086  0.49318841  1
  Te  Te122  1  0.50333076  0.50488659  0.83863417  1
  Te  Te123  1  0.49925156  0.83866496  0.16977993  1
  Te  Te124  1  0.49849189  0.83617944  0.49680780  1
  Te  Te125  1  0.49727891  0.83153820  0.83590951  1
  Te  Te126  1  0.83314320  0.16696939  0.15700135  1
  Te  Te127  1  0.83148742  0.17160095  0.49907880  1
  Te  Te128  1  0.83264571  0.16794246  0.83649360  1
  Te  Te129  1  0.84397174  0.49926680  0.16636889  1
  Te  Te130  1  0.83247688  0.49182094  0.49970623  1
  Te  Te131  1  0.83361539  0.49977546  0.83386155  1
  Te  Te132  1  0.84189485  0.83422304  0.16552191  1
  Te  Te133  1  0.82313869  0.83444048  0.50071877  1
  Te  Te134  1  0.82930137  0.83200837  0.83341434  1
  Te  Te135  1  0.17148167  0.00111110  -0.00491951  1
  Te  Te136  1  0.16695484  -0.00138896  0.33330988  1
  Te  Te137  1  0.16646453  -0.00703991  0.67017431  1
  Te  Te138  1  0.16467919  0.33338019  0.00053206  1
  Te  Te139  1  0.16622780  0.33676617  0.33754847  1
  Te  Te140  1  0.16873184  0.33416843  0.65990188  1
  Te  Te141  1  0.16936337  0.66327329  -0.00404968  1
  Te  Te142  1  0.16479155  0.66713984  0.33309665  1
  Te  Te143  1  0.16909096  0.67071841  0.66957208  1
  Te  Te144  1  0.49419035  -0.00105157  0.00431953  1
  Te  Te145  1  0.50017212  -0.00164384  0.33391436  1
  Te  Te146  1  0.50664558  -0.00061506  0.65708215  1
  Te  Te147  1  0.50295766  0.33568305  0.00445949  1
  Te  Te148  1  0.49965141  0.33760676  0.32688131  1
  Te  Te149  1  0.50106729  0.33498877  0.66566943  1
  Te  Te150  1  0.49969566  0.66656086  -0.00047067  1
  Te  Te151  1  0.50000320  0.66780112  0.33233215  1
  Te  Te152  1  0.49986691  0.66601875  0.67303192  1
  Te  Te153  1  0.83294049  0.00577109  -0.00636603  1
  Te  Te154  1  0.84181306  0.00062573  0.33149070  1
  Te  Te155  1  0.82858888  -0.00128402  0.67398871  1
  Te  Te156  1  0.83147692  0.32980000  -0.00418545  1
  Te  Te157  1  0.83317852  0.33249274  0.33605959  1
  Te  Te158  1  0.83010059  0.33386778  0.66917425  1
  Te  Te159  1  0.82720797  0.66735234  -0.00708835  1
  Te  Te160  1  0.83676682  0.66599329  0.33358174  1
  Te  Te161  1  0.82986492  0.66618990  0.67310873  1
  Te  Te162  1  0.00577534  0.16939602  -0.00440999  1
  Te  Te163  1  0.00499971  0.16500567  0.33329637  1
  Te  Te164  1  0.00150874  0.16620750  0.67611397  1
  Te  Te165  1  0.00281553  0.49794515  -0.00135441  1
  Te  Te166  1  0.00500292  0.50362763  0.33210984  1
  Te  Te167  1  0.00109297  0.50753015  0.67174755  1
  Te  Te168  1  -0.00032004  0.83188880  0.00681476  1
  Te  Te169  1  0.00211342  0.83149684  0.33235248  1
  Te  Te170  1  0.00657229  0.82718023  0.66601839  1
  Te  Te171  1  0.32880928  0.16555477  -0.00332788  1
  Te  Te172  1  0.33196771  0.16757462  0.33729838  1
  Te  Te173  1  0.33425603  0.16931119  0.66613298  1
  Te  Te174  1  0.33250951  0.50029955  0.00118018  1
  Te  Te175  1  0.33236871  0.50133111  0.33323686  1
  Te  Te176  1  0.33400907  0.50130444  0.66142236  1
  Te  Te177  1  0.33709707  0.83178637  -0.00188776  1
  Te  Te178  1  0.33327771  0.83162883  0.33607014  1
  Te  Te179  1  0.33126108  0.83136946  0.66771559  1
  Te  Te180  1  0.66501406  0.16902681  -0.00339162  1
  Te  Te181  1  0.66380016  0.16612691  0.33762790  1
  Te  Te182  1  0.66598421  0.17027846  0.66629752  1
  Te  Te183  1  0.66545371  0.50002205  -0.00292485  1
  Te  Te184  1  0.66345644  0.50515579  0.33307698  1
  Te  Te185  1  0.66461064  0.50227161  0.67199785  1
  Te  Te186  1  0.66021516  0.83049270  -0.00374554  1
  Te  Te187  1  0.66343150  0.82960045  0.33361307  1
  Te  Te188  1  0.66605981  0.83093671  0.66843284  1
  Te  Te189  1  0.00437801  -0.00107891  0.16987866  1
  Te  Te190  1  0.00266729  0.00054449  0.49633301  1
  Te  Te191  1  0.00099918  0.00127020  0.83300941  1
  Te  Te192  1  -0.00019358  0.33887861  0.15948201  1
  Te  Te193  1  -0.00104675  0.33344128  0.50179445  1
  Te  Te194  1  -0.00203173  0.33443661  0.83607251  1
  Te  Te195  1  0.00025685  0.66517218  0.16964138  1
  Te  Te196  1  -0.00225371  0.66561054  0.49925546  1
  Te  Te197  1  0.00852122  0.66573263  0.83137746  1
  Te  Te198  1  0.33173829  0.00030822  0.16030715  1
  Te  Te199  1  0.33230291  -0.00078888  0.50220938  1
  Te  Te200  1  0.33225753  0.00019580  0.83346774  1
  Te  Te201  1  0.33890459  0.33847416  0.16413312  1
  Te  Te202  1  0.33139217  0.33047213  0.50517101  1
  Te  Te203  1  0.33470560  0.33008563  0.82596218  1
  Te  Te204  1  0.33240471  0.66124936  0.15849156  1
  Te  Te205  1  0.33392163  0.66988580  0.50579745  1
  Te  Te206  1  0.33056522  0.66602831  0.83275611  1
  Te  Te207  1  0.66288898  -0.00033099  0.16682871  1
  Te  Te208  1  0.66800692  0.00126629  0.50496669  1
  Te  Te209  1  0.66573600  0.00678543  0.82960374  1
  Te  Te210  1  0.66188807  0.33401494  0.16296658  1
  Te  Te211  1  0.66704502  0.33077298  0.50378326  1
  Te  Te212  1  0.66691700  0.32823463  0.83237839  1
  Te  Te213  1  0.66908566  0.66689733  0.17512748  1
  Te  Te214  1  0.66651542  0.66930273  0.49835076  1
  Te  Te215  1  0.66403493  0.66572168  0.83235954  1
