# generated using pymatgen
data_AgSbTe2
_symmetry_space_group_name_H-M   'P 1'
_cell_length_a   18.32281974
_cell_length_b   18.32208927
_cell_length_c   18.32566293
_cell_angle_alpha   89.99875351
_cell_angle_beta   90.00139622
_cell_angle_gamma   89.99846552
_symmetry_Int_Tables_number   1
_chemical_formula_structural   AgSbTe2
_chemical_formula_sum   'Ag54 Sb54 Te108'
_cell_volume   6152.15115961
_cell_formula_units_Z   54
loop_
 _symmetry_equiv_pos_site_id
 _symmetry_equiv_pos_as_xyz
  1  'x, y, z'
loop_
 _atom_site_type_symbol
 _atom_site_label
 _atom_site_symmetry_multiplicity
 _atom_site_fract_x
 _atom_site_fract_y
 _atom_site_fract_z
 _atom_site_occupancy
  Ag  Ag0  1  0.83786639  0.66393254  0.83643482  1
  Ag  Ag1  1  0.32403533  0.34305077  0.33293851  1
  Ag  Ag2  1  0.83484172  0.67269432  0.16632747  1
  Ag  Ag3  1  0.83100108  0.83035777  0.32414397  1
  Ag  Ag4  1  0.67510725  0.83157799  0.49032164  1
  Ag  Ag5  1  0.49422906  0.16944374  0.66242543  1
  Ag  Ag6  1  0.32852157  -0.00053283  0.66564083  1
  Ag  Ag7  1  0.16851944  0.50226026  0.66403769  1
  Ag  Ag8  1  0.66679509  0.16133474  0.49774922  1
  Ag  Ag9  1  0.49174883  0.16658212  0.33602460  1
  Ag  Ag10  1  0.49772208  0.50249757  0.00157978  1
  Ag  Ag11  1  -0.00025954  0.83154333  0.49241760  1
  Ag  Ag12  1  0.83962867  0.34215952  0.50120455  1
  Ag  Ag13  1  0.32822027  0.82249335  0.17279485  1
  Ag  Ag14  1  0.32800213  0.16567952  0.17183483  1
  Ag  Ag15  1  0.00639199  0.33501146  0.33005825  1
  Ag  Ag16  1  0.83890978  0.34676279  0.83060583  1
  Ag  Ag17  1  0.83401280  0.50379699  0.67124753  1
  Ag  Ag18  1  0.16740288  0.00130428  0.49745713  1
  Ag  Ag19  1  0.33424747  0.66292085  0.32565429  1
  Ag  Ag20  1  0.16360013  -0.00583044  0.17099143  1
  Ag  Ag21  1  0.32810484  0.50245091  0.83022021  1
  Ag  Ag22  1  0.17024891  0.16440877  0.66237458  1
  Ag  Ag23  1  0.49683133  0.50005208  0.67035901  1
  Ag  Ag24  1  0.32857532  0.50985400  0.17090174  1
  Ag  Ag25  1  0.00138909  0.17351182  0.83692905  1
  Ag  Ag26  1  0.68129659  0.82731234  0.17317248  1
  Ag  Ag27  1  0.17302616  0.66920144  0.16459281  1
  Ag  Ag28  1  0.83510265  0.83342427  0.01123396  1
  Ag  Ag29  1  0.00071615  0.33997455  0.00156830  1
  Ag  Ag30  1  -0.00666202  0.82666672  0.16837545  1
  Ag  Ag31  1  0.17028801  0.17227529  0.33256038  1
  Ag  Ag32  1  0.83864150  -0.01159284  0.16061179  1
  Ag  Ag33  1  -0.00294006  0.50052674  0.83892781  1
  Ag  Ag34  1  0.00211977  0.50979420  0.16044851  1
  Ag  Ag35  1  0.48699140  0.66431454  0.16675787  1
  Ag  Ag36  1  0.32796047  0.50521570  0.49492320  1
  Ag  Ag37  1  0.32507646  0.66420035  0.01236805  1
  Ag  Ag38  1  0.66896416  0.51076830  0.16515401  1
  Ag  Ag39  1  0.66736653  0.66958331  0.32756940  1
  Ag  Ag40  1  0.32657929  0.82757542  0.49371491  1
  Ag  Ag41  1  0.00207254  0.66551713  0.00451771  1
  Ag  Ag42  1  0.16105275  0.66271465  0.83908243  1
  Ag  Ag43  1  0.16761812  0.83117953  0.66044873  1
  Ag  Ag44  1  0.83136411  0.66741774  0.49626320  1
  Ag  Ag45  1  0.17059989  0.49700998  0.33407279  1
  Ag  Ag46  1  0.67803312  0.50296303  0.83443836  1
  Ag  Ag47  1  0.16281987  0.33204043  0.49579016  1
  Ag  Ag48  1  0.83500248  -0.00564220  0.84121662  1
  Ag  Ag49  1  0.67775266  -0.00201146  0.00843230  1
  Ag  Ag50  1  -0.00364300  -0.00375789  0.00288413  1
  Ag  Ag51  1  0.67000608  0.66428997  0.66187452  1
  Ag  Ag52  1  0.67007022  -0.01309822  0.32949575  1
  Ag  Ag53  1  0.16389573  0.16464662  0.00815834  1
  Sb  Sb54  1  0.83568360  0.17068885  0.66684249  1
  Sb  Sb55  1  0.50461986  0.82608231  0.00481370  1
  Sb  Sb56  1  0.67065204  0.82703802  0.83562425  1
  Sb  Sb57  1  0.50300001  0.66517260  0.49489015  1
  Sb  Sb58  1  -0.00041244  0.82949653  0.83852503  1
  Sb  Sb59  1  0.16105632  0.83306704  0.00356533  1
  Sb  Sb60  1  0.83668182  -0.00515284  0.49919610  1
  Sb  Sb61  1  -0.00208302  0.66569937  0.67148341  1
  Sb  Sb62  1  0.33437882  0.66524121  0.66470544  1
  Sb  Sb63  1  0.33202399  0.16738007  0.49621816  1
  Sb  Sb64  1  0.49574209  0.82930566  0.66397741  1
  Sb  Sb65  1  0.66417206  -0.00488289  0.66373557  1
  Sb  Sb66  1  0.50520599  0.00295813  0.83293791  1
  Sb  Sb67  1  0.33007296  -0.00524554  0.00029903  1
  Sb  Sb68  1  0.66864417  0.33750342  0.33422721  1
  Sb  Sb69  1  0.83424837  0.50724252  -0.00337176  1
  Sb  Sb70  1  0.32539820  0.17251345  0.83406382  1
  Sb  Sb71  1  0.32426611  0.34119874  0.00610684  1
  Sb  Sb72  1  0.16063063  0.34006831  0.83002876  1
  Sb  Sb73  1  0.83592465  0.16427008  0.33372670  1
  Sb  Sb74  1  0.50343051  0.33758217  0.83208643  1
  Sb  Sb75  1  0.00107368  0.66322671  0.32530790  1
  Sb  Sb76  1  0.33041978  0.33443094  0.66103517  1
  Sb  Sb77  1  0.49542095  0.00130114  0.49834150  1
  Sb  Sb78  1  0.49779356  0.34160966  0.16837969  1
  Sb  Sb79  1  0.33379782  -0.00308962  0.33498027  1
  Sb  Sb80  1  0.67459538  0.33358199  -0.00026762  1
  Sb  Sb81  1  0.16634302  0.50105069  0.00223125  1
  Sb  Sb82  1  0.00384453  0.50379845  0.49983213  1
  Sb  Sb83  1  0.00686718  0.16473035  0.16177529  1
  Sb  Sb84  1  0.83758808  0.33686887  0.16651237  1
  Sb  Sb85  1  0.16564808  0.33757692  0.17354494  1
  Sb  Sb86  1  0.66262544  0.16125137  0.17201006  1
  Sb  Sb87  1  0.16277185  0.66694869  0.49741834  1
  Sb  Sb88  1  0.00083369  0.33514799  0.66728304  1
  Sb  Sb89  1  0.66780815  0.34009058  0.66480748  1
  Sb  Sb90  1  0.83799985  0.82675427  0.66459342  1
  Sb  Sb91  1  0.66575409  0.50404218  0.49962298  1
  Sb  Sb92  1  -0.00114533  0.00157881  0.32759927  1
  Sb  Sb93  1  0.49340011  0.49926417  0.33217531  1
  Sb  Sb94  1  0.50446400  0.83377332  0.33214940  1
  Sb  Sb95  1  0.49789095  0.33415069  0.49798477  1
  Sb  Sb96  1  0.50161833  0.66139341  0.83811961  1
  Sb  Sb97  1  0.16374544  0.83150961  0.33435197  1
  Sb  Sb98  1  0.83773761  0.50603220  0.33479489  1
  Sb  Sb99  1  0.49365037  0.17124004  0.00246743  1
  Sb  Sb100  1  0.49880849  -0.00619282  0.16872181  1
  Sb  Sb101  1  0.00145959  0.16495685  0.50211519  1
  Sb  Sb102  1  0.67372192  0.17003810  0.82918433  1
  Sb  Sb103  1  0.16209203  -0.00225728  0.83385515  1
  Sb  Sb104  1  0.32876548  0.82559918  0.83409142  1
  Sb  Sb105  1  0.67116491  0.66797260  0.00678364  1
  Sb  Sb106  1  0.84100247  0.15917706  -0.00104420  1
  Sb  Sb107  1  0.00457129  -0.00173747  0.67130683  1
  Te  Te108  1  0.16795347  0.16580179  0.16947651  1
  Te  Te109  1  0.16676738  0.16537209  0.50062487  1
  Te  Te110  1  0.16168084  0.16643780  0.82703324  1
  Te  Te111  1  0.16613140  0.50328332  0.16803091  1
  Te  Te112  1  0.16769514  0.49982274  0.50026869  1
  Te  Te113  1  0.16504481  0.50342529  0.83313954  1
  Te  Te114  1  0.16820015  0.83349832  0.16801073  1
  Te  Te115  1  0.16655809  0.83430924  0.49928128  1
  Te  Te116  1  0.16560441  0.82596551  0.82486952  1
  Te  Te117  1  0.49417250  0.16699159  0.16919927  1
  Te  Te118  1  0.50324777  0.16764958  0.50153211  1
  Te  Te119  1  0.49987793  0.16973465  0.82785226  1
  Te  Te120  1  0.49812709  0.50451635  0.16616318  1
  Te  Te121  1  0.49348698  0.49927286  0.50681223  1
  Te  Te122  1  0.49766341  0.49928709  0.83060973  1
  Te  Te123  1  0.48957264  0.82638464  0.16667938  1
  Te  Te124  1  0.49666580  0.83351650  0.49971554  1
  Te  Te125  1  0.49954389  0.83362614  0.83449019  1
  Te  Te126  1  0.83203720  0.16247576  0.16702515  1
  Te  Te127  1  0.82960599  0.16710243  0.50108388  1
  Te  Te128  1  0.83940675  0.16549653  0.83198222  1
  Te  Te129  1  0.83470232  0.50456585  0.16652864  1
  Te  Te130  1  0.83416172  0.50191325  0.50388531  1
  Te  Te131  1  0.83502064  0.50295743  0.83328592  1
  Te  Te132  1  0.83641240  0.83437196  0.16771665  1
  Te  Te133  1  0.83361131  0.82989637  0.49947217  1
  Te  Te134  1  0.83408236  0.83095602  0.83300452  1
  Te  Te135  1  0.16315200  0.00254856  0.00237685  1
  Te  Te136  1  0.16676727  0.00269259  0.33257775  1
  Te  Te137  1  0.16901164  0.00015556  0.66603706  1
  Te  Te138  1  0.15938470  0.32564656  -0.00231288  1
  Te  Te139  1  0.16735853  0.33456354  0.33582859  1
  Te  Te140  1  0.16705675  0.33507578  0.65944714  1
  Te  Te141  1  0.16435847  0.66763833  0.00104715  1
  Te  Te142  1  0.17036103  0.66294398  0.32955075  1
  Te  Te143  1  0.16678350  0.66407173  0.66780852  1
  Te  Te144  1  0.50405972  0.00171146  -0.00055875  1
  Te  Te145  1  0.50805936  0.00866713  0.33286388  1
  Te  Te146  1  0.49402451  0.00345897  0.66678015  1
  Te  Te147  1  0.49997403  0.34051895  -0.00007544  1
  Te  Te148  1  0.49675716  0.32551278  0.33364328  1
  Te  Te149  1  0.49940211  0.33338832  0.66559502  1
  Te  Te150  1  0.49644551  0.66041050  0.00446364  1
  Te  Te151  1  0.50082340  0.66654029  0.32757223  1
  Te  Te152  1  0.50625900  0.66145528  0.66796906  1
  Te  Te153  1  0.83479593  -0.00240576  0.00100249  1
  Te  Te154  1  0.82973707  -0.00353672  0.33095314  1
  Te  Te155  1  0.83274252  0.00053371  0.67198517  1
  Te  Te156  1  0.84185297  0.33103081  -0.00307924  1
  Te  Te157  1  0.83797222  0.33364883  0.33754674  1
  Te  Te158  1  0.83423246  0.33890590  0.66480166  1
  Te  Te159  1  0.83638984  0.67137997  -0.00004959  1
  Te  Te160  1  0.83263849  0.66958544  0.33406748  1
  Te  Te161  1  0.83111727  0.66291391  0.66789144  1
  Te  Te162  1  0.00499993  0.16415940  -0.00344868  1
  Te  Te163  1  0.00579536  0.17239469  0.33344689  1
  Te  Te164  1  0.00536300  0.16625660  0.67272223  1
  Te  Te165  1  0.00008376  0.50190376  0.00046821  1
  Te  Te166  1  0.00514284  0.49594333  0.33078109  1
  Te  Te167  1  0.00193756  0.50051450  0.67070811  1
  Te  Te168  1  -0.00341520  0.83188385  0.00465472  1
  Te  Te169  1  -0.00474576  0.83355202  0.33140099  1
  Te  Te170  1  0.00647114  0.83262906  0.65949538  1
  Te  Te171  1  0.32679655  0.16725481  0.00331700  1
  Te  Te172  1  0.33102116  0.16339676  0.33243266  1
  Te  Te173  1  0.33231154  0.16460714  0.66630678  1
  Te  Te174  1  0.33398308  0.50304510  0.00442219  1
  Te  Te175  1  0.33267515  0.50111710  0.33285077  1
  Te  Te176  1  0.33090925  0.49996280  0.66713511  1
  Te  Te177  1  0.33338386  0.82602678  0.00340045  1
  Te  Te178  1  0.33455513  0.83011704  0.33414820  1
  Te  Te179  1  0.32952267  0.83533523  0.66448431  1
  Te  Te180  1  0.66267054  0.16203834  -0.00029799  1
  Te  Te181  1  0.66674387  0.16946496  0.33775330  1
  Te  Te182  1  0.66275884  0.16531274  0.66157256  1
  Te  Te183  1  0.66331308  0.49871774  0.00076708  1
  Te  Te184  1  0.66492752  0.50525632  0.32930805  1
  Te  Te185  1  0.66872075  0.50456785  0.66709932  1
  Te  Te186  1  0.67111609  0.83799275  0.00322351  1
  Te  Te187  1  0.66690349  0.83060125  0.33270121  1
  Te  Te188  1  0.66498262  0.82676246  0.66321707  1
  Te  Te189  1  0.00220377  -0.00125863  0.16333754  1
  Te  Te190  1  0.00569810  -0.00475966  0.49947627  1
  Te  Te191  1  -0.00432943  -0.00157615  0.83974436  1
  Te  Te192  1  -0.00071564  0.33804637  0.16543261  1
  Te  Te193  1  0.00003221  0.33268367  0.49634269  1
  Te  Te194  1  -0.00328072  0.33604731  0.83482461  1
  Te  Te195  1  -0.00354338  0.66731992  0.16579382  1
  Te  Te196  1  -0.00620501  0.67152530  0.49881231  1
  Te  Te197  1  -0.00038978  0.66393612  0.83761336  1
  Te  Te198  1  0.32924683  0.00271531  0.16538215  1
  Te  Te199  1  0.32820313  -0.00373676  0.50265473  1
  Te  Te200  1  0.33433898  0.00006982  0.82933710  1
  Te  Te201  1  0.33242242  0.32890459  0.17268736  1
  Te  Te202  1  0.32891816  0.33732503  0.49384737  1
  Te  Te203  1  0.33256623  0.34224282  0.83591815  1
  Te  Te204  1  0.33012388  0.66562436  0.16836749  1
  Te  Te205  1  0.33380508  0.66695991  0.49708522  1
  Te  Te206  1  0.33071828  0.66040121  0.83411767  1
  Te  Te207  1  0.66590325  -0.00297649  0.16812203  1
  Te  Te208  1  0.66777408  -0.00294584  0.49689062  1
  Te  Te209  1  0.67297748  0.00033916  0.83473632  1
  Te  Te210  1  0.66804171  0.34065267  0.16631290  1
  Te  Te211  1  0.67231156  0.33071973  0.49851986  1
  Te  Te212  1  0.67629004  0.33957381  0.83305697  1
  Te  Te213  1  0.67586318  0.66797986  0.16590633  1
  Te  Te214  1  0.66940977  0.66932841  0.49687189  1
  Te  Te215  1  0.66980109  0.66148154  0.83415507  1
