# generated using pymatgen
data_AgSbTe2
_symmetry_space_group_name_H-M   'P 1'
_cell_length_a   18.33990418
_cell_length_b   18.33848716
_cell_length_c   18.34339252
_cell_angle_alpha   90.00430334
_cell_angle_beta   90.00207961
_cell_angle_gamma   89.99614688
_symmetry_Int_Tables_number   1
_chemical_formula_structural   AgSbTe2
_chemical_formula_sum   'Ag54 Sb54 Te108'
_cell_volume   6169.36158377
_cell_formula_units_Z   54
loop_
 _symmetry_equiv_pos_site_id
 _symmetry_equiv_pos_as_xyz
  1  'x, y, z'
loop_
 _atom_site_type_symbol
 _atom_site_label
 _atom_site_symmetry_multiplicity
 _atom_site_fract_x
 _atom_site_fract_y
 _atom_site_fract_z
 _atom_site_occupancy
  Ag  Ag0  1  0.65284104  -0.00308209  0.33341900  1
  Ag  Ag1  1  0.65302613  0.83582747  0.16925090  1
  Ag  Ag2  1  0.48934289  0.32774141  0.17166844  1
  Ag  Ag3  1  0.16188504  0.32519061  0.49680949  1
  Ag  Ag4  1  0.83142144  0.49452315  -0.00273206  1
  Ag  Ag5  1  0.49446286  0.16075010  0.32977836  1
  Ag  Ag6  1  0.33063889  0.66719214  0.01168218  1
  Ag  Ag7  1  0.49064936  0.32385891  0.48866928  1
  Ag  Ag8  1  0.67560766  0.49897295  0.83314588  1
  Ag  Ag9  1  0.83189498  -0.00147370  0.17504473  1
  Ag  Ag10  1  0.32987552  0.16577480  0.49105517  1
  Ag  Ag11  1  0.33437067  0.00933826  0.01187579  1
  Ag  Ag12  1  0.49059235  0.67494429  0.16928713  1
  Ag  Ag13  1  0.49174279  0.16983105  0.01227618  1
  Ag  Ag14  1  0.33014100  0.32673372  0.01132057  1
  Ag  Ag15  1  0.83695206  0.33185754  0.16750723  1
  Ag  Ag16  1  0.50074067  0.84586118  0.32837388  1
  Ag  Ag17  1  0.16919578  0.83206345  0.00147108  1
  Ag  Ag18  1  0.16459829  0.16608951  0.66135747  1
  Ag  Ag19  1  0.66816612  0.67075190  0.66898032  1
  Ag  Ag20  1  0.84361006  0.33745828  0.83058344  1
  Ag  Ag21  1  0.00708141  0.33465726  -0.00223275  1
  Ag  Ag22  1  0.00694564  0.33582266  0.33539709  1
  Ag  Ag23  1  0.84313605  0.32514378  0.50046260  1
  Ag  Ag24  1  0.17793361  0.00075430  0.17091484  1
  Ag  Ag25  1  0.16808804  0.00684294  0.49517966  1
  Ag  Ag26  1  0.83401372  0.67127013  0.16860247  1
  Ag  Ag27  1  0.84016055  0.17272987  0.66149299  1
  Ag  Ag28  1  0.34177243  0.00777134  0.32346831  1
  Ag  Ag29  1  0.33552378  0.15904534  0.16890736  1
  Ag  Ag30  1  -0.00132232  0.33119857  0.66493561  1
  Ag  Ag31  1  0.16566979  0.66722710  0.84011168  1
  Ag  Ag32  1  0.17801605  0.67408869  0.16274751  1
  Ag  Ag33  1  -0.00366680  0.49204238  0.83472603  1
  Ag  Ag34  1  0.00454917  0.83013208  0.82986625  1
  Ag  Ag35  1  0.00786100  0.16747970  0.50077010  1
  Ag  Ag36  1  0.33358000  0.16660806  0.84491861  1
  Ag  Ag37  1  0.33435084  0.84632724  0.16761518  1
  Ag  Ag38  1  0.00171360  0.84291379  0.49982895  1
  Ag  Ag39  1  0.49844159  0.00127375  0.84025863  1
  Ag  Ag40  1  0.17486139  0.32954438  0.16704505  1
  Ag  Ag41  1  0.49980399  0.49227915  0.00566410  1
  Ag  Ag42  1  0.83315259  0.83849150  0.32932305  1
  Ag  Ag43  1  0.49773002  0.49111969  0.32399457  1
  Ag  Ag44  1  0.49568723  0.00617461  0.48577741  1
  Ag  Ag45  1  0.16192279  0.33438208  0.83746028  1
  Ag  Ag46  1  0.66659130  -0.00204119  0.65684397  1
  Ag  Ag47  1  0.83532440  0.00572113  0.49370498  1
  Ag  Ag48  1  0.16441753  0.83915631  0.66952465  1
  Ag  Ag49  1  0.33632951  0.32506445  0.32646375  1
  Ag  Ag50  1  0.00368308  0.66460893  0.33088060  1
  Ag  Ag51  1  0.49072714  0.00145649  0.17160109  1
  Ag  Ag52  1  0.83362737  0.49039421  0.67501880  1
  Ag  Ag53  1  0.33343954  0.66944368  0.32513140  1
  Sb  Sb54  1  0.82920579  0.49959026  0.33092592  1
  Sb  Sb55  1  -0.00163996  0.49279033  0.50216440  1
  Sb  Sb56  1  0.17131943  0.00177857  0.83375642  1
  Sb  Sb57  1  0.66814384  0.49925631  0.50302578  1
  Sb  Sb58  1  0.17085252  0.49712503  0.33153637  1
  Sb  Sb59  1  0.32660828  0.32894207  0.66502766  1
  Sb  Sb60  1  0.83519039  0.66809722  0.49626723  1
  Sb  Sb61  1  0.84088277  0.83026488  0.00732473  1
  Sb  Sb62  1  0.49520893  0.66896583  0.84102371  1
  Sb  Sb63  1  0.83722136  0.83559446  0.66172419  1
  Sb  Sb64  1  0.50745953  0.49818679  0.66846516  1
  Sb  Sb65  1  0.66429040  0.33495947  0.00148028  1
  Sb  Sb66  1  0.33459797  0.49078481  0.49624842  1
  Sb  Sb67  1  0.00667045  0.00363674  0.00239264  1
  Sb  Sb68  1  0.66228006  0.66504538  0.00008216  1
  Sb  Sb69  1  0.17432101  0.16818369  0.33944446  1
  Sb  Sb70  1  0.32834481  0.83858607  0.84178082  1
  Sb  Sb71  1  0.33625398  0.49843493  0.16621820  1
  Sb  Sb72  1  0.33109734  0.49466519  0.83653113  1
  Sb  Sb73  1  0.66125353  0.32849678  0.33210389  1
  Sb  Sb74  1  0.16771640  0.83368574  0.33063018  1
  Sb  Sb75  1  0.00541321  0.17164828  0.82877823  1
  Sb  Sb76  1  0.67055926  0.83136460  0.83694146  1
  Sb  Sb77  1  0.66419913  0.67242570  0.33233543  1
  Sb  Sb78  1  0.49683429  0.83716271  0.66022214  1
  Sb  Sb79  1  0.33476748  0.66923026  0.66663450  1
  Sb  Sb80  1  0.83904050  0.65949574  0.83787817  1
  Sb  Sb81  1  0.32852831  0.84243404  0.48997300  1
  Sb  Sb82  1  0.00312097  0.00207200  0.33596014  1
  Sb  Sb83  1  0.66540914  0.16446312  0.50023710  1
  Sb  Sb84  1  0.82989554  0.16367420  0.33624294  1
  Sb  Sb85  1  -0.00275014  0.49770040  0.16229902  1
  Sb  Sb86  1  0.49849404  0.66927731  0.48963991  1
  Sb  Sb87  1  0.49697451  0.33030431  0.83650179  1
  Sb  Sb88  1  0.65850038  -0.00068525  0.00660356  1
  Sb  Sb89  1  0.00552854  0.83248425  0.16980704  1
  Sb  Sb90  1  0.66276229  0.17014069  0.83101144  1
  Sb  Sb91  1  0.49815575  0.16530880  0.66245391  1
  Sb  Sb92  1  -0.00125335  0.00511270  0.66384305  1
  Sb  Sb93  1  0.67524415  0.33032258  0.66611592  1
  Sb  Sb94  1  0.17271385  0.16756045  -0.00211627  1
  Sb  Sb95  1  0.00688843  0.17016516  0.17335430  1
  Sb  Sb96  1  0.82998327  0.17253149  -0.00080280  1
  Sb  Sb97  1  0.16550413  0.66904773  0.49743178  1
  Sb  Sb98  1  -0.00282045  0.66389355  0.66498459  1
  Sb  Sb99  1  0.00494073  0.66158404  0.00368591  1
  Sb  Sb100  1  0.16015338  0.49550758  0.66966198  1
  Sb  Sb101  1  0.66374412  0.50363017  0.16365393  1
  Sb  Sb102  1  0.67025811  0.83781744  0.49353192  1
  Sb  Sb103  1  0.16872836  0.49989886  0.00110920  1
  Sb  Sb104  1  0.33497146  0.00198933  0.66397540  1
  Sb  Sb105  1  0.49153673  0.83550296  0.00930301  1
  Sb  Sb106  1  0.83040106  0.00472337  0.83141466  1
  Sb  Sb107  1  0.65906007  0.16152316  0.16827534  1
  Te  Te108  1  0.17252037  0.16621532  0.16455157  1
  Te  Te109  1  0.16687630  0.16635540  0.50159488  1
  Te  Te110  1  0.17140643  0.16971996  0.82771455  1
  Te  Te111  1  0.16360076  0.49695977  0.16614260  1
  Te  Te112  1  0.16665722  0.49226551  0.50142373  1
  Te  Te113  1  0.16173666  0.49846311  0.83409042  1
  Te  Te114  1  0.17101064  0.83309467  0.16496665  1
  Te  Te115  1  0.16211559  0.83611314  0.50285680  1
  Te  Te116  1  0.16490298  0.83427062  0.83262014  1
  Te  Te117  1  0.49795698  0.16663572  0.16883724  1
  Te  Te118  1  0.49744178  0.16523641  0.49872640  1
  Te  Te119  1  0.49502424  0.16290158  0.83050996  1
  Te  Te120  1  0.50316149  0.49397394  0.16455519  1
  Te  Te121  1  0.50123330  0.49688418  0.49858744  1
  Te  Te122  1  0.50260691  0.50045014  0.83770809  1
  Te  Te123  1  0.49607454  0.83449556  0.16931752  1
  Te  Te124  1  0.49925745  0.83922000  0.49203196  1
  Te  Te125  1  0.50085136  0.83827312  0.83204051  1
  Te  Te126  1  0.83309157  0.16761685  0.16651797  1
  Te  Te127  1  0.83306469  0.16596263  0.50135533  1
  Te  Te128  1  0.83265925  0.17362720  0.83016079  1
  Te  Te129  1  0.83027702  0.49618925  0.16295649  1
  Te  Te130  1  0.83306104  0.49608161  0.50286354  1
  Te  Te131  1  0.83589687  0.49800319  0.83528683  1
  Te  Te132  1  0.83915673  0.83421329  0.16925528  1
  Te  Te133  1  0.83931781  0.83641244  0.49474086  1
  Te  Te134  1  0.83954649  0.83324145  0.83459412  1
  Te  Te135  1  0.17204785  -0.00300809  0.00388324  1
  Te  Te136  1  0.17009565  -0.00089111  0.33196938  1
  Te  Te137  1  0.16594083  0.00069960  0.66388721  1
  Te  Te138  1  0.16830873  0.33372031  0.00177890  1
  Te  Te139  1  0.16756273  0.33424329  0.33077835  1
  Te  Te140  1  0.16088600  0.33141522  0.66680157  1
  Te  Te141  1  0.16947711  0.66621824  0.00234113  1
  Te  Te142  1  0.16673689  0.66467655  0.32871781  1
  Te  Te143  1  0.16607282  0.66865319  0.66885870  1
  Te  Te144  1  0.49437610  0.00133154  0.00302726  1
  Te  Te145  1  0.49696033  0.00090749  0.33129307  1
  Te  Te146  1  0.50577235  -0.00107806  0.66699814  1
  Te  Te147  1  0.49619704  0.33177800  0.00123317  1
  Te  Te148  1  0.49888645  0.33270225  0.33232405  1
  Te  Te149  1  0.50152085  0.33338111  0.66247112  1
  Te  Te150  1  0.49477567  0.66532607  0.00644254  1
  Te  Te151  1  0.49756529  0.66624766  0.32807814  1
  Te  Te152  1  0.50453980  0.66790849  0.66636795  1
  Te  Te153  1  0.83381453  0.00100406  0.00227322  1
  Te  Te154  1  0.83829536  -0.00187379  0.33486798  1
  Te  Te155  1  0.82903666  0.00265569  0.66415516  1
  Te  Te156  1  0.83278198  0.33529194  0.00085813  1
  Te  Te157  1  0.83107998  0.33304849  0.33489846  1
  Te  Te158  1  0.83602835  0.33217620  0.66536330  1
  Te  Te159  1  0.83435623  0.66189375  0.00568038  1
  Te  Te160  1  0.83450498  0.66809675  0.32950810  1
  Te  Te161  1  0.82965574  0.66615246  0.66691887  1
  Te  Te162  1  -0.00008036  0.17404385  -0.00006050  1
  Te  Te163  1  -0.00294208  0.17511729  0.34014598  1
  Te  Te164  1  0.00050396  0.17052364  0.66296692  1
  Te  Te165  1  -0.00410493  0.49456622  -0.00540712  1
  Te  Te166  1  -0.00170531  0.49856008  0.33417492  1
  Te  Te167  1  -0.00651766  0.49604889  0.67199346  1
  Te  Te168  1  0.00771749  0.83334724  -0.00462874  1
  Te  Te169  1  -0.00232903  0.83106633  0.33676974  1
  Te  Te170  1  0.00366575  0.83182858  0.66503842  1
  Te  Te171  1  0.33480721  0.16780465  0.00278995  1
  Te  Te172  1  0.33547488  0.16798920  0.33133207  1
  Te  Te173  1  0.32811576  0.16592440  0.66362334  1
  Te  Te174  1  0.33879634  0.50038478  -0.00315360  1
  Te  Te175  1  0.33970728  0.50343661  0.33505587  1
  Te  Te176  1  0.33504774  0.50162590  0.66694781  1
  Te  Te177  1  0.32804135  0.82802234  0.00537458  1
  Te  Te178  1  0.33416212  0.83071595  0.32798628  1
  Te  Te179  1  0.32584803  0.83353816  0.66649007  1
  Te  Te180  1  0.65482187  0.16674105  -0.00153829  1
  Te  Te181  1  0.65766639  0.15752393  0.33353811  1
  Te  Te182  1  0.67292973  0.15862631  0.66739742  1
  Te  Te183  1  0.66613378  0.50113647  -0.00572043  1
  Te  Te184  1  0.65837309  0.50234022  0.33468430  1
  Te  Te185  1  0.67318931  0.50215554  0.67145309  1
  Te  Te186  1  0.66957878  0.83228865  0.00703951  1
  Te  Te187  1  0.66892713  0.83744712  0.32807073  1
  Te  Te188  1  0.66730527  0.83571904  0.66804394  1
  Te  Te189  1  -0.00627620  0.00185150  0.16757867  1
  Te  Te190  1  0.00090627  0.00281793  0.49996363  1
  Te  Te191  1  0.00010139  -0.00520393  0.83425563  1
  Te  Te192  1  -0.00228954  0.33312915  0.16939255  1
  Te  Te193  1  0.00115908  0.33161970  0.49853650  1
  Te  Te194  1  0.00109168  0.33212764  0.83451963  1
  Te  Te195  1  -0.00447631  0.66573349  0.17104464  1
  Te  Te196  1  0.00046821  0.66974263  0.49374306  1
  Te  Te197  1  0.00548851  0.66808536  0.83328382  1
  Te  Te198  1  0.33266097  0.00119907  0.16701092  1
  Te  Te199  1  0.33187002  0.00499733  0.49771244  1
  Te  Te200  1  0.33785254  0.00519864  0.83419936  1
  Te  Te201  1  0.33318438  0.33523508  0.16727206  1
  Te  Te202  1  0.33268380  0.32678751  0.49804490  1
  Te  Te203  1  0.32895161  0.32762408  0.83369619  1
  Te  Te204  1  0.33342917  0.65960430  0.16777745  1
  Te  Te205  1  0.33260297  0.66765550  0.49567545  1
  Te  Te206  1  0.32656790  0.66715562  0.83530660  1
  Te  Te207  1  0.67255016  -0.00395543  0.17047811  1
  Te  Te208  1  0.66826803  -0.00137303  0.49709224  1
  Te  Te209  1  0.66162067  -0.00054023  0.83374710  1
  Te  Te210  1  0.67534201  0.33340316  0.16737822  1
  Te  Te211  1  0.66766617  0.33305902  0.50019427  1
  Te  Te212  1  0.66804422  0.33856879  0.83288694  1
  Te  Te213  1  0.67184543  0.67350171  0.16701712  1
  Te  Te214  1  0.66642047  0.66842749  0.50756768  1
  Te  Te215  1  0.66568204  0.66376053  0.83011009  1
