# generated using pymatgen
data_AgSbTe2
_symmetry_space_group_name_H-M   'P 1'
_cell_length_a   18.35093348
_cell_length_b   18.35934296
_cell_length_c   18.34974117
_cell_angle_alpha   90.00025844
_cell_angle_beta   90.00098697
_cell_angle_gamma   90.00026303
_symmetry_Int_Tables_number   1
_chemical_formula_structural   AgSbTe2
_chemical_formula_sum   'Ag54 Sb54 Te108'
_cell_volume   6182.23113775
_cell_formula_units_Z   54
loop_
 _symmetry_equiv_pos_site_id
 _symmetry_equiv_pos_as_xyz
  1  'x, y, z'
loop_
 _atom_site_type_symbol
 _atom_site_label
 _atom_site_symmetry_multiplicity
 _atom_site_fract_x
 _atom_site_fract_y
 _atom_site_fract_z
 _atom_site_occupancy
  Ag  Ag0  1  0.17949320  0.83321224  0.00003366  1
  Ag  Ag1  1  0.83067813  0.83426791  0.32765277  1
  Ag  Ag2  1  0.15944045  0.16812605  0.66723324  1
  Ag  Ag3  1  0.83110313  0.33199191  0.48348547  1
  Ag  Ag4  1  0.82391923  0.17385317  0.00496230  1
  Ag  Ag5  1  0.50805996  0.50098508  0.32655473  1
  Ag  Ag6  1  0.82896369  0.33051061  0.85239115  1
  Ag  Ag7  1  -0.01043387  0.83241259  0.16732348  1
  Ag  Ag8  1  0.49681746  0.83427297  0.00633010  1
  Ag  Ag9  1  0.33517157  0.49658769  0.16681575  1
  Ag  Ag10  1  0.83425322  0.17536298  0.32240144  1
  Ag  Ag11  1  0.50252777  0.49266113  0.00667906  1
  Ag  Ag12  1  0.67167015  0.17004019  0.16222937  1
  Ag  Ag13  1  0.33683129  0.16458763  0.84164716  1
  Ag  Ag14  1  0.66539551  0.49390120  0.49219199  1
  Ag  Ag15  1  0.51361094  0.33584326  0.49764603  1
  Ag  Ag16  1  0.33159361  0.66821879  0.67459225  1
  Ag  Ag17  1  0.82852278  0.49069777  0.32977849  1
  Ag  Ag18  1  0.49864685  -0.00621155  0.16479282  1
  Ag  Ag19  1  0.33349988  0.84159516  0.83785870  1
  Ag  Ag20  1  0.50057869  0.17380523  0.00253259  1
  Ag  Ag21  1  0.83257616  0.01167381  0.50083812  1
  Ag  Ag22  1  0.67071555  0.33260459  0.00270962  1
  Ag  Ag23  1  0.67017793  0.49191470  0.83380103  1
  Ag  Ag24  1  -0.00943971  0.17899488  0.16639936  1
  Ag  Ag25  1  0.33872917  0.17590545  0.16062311  1
  Ag  Ag26  1  -0.00590080  0.01180090  0.32901981  1
  Ag  Ag27  1  0.15389625  0.33414999  0.16787164  1
  Ag  Ag28  1  -0.01241762  0.33299523  0.01035019  1
  Ag  Ag29  1  -0.01085571  0.49223725  0.16707922  1
  Ag  Ag30  1  0.67370730  0.33469926  0.66774249  1
  Ag  Ag31  1  0.66761774  0.83531048  0.16721858  1
  Ag  Ag32  1  0.33267619  -0.00099055  0.67524051  1
  Ag  Ag33  1  -0.01094683  0.33341181  0.32502245  1
  Ag  Ag34  1  0.50791091  0.66771027  0.16687439  1
  Ag  Ag35  1  0.16460532  0.33500769  0.48945341  1
  Ag  Ag36  1  0.83377749  0.17343554  0.67013802  1
  Ag  Ag37  1  0.67311949  0.17334058  0.84049567  1
  Ag  Ag38  1  0.66903450  0.65428305  0.32800364  1
  Ag  Ag39  1  0.34100610  0.49636026  0.48784797  1
  Ag  Ag40  1  0.83046313  0.48877550  0.66472350  1
  Ag  Ag41  1  0.82765941  0.65253563  0.16920829  1
  Ag  Ag42  1  0.82468498  0.48888601  0.01155284  1
  Ag  Ag43  1  0.83147299  0.01394654  0.82918881  1
  Ag  Ag44  1  0.33742260  0.66822586  -0.00027510  1
  Ag  Ag45  1  0.33509092  0.32871066  0.00228285  1
  Ag  Ag46  1  0.67335099  0.33620177  0.33068346  1
  Ag  Ag47  1  -0.00495279  0.66777344  0.66752477  1
  Ag  Ag48  1  0.33702440  0.00358668  -0.00174939  1
  Ag  Ag49  1  0.83670731  0.33505391  0.16778005  1
  Ag  Ag50  1  0.51111379  0.82615978  0.32392072  1
  Ag  Ag51  1  0.83552489  0.83364704  0.66413934  1
  Ag  Ag52  1  0.16267167  0.83540470  0.66953735  1
  Ag  Ag53  1  0.16264791  0.49544306  0.32969949  1
  Sb  Sb54  1  0.33628786  0.33567537  0.32815409  1
  Sb  Sb55  1  0.16338467  0.00499586  0.50263722  1
  Sb  Sb56  1  0.33780719  0.83138655  0.15928310  1
  Sb  Sb57  1  0.83020251  0.83498483  0.00284441  1
  Sb  Sb58  1  0.50963458  0.33282086  0.83496746  1
  Sb  Sb59  1  0.00076555  0.00287558  0.00553820  1
  Sb  Sb60  1  0.16881075  0.49970810  0.00615976  1
  Sb  Sb61  1  0.67392880  0.00362318  0.33116885  1
  Sb  Sb62  1  0.66722787  0.49658422  0.16878838  1
  Sb  Sb63  1  0.16205662  0.17330358  0.33325490  1
  Sb  Sb64  1  0.83141493  0.66246310  0.83635430  1
  Sb  Sb65  1  -0.00405668  0.49719868  0.49452986  1
  Sb  Sb66  1  0.50657783  0.17054773  0.32488211  1
  Sb  Sb67  1  -0.00499683  0.16831648  0.49551512  1
  Sb  Sb68  1  0.83114127  0.00666435  0.16835686  1
  Sb  Sb69  1  0.50044612  0.83304337  0.66878688  1
  Sb  Sb70  1  0.49873828  0.66658592  0.84165994  1
  Sb  Sb71  1  0.66914714  0.66056347  0.66270321  1
  Sb  Sb72  1  -0.00265654  0.83339612  0.49697400  1
  Sb  Sb73  1  0.66322405  0.00991694  0.00286710  1
  Sb  Sb74  1  0.50379247  0.00418953  0.49414198  1
  Sb  Sb75  1  0.83265889  0.66116583  0.49528176  1
  Sb  Sb76  1  0.16268285  0.82886695  0.33068571  1
  Sb  Sb77  1  -0.00238343  -0.00116052  0.66334689  1
  Sb  Sb78  1  0.33476838  0.33300900  0.66896102  1
  Sb  Sb79  1  0.17028627  0.16609870  -0.00001072  1
  Sb  Sb80  1  0.50355800  0.49879101  0.66563067  1
  Sb  Sb81  1  0.00200453  0.83414063  0.83583494  1
  Sb  Sb82  1  0.66936166  0.82857512  0.49393786  1
  Sb  Sb83  1  0.66484215  0.83513458  0.83948465  1
  Sb  Sb84  1  0.33192474  -0.00099145  0.32851789  1
  Sb  Sb85  1  0.33980221  0.49675200  0.84072904  1
  Sb  Sb86  1  0.33223868  0.17306575  0.49945205  1
  Sb  Sb87  1  0.16823160  0.66111642  0.50111143  1
  Sb  Sb88  1  0.16315468  0.49867722  0.66053957  1
  Sb  Sb89  1  0.17032655  0.00418861  0.16552332  1
  Sb  Sb90  1  0.49953682  0.66056194  0.49408703  1
  Sb  Sb91  1  -0.00824292  0.66015492  0.33173471  1
  Sb  Sb92  1  0.49859300  0.00166021  0.84006296  1
  Sb  Sb93  1  -0.00524496  0.16785618  0.83892309  1
  Sb  Sb94  1  0.33868749  0.66273831  0.32747833  1
  Sb  Sb95  1  -0.00902071  0.33572746  0.66443009  1
  Sb  Sb96  1  0.33438606  0.82792979  0.50598271  1
  Sb  Sb97  1  0.16693316  0.00107103  0.83287812  1
  Sb  Sb98  1  0.50516767  0.33629826  0.16558726  1
  Sb  Sb99  1  0.16858134  0.66812899  0.83337433  1
  Sb  Sb100  1  0.00128319  0.66381605  0.00055799  1
  Sb  Sb101  1  0.66983560  0.17500440  0.49896447  1
  Sb  Sb102  1  0.16640920  0.66187274  0.16570824  1
  Sb  Sb103  1  0.66344967  0.65991829  0.00782201  1
  Sb  Sb104  1  0.50383030  0.16864181  0.67203758  1
  Sb  Sb105  1  0.16442500  0.33055554  0.83736591  1
  Sb  Sb106  1  -0.00742111  0.49709508  0.83809078  1
  Sb  Sb107  1  0.66800326  0.00528046  0.66824831  1
  Te  Te108  1  0.16883485  0.17249840  0.16806121  1
  Te  Te109  1  0.16545894  0.17266846  0.50520094  1
  Te  Te110  1  0.17177997  0.16608110  0.82696918  1
  Te  Te111  1  0.17243582  0.49569191  0.16969074  1
  Te  Te112  1  0.16873094  0.49430807  0.49533235  1
  Te  Te113  1  0.16536702  0.49886806  0.83136052  1
  Te  Te114  1  0.16643357  0.83315532  0.16467869  1
  Te  Te115  1  0.16675272  0.83433187  0.50627952  1
  Te  Te116  1  0.17014547  0.83450827  0.83139320  1
  Te  Te117  1  0.49849318  0.16591220  0.16295540  1
  Te  Te118  1  0.50039500  0.17280407  0.49625713  1
  Te  Te119  1  0.49894956  0.16602302  0.84010553  1
  Te  Te120  1  0.49943856  0.50335951  0.16668992  1
  Te  Te121  1  0.49996533  0.49582207  0.49975777  1
  Te  Te122  1  0.50791910  0.50050380  0.83911906  1
  Te  Te123  1  0.49712800  0.83163205  0.16652257  1
  Te  Te124  1  0.50083869  0.83551999  0.49349864  1
  Te  Te125  1  0.49552032  0.83423335  0.83780575  1
  Te  Te126  1  0.83366599  0.16588433  0.16491026  1
  Te  Te127  1  0.83286290  0.16875110  0.50536111  1
  Te  Te128  1  0.83314948  0.17109842  0.83325872  1
  Te  Te129  1  0.83155508  0.49841275  0.16771982  1
  Te  Te130  1  0.83079692  0.49627969  0.49853118  1
  Te  Te131  1  0.82851479  0.49753847  0.82952792  1
  Te  Te132  1  0.83012289  0.84157360  0.16661799  1
  Te  Te133  1  0.83327058  0.83106555  0.50415403  1
  Te  Te134  1  0.83245045  0.83273835  0.83133017  1
  Te  Te135  1  0.17141417  -0.00690619  -0.00079676  1
  Te  Te136  1  0.15799069  -0.00149408  0.33527707  1
  Te  Te137  1  0.16984345  -0.00042981  0.66607430  1
  Te  Te138  1  0.17512514  0.33348181  0.00458427  1
  Te  Te139  1  0.17013189  0.33749864  0.33033635  1
  Te  Te140  1  0.16495305  0.32867238  0.66877977  1
  Te  Te141  1  0.17142428  0.67244184  -0.00064400  1
  Te  Te142  1  0.16658042  0.65823234  0.33417343  1
  Te  Te143  1  0.16921727  0.66992788  0.66715482  1
  Te  Te144  1  0.49651558  0.00037510  0.00285303  1
  Te  Te145  1  0.49963775  -0.00160563  0.32788076  1
  Te  Te146  1  0.49361843  0.00037646  0.66255421  1
  Te  Te147  1  0.49712434  0.33364649  -0.00062602  1
  Te  Te148  1  0.50191054  0.33754667  0.33889937  1
  Te  Te149  1  0.50627299  0.33329371  0.66074945  1
  Te  Te150  1  0.49762933  0.66608844  0.00560263  1
  Te  Te151  1  0.50407286  0.66633987  0.32876476  1
  Te  Te152  1  0.49487091  0.66791981  0.66616007  1
  Te  Te153  1  0.83422036  0.00388229  -0.00639762  1
  Te  Te154  1  0.83682471  -0.00622713  0.33455565  1
  Te  Te155  1  0.83333098  -0.00145551  0.66497626  1
  Te  Te156  1  0.83031673  0.33354477  0.00659304  1
  Te  Te157  1  0.83217041  0.33173815  0.32853232  1
  Te  Te158  1  0.83359153  0.33298728  0.66235752  1
  Te  Te159  1  0.83394096  0.66531412  0.00639485  1
  Te  Te160  1  0.82917373  0.67452778  0.32916226  1
  Te  Te161  1  0.83370904  0.67186729  0.66697622  1
  Te  Te162  1  0.00260603  0.17002321  0.00586552  1
  Te  Te163  1  -0.00369430  0.17006289  0.32907555  1
  Te  Te164  1  -0.00084347  0.16519992  0.66808089  1
  Te  Te165  1  0.00027049  0.49663005  0.00561794  1
  Te  Te166  1  -0.00468588  0.49582361  0.32859497  1
  Te  Te167  1  -0.00601907  0.50399221  0.66703042  1
  Te  Te168  1  0.00008457  0.83323033  0.00482826  1
  Te  Te169  1  -0.00220386  0.82844245  0.32944625  1
  Te  Te170  1  0.00093780  0.83194527  0.66770890  1
  Te  Te171  1  0.33101932  0.16402883  0.00128603  1
  Te  Te172  1  0.33374402  0.16523669  0.32837574  1
  Te  Te173  1  0.33565958  0.16301982  0.66655778  1
  Te  Te174  1  0.33700115  0.50139296  0.00302090  1
  Te  Te175  1  0.33844788  0.50092417  0.33116718  1
  Te  Te176  1  0.33245707  0.50425410  0.67137554  1
  Te  Te177  1  0.33638498  0.83329621  -0.00139455  1
  Te  Te178  1  0.33323218  0.83151148  0.33729335  1
  Te  Te179  1  0.33482913  0.83379550  0.67129478  1
  Te  Te180  1  0.66436417  0.17011084  0.00024956  1
  Te  Te181  1  0.67360670  0.17144310  0.32856028  1
  Te  Te182  1  0.67115996  0.17208225  0.67103850  1
  Te  Te183  1  0.66618000  0.49556062  -0.00207475  1
  Te  Te184  1  0.66762766  0.49715324  0.33257470  1
  Te  Te185  1  0.67073274  0.49726733  0.66732407  1
  Te  Te186  1  0.66099913  0.83110685  0.00421863  1
  Te  Te187  1  0.66715241  0.83797096  0.33020803  1
  Te  Te188  1  0.67172905  0.83316519  0.66708987  1
  Te  Te189  1  0.00261356  -0.00628276  0.17098599  1
  Te  Te190  1  -0.00691810  -0.00008899  0.49244089  1
  Te  Te191  1  -0.00794591  -0.00098786  0.83366931  1
  Te  Te192  1  -0.00171977  0.33482173  0.16745516  1
  Te  Te193  1  0.00144758  0.33355549  0.49569591  1
  Te  Te194  1  -0.00684138  0.33307857  0.84130855  1
  Te  Te195  1  -0.00323839  0.67063504  0.16530021  1
  Te  Te196  1  0.00124860  0.66580602  0.50931894  1
  Te  Te197  1  -0.00020751  0.66626043  0.82697811  1
  Te  Te198  1  0.33694683  0.00241486  0.16320908  1
  Te  Te199  1  0.33357348  0.00068315  0.50168903  1
  Te  Te200  1  0.33308531  0.00097651  0.83413001  1
  Te  Te201  1  0.34036455  0.33482064  0.16336138  1
  Te  Te202  1  0.32642837  0.33909216  0.50354096  1
  Te  Te203  1  0.33280784  0.32807612  0.83762813  1
  Te  Te204  1  0.33348009  0.66086295  0.16120638  1
  Te  Te205  1  0.33352919  0.65871909  0.50411828  1
  Te  Te206  1  0.33385609  0.66758804  0.83489510  1
  Te  Te207  1  0.65906365  -0.00248095  0.16676611  1
  Te  Te208  1  0.67236400  -0.00127543  0.50086271  1
  Te  Te209  1  0.67109082  0.00340881  0.83337726  1
  Te  Te210  1  0.66917377  0.32962567  0.16611654  1
  Te  Te211  1  0.67047298  0.33424077  0.49811214  1
  Te  Te212  1  0.66920240  0.33260268  0.83368648  1
  Te  Te213  1  0.66846961  0.67295441  0.16932664  1
  Te  Te214  1  0.66549200  0.65923521  0.49211152  1
  Te  Te215  1  0.66604968  0.66363606  0.83227103  1
