# generated using pymatgen
data_AgSbTe2
_symmetry_space_group_name_H-M   'P 1'
_cell_length_a   18.32608863
_cell_length_b   18.31997901
_cell_length_c   18.32336781
_cell_angle_alpha   89.99451396
_cell_angle_beta   90.00188011
_cell_angle_gamma   89.99981944
_symmetry_Int_Tables_number   1
_chemical_formula_structural   AgSbTe2
_chemical_formula_sum   'Ag54 Sb54 Te108'
_cell_volume   6151.76945646
_cell_formula_units_Z   54
loop_
 _symmetry_equiv_pos_site_id
 _symmetry_equiv_pos_as_xyz
  1  'x, y, z'
loop_
 _atom_site_type_symbol
 _atom_site_label
 _atom_site_symmetry_multiplicity
 _atom_site_fract_x
 _atom_site_fract_y
 _atom_site_fract_z
 _atom_site_occupancy
  Ag  Ag0  1  0.83802590  0.84340220  -0.00507010  1
  Ag  Ag1  1  -0.00114935  0.32929499  0.66688736  1
  Ag  Ag2  1  -0.00196709  0.67527781  0.66663791  1
  Ag  Ag3  1  0.66724195  0.49507327  0.82714076  1
  Ag  Ag4  1  0.83581954  0.83935771  0.67298483  1
  Ag  Ag5  1  0.67553611  0.00595172  -0.00238671  1
  Ag  Ag6  1  0.16595527  0.16366309  -0.00241435  1
  Ag  Ag7  1  0.83567141  0.16070062  0.67654274  1
  Ag  Ag8  1  0.16515587  0.50107083  0.66496483  1
  Ag  Ag9  1  0.00149025  0.33006544  0.33928859  1
  Ag  Ag10  1  0.66838622  0.16216517  0.15947126  1
  Ag  Ag11  1  0.00553801  0.67257853  0.33041040  1
  Ag  Ag12  1  0.50317642  0.66997607  0.50242884  1
  Ag  Ag13  1  0.83236503  0.32454305  0.15512554  1
  Ag  Ag14  1  0.50128343  0.33073431  0.83845054  1
  Ag  Ag15  1  -0.00395567  0.33044586  -0.00504810  1
  Ag  Ag16  1  0.33442851  0.16672957  0.15738898  1
  Ag  Ag17  1  -0.00363363  -0.00452264  0.66780821  1
  Ag  Ag18  1  0.66521278  0.83078403  0.50788991  1
  Ag  Ag19  1  0.16098728  -0.00453492  0.16134311  1
  Ag  Ag20  1  0.15855137  0.84149741  -0.00509385  1
  Ag  Ag21  1  0.50048461  0.17004847  0.00087033  1
  Ag  Ag22  1  0.50636515  0.50420931  0.66670002  1
  Ag  Ag23  1  0.83872132  0.32451399  0.83709040  1
  Ag  Ag24  1  0.15782249  0.33145136  0.50650183  1
  Ag  Ag25  1  0.00409669  -0.00343830  0.33530642  1
  Ag  Ag26  1  0.67057816  0.83983223  0.16714361  1
  Ag  Ag27  1  0.15841839  0.83236587  0.67234804  1
  Ag  Ag28  1  0.32180702  0.84068951  0.83242693  1
  Ag  Ag29  1  0.83757925  0.00298615  0.83639335  1
  Ag  Ag30  1  0.16104886  0.32749889  0.83379921  1
  Ag  Ag31  1  -0.00009521  0.67096720  0.00256094  1
  Ag  Ag32  1  0.16493718  0.50552291  0.33742845  1
  Ag  Ag33  1  0.15850267  0.67640254  0.17178891  1
  Ag  Ag34  1  0.32270074  -0.00327966  0.33056176  1
  Ag  Ag35  1  0.00262848  0.17133524  0.50289564  1
  Ag  Ag36  1  0.66553946  0.50496030  0.50817830  1
  Ag  Ag37  1  0.84072654  0.33070134  0.50704447  1
  Ag  Ag38  1  0.32807605  0.16539430  0.84028553  1
  Ag  Ag39  1  0.83296392  0.16369695  -0.00280281  1
  Ag  Ag40  1  0.32237520  0.67677046  0.33257946  1
  Ag  Ag41  1  0.16076125  -0.00309243  0.83791843  1
  Ag  Ag42  1  0.67168843  0.67384216  0.66465442  1
  Ag  Ag43  1  0.67172419  0.32348817  -0.00025221  1
  Ag  Ag44  1  0.50663304  0.32931191  0.15682024  1
  Ag  Ag45  1  0.83983045  0.67634254  0.16413282  1
  Ag  Ag46  1  0.00280252  0.83505103  0.82962765  1
  Ag  Ag47  1  0.32645121  0.16773449  0.50101890  1
  Ag  Ag48  1  0.67812534  -0.00736123  0.67331758  1
  Ag  Ag49  1  0.49480995  0.83294282  0.33833681  1
  Ag  Ag50  1  0.83532174  0.00035606  0.15688318  1
  Ag  Ag51  1  0.51079341  0.82918058  0.66425198  1
  Ag  Ag52  1  0.16717479  0.83193232  0.33004573  1
  Ag  Ag53  1  0.33306315  0.32552571  -0.00289373  1
  Sb  Sb54  1  0.83220508  0.66498032  0.49951789  1
  Sb  Sb55  1  0.32664369  0.33070769  0.67202849  1
  Sb  Sb56  1  -0.00217278  0.83658231  0.50495011  1
  Sb  Sb57  1  0.83648890  0.16626302  0.32952713  1
  Sb  Sb58  1  0.83358564  0.49363916  -0.00153856  1
  Sb  Sb59  1  0.49484500  0.50430523  0.33849292  1
  Sb  Sb60  1  0.67041989  -0.00275260  0.33081716  1
  Sb  Sb61  1  0.32596723  0.66719509  0.00510123  1
  Sb  Sb62  1  0.32964399  -0.00078552  0.66656454  1
  Sb  Sb63  1  0.16756792  0.66423489  0.49612475  1
  Sb  Sb64  1  -0.00153179  0.16496257  0.16669815  1
  Sb  Sb65  1  0.50095047  0.66613297  0.17154927  1
  Sb  Sb66  1  0.00186274  0.16318514  0.83080493  1
  Sb  Sb67  1  0.49619836  0.16231445  0.32785726  1
  Sb  Sb68  1  -0.00308434  0.00045848  -0.00354405  1
  Sb  Sb69  1  0.66945269  0.83385638  0.83054590  1
  Sb  Sb70  1  0.67356246  0.33306528  0.67327686  1
  Sb  Sb71  1  0.83929425  0.49893291  0.33403949  1
  Sb  Sb72  1  0.33370063  0.49672498  0.50057782  1
  Sb  Sb73  1  0.83480920  0.00338793  0.50590620  1
  Sb  Sb74  1  0.32721773  0.32991426  0.32976488  1
  Sb  Sb75  1  0.33194062  0.66972969  0.66274989  1
  Sb  Sb76  1  0.83391460  0.49969772  0.66740711  1
  Sb  Sb77  1  -0.00241819  0.83371648  0.16091354  1
  Sb  Sb78  1  -0.00243602  0.49858409  0.83073241  1
  Sb  Sb79  1  0.50173384  0.83874143  -0.00207384  1
  Sb  Sb80  1  0.33023663  0.00640449  0.00222361  1
  Sb  Sb81  1  0.00063062  0.50102137  0.16814609  1
  Sb  Sb82  1  0.83536789  0.67026927  0.83582283  1
  Sb  Sb83  1  0.16252300  0.33015488  0.16304524  1
  Sb  Sb84  1  0.50206472  0.49005750  -0.00637336  1
  Sb  Sb85  1  0.50041246  0.00388788  0.83372405  1
  Sb  Sb86  1  0.16486132  0.67088925  0.83438188  1
  Sb  Sb87  1  0.66783878  0.16942410  0.84104506  1
  Sb  Sb88  1  0.50116102  0.66504255  0.82860033  1
  Sb  Sb89  1  0.16519314  0.00350801  0.50016069  1
  Sb  Sb90  1  0.33146172  0.83947821  0.16583657  1
  Sb  Sb91  1  0.67014413  0.66902842  0.33749989  1
  Sb  Sb92  1  0.33457461  0.49668995  0.83179840  1
  Sb  Sb93  1  0.50005939  0.33625756  0.50345069  1
  Sb  Sb94  1  0.67352597  0.66948638  -0.00401558  1
  Sb  Sb95  1  0.50558816  0.16630941  0.67249664  1
  Sb  Sb96  1  0.66934583  0.16567719  0.49887884  1
  Sb  Sb97  1  0.50206744  0.00461976  0.16506144  1
  Sb  Sb98  1  0.50010399  -0.00415734  0.50050822  1
  Sb  Sb99  1  0.66781520  0.49922684  0.16516159  1
  Sb  Sb100  1  0.83790788  0.83467636  0.33212079  1
  Sb  Sb101  1  0.15925525  0.16467580  0.67133658  1
  Sb  Sb102  1  0.33152219  0.49418429  0.16789301  1
  Sb  Sb103  1  0.33548146  0.83597650  0.50044116  1
  Sb  Sb104  1  -0.00227169  0.49368123  0.50091969  1
  Sb  Sb105  1  0.16533979  0.16322578  0.32832272  1
  Sb  Sb106  1  0.67295238  0.33375032  0.32880526  1
  Sb  Sb107  1  0.16465662  0.49730217  -0.00273345  1
  Te  Te108  1  0.16858736  0.16211930  0.16062264  1
  Te  Te109  1  0.16582758  0.17074576  0.50061924  1
  Te  Te110  1  0.16840395  0.16689041  0.83602107  1
  Te  Te111  1  0.16772790  0.50616860  0.16992316  1
  Te  Te112  1  0.16698146  0.49417639  0.50244158  1
  Te  Te113  1  0.16672015  0.49376414  0.82848920  1
  Te  Te114  1  0.16764958  0.83548780  0.16701518  1
  Te  Te115  1  0.16677216  0.83300501  0.50211309  1
  Te  Te116  1  0.16437936  0.83362699  0.83387518  1
  Te  Te117  1  0.49996510  0.17067379  0.16218276  1
  Te  Te118  1  0.49799174  0.16733092  0.50075226  1
  Te  Te119  1  0.49247344  0.17081222  0.83781783  1
  Te  Te120  1  0.50010884  0.49197000  0.16844772  1
  Te  Te121  1  0.50383590  0.50405666  0.50562176  1
  Te  Te122  1  0.50197738  0.49519091  0.82665592  1
  Te  Te123  1  0.50531886  0.83303159  0.16766842  1
  Te  Te124  1  0.50210853  0.83029021  0.50208168  1
  Te  Te125  1  0.49692211  0.83383969  0.82839847  1
  Te  Te126  1  0.83255849  0.16473267  0.16328234  1
  Te  Te127  1  0.83531502  0.17163897  0.50023880  1
  Te  Te128  1  0.83338979  0.16427135  0.83505802  1
  Te  Te129  1  0.83215780  0.49830378  0.16659896  1
  Te  Te130  1  0.82503718  0.49419390  0.49992123  1
  Te  Te131  1  0.82846781  0.49198249  0.83314259  1
  Te  Te132  1  0.83134189  0.83618454  0.16663941  1
  Te  Te133  1  0.82675632  0.83336809  0.50355987  1
  Te  Te134  1  0.83523055  0.83643484  0.83396377  1
  Te  Te135  1  0.16491441  0.00049731  -0.00083146  1
  Te  Te136  1  0.16431637  -0.00273911  0.33369535  1
  Te  Te137  1  0.16208462  -0.00337863  0.67105555  1
  Te  Te138  1  0.16191614  0.33210374  -0.00217612  1
  Te  Te139  1  0.16193873  0.33444837  0.33214288  1
  Te  Te140  1  0.16177989  0.33121632  0.66762098  1
  Te  Te141  1  0.16205144  0.66847696  0.00541224  1
  Te  Te142  1  0.16429530  0.66897314  0.33378353  1
  Te  Te143  1  0.16392161  0.66771944  0.66593327  1
  Te  Te144  1  0.51030290  0.00745786  -0.00058102  1
  Te  Te145  1  0.49794221  -0.00687046  0.33279971  1
  Te  Te146  1  0.50383714  -0.00448374  0.66776684  1
  Te  Te147  1  0.50180441  0.32940638  -0.00123956  1
  Te  Te148  1  0.49827945  0.33392290  0.33103315  1
  Te  Te149  1  0.50039229  0.33584713  0.67130956  1
  Te  Te150  1  0.49826317  0.66651312  0.00066963  1
  Te  Te151  1  0.49955846  0.67153070  0.33756963  1
  Te  Te152  1  0.49932529  0.66760981  0.66369387  1
  Te  Te153  1  0.83492286  0.00110046  -0.00129613  1
  Te  Te154  1  0.83949936  -0.00027987  0.32614395  1
  Te  Te155  1  0.83536283  0.00014609  0.66800396  1
  Te  Te156  1  0.83492867  0.33105541  -0.00187251  1
  Te  Te157  1  0.84074358  0.33364835  0.33399385  1
  Te  Te158  1  0.83808110  0.33306896  0.66859835  1
  Te  Te159  1  0.83810007  0.67177720  0.00362464  1
  Te  Te160  1  0.84132364  0.66634017  0.32763635  1
  Te  Te161  1  0.83528681  0.67046963  0.66731872  1
  Te  Te162  1  0.00006577  0.17091154  0.00047681  1
  Te  Te163  1  0.00108506  0.16878107  0.33908450  1
  Te  Te164  1  -0.00463808  0.16924600  0.66377420  1
  Te  Te165  1  0.00013336  0.50433730  -0.00081434  1
  Te  Te166  1  0.00659633  0.50087740  0.33461099  1
  Te  Te167  1  0.00451488  0.50141224  0.66623386  1
  Te  Te168  1  -0.00062403  0.83264266  -0.00455209  1
  Te  Te169  1  0.00496045  0.83351454  0.33780445  1
  Te  Te170  1  -0.00168355  0.83477679  0.66689730  1
  Te  Te171  1  0.33045271  0.16767898  -0.00074345  1
  Te  Te172  1  0.33236670  0.16159311  0.33540048  1
  Te  Te173  1  0.33632468  0.16488779  0.66457230  1
  Te  Te174  1  0.33358096  0.49199081  -0.00014727  1
  Te  Te175  1  0.32585659  0.50363088  0.33413930  1
  Te  Te176  1  0.32938781  0.50094506  0.66634065  1
  Te  Te177  1  0.33128385  0.83466357  -0.00504780  1
  Te  Te178  1  0.33167523  0.83600821  0.33319642  1
  Te  Te179  1  0.32849831  0.83454032  0.67019970  1
  Te  Te180  1  0.67109174  0.16683886  0.00223565  1
  Te  Te181  1  0.66476332  0.16585806  0.32414879  1
  Te  Te182  1  0.67393134  0.16115469  0.66513427  1
  Te  Te183  1  0.66625661  0.49861757  -0.00477590  1
  Te  Te184  1  0.66485149  0.50107538  0.33960094  1
  Te  Te185  1  0.66690968  0.49916167  0.66639466  1
  Te  Te186  1  0.67014467  0.83613585  0.00178397  1
  Te  Te187  1  0.66385261  0.83306231  0.33170468  1
  Te  Te188  1  0.66856037  0.83272522  0.66860245  1
  Te  Te189  1  0.00089653  -0.00001068  0.17290000  1
  Te  Te190  1  -0.00069622  0.00685898  0.50038379  1
  Te  Te191  1  -0.00017467  -0.00329049  0.83006097  1
  Te  Te192  1  -0.00544699  0.33309802  0.16485613  1
  Te  Te193  1  0.00008362  0.33242061  0.50117345  1
  Te  Te194  1  -0.00001267  0.33370030  0.83307952  1
  Te  Te195  1  -0.00050618  0.66744300  0.16699035  1
  Te  Te196  1  -0.00092076  0.66531920  0.50296379  1
  Te  Te197  1  -0.00014315  0.67055080  0.83067083  1
  Te  Te198  1  0.33023925  0.00557728  0.16958837  1
  Te  Te199  1  0.33264916  0.00609873  0.49494397  1
  Te  Te200  1  0.32892145  0.00147333  0.83433918  1
  Te  Te201  1  0.33326040  0.32678369  0.16198309  1
  Te  Te202  1  0.33060860  0.32774326  0.49929877  1
  Te  Te203  1  0.33042232  0.33037290  0.83751287  1
  Te  Te204  1  0.33150142  0.66686029  0.17280710  1
  Te  Te205  1  0.33868993  0.66625796  0.49336014  1
  Te  Te206  1  0.33328687  0.67130643  0.83551692  1
  Te  Te207  1  0.66976148  -0.00016790  0.16510196  1
  Te  Te208  1  0.66751410  -0.00443709  0.50217866  1
  Te  Te209  1  0.67068130  0.00073907  0.83292624  1
  Te  Te210  1  0.66999241  0.33317715  0.16301370  1
  Te  Te211  1  0.66946228  0.33388808  0.49806899  1
  Te  Te212  1  0.66707721  0.33411470  0.83743702  1
  Te  Te213  1  0.67068186  0.66875767  0.16597273  1
  Te  Te214  1  0.66618009  0.66863221  0.50418719  1
  Te  Te215  1  0.66785474  0.65913617  0.82640374  1
