# generated using pymatgen
data_AgSbTe2
_symmetry_space_group_name_H-M   'P 1'
_cell_length_a   18.34870211
_cell_length_b   18.34430013
_cell_length_c   18.34634865
_cell_angle_alpha   89.99625351
_cell_angle_beta   90.00190904
_cell_angle_gamma   90.00178754
_symmetry_Int_Tables_number   1
_chemical_formula_structural   AgSbTe2
_chemical_formula_sum   'Ag54 Sb54 Te108'
_cell_volume   6175.27266549
_cell_formula_units_Z   54
loop_
 _symmetry_equiv_pos_site_id
 _symmetry_equiv_pos_as_xyz
  1  'x, y, z'
loop_
 _atom_site_type_symbol
 _atom_site_label
 _atom_site_symmetry_multiplicity
 _atom_site_fract_x
 _atom_site_fract_y
 _atom_site_fract_z
 _atom_site_occupancy
  Ag  Ag0  1  0.17004161  0.81953261  0.32696339  1
  Ag  Ag1  1  0.16606481  0.82491342  0.00232811  1
  Ag  Ag2  1  0.66039957  0.17923655  0.50209068  1
  Ag  Ag3  1  0.33574152  0.82756871  0.16476152  1
  Ag  Ag4  1  0.67165344  0.82843352  0.83880363  1
  Ag  Ag5  1  0.33188912  0.82552681  0.83763324  1
  Ag  Ag6  1  0.83318236  0.82494253  0.33157242  1
  Ag  Ag7  1  0.32500159  0.66531635  0.33538944  1
  Ag  Ag8  1  0.50969913  0.50381596  0.66857866  1
  Ag  Ag9  1  0.66669162  0.50194604  0.50467455  1
  Ag  Ag10  1  0.16760790  0.51059530  0.00873135  1
  Ag  Ag11  1  0.67431690  0.50365601  0.16912911  1
  Ag  Ag12  1  0.33512499  0.50218694  0.49985406  1
  Ag  Ag13  1  0.82724598  0.66386318  0.83325251  1
  Ag  Ag14  1  0.16832965  -0.00770060  0.83277823  1
  Ag  Ag15  1  0.00665959  0.66577586  0.32845270  1
  Ag  Ag16  1  -0.00462461  0.50629232  0.16442323  1
  Ag  Ag17  1  0.00139411  -0.01392326  0.66775167  1
  Ag  Ag18  1  -0.00422833  0.82903061  0.83331816  1
  Ag  Ag19  1  0.49922315  0.33872696  0.16537938  1
  Ag  Ag20  1  0.33352553  0.17557312  0.50277586  1
  Ag  Ag21  1  0.17217815  0.66020030  0.49126802  1
  Ag  Ag22  1  0.83198061  0.66309040  0.51600949  1
  Ag  Ag23  1  0.50650296  0.66500033  0.82903072  1
  Ag  Ag24  1  0.50050987  -0.01193134  0.50075739  1
  Ag  Ag25  1  0.83919365  0.66373992  0.14998217  1
  Ag  Ag26  1  0.50550729  0.50472317  -0.00317931  1
  Ag  Ag27  1  -0.00988568  0.66804944  0.66837233  1
  Ag  Ag28  1  0.32935940  0.34375644  0.33494192  1
  Ag  Ag29  1  0.32977679  0.66545924  0.00112077  1
  Ag  Ag30  1  0.49765694  0.66519438  0.50622464  1
  Ag  Ag31  1  0.67383519  0.66457313  0.67214658  1
  Ag  Ag32  1  0.83355440  0.82141346  0.67628099  1
  Ag  Ag33  1  0.16839759  0.16964887  0.65940649  1
  Ag  Ag34  1  0.82753586  0.50541553  0.66904283  1
  Ag  Ag35  1  0.50389223  0.34728255  0.83392248  1
  Ag  Ag36  1  0.66661123  -0.01833190  -0.00102562  1
  Ag  Ag37  1  0.17194816  0.34798249  0.17625380  1
  Ag  Ag38  1  0.16950313  0.50333460  0.32695997  1
  Ag  Ag39  1  0.67599073  0.66567180  -0.00692825  1
  Ag  Ag40  1  0.82654455  0.82182860  -0.00309266  1
  Ag  Ag41  1  -0.00767006  0.66566724  0.00262440  1
  Ag  Ag42  1  0.66926877  0.34727092  0.66564163  1
  Ag  Ag43  1  0.16871400  0.17892552  0.34067687  1
  Ag  Ag44  1  0.17206923  0.34326898  0.49449404  1
  Ag  Ag45  1  0.49445731  0.82807524  0.33267175  1
  Ag  Ag46  1  0.83001719  0.34647923  0.16770543  1
  Ag  Ag47  1  0.82485767  0.34533455  0.82723973  1
  Ag  Ag48  1  0.82823466  0.50598246  0.00288283  1
  Ag  Ag49  1  0.33274824  0.16338816  0.82555312  1
  Ag  Ag50  1  0.16072791  0.66424188  0.17381859  1
  Ag  Ag51  1  0.33457740  0.66579690  0.66392441  1
  Ag  Ag52  1  0.82990204  0.34503912  0.50092584  1
  Ag  Ag53  1  0.66638943  0.82082995  0.16047971  1
  Sb  Sb54  1  0.49731056  -0.00757007  0.83084616  1
  Sb  Sb55  1  0.00571975  0.34138777  0.33397106  1
  Sb  Sb56  1  0.66250561  0.16576187  0.82993378  1
  Sb  Sb57  1  0.00272379  -0.01123796  0.33736717  1
  Sb  Sb58  1  0.17091922  -0.00147801  0.50299954  1
  Sb  Sb59  1  -0.00030557  0.82724895  0.50506317  1
  Sb  Sb60  1  0.00243620  0.18062866  0.16723694  1
  Sb  Sb61  1  0.33163211  -0.00477970  0.66521462  1
  Sb  Sb62  1  0.16554312  -0.00919702  0.16340793  1
  Sb  Sb63  1  0.83744104  0.50824123  0.33128707  1
  Sb  Sb64  1  0.00360807  0.16865211  0.50073942  1
  Sb  Sb65  1  0.66654662  0.82505502  0.49936073  1
  Sb  Sb66  1  0.82953855  -0.00548237  0.50128356  1
  Sb  Sb67  1  -0.00044002  0.34356700  0.00006073  1
  Sb  Sb68  1  -0.00395595  0.34005213  0.66624066  1
  Sb  Sb69  1  0.66981870  -0.00664928  0.66822991  1
  Sb  Sb70  1  0.66750579  0.66614137  0.33281542  1
  Sb  Sb71  1  0.49906991  0.34173394  0.50022768  1
  Sb  Sb72  1  0.66724821  0.50847851  0.83001286  1
  Sb  Sb73  1  -0.00064469  0.50500866  0.49680992  1
  Sb  Sb74  1  0.50230380  0.82360319  0.00103911  1
  Sb  Sb75  1  0.49523716  0.16512798  0.33637588  1
  Sb  Sb76  1  0.83811205  0.16941444  0.33523646  1
  Sb  Sb77  1  0.33240899  0.50651631  0.17055919  1
  Sb  Sb78  1  0.50140599  -0.00174680  0.16767367  1
  Sb  Sb79  1  0.33352152  0.82461730  0.49998613  1
  Sb  Sb80  1  0.16865431  0.16697142  -0.00007082  1
  Sb  Sb81  1  0.50022220  0.66320781  0.16504127  1
  Sb  Sb82  1  0.49646474  0.17385618  0.66542888  1
  Sb  Sb83  1  0.83212207  0.17181712  -0.00031808  1
  Sb  Sb84  1  0.33141539  0.16763210  0.16870203  1
  Sb  Sb85  1  0.50371590  0.82197779  0.66560352  1
  Sb  Sb86  1  0.66639246  -0.00308384  0.33244403  1
  Sb  Sb87  1  0.33234563  -0.00649983  0.33565972  1
  Sb  Sb88  1  0.33373590  0.34155529  0.00214454  1
  Sb  Sb89  1  -0.00040641  0.82326429  0.16308738  1
  Sb  Sb90  1  0.33553978  0.33873423  0.66379609  1
  Sb  Sb91  1  0.66421965  0.33513049  0.33670648  1
  Sb  Sb92  1  0.16327124  0.83020213  0.66944612  1
  Sb  Sb93  1  0.66720453  0.34364666  -0.00408373  1
  Sb  Sb94  1  0.83604297  -0.00946199  0.83370651  1
  Sb  Sb95  1  -0.00457438  0.50792842  0.83688576  1
  Sb  Sb96  1  -0.00186505  -0.01351150  -0.00363016  1
  Sb  Sb97  1  0.33647835  0.50565427  0.82975144  1
  Sb  Sb98  1  0.66763676  0.17142650  0.17069631  1
  Sb  Sb99  1  0.83170752  -0.01432364  0.16406281  1
  Sb  Sb100  1  0.16751451  0.33204033  0.83206946  1
  Sb  Sb101  1  0.49526410  0.50557157  0.33443445  1
  Sb  Sb102  1  0.00302785  0.16089839  0.83167326  1
  Sb  Sb103  1  0.33542729  -0.00952796  -0.00211332  1
  Sb  Sb104  1  0.16500113  0.50313171  0.66627741  1
  Sb  Sb105  1  0.83548769  0.17091796  0.66518786  1
  Sb  Sb106  1  0.16584909  0.66982081  0.83774225  1
  Sb  Sb107  1  0.50010869  0.17425742  -0.00156445  1
  Te  Te108  1  0.16690917  0.16676520  0.16993544  1
  Te  Te109  1  0.17051603  0.16372363  0.50101132  1
  Te  Te110  1  0.17142188  0.16547083  0.83233044  1
  Te  Te111  1  0.17045032  0.50342042  0.16595714  1
  Te  Te112  1  0.16542604  0.50088876  0.49961026  1
  Te  Te113  1  0.16524231  0.49558916  0.83973219  1
  Te  Te114  1  0.16744817  0.82797698  0.16488025  1
  Te  Te115  1  0.16633001  0.83084772  0.49398471  1
  Te  Te116  1  0.17121011  0.83525368  0.83448415  1
  Te  Te117  1  0.50053994  0.17404979  0.16721751  1
  Te  Te118  1  0.49936319  0.17127366  0.49984139  1
  Te  Te119  1  0.49339893  0.16450605  0.83231475  1
  Te  Te120  1  0.50132255  0.49683651  0.16468696  1
  Te  Te121  1  0.50050493  0.50534858  0.50151323  1
  Te  Te122  1  0.49952184  0.50376263  0.83262868  1
  Te  Te123  1  0.50133626  0.83576672  0.17200604  1
  Te  Te124  1  0.50041218  0.82925456  0.49619668  1
  Te  Te125  1  0.49630592  0.82757998  0.83353778  1
  Te  Te126  1  0.83367835  0.17322193  0.16824210  1
  Te  Te127  1  0.83027204  0.16733728  0.49936284  1
  Te  Te128  1  0.83246406  0.17173707  0.83326676  1
  Te  Te129  1  0.83317855  0.50392750  0.16777674  1
  Te  Te130  1  0.83297484  0.50320299  0.49842291  1
  Te  Te131  1  0.83286261  0.50119012  0.83536723  1
  Te  Te132  1  0.83058185  0.82417119  0.16314170  1
  Te  Te133  1  0.83298077  0.82734912  0.49676898  1
  Te  Te134  1  0.83244668  0.83075805  0.83513713  1
  Te  Te135  1  0.16744436  -0.00389782  -0.00548649  1
  Te  Te136  1  0.16569408  0.00045897  0.33103233  1
  Te  Te137  1  0.16459475  -0.00049762  0.66982432  1
  Te  Te138  1  0.16638671  0.33585655  0.00452292  1
  Te  Te139  1  0.16673569  0.33580038  0.33503352  1
  Te  Te140  1  0.16492169  0.33116372  0.66212275  1
  Te  Te141  1  0.17189687  0.66798198  -0.00299808  1
  Te  Te142  1  0.16591807  0.66542156  0.33438706  1
  Te  Te143  1  0.17348152  0.66551467  0.66087763  1
  Te  Te144  1  0.50644192  0.00241791  -0.00046156  1
  Te  Te145  1  0.49989464  -0.00571812  0.33689136  1
  Te  Te146  1  0.50072791  0.00052494  0.66135116  1
  Te  Te147  1  0.50034373  0.34178050  -0.00188384  1
  Te  Te148  1  0.49366458  0.33224272  0.32831969  1
  Te  Te149  1  0.50402932  0.34064342  0.67081620  1
  Te  Te150  1  0.49386761  0.66207295  -0.00134874  1
  Te  Te151  1  0.49811083  0.67082219  0.33561604  1
  Te  Te152  1  0.49573566  0.66338010  0.66693936  1
  Te  Te153  1  0.82804757  -0.00041291  0.00042706  1
  Te  Te154  1  0.83547756  -0.00700749  0.33271535  1
  Te  Te155  1  0.83958082  -0.00064297  0.66590780  1
  Te  Te156  1  0.83325649  0.33998189  0.00329550  1
  Te  Te157  1  0.83501402  0.33301322  0.33534870  1
  Te  Te158  1  0.82977706  0.33727358  0.66480403  1
  Te  Te159  1  0.83417192  0.66553439  -0.00557109  1
  Te  Te160  1  0.83311815  0.66938917  0.33312723  1
  Te  Te161  1  0.83224367  0.66612225  0.67187893  1
  Te  Te162  1  -0.00050739  0.16302858  -0.00060389  1
  Te  Te163  1  0.00747277  0.16239674  0.33336233  1
  Te  Te164  1  0.00629806  0.16850130  0.66791829  1
  Te  Te165  1  0.00002422  0.50623606  0.00388288  1
  Te  Te166  1  0.00857708  0.50742836  0.32854020  1
  Te  Te167  1  -0.00641461  0.50843422  0.66806015  1
  Te  Te168  1  0.00283357  0.82740732  -0.00497589  1
  Te  Te169  1  0.00024912  0.82591543  0.33242406  1
  Te  Te170  1  -0.00282500  0.82924822  0.67070501  1
  Te  Te171  1  0.33400664  0.16424261  -0.00254661  1
  Te  Te172  1  0.32813713  0.16598972  0.33589500  1
  Te  Te173  1  0.32950089  0.16737770  0.66593644  1
  Te  Te174  1  0.33324301  0.50477192  -0.00126134  1
  Te  Te175  1  0.33069759  0.50194651  0.33763017  1
  Te  Te176  1  0.33253755  0.50489271  0.66074928  1
  Te  Te177  1  0.33337888  0.82870607  0.00105412  1
  Te  Te178  1  0.33159258  0.82797854  0.33338632  1
  Te  Te179  1  0.33390638  0.82712240  0.67031478  1
  Te  Te180  1  0.66628029  0.16565935  0.00030523  1
  Te  Te181  1  0.66803623  0.16570379  0.34052647  1
  Te  Te182  1  0.66671913  0.16207601  0.66085125  1
  Te  Te183  1  0.66668461  0.50507321  0.00420903  1
  Te  Te184  1  0.66410810  0.49773414  0.33189020  1
  Te  Te185  1  0.66787331  0.50275916  0.66612539  1
  Te  Te186  1  0.66597392  0.82645268  0.00109635  1
  Te  Te187  1  0.66901498  0.83470800  0.32985954  1
  Te  Te188  1  0.67257681  0.82747890  0.66945964  1
  Te  Te189  1  -0.00117652  0.00605535  0.16621743  1
  Te  Te190  1  -0.00150152  0.00086399  0.50755731  1
  Te  Te191  1  0.00484940  -0.00566242  0.82941506  1
  Te  Te192  1  -0.00141598  0.34491737  0.16704268  1
  Te  Te193  1  -0.00338661  0.33367815  0.50104842  1
  Te  Te194  1  -0.00568151  0.33033614  0.83324620  1
  Te  Te195  1  0.00046192  0.66575574  0.16524269  1
  Te  Te196  1  -0.00310636  0.66709602  0.50329629  1
  Te  Te197  1  0.00021385  0.67092430  0.83079256  1
  Te  Te198  1  0.33332121  -0.00878393  0.16602979  1
  Te  Te199  1  0.33962191  0.00688141  0.50028058  1
  Te  Te200  1  0.33021719  0.00047753  0.83202442  1
  Te  Te201  1  0.33183479  0.33219114  0.17062533  1
  Te  Te202  1  0.33094774  0.33676336  0.49784268  1
  Te  Te203  1  0.33830250  0.33197130  0.83435992  1
  Te  Te204  1  0.33413976  0.66995046  0.16848360  1
  Te  Te205  1  0.33225876  0.66481970  0.49761185  1
  Te  Te206  1  0.33357372  0.66797483  0.83372645  1
  Te  Te207  1  0.66746110  0.00079869  0.16121149  1
  Te  Te208  1  0.66019972  0.00041384  0.50005048  1
  Te  Te209  1  0.66588506  -0.00542759  0.83721625  1
  Te  Te210  1  0.66708584  0.33824880  0.16535768  1
  Te  Te211  1  0.66780337  0.33744654  0.50249705  1
  Te  Te212  1  0.66545445  0.32887586  0.82895127  1
  Te  Te213  1  0.66551227  0.66441406  0.16665064  1
  Te  Te214  1  0.66754400  0.66245919  0.50114210  1
  Te  Te215  1  0.66488647  0.66882050  0.83292018  1
