# generated using pymatgen
data_AgSbTe2
_symmetry_space_group_name_H-M   'P 1'
_cell_length_a   18.31827254
_cell_length_b   18.32082995
_cell_length_c   18.32740168
_cell_angle_alpha   90.00149880
_cell_angle_beta   90.00307109
_cell_angle_gamma   90.00204675
_symmetry_Int_Tables_number   1
_chemical_formula_structural   AgSbTe2
_chemical_formula_sum   'Ag54 Sb54 Te108'
_cell_volume   6150.78514971
_cell_formula_units_Z   54
loop_
 _symmetry_equiv_pos_site_id
 _symmetry_equiv_pos_as_xyz
  1  'x, y, z'
loop_
 _atom_site_type_symbol
 _atom_site_label
 _atom_site_symmetry_multiplicity
 _atom_site_fract_x
 _atom_site_fract_y
 _atom_site_fract_z
 _atom_site_occupancy
  Ag  Ag0  1  0.82646617  0.33001906  0.49671516  1
  Ag  Ag1  1  0.50657811  0.49837289  -0.00286102  1
  Ag  Ag2  1  0.66133874  0.49151072  0.84252183  1
  Ag  Ag3  1  0.50517887  0.32707589  0.82562460  1
  Ag  Ag4  1  0.84067251  0.16826499  0.00346913  1
  Ag  Ag5  1  0.17469655  0.00086719  0.49551370  1
  Ag  Ag6  1  0.82913451  0.50260258  0.33346908  1
  Ag  Ag7  1  0.00020723  0.32905387  0.66833796  1
  Ag  Ag8  1  0.82857569  0.16945044  0.33496321  1
  Ag  Ag9  1  0.66825922  0.33654037  -0.00289699  1
  Ag  Ag10  1  0.33347233  0.83450293  0.83283351  1
  Ag  Ag11  1  0.67084696  0.66077799  0.33192007  1
  Ag  Ag12  1  0.49258564  0.01025307  0.49609457  1
  Ag  Ag13  1  0.49962558  0.84158746  0.33897233  1
  Ag  Ag14  1  0.83547922  0.66553079  0.49258445  1
  Ag  Ag15  1  0.16518807  0.49982591  0.33213637  1
  Ag  Ag16  1  0.49713862  0.84104368  0.66303934  1
  Ag  Ag17  1  0.66597822  0.49995730  0.16338636  1
  Ag  Ag18  1  0.00274780  0.66818920  0.66540097  1
  Ag  Ag19  1  0.16775545  0.16904109  0.66511535  1
  Ag  Ag20  1  0.33233215  -0.00166272  0.00716746  1
  Ag  Ag21  1  0.16682846  0.83550558  -0.00364048  1
  Ag  Ag22  1  0.00669083  0.83414799  0.50455014  1
  Ag  Ag23  1  0.33244612  0.84166721  0.50028940  1
  Ag  Ag24  1  0.33250030  0.49340209  0.49803378  1
  Ag  Ag25  1  0.33274352  0.84014161  0.16514579  1
  Ag  Ag26  1  0.16566054  0.32500906  0.16322092  1
  Ag  Ag27  1  0.65972396  0.33129577  0.66564865  1
  Ag  Ag28  1  0.83026179  0.66771306  0.17473040  1
  Ag  Ag29  1  0.50472797  0.16128111  0.34521844  1
  Ag  Ag30  1  0.49689907  0.00088426  0.83124506  1
  Ag  Ag31  1  0.00661869  0.83597289  0.83101604  1
  Ag  Ag32  1  0.49701327  0.16805269  0.65816265  1
  Ag  Ag33  1  0.34335300  0.16197130  0.50150619  1
  Ag  Ag34  1  0.16978321  0.49725711  0.00336260  1
  Ag  Ag35  1  0.66789325  0.33364231  0.33989241  1
  Ag  Ag36  1  0.49894681  0.66879837  0.83347037  1
  Ag  Ag37  1  0.17334598  0.00308235  0.16713920  1
  Ag  Ag38  1  0.16286030  0.67281840  0.50366191  1
  Ag  Ag39  1  0.34203204  0.32993614  0.66339048  1
  Ag  Ag40  1  0.00091203  0.16541533  0.50333821  1
  Ag  Ag41  1  0.65573308  0.17181707  0.50167176  1
  Ag  Ag42  1  0.00278514  0.16813944  0.15715222  1
  Ag  Ag43  1  -0.00279762  0.32758670  -0.00463287  1
  Ag  Ag44  1  -0.00040140  0.16670685  0.83500513  1
  Ag  Ag45  1  0.16157407  0.16759070  -0.00067491  1
  Ag  Ag46  1  0.66306794  0.17417081  0.83031384  1
  Ag  Ag47  1  0.83803061  0.83422670  0.00419625  1
  Ag  Ag48  1  0.82885368  0.82566607  0.33202108  1
  Ag  Ag49  1  0.16777659  0.67038058  0.83150158  1
  Ag  Ag50  1  0.33630553  -0.00109866  0.33374166  1
  Ag  Ag51  1  0.66754476  0.65810469  0.00151655  1
  Ag  Ag52  1  0.49198518  -0.00015545  0.17384240  1
  Ag  Ag53  1  0.50591755  0.32349837  0.50704003  1
  Sb  Sb54  1  0.16846234  0.83053594  0.33460444  1
  Sb  Sb55  1  0.83349300  0.00250168  0.49628689  1
  Sb  Sb56  1  0.83309497  0.66747085  0.83393663  1
  Sb  Sb57  1  0.50496443  0.67098610  0.16373745  1
  Sb  Sb58  1  -0.00198429  0.49714071  0.83486337  1
  Sb  Sb59  1  0.83264523  0.82986983  0.66459260  1
  Sb  Sb60  1  0.83252277  0.49778020  0.65965469  1
  Sb  Sb61  1  0.82941143  0.49773583  0.00543782  1
  Sb  Sb62  1  0.66318748  0.83365130  0.83460419  1
  Sb  Sb63  1  -0.00570957  0.66760804  0.33936562  1
  Sb  Sb64  1  0.33080323  0.66497115  0.66535694  1
  Sb  Sb65  1  0.33524568  0.50357496  0.16958108  1
  Sb  Sb66  1  0.50056529  0.66827337  0.50333229  1
  Sb  Sb67  1  0.83480160  0.33474711  0.17007359  1
  Sb  Sb68  1  0.33425919  0.00436093  0.66164728  1
  Sb  Sb69  1  0.00302603  0.83814734  0.16569360  1
  Sb  Sb70  1  0.32956863  0.16058988  0.17076095  1
  Sb  Sb71  1  0.66810504  0.66060155  0.66697574  1
  Sb  Sb72  1  0.49989510  0.16846642  -0.00241194  1
  Sb  Sb73  1  0.83338072  -0.00128292  0.16730893  1
  Sb  Sb74  1  0.00320572  0.49984001  0.49977008  1
  Sb  Sb75  1  0.17245093  -0.00186964  0.83488888  1
  Sb  Sb76  1  0.66331052  0.82905630  0.16770674  1
  Sb  Sb77  1  0.65930448  0.00423862  0.33347763  1
  Sb  Sb78  1  0.49824934  0.32918998  0.16745272  1
  Sb  Sb79  1  0.66969970  0.17170092  0.16727884  1
  Sb  Sb80  1  0.16734931  0.33039673  0.49851427  1
  Sb  Sb81  1  0.33734078  0.32831220  0.33917010  1
  Sb  Sb82  1  0.66326032  0.49315449  0.49757898  1
  Sb  Sb83  1  0.33641281  0.50274990  0.83134316  1
  Sb  Sb84  1  -0.00399857  0.33068943  0.33502397  1
  Sb  Sb85  1  0.16760417  0.49608718  0.66608939  1
  Sb  Sb86  1  0.16715896  0.16889073  0.33490738  1
  Sb  Sb87  1  0.16865608  0.33436825  0.83587410  1
  Sb  Sb88  1  0.66147868  0.00248380  -0.00023519  1
  Sb  Sb89  1  0.16181724  0.66849352  0.16661376  1
  Sb  Sb90  1  -0.00281308  0.66468605  -0.00427200  1
  Sb  Sb91  1  0.33527624  0.67112873  -0.00104910  1
  Sb  Sb92  1  0.83250728  0.16966754  0.66292819  1
  Sb  Sb93  1  0.33472323  0.16207798  0.82822388  1
  Sb  Sb94  1  0.00507113  0.00166559  0.33452141  1
  Sb  Sb95  1  0.82692400  0.33168113  0.83091851  1
  Sb  Sb96  1  -0.00245025  0.49497618  0.16551504  1
  Sb  Sb97  1  0.49770047  0.83148174  -0.00078851  1
  Sb  Sb98  1  0.50291415  0.49913965  0.33145514  1
  Sb  Sb99  1  0.00259279  0.00314390  0.66599349  1
  Sb  Sb100  1  0.33360095  0.32902384  -0.00454895  1
  Sb  Sb101  1  0.33809072  0.67187744  0.33630084  1
  Sb  Sb102  1  0.66464727  0.83794808  0.49810518  1
  Sb  Sb103  1  0.83031758  0.00283477  0.83577774  1
  Sb  Sb104  1  0.17096664  0.83718485  0.66750788  1
  Sb  Sb105  1  0.00705526  0.00552029  0.00007108  1
  Sb  Sb106  1  0.50005857  0.49403781  0.67069668  1
  Sb  Sb107  1  0.66066749  0.00827945  0.66643153  1
  Te  Te108  1  0.16434620  0.16495786  0.16740681  1
  Te  Te109  1  0.16040932  0.16482163  0.49968911  1
  Te  Te110  1  0.16447576  0.16584910  0.83252905  1
  Te  Te111  1  0.16684138  0.50031077  0.16508141  1
  Te  Te112  1  0.17076779  0.50135000  0.49826472  1
  Te  Te113  1  0.16685154  0.50607442  0.83802256  1
  Te  Te114  1  0.16991116  0.83702926  0.16350900  1
  Te  Te115  1  0.16673475  0.83357315  0.50091899  1
  Te  Te116  1  0.16686077  0.83175272  0.83323507  1
  Te  Te117  1  0.49977543  0.16076025  0.16841414  1
  Te  Te118  1  0.49985804  0.16745311  0.50161971  1
  Te  Te119  1  0.50157730  0.16779755  0.83281012  1
  Te  Te120  1  0.50254732  0.50007411  0.16026635  1
  Te  Te121  1  0.49305938  0.49902144  0.49984814  1
  Te  Te122  1  0.50134124  0.50200951  0.83677971  1
  Te  Te123  1  0.49505965  0.83770963  0.17017774  1
  Te  Te124  1  0.49797178  0.83300347  0.50004335  1
  Te  Te125  1  0.49811936  0.83368752  0.83203089  1
  Te  Te126  1  0.83788326  0.16629515  0.16668669  1
  Te  Te127  1  0.83952411  0.16739287  0.49687648  1
  Te  Te128  1  0.83599441  0.16625097  0.83886467  1
  Te  Te129  1  0.83011510  0.50354615  0.17282207  1
  Te  Te130  1  0.83264398  0.49914948  0.49287614  1
  Te  Te131  1  0.82639521  0.50046632  0.83388131  1
  Te  Te132  1  0.83439460  0.83155088  0.16695316  1
  Te  Te133  1  0.83474325  0.83337359  0.49637545  1
  Te  Te134  1  0.83778028  0.83496400  0.83677783  1
  Te  Te135  1  0.17140522  -0.00183531  0.00127039  1
  Te  Te136  1  0.17285900  -0.00052358  0.33334999  1
  Te  Te137  1  0.16737053  0.00820719  0.65982196  1
  Te  Te138  1  0.16668348  0.32999705  0.00107363  1
  Te  Te139  1  0.16705069  0.33851682  0.32784563  1
  Te  Te140  1  0.16166173  0.32877977  0.66779046  1
  Te  Te141  1  0.16554846  0.66959148  -0.00230369  1
  Te  Te142  1  0.16642017  0.66144433  0.33666666  1
  Te  Te143  1  0.16346678  0.66627957  0.66674529  1
  Te  Te144  1  0.49433496  -0.00017816  -0.00267391  1
  Te  Te145  1  0.49782702  0.00010487  0.33578632  1
  Te  Te146  1  0.49941254  0.00174637  0.66759174  1
  Te  Te147  1  0.50192437  0.33668617  -0.00097478  1
  Te  Te148  1  0.50538902  0.33040697  0.33491746  1
  Te  Te149  1  0.50087560  0.33090222  0.66669556  1
  Te  Te150  1  0.50454065  0.66301385  -0.00420328  1
  Te  Te151  1  0.50857852  0.66893086  0.33318785  1
  Te  Te152  1  0.50073115  0.66903884  0.67245805  1
  Te  Te153  1  0.83149239  -0.00096769  0.00219874  1
  Te  Te154  1  0.83186968  0.00192154  0.33144373  1
  Te  Te155  1  0.83074415  -0.00211744  0.66637891  1
  Te  Te156  1  0.83403554  0.33046357  0.00121842  1
  Te  Te157  1  0.82955055  0.33151767  0.33544829  1
  Te  Te158  1  0.83804941  0.33330749  0.65947860  1
  Te  Te159  1  0.82959847  0.66866371  0.00119938  1
  Te  Te160  1  0.83123111  0.66673622  0.33484419  1
  Te  Te161  1  0.83916599  0.66519719  0.65985374  1
  Te  Te162  1  0.00121961  0.16752291  -0.00271977  1
  Te  Te163  1  -0.00500305  0.16667047  0.33996718  1
  Te  Te164  1  -0.00064686  0.16826186  0.66811871  1
  Te  Te165  1  0.00609567  0.49290469  -0.00027124  1
  Te  Te166  1  0.00154266  0.49910387  0.33187006  1
  Te  Te167  1  0.00034526  0.49585298  0.66847405  1
  Te  Te168  1  0.00060217  0.83317833  -0.00252196  1
  Te  Te169  1  -0.00457733  0.83443109  0.33789622  1
  Te  Te170  1  0.00057760  0.83171478  0.66590641  1
  Te  Te171  1  0.32683727  0.16128638  -0.00054181  1
  Te  Te172  1  0.33772725  0.16213300  0.33905866  1
  Te  Te173  1  0.33373820  0.17018022  0.66306434  1
  Te  Te174  1  0.32957652  0.49958922  0.00071590  1
  Te  Te175  1  0.33156412  0.50036100  0.33694958  1
  Te  Te176  1  0.33274615  0.49246103  0.66010531  1
  Te  Te177  1  0.33057071  0.83602567  -0.00188256  1
  Te  Te178  1  0.33533640  0.83688277  0.33824616  1
  Te  Te179  1  0.33738037  0.83199341  0.66634285  1
  Te  Te180  1  0.66901409  0.17043012  -0.00166653  1
  Te  Te181  1  0.66671777  0.17028268  0.33395409  1
  Te  Te182  1  0.66593205  0.17357819  0.66757022  1
  Te  Te183  1  0.66819067  0.49886681  0.00154240  1
  Te  Te184  1  0.66796798  0.49829204  0.33157929  1
  Te  Te185  1  0.66698033  0.49210735  0.67347225  1
  Te  Te186  1  0.67248764  0.83074691  0.00000413  1
  Te  Te187  1  0.66737357  0.82996032  0.33343253  1
  Te  Te188  1  0.65980110  0.83088617  0.66677995  1
  Te  Te189  1  0.00595515  0.00733299  0.16763238  1
  Te  Te190  1  0.00373860  -0.00199586  0.50023466  1
  Te  Te191  1  0.00079765  -0.00154539  0.83275063  1
  Te  Te192  1  0.00400541  0.32795607  0.16319924  1
  Te  Te193  1  -0.00166585  0.33197744  0.50288608  1
  Te  Te194  1  -0.00051216  0.32965976  0.83375717  1
  Te  Te195  1  -0.00778449  0.66818440  0.16559762  1
  Te  Te196  1  0.00114943  0.66719434  0.50431963  1
  Te  Te197  1  0.00193065  0.66862452  0.82849911  1
  Te  Te198  1  0.33264647  -0.00175618  0.16811063  1
  Te  Te199  1  0.33413748  0.00046528  0.49893078  1
  Te  Te200  1  0.33767478  -0.00504161  0.83557589  1
  Te  Te201  1  0.32714234  0.33490156  0.16674716  1
  Te  Te202  1  0.33481709  0.32963847  0.50249108  1
  Te  Te203  1  0.34019542  0.33360677  0.82701104  1
  Te  Te204  1  0.33266764  0.67576414  0.16763759  1
  Te  Te205  1  0.32872202  0.67099620  0.50085743  1
  Te  Te206  1  0.33228225  0.67100566  0.83202076  1
  Te  Te207  1  0.65851372  -0.00002150  0.16549147  1
  Te  Te208  1  0.66019609  0.00913454  0.49997176  1
  Te  Te209  1  0.65898891  0.00665806  0.83385545  1
  Te  Te210  1  0.66587670  0.33869870  0.16190397  1
  Te  Te211  1  0.66643369  0.33186880  0.49985541  1
  Te  Te212  1  0.66566828  0.33181296  0.83576331  1
  Te  Te213  1  0.66998461  0.66309292  0.16585326  1
  Te  Te214  1  0.67152938  0.66512462  0.49797653  1
  Te  Te215  1  0.66424818  0.66560068  0.83552431  1
