# generated using pymatgen
data_AgSbTe2
_symmetry_space_group_name_H-M   'P 1'
_cell_length_a   18.35778418
_cell_length_b   18.36518293
_cell_length_c   18.35959319
_cell_angle_alpha   90.00310383
_cell_angle_beta   89.99365015
_cell_angle_gamma   89.99452988
_symmetry_Int_Tables_number   1
_chemical_formula_structural   AgSbTe2
_chemical_formula_sum   'Ag54 Sb54 Te108'
_cell_volume   6189.82779509
_cell_formula_units_Z   54
loop_
 _symmetry_equiv_pos_site_id
 _symmetry_equiv_pos_as_xyz
  1  'x, y, z'
loop_
 _atom_site_type_symbol
 _atom_site_label
 _atom_site_symmetry_multiplicity
 _atom_site_fract_x
 _atom_site_fract_y
 _atom_site_fract_z
 _atom_site_occupancy
  Ag  Ag0  1  0.16999189  0.49866846  -0.00620154  1
  Ag  Ag1  1  0.00415739  0.16841346  0.50919851  1
  Ag  Ag2  1  0.84895874  0.17903288  0.66779348  1
  Ag  Ag3  1  0.33255331  0.33702426  -0.00386037  1
  Ag  Ag4  1  0.00446225  0.83864045  0.49880322  1
  Ag  Ag5  1  0.17048555  0.17853583  0.32860175  1
  Ag  Ag6  1  0.17091052  0.18044469  -0.00188145  1
  Ag  Ag7  1  0.33407933  0.49150056  0.83412179  1
  Ag  Ag8  1  0.32709755  0.33037692  0.68149076  1
  Ag  Ag9  1  0.66784893  0.50048837  0.51233241  1
  Ag  Ag10  1  0.17326001  0.33573332  0.83260296  1
  Ag  Ag11  1  0.48994938  0.50191970  -0.00259362  1
  Ag  Ag12  1  0.32685746  0.33439632  0.32844397  1
  Ag  Ag13  1  0.01052164  0.82447890  0.16673760  1
  Ag  Ag14  1  0.00911615  0.33566524  0.32821916  1
  Ag  Ag15  1  0.01312461  0.33209609  0.00089199  1
  Ag  Ag16  1  0.17090472  0.66541127  0.16167063  1
  Ag  Ag17  1  0.16999607  0.82272822  -0.00079762  1
  Ag  Ag18  1  0.16828184  0.82355117  0.67325538  1
  Ag  Ag19  1  0.49069038  0.65503303  0.84135939  1
  Ag  Ag20  1  0.16821942  0.17644455  0.66878078  1
  Ag  Ag21  1  0.33357006  0.65485564  -0.00174438  1
  Ag  Ag22  1  0.16764045  0.49693525  0.67362977  1
  Ag  Ag23  1  0.32956374  0.66258489  0.68045712  1
  Ag  Ag24  1  0.17314635  0.65784925  0.83530717  1
  Ag  Ag25  1  0.49158328  0.66345044  0.15426698  1
  Ag  Ag26  1  0.49044342  0.33608377  0.15668001  1
  Ag  Ag27  1  0.33216620  0.17008324  0.15631888  1
  Ag  Ag28  1  0.33131559  0.00858052  0.33010350  1
  Ag  Ag29  1  0.84030190  0.49588032  0.33044719  1
  Ag  Ag30  1  0.16639286  0.49815950  0.32924029  1
  Ag  Ag31  1  0.49217347  0.00307335  0.16328844  1
  Ag  Ag32  1  0.33091041  0.82347547  0.16473114  1
  Ag  Ag33  1  0.32944648  0.65887152  0.31634260  1
  Ag  Ag34  1  0.33350201  0.17573614  0.83998815  1
  Ag  Ag35  1  0.16870129  0.66561824  0.50966639  1
  Ag  Ag36  1  0.49680305  0.00259689  0.50115794  1
  Ag  Ag37  1  0.83825867  0.33757826  0.50290131  1
  Ag  Ag38  1  0.84346683  0.49665831  0.66544155  1
  Ag  Ag39  1  0.48587864  0.16770117  0.67567453  1
  Ag  Ag40  1  0.48832725  0.33675460  0.83646869  1
  Ag  Ag41  1  0.48530106  0.81652974  0.00268271  1
  Ag  Ag42  1  0.00468233  0.00796279  0.00013714  1
  Ag  Ag43  1  0.00141051  0.49872313  0.16664264  1
  Ag  Ag44  1  0.65179608  0.17757300  0.83133238  1
  Ag  Ag45  1  0.65265696  0.66200057  0.67625832  1
  Ag  Ag46  1  0.64955177  0.66413596  -0.00472423  1
  Ag  Ag47  1  0.00961312  0.01166336  0.66721428  1
  Ag  Ag48  1  0.83965947  0.33653900  0.16827992  1
  Ag  Ag49  1  0.84224386  0.65562771  0.16599440  1
  Ag  Ag50  1  0.65499590  0.49862852  0.83156903  1
  Ag  Ag51  1  0.32839030  0.01450267  0.66271639  1
  Ag  Ag52  1  0.00795281  0.33065701  0.66641255  1
  Ag  Ag53  1  0.48715163  0.17288178  -0.00614587  1
  Sb  Sb54  1  0.50080525  0.33124949  0.50397121  1
  Sb  Sb55  1  0.83961173  0.82995894  0.00200149  1
  Sb  Sb56  1  0.83886144  0.65927740  0.49698294  1
  Sb  Sb57  1  0.66518431  -0.00271868  -0.00104962  1
  Sb  Sb58  1  0.16798428  0.33969644  0.16158623  1
  Sb  Sb59  1  0.49516197  0.00625892  0.83652028  1
  Sb  Sb60  1  0.32893859  0.83267000  0.49809684  1
  Sb  Sb61  1  0.66020910  0.82737730  0.83431941  1
  Sb  Sb62  1  0.17022890  0.00504562  0.83235665  1
  Sb  Sb63  1  0.65779656  0.00245685  0.33357401  1
  Sb  Sb64  1  0.00919832  0.65903429  0.33155274  1
  Sb  Sb65  1  0.00645502  0.49836823  0.83596990  1
  Sb  Sb66  1  0.66696944  0.33608398  0.33282694  1
  Sb  Sb67  1  0.83701612  0.16974846  -0.00309798  1
  Sb  Sb68  1  0.83331099  0.00207040  0.16742452  1
  Sb  Sb69  1  0.67063244  0.50067942  0.16304255  1
  Sb  Sb70  1  0.65730500  0.33833282  -0.00239963  1
  Sb  Sb71  1  0.83826688  0.82291172  0.33155555  1
  Sb  Sb72  1  0.66970124  0.17210376  0.50733346  1
  Sb  Sb73  1  0.32601033  0.49987593  0.15844504  1
  Sb  Sb74  1  0.83147707  0.66272780  0.83651203  1
  Sb  Sb75  1  0.00064276  0.49531529  0.49845952  1
  Sb  Sb76  1  0.49008408  0.83600645  0.67188404  1
  Sb  Sb77  1  0.84313718  0.82969541  0.66554690  1
  Sb  Sb78  1  0.66342492  -0.00015436  0.66763904  1
  Sb  Sb79  1  0.32947882  0.00437050  0.00094733  1
  Sb  Sb80  1  0.17392420  -0.00418888  0.16460142  1
  Sb  Sb81  1  0.84219779  0.17531789  0.33727329  1
  Sb  Sb82  1  0.49382828  0.66733145  0.50214755  1
  Sb  Sb83  1  0.33174799  0.83112874  0.83938901  1
  Sb  Sb84  1  0.00641747  0.83347858  0.83580378  1
  Sb  Sb85  1  0.65653202  0.16979849  0.16019688  1
  Sb  Sb86  1  0.49435740  0.49862752  0.32555087  1
  Sb  Sb87  1  0.49071308  0.16814081  0.33186627  1
  Sb  Sb88  1  0.01009720  0.66274644  0.00370931  1
  Sb  Sb89  1  0.66104909  0.82925447  0.16354790  1
  Sb  Sb90  1  0.66640643  0.33749818  0.66931430  1
  Sb  Sb91  1  0.66121638  0.66274240  0.33157187  1
  Sb  Sb92  1  0.83545818  0.00490851  0.83184492  1
  Sb  Sb93  1  0.83301551  0.00663627  0.50100455  1
  Sb  Sb94  1  0.83624494  0.49863995  -0.00128836  1
  Sb  Sb95  1  0.49441637  0.49587569  0.67410731  1
  Sb  Sb96  1  0.16361763  0.33593775  0.50300661  1
  Sb  Sb97  1  0.32831934  0.16705919  0.50267415  1
  Sb  Sb98  1  0.33322168  0.50074387  0.50549168  1
  Sb  Sb99  1  0.16879772  0.82978820  0.33225297  1
  Sb  Sb100  1  0.00720403  0.00556596  0.33407060  1
  Sb  Sb101  1  0.00756333  0.16976290  0.16703661  1
  Sb  Sb102  1  0.17073986  -0.00157026  0.50405721  1
  Sb  Sb103  1  0.00874243  0.66263192  0.66429007  1
  Sb  Sb104  1  0.66965277  0.82697741  0.50369083  1
  Sb  Sb105  1  0.49510522  0.83342439  0.32723554  1
  Sb  Sb106  1  0.00636310  0.16937359  0.82985266  1
  Sb  Sb107  1  0.83570438  0.33450110  0.83450317  1
  Te  Te108  1  0.17221203  0.16468243  0.16396369  1
  Te  Te109  1  0.16172975  0.16507227  0.50629763  1
  Te  Te110  1  0.17205503  0.17057555  0.83434039  1
  Te  Te111  1  0.16118376  0.50470627  0.17047604  1
  Te  Te112  1  0.16679794  0.50659951  0.49968239  1
  Te  Te113  1  0.16787686  0.49810299  0.83390443  1
  Te  Te114  1  0.16875442  0.83022502  0.16592115  1
  Te  Te115  1  0.16284336  0.82952928  0.50040819  1
  Te  Te116  1  0.16702535  0.82783502  0.83478288  1
  Te  Te117  1  0.49446707  0.17101971  0.16505319  1
  Te  Te118  1  0.50317808  0.16250367  0.50074898  1
  Te  Te119  1  0.49546556  0.16701492  0.83345799  1
  Te  Te120  1  0.50301776  0.49865750  0.16113041  1
  Te  Te121  1  0.50767141  0.50009798  0.49546645  1
  Te  Te122  1  0.49659591  0.49811864  0.83477597  1
  Te  Te123  1  0.49548018  0.82821833  0.16183043  1
  Te  Te124  1  0.50240978  0.83976050  0.50130895  1
  Te  Te125  1  0.49919936  0.82976291  0.84173187  1
  Te  Te126  1  0.83093204  0.17150751  0.16716494  1
  Te  Te127  1  0.83770404  0.17330978  0.50554532  1
  Te  Te128  1  0.82917717  0.16789779  0.82682900  1
  Te  Te129  1  0.83681427  0.49795668  0.16537039  1
  Te  Te130  1  0.83414545  0.49723178  0.50482398  1
  Te  Te131  1  0.82985160  0.50011496  0.82612321  1
  Te  Te132  1  0.83636240  0.83355366  0.16780760  1
  Te  Te133  1  0.84109299  0.83297646  0.49866952  1
  Te  Te134  1  0.83228439  0.83495813  0.83306266  1
  Te  Te135  1  0.16216519  -0.00400688  -0.00187372  1
  Te  Te136  1  0.17204249  0.00378787  0.33442438  1
  Te  Te137  1  0.16741466  0.00034387  0.66704812  1
  Te  Te138  1  0.17051473  0.33683775  -0.00035677  1
  Te  Te139  1  0.16582450  0.33512205  0.33715337  1
  Te  Te140  1  0.16816775  0.33571678  0.66443906  1
  Te  Te141  1  0.17020306  0.66293666  -0.00140320  1
  Te  Te142  1  0.17150176  0.66315212  0.32689942  1
  Te  Te143  1  0.16884716  0.66318569  0.66975802  1
  Te  Te144  1  0.50274947  0.00937837  0.00417468  1
  Te  Te145  1  0.49162560  0.00017047  0.32928827  1
  Te  Te146  1  0.49576088  0.00273132  0.66586406  1
  Te  Te147  1  0.49686360  0.33252498  -0.00178919  1
  Te  Te148  1  0.49848727  0.33373225  0.33075993  1
  Te  Te149  1  0.49484252  0.32741017  0.66849634  1
  Te  Te150  1  0.49459298  0.66247303  -0.00102547  1
  Te  Te151  1  0.49154331  0.66621859  0.33364200  1
  Te  Te152  1  0.49618943  0.66948714  0.66878240  1
  Te  Te153  1  0.84094164  -0.00066302  0.00024409  1
  Te  Te154  1  0.83237836  0.00039053  0.33365987  1
  Te  Te155  1  0.83678692  -0.00143575  0.66481364  1
  Te  Te156  1  0.83882286  0.33261509  0.00455730  1
  Te  Te157  1  0.83252793  0.33807608  0.33073171  1
  Te  Te158  1  0.83224098  0.33538745  0.66802113  1
  Te  Te159  1  0.83509879  0.66660932  0.00597088  1
  Te  Te160  1  0.83092159  0.65682369  0.32765447  1
  Te  Te161  1  0.83634076  0.66016543  0.66682867  1
  Te  Te162  1  0.00461239  0.16839017  -0.00019101  1
  Te  Te163  1  0.00805011  0.17315703  0.33500574  1
  Te  Te164  1  0.00346318  0.16832213  0.66821348  1
  Te  Te165  1  0.00465937  0.49480046  0.00379937  1
  Te  Te166  1  0.00079697  0.49483799  0.33266707  1
  Te  Te167  1  0.00302461  0.49340352  0.66687380  1
  Te  Te168  1  0.00647329  0.83290876  0.00567092  1
  Te  Te169  1  0.00049501  0.83692461  0.33053844  1
  Te  Te170  1  0.00731542  0.83473477  0.66464196  1
  Te  Te171  1  0.33061621  0.16499216  -0.00048747  1
  Te  Te172  1  0.32760515  0.16811280  0.33592314  1
  Te  Te173  1  0.32997976  0.17068851  0.66294536  1
  Te  Te174  1  0.33229356  0.49630026  -0.00206808  1
  Te  Te175  1  0.32897575  0.49989739  0.33639180  1
  Te  Te176  1  0.32996535  0.50018827  0.67037097  1
  Te  Te177  1  0.33055332  0.84112779  0.00440526  1
  Te  Te178  1  0.33368560  0.83202875  0.32786203  1
  Te  Te179  1  0.32648018  0.82584182  0.66547230  1
  Te  Te180  1  0.66883507  0.16647440  -0.00798920  1
  Te  Te181  1  0.66862915  0.16621624  0.33421479  1
  Te  Te182  1  0.66348228  0.16586864  0.67160836  1
  Te  Te183  1  0.66887601  0.50432439  -0.00435948  1
  Te  Te184  1  0.67135219  0.50091420  0.33377081  1
  Te  Te185  1  0.65954605  0.50291115  0.67013237  1
  Te  Te186  1  0.66717768  0.82779365  -0.00067487  1
  Te  Te187  1  0.66886782  0.83418922  0.33482759  1
  Te  Te188  1  0.66923455  0.82504496  0.66637073  1
  Te  Te189  1  -0.00124485  -0.00013893  0.16230175  1
  Te  Te190  1  -0.00055009  0.00186579  0.50356825  1
  Te  Te191  1  0.00090052  -0.00041672  0.83282302  1
  Te  Te192  1  -0.00014167  0.33490762  0.16641243  1
  Te  Te193  1  -0.00244750  0.33136003  0.50469961  1
  Te  Te194  1  0.00505988  0.33352607  0.83426030  1
  Te  Te195  1  -0.00087368  0.66616172  0.16834190  1
  Te  Te196  1  0.00647976  0.67299272  0.49699510  1
  Te  Te197  1  0.00264985  0.66705630  0.83364047  1
  Te  Te198  1  0.33581708  0.00496880  0.16739878  1
  Te  Te199  1  0.33764254  -0.00185224  0.50102829  1
  Te  Te200  1  0.33368233  0.00538113  0.82244878  1
  Te  Te201  1  0.33294814  0.33176049  0.16906998  1
  Te  Te202  1  0.33700456  0.33424639  0.48756403  1
  Te  Te203  1  0.33212280  0.33414018  0.83542090  1
  Te  Te204  1  0.33255483  0.66407904  0.15982246  1
  Te  Te205  1  0.32839435  0.66829648  0.50374540  1
  Te  Te206  1  0.33250542  0.66999529  0.83853218  1
  Te  Te207  1  0.65893541  0.00036221  0.16748884  1
  Te  Te208  1  0.65984535  -0.00129373  0.49990860  1
  Te  Te209  1  0.66731723  0.00192665  0.83320225  1
  Te  Te210  1  0.67058310  0.33241619  0.16507217  1
  Te  Te211  1  0.67273378  0.33965775  0.50081493  1
  Te  Te212  1  0.66473579  0.33604789  0.83406790  1
  Te  Te213  1  0.66196732  0.66704000  0.16303348  1
  Te  Te214  1  0.66750016  0.66090839  0.50244647  1
  Te  Te215  1  0.66609593  0.66193954  0.83400399  1
