# generated using pymatgen
data_AgSbTe2
_symmetry_space_group_name_H-M   'P 1'
_cell_length_a   18.33052117
_cell_length_b   18.33518044
_cell_length_c   18.33725974
_cell_angle_alpha   90.00145002
_cell_angle_beta   89.99884199
_cell_angle_gamma   89.99945011
_symmetry_Int_Tables_number   1
_chemical_formula_structural   AgSbTe2
_chemical_formula_sum   'Ag54 Sb54 Te108'
_cell_volume   6163.03221146
_cell_formula_units_Z   54
loop_
 _symmetry_equiv_pos_site_id
 _symmetry_equiv_pos_as_xyz
  1  'x, y, z'
loop_
 _atom_site_type_symbol
 _atom_site_label
 _atom_site_symmetry_multiplicity
 _atom_site_fract_x
 _atom_site_fract_y
 _atom_site_fract_z
 _atom_site_occupancy
  Ag  Ag0  1  0.66004353  0.16340360  0.16047539  1
  Ag  Ag1  1  0.32100254  0.83366299  0.82926181  1
  Ag  Ag2  1  0.00004053  0.00431865  0.33382543  1
  Ag  Ag3  1  0.00213385  0.32698663  0.33665214  1
  Ag  Ag4  1  0.66642739  0.00380297  -0.00201608  1
  Ag  Ag5  1  0.83036402  0.66913672  0.83237726  1
  Ag  Ag6  1  0.66701023  0.83289458  0.83601335  1
  Ag  Ag7  1  0.49783372  0.16718593  0.32884765  1
  Ag  Ag8  1  0.16315149  0.67533991  0.16016898  1
  Ag  Ag9  1  -0.00908162  0.16603995  0.83234184  1
  Ag  Ag10  1  0.50979008  0.33084560  0.83111018  1
  Ag  Ag11  1  0.83428131  0.00741514  0.50562096  1
  Ag  Ag12  1  0.83024823  0.32512177  0.82669809  1
  Ag  Ag13  1  0.82911414  0.16911108  0.66837533  1
  Ag  Ag14  1  -0.00033152  0.67062516  -0.00436631  1
  Ag  Ag15  1  0.49675475  0.83482002  0.67370352  1
  Ag  Ag16  1  0.50585965  0.16900304  0.00150126  1
  Ag  Ag17  1  0.32869793  0.83698586  0.50202810  1
  Ag  Ag18  1  0.66986232  0.32561863  0.67083006  1
  Ag  Ag19  1  0.16835417  0.83454161  0.33085045  1
  Ag  Ag20  1  0.16820344  0.67206875  0.50380621  1
  Ag  Ag21  1  0.16457051  0.33379247  0.50275116  1
  Ag  Ag22  1  0.15594623  0.33195874  0.82770652  1
  Ag  Ag23  1  0.66444393  0.32125110  -0.01209561  1
  Ag  Ag24  1  0.67004859  0.16954521  0.83153017  1
  Ag  Ag25  1  -0.00511625  0.32701091  0.67454632  1
  Ag  Ag26  1  0.33062754  0.00449838  0.33425232  1
  Ag  Ag27  1  -0.00127507  0.00547905  0.67688785  1
  Ag  Ag28  1  0.50171911  0.32703190  0.16269858  1
  Ag  Ag29  1  0.15619896  -0.01075952  0.83137794  1
  Ag  Ag30  1  0.83834697  0.32656445  0.50705762  1
  Ag  Ag31  1  0.33897426  0.16651797  0.49334065  1
  Ag  Ag32  1  0.32924827  0.32243500  0.33731596  1
  Ag  Ag33  1  -0.00078147  0.16491684  0.16564875  1
  Ag  Ag34  1  0.34324611  0.16341926  0.17503886  1
  Ag  Ag35  1  0.16918174  0.83236080  0.67757791  1
  Ag  Ag36  1  0.16469462  0.83244865  -0.00791652  1
  Ag  Ag37  1  0.50147581  0.49063290  0.66901509  1
  Ag  Ag38  1  0.00888501  0.83423005  0.83660040  1
  Ag  Ag39  1  0.66411634  0.66705650  0.67426813  1
  Ag  Ag40  1  0.66438591  0.84165542  0.15486156  1
  Ag  Ag41  1  0.00091873  0.49847626  0.83472390  1
  Ag  Ag42  1  0.51353580  0.66855881  0.83042101  1
  Ag  Ag43  1  -0.00018115  0.49541284  0.16453914  1
  Ag  Ag44  1  0.33184393  0.49014609  0.49967978  1
  Ag  Ag45  1  0.67040822  0.00392834  0.32848424  1
  Ag  Ag46  1  0.16145802  0.67791186  0.83331362  1
  Ag  Ag47  1  0.67000457  0.67424020  -0.01058441  1
  Ag  Ag48  1  0.01054261  0.83402057  0.16084098  1
  Ag  Ag49  1  0.83652580  0.00595705  0.82776723  1
  Ag  Ag50  1  0.66448356  0.16609383  0.51212585  1
  Ag  Ag51  1  0.83620969  0.49531707  0.33520335  1
  Ag  Ag52  1  0.50828888  0.16954812  0.66964375  1
  Ag  Ag53  1  0.32643746  0.83826293  0.16925748  1
  Sb  Sb54  1  0.16362187  0.00038001  0.50244165  1
  Sb  Sb55  1  0.00220014  0.66744221  0.32726162  1
  Sb  Sb56  1  0.00604740  0.83493400  0.50310066  1
  Sb  Sb57  1  0.66442565  0.49271052  0.50340566  1
  Sb  Sb58  1  0.16707863  0.33435724  0.16687711  1
  Sb  Sb59  1  0.32976110  0.50352393  0.82830454  1
  Sb  Sb60  1  0.83074686  0.16759432  0.33915509  1
  Sb  Sb61  1  0.49874733  0.32896882  0.50418421  1
  Sb  Sb62  1  0.67345279  0.49778873  0.83216537  1
  Sb  Sb63  1  0.16857558  0.50341597  0.66670134  1
  Sb  Sb64  1  0.49759817  0.66463858  0.15830942  1
  Sb  Sb65  1  0.32910506  -0.00126137  0.66344222  1
  Sb  Sb66  1  0.50068035  0.83687214  -0.00495138  1
  Sb  Sb67  1  0.66836786  0.32384015  0.33562919  1
  Sb  Sb68  1  -0.00081518  0.16732342  0.50225147  1
  Sb  Sb69  1  0.83526565  0.83934115  0.67114870  1
  Sb  Sb70  1  -0.00225786  0.66725302  0.67641218  1
  Sb  Sb71  1  0.16519978  0.16531070  0.66756674  1
  Sb  Sb72  1  0.50305416  0.00356262  0.50094167  1
  Sb  Sb73  1  0.50282817  0.49045279  0.33730305  1
  Sb  Sb74  1  0.33679288  0.16353181  0.83204477  1
  Sb  Sb75  1  0.50151375  0.00626590  0.16762527  1
  Sb  Sb76  1  0.83545284  0.83345837  -0.00407379  1
  Sb  Sb77  1  0.83852111  0.83445210  0.33301806  1
  Sb  Sb78  1  0.33183536  0.67099689  0.33502740  1
  Sb  Sb79  1  0.83263932  0.00174133  0.16538714  1
  Sb  Sb80  1  0.82685397  0.16658618  -0.00797494  1
  Sb  Sb81  1  0.50357285  0.00073213  0.83193546  1
  Sb  Sb82  1  0.50310644  0.49495187  -0.00846882  1
  Sb  Sb83  1  0.49561190  0.66758289  0.50846283  1
  Sb  Sb84  1  0.83762741  0.66552254  0.50741496  1
  Sb  Sb85  1  0.33775793  0.32978910  0.00238906  1
  Sb  Sb86  1  0.83164837  0.49163473  0.66692251  1
  Sb  Sb87  1  0.67226498  0.00384376  0.67102650  1
  Sb  Sb88  1  0.66794085  0.67578221  0.33244011  1
  Sb  Sb89  1  0.33677932  -0.00097782  0.00246697  1
  Sb  Sb90  1  0.16541865  -0.00600312  0.16397792  1
  Sb  Sb91  1  0.83792910  0.66749862  0.16102178  1
  Sb  Sb92  1  0.83099612  0.33083052  0.16597777  1
  Sb  Sb93  1  -0.00428208  -0.00279729  -0.00326199  1
  Sb  Sb94  1  0.32863586  0.49840716  0.17493622  1
  Sb  Sb95  1  0.83447901  0.49972947  -0.00103304  1
  Sb  Sb96  1  0.16258743  0.50198864  0.33461939  1
  Sb  Sb97  1  -0.00441848  0.33383975  -0.00482752  1
  Sb  Sb98  1  0.16409212  0.50610018  -0.00150475  1
  Sb  Sb99  1  0.16899110  0.16188229  -0.00182410  1
  Sb  Sb100  1  0.16944920  0.16251313  0.33328953  1
  Sb  Sb101  1  0.49524179  0.83993043  0.33490435  1
  Sb  Sb102  1  0.66133658  0.84171552  0.50563357  1
  Sb  Sb103  1  0.33350535  0.33154739  0.66357492  1
  Sb  Sb104  1  0.00339282  0.49571484  0.50187560  1
  Sb  Sb105  1  0.33131622  0.67053428  -0.00227408  1
  Sb  Sb106  1  0.67085973  0.49707923  0.16715514  1
  Sb  Sb107  1  0.33696658  0.66995400  0.66745741  1
  Te  Te108  1  0.16108832  0.16586178  0.16494628  1
  Te  Te109  1  0.17328900  0.17239843  0.50042430  1
  Te  Te110  1  0.16802891  0.17281317  0.83360450  1
  Te  Te111  1  0.15992922  0.50739881  0.16632332  1
  Te  Te112  1  0.17193871  0.49734417  0.50042612  1
  Te  Te113  1  0.16181678  0.49232362  0.83289372  1
  Te  Te114  1  0.16747185  0.83250612  0.16857953  1
  Te  Te115  1  0.17012291  0.83317804  0.49605056  1
  Te  Te116  1  0.16561128  0.83388178  0.83413243  1
  Te  Te117  1  0.50105168  0.16877931  0.16734254  1
  Te  Te118  1  0.50254454  0.16693193  0.50214621  1
  Te  Te119  1  0.50061656  0.16846687  0.83147271  1
  Te  Te120  1  0.49901919  0.49342954  0.16669108  1
  Te  Te121  1  0.49409321  0.49964744  0.50583001  1
  Te  Te122  1  0.49600270  0.49903448  0.82717138  1
  Te  Te123  1  0.50232633  0.83043177  0.16614943  1
  Te  Te124  1  0.49134402  0.83373059  0.50402428  1
  Te  Te125  1  0.50856577  0.83207785  0.83227966  1
  Te  Te126  1  0.83868174  0.16667247  0.16779272  1
  Te  Te127  1  0.83285250  0.16751081  0.50453804  1
  Te  Te128  1  0.83220575  0.16602837  0.83024360  1
  Te  Te129  1  0.84027209  0.49945129  0.17184297  1
  Te  Te130  1  0.83346988  0.49692035  0.49661295  1
  Te  Te131  1  0.84254176  0.50409873  0.83279748  1
  Te  Te132  1  0.82524146  0.83361446  0.16751491  1
  Te  Te133  1  0.83258041  0.83568663  0.50150341  1
  Te  Te134  1  0.82529484  0.83042227  0.83175885  1
  Te  Te135  1  0.16727711  -0.00547370  -0.00798566  1
  Te  Te136  1  0.16463792  -0.00407728  0.33370667  1
  Te  Te137  1  0.15998894  -0.00289953  0.67019240  1
  Te  Te138  1  0.16739751  0.33256368  -0.00452434  1
  Te  Te139  1  0.16422847  0.33398046  0.33504171  1
  Te  Te140  1  0.16261264  0.33388883  0.66528870  1
  Te  Te141  1  0.16444159  0.67151565  -0.00194778  1
  Te  Te142  1  0.16703136  0.67169157  0.33693618  1
  Te  Te143  1  0.16507531  0.67091035  0.66751369  1
  Te  Te144  1  0.50700100  0.00681821  -0.00067235  1
  Te  Te145  1  0.49869530  0.00669398  0.33436703  1
  Te  Te146  1  0.49941170  -0.00242892  0.66648426  1
  Te  Te147  1  0.50420408  0.32971167  -0.00285589  1
  Te  Te148  1  0.49765513  0.32757642  0.33092821  1
  Te  Te149  1  0.50169698  0.33100591  0.66982071  1
  Te  Te150  1  0.50454454  0.66525718  -0.00874356  1
  Te  Te151  1  0.50128874  0.66310391  0.33172504  1
  Te  Te152  1  0.50341353  0.67336561  0.67189812  1
  Te  Te153  1  0.82563749  -0.00010294  -0.00867422  1
  Te  Te154  1  0.83585063  0.00000445  0.33690640  1
  Te  Te155  1  0.83807957  0.00481442  0.66645108  1
  Te  Te156  1  0.82521352  0.33457520  -0.00624073  1
  Te  Te157  1  0.83737952  0.33435882  0.33484276  1
  Te  Te158  1  0.83331451  0.33118784  0.66641814  1
  Te  Te159  1  0.83340963  0.66596016  -0.00598618  1
  Te  Te160  1  0.83374070  0.66149855  0.33672538  1
  Te  Te161  1  0.82709261  0.66477062  0.67036524  1
  Te  Te162  1  0.00079831  0.16559306  0.00069319  1
  Te  Te163  1  -0.00036024  0.16653814  0.33230608  1
  Te  Te164  1  -0.00082357  0.16688418  0.66939247  1
  Te  Te165  1  -0.00042856  0.50523160  0.00075119  1
  Te  Te166  1  -0.00284498  0.49786521  0.33092335  1
  Te  Te167  1  -0.00003162  0.49339578  0.67265720  1
  Te  Te168  1  0.00183173  0.83173062  0.00000789  1
  Te  Te169  1  0.00408947  0.83550361  0.33088810  1
  Te  Te170  1  0.00311258  0.83654614  0.67125603  1
  Te  Te171  1  0.34058397  0.16505919  0.00701297  1
  Te  Te172  1  0.33364783  0.16570304  0.33242078  1
  Te  Te173  1  0.34041545  0.16483621  0.66278944  1
  Te  Te174  1  0.33394582  0.49950407  0.00307413  1
  Te  Te175  1  0.33407459  0.49516859  0.34005508  1
  Te  Te176  1  0.33928898  0.50028461  0.66026476  1
  Te  Te177  1  0.33025921  0.83455921  0.00314318  1
  Te  Te178  1  0.33181263  0.83761659  0.33123337  1
  Te  Te179  1  0.33160286  0.83491912  0.66885553  1
  Te  Te180  1  0.66544785  0.16547071  -0.00071041  1
  Te  Te181  1  0.66393487  0.16209194  0.32634123  1
  Te  Te182  1  0.66740789  0.16629809  0.66976234  1
  Te  Te183  1  0.66751885  0.50599416  0.00262146  1
  Te  Te184  1  0.67178972  0.50144230  0.33437231  1
  Te  Te185  1  0.66150679  0.50111303  0.66565150  1
  Te  Te186  1  0.66592329  0.83277380  -0.00168933  1
  Te  Te187  1  0.66497289  0.84221654  0.33356807  1
  Te  Te188  1  0.66377552  0.83253621  0.67010791  1
  Te  Te189  1  -0.00137754  -0.00081483  0.16876263  1
  Te  Te190  1  -0.00456274  0.00053396  0.49437307  1
  Te  Te191  1  -0.00283574  0.00060791  0.83538463  1
  Te  Te192  1  -0.00050224  0.33272670  0.16674409  1
  Te  Te193  1  0.00116405  0.33238388  0.49729642  1
  Te  Te194  1  -0.00352615  0.32823177  0.83423153  1
  Te  Te195  1  0.00225992  0.67367369  0.16134480  1
  Te  Te196  1  0.00691706  0.66514179  0.50131833  1
  Te  Te197  1  0.00164713  0.67246373  0.83481486  1
  Te  Te198  1  0.33246072  0.00021649  0.17098516  1
  Te  Te199  1  0.33213774  0.00111686  0.49522841  1
  Te  Te200  1  0.32975184  -0.00550377  0.83377646  1
  Te  Te201  1  0.33496297  0.33009922  0.17197701  1
  Te  Te202  1  0.33251169  0.32902193  0.49764378  1
  Te  Te203  1  0.33330817  0.33367264  0.83329537  1
  Te  Te204  1  0.32826219  0.66952655  0.16681291  1
  Te  Te205  1  0.32810804  0.67364151  0.50058293  1
  Te  Te206  1  0.32415142  0.67185544  0.83343881  1
  Te  Te207  1  0.66782821  0.00150964  0.16559648  1
  Te  Te208  1  0.67249400  0.00635058  0.49698605  1
  Te  Te209  1  0.66907689  0.00302102  0.83430041  1
  Te  Te210  1  0.66305319  0.32908588  0.16684561  1
  Te  Te211  1  0.67046386  0.32664970  0.50404369  1
  Te  Te212  1  0.66829514  0.33418621  0.83134232  1
  Te  Te213  1  0.66743333  0.67024019  0.16384204  1
  Te  Te214  1  0.66649870  0.66781937  0.50271767  1
  Te  Te215  1  0.66917127  0.66109739  0.83251339  1
