# generated using pymatgen
data_AgSbTe2
_symmetry_space_group_name_H-M   'P 1'
_cell_length_a   18.33292683
_cell_length_b   18.33285058
_cell_length_c   18.33313565
_cell_angle_alpha   90.00257847
_cell_angle_beta   90.00016709
_cell_angle_gamma   89.99736937
_symmetry_Int_Tables_number   1
_chemical_formula_structural   AgSbTe2
_chemical_formula_sum   'Ag54 Sb54 Te108'
_cell_volume   6161.67169929
_cell_formula_units_Z   54
loop_
 _symmetry_equiv_pos_site_id
 _symmetry_equiv_pos_as_xyz
  1  'x, y, z'
loop_
 _atom_site_type_symbol
 _atom_site_label
 _atom_site_symmetry_multiplicity
 _atom_site_fract_x
 _atom_site_fract_y
 _atom_site_fract_z
 _atom_site_occupancy
  Ag  Ag0  1  0.16758679  -0.00623997  0.83695046  1
  Ag  Ag1  1  0.34001646  0.50963889  0.50999234  1
  Ag  Ag2  1  0.83156442  0.65589222  0.16520269  1
  Ag  Ag3  1  0.66645514  0.00830651  0.33645738  1
  Ag  Ag4  1  0.33382343  0.65304501  0.64533451  1
  Ag  Ag5  1  0.49893230  0.17137116  -0.00267149  1
  Ag  Ag6  1  0.33496315  0.34298343  0.65832494  1
  Ag  Ag7  1  0.00653951  0.83835279  0.83524751  1
  Ag  Ag8  1  0.34408139  0.81939785  0.49189024  1
  Ag  Ag9  1  0.83627728  0.83178409  0.00076390  1
  Ag  Ag10  1  0.67072680  0.33125670  0.00687935  1
  Ag  Ag11  1  -0.00739733  0.32898659  -0.00052013  1
  Ag  Ag12  1  0.33511338  0.17244204  0.16438130  1
  Ag  Ag13  1  0.83070905  0.33567691  0.49192040  1
  Ag  Ag14  1  0.34053060  0.50653803  0.16818372  1
  Ag  Ag15  1  0.49982364  0.33052887  0.83555069  1
  Ag  Ag16  1  0.65956900  0.49574569  0.17048803  1
  Ag  Ag17  1  0.50043040  0.17821593  0.66856671  1
  Ag  Ag18  1  0.33322066  0.82091674  0.17331170  1
  Ag  Ag19  1  0.82525634  0.33651479  0.16751545  1
  Ag  Ag20  1  0.50256523  0.33882019  0.16517735  1
  Ag  Ag21  1  0.49007565  0.67475416  0.49556061  1
  Ag  Ag22  1  -0.00172331  0.16800874  0.83653105  1
  Ag  Ag23  1  0.16991395  0.83232079  -0.00058057  1
  Ag  Ag24  1  0.17891499  0.49902658  0.66532197  1
  Ag  Ag25  1  0.17054291  0.33826875  0.49919653  1
  Ag  Ag26  1  0.83106274  0.17527593  0.00312009  1
  Ag  Ag27  1  0.33380639  0.50275225  0.82107337  1
  Ag  Ag28  1  0.33094630  -0.00457530  0.00053472  1
  Ag  Ag29  1  0.66711898  0.33055453  0.32985840  1
  Ag  Ag30  1  0.66531017  0.16742789  0.83467362  1
  Ag  Ag31  1  0.17894787  0.66832764  0.16546809  1
  Ag  Ag32  1  0.33589232  0.33939009  0.33496821  1
  Ag  Ag33  1  0.33371268  0.66447660  0.33257263  1
  Ag  Ag34  1  0.50060744  -0.01291904  0.49984389  1
  Ag  Ag35  1  0.83075840  0.17307931  0.32650197  1
  Ag  Ag36  1  0.83068685  0.49647690  0.66797137  1
  Ag  Ag37  1  0.33155726  0.66805310  0.01890704  1
  Ag  Ag38  1  0.17277838  0.67014146  0.83812816  1
  Ag  Ag39  1  0.66438475  0.17547485  0.49738459  1
  Ag  Ag40  1  0.65696297  0.83124307  0.49890918  1
  Ag  Ag41  1  0.17305254  0.16563121  -0.00144359  1
  Ag  Ag42  1  -0.00991377  0.32969010  0.33360164  1
  Ag  Ag43  1  0.00355642  0.33443076  0.66749514  1
  Ag  Ag44  1  0.49165187  0.49860740  0.66389326  1
  Ag  Ag45  1  -0.00178604  0.00539679  0.33562681  1
  Ag  Ag46  1  0.49005614  0.65979742  0.17102449  1
  Ag  Ag47  1  0.49463908  0.83223160  0.34360287  1
  Ag  Ag48  1  0.83098154  0.49170336  0.00240798  1
  Ag  Ag49  1  0.17723597  0.83122863  0.32984322  1
  Ag  Ag50  1  0.66534946  0.83721625  0.83326570  1
  Ag  Ag51  1  0.49759408  0.82730847  0.65626588  1
  Ag  Ag52  1  0.17789061  0.66237138  0.49929794  1
  Ag  Ag53  1  0.65875719  0.49655550  0.49767085  1
  Sb  Sb54  1  0.17003994  -0.00469243  0.16289821  1
  Sb  Sb55  1  0.66281985  0.33431003  0.66417850  1
  Sb  Sb56  1  0.83049068  0.83635386  0.32871978  1
  Sb  Sb57  1  0.82808882  0.82435213  0.67040734  1
  Sb  Sb58  1  0.49880060  0.00053847  0.16997415  1
  Sb  Sb59  1  0.33539796  0.00016513  0.67091607  1
  Sb  Sb60  1  0.50006094  0.33712950  0.49819690  1
  Sb  Sb61  1  0.00304127  0.16955594  0.16156407  1
  Sb  Sb62  1  0.33976104  0.17079521  0.49671526  1
  Sb  Sb63  1  -0.00003082  0.49783749  0.16538052  1
  Sb  Sb64  1  0.16407105  0.16421567  0.32918425  1
  Sb  Sb65  1  0.00448351  0.66477978  -0.00017834  1
  Sb  Sb66  1  0.50392499  0.16598270  0.33373488  1
  Sb  Sb67  1  0.33393023  0.82655222  0.83386291  1
  Sb  Sb68  1  0.00801225  0.66023193  0.66881333  1
  Sb  Sb69  1  0.83539829  0.00049647  0.83503747  1
  Sb  Sb70  1  0.82909119  0.65947804  0.49478092  1
  Sb  Sb71  1  0.33480172  0.33609011  0.00259959  1
  Sb  Sb72  1  0.66286558  0.17477763  0.16692637  1
  Sb  Sb73  1  0.66374761  0.00043947  0.66190002  1
  Sb  Sb74  1  -0.00602670  0.17126981  0.50185701  1
  Sb  Sb75  1  0.00230801  0.00615171  0.66543619  1
  Sb  Sb76  1  0.16749602  0.50010151  -0.00229786  1
  Sb  Sb77  1  0.49711786  0.50302715  0.33738810  1
  Sb  Sb78  1  0.17036640  0.33508301  0.83172397  1
  Sb  Sb79  1  0.83762989  0.66607389  0.83852867  1
  Sb  Sb80  1  0.17223335  0.17427349  0.67121856  1
  Sb  Sb81  1  0.66272817  0.66347822  0.00029997  1
  Sb  Sb82  1  0.49677746  0.00332466  0.83046812  1
  Sb  Sb83  1  0.50097636  0.49502410  0.00085180  1
  Sb  Sb84  1  0.00464152  0.00332689  0.00138591  1
  Sb  Sb85  1  0.65675893  0.66509001  0.66582536  1
  Sb  Sb86  1  0.17138003  0.33882909  0.17041242  1
  Sb  Sb87  1  0.00490256  0.83286870  0.16302127  1
  Sb  Sb88  1  0.49511912  0.83558410  0.00008609  1
  Sb  Sb89  1  0.66025542  0.66333492  0.33253320  1
  Sb  Sb90  1  0.82509039  0.00555848  0.49615954  1
  Sb  Sb91  1  0.33543000  -0.00299952  0.32975678  1
  Sb  Sb92  1  0.00712063  0.66501468  0.33228933  1
  Sb  Sb93  1  0.00343961  0.49640693  0.50158605  1
  Sb  Sb94  1  0.83287527  0.00454207  0.16590229  1
  Sb  Sb95  1  0.66249482  0.00505007  0.00400793  1
  Sb  Sb96  1  0.17362312  -0.00168358  0.50160148  1
  Sb  Sb97  1  0.49304893  0.66331824  0.83333039  1
  Sb  Sb98  1  0.00397980  0.49655787  0.83309900  1
  Sb  Sb99  1  0.66168637  0.49720823  0.83275501  1
  Sb  Sb100  1  0.33567423  0.17205043  0.83802529  1
  Sb  Sb101  1  0.17207772  0.50292039  0.33833104  1
  Sb  Sb102  1  0.82865766  0.17450930  0.66777279  1
  Sb  Sb103  1  0.00203474  0.83365155  0.50384735  1
  Sb  Sb104  1  0.82907498  0.33335654  0.83710215  1
  Sb  Sb105  1  0.17378439  0.82525732  0.66802296  1
  Sb  Sb106  1  0.83101697  0.49302841  0.32974716  1
  Sb  Sb107  1  0.66109155  0.82623330  0.16757889  1
  Te  Te108  1  0.17185129  0.16701490  0.16042530  1
  Te  Te109  1  0.16694507  0.16961021  0.50042135  1
  Te  Te110  1  0.16500066  0.16671261  0.83804493  1
  Te  Te111  1  0.16971382  0.50690597  0.16617892  1
  Te  Te112  1  0.16935766  0.49901442  0.50387032  1
  Te  Te113  1  0.17113976  0.50411733  0.82940894  1
  Te  Te114  1  0.17028209  0.82936156  0.16413026  1
  Te  Te115  1  0.16906128  0.83094306  0.49886336  1
  Te  Te116  1  0.16730628  0.83217940  0.83476666  1
  Te  Te117  1  0.49684610  0.16908501  0.16348837  1
  Te  Te118  1  0.50581444  0.16848303  0.50330773  1
  Te  Te119  1  0.50245420  0.16924720  0.83334683  1
  Te  Te120  1  0.50184316  0.49989467  0.16596377  1
  Te  Te121  1  0.49933713  0.50260588  0.50309899  1
  Te  Te122  1  0.49625744  0.49555158  0.82926866  1
  Te  Te123  1  0.49450923  0.82965183  0.16743310  1
  Te  Te124  1  0.50075030  0.83062169  0.49981062  1
  Te  Te125  1  0.50472161  0.83420177  0.83168295  1
  Te  Te126  1  0.83388849  0.17186359  0.16481507  1
  Te  Te127  1  0.82588927  0.17309883  0.49936120  1
  Te  Te128  1  0.83112973  0.16647090  0.83655860  1
  Te  Te129  1  0.83370669  0.49602169  0.16381561  1
  Te  Te130  1  0.83064218  0.49610213  0.50094918  1
  Te  Te131  1  0.83215166  0.50144689  0.83515577  1
  Te  Te132  1  0.83249483  0.83345524  0.16103040  1
  Te  Te133  1  0.82959804  0.83100211  0.50018117  1
  Te  Te134  1  0.82994644  0.83306479  0.83802925  1
  Te  Te135  1  0.16933381  -0.00001447  -0.00271066  1
  Te  Te136  1  0.16319432  -0.00540120  0.33473961  1
  Te  Te137  1  0.16705299  0.00135097  0.67374041  1
  Te  Te138  1  0.16135093  0.33040846  0.00134450  1
  Te  Te139  1  0.17109637  0.33194073  0.33773079  1
  Te  Te140  1  0.16869394  0.33744421  0.66405880  1
  Te  Te141  1  0.16982595  0.66753914  0.00103632  1
  Te  Te142  1  0.16903316  0.67087263  0.33256565  1
  Te  Te143  1  0.17229586  0.66098670  0.66340644  1
  Te  Te144  1  0.49421050  0.00757805  -0.00010462  1
  Te  Te145  1  0.50343945  -0.00380311  0.33719931  1
  Te  Te146  1  0.49959452  -0.00475829  0.66197159  1
  Te  Te147  1  0.50166454  0.33064569  0.00181898  1
  Te  Te148  1  0.50010898  0.33218501  0.32805186  1
  Te  Te149  1  0.49758695  0.33635128  0.66588907  1
  Te  Te150  1  0.49419951  0.66616731  0.00454501  1
  Te  Te151  1  0.49680864  0.67062742  0.33193182  1
  Te  Te152  1  0.49298486  0.66446327  0.66646476  1
  Te  Te153  1  0.83345242  -0.00313416  0.00091964  1
  Te  Te154  1  0.83210602  0.00676264  0.33291076  1
  Te  Te155  1  0.83453186  -0.00143910  0.66521760  1
  Te  Te156  1  0.83217115  0.33190636  -0.00016182  1
  Te  Te157  1  0.83100238  0.33138541  0.33216647  1
  Te  Te158  1  0.83499250  0.33635801  0.66470635  1
  Te  Te159  1  0.83370439  0.67043837  0.00422746  1
  Te  Te160  1  0.83624877  0.66640307  0.32693726  1
  Te  Te161  1  0.83616727  0.65823774  0.66521882  1
  Te  Te162  1  -0.00333824  0.16771383  -0.00357775  1
  Te  Te163  1  -0.00336778  0.16930098  0.33381427  1
  Te  Te164  1  0.00030448  0.17340627  0.67303186  1
  Te  Te165  1  -0.00644577  0.49383010  -0.00212791  1
  Te  Te166  1  0.00186204  0.49068452  0.33355982  1
  Te  Te167  1  -0.00710094  0.49327027  0.66779703  1
  Te  Te168  1  0.00265768  0.83485398  -0.00429755  1
  Te  Te169  1  0.00029733  0.83585011  0.33400397  1
  Te  Te170  1  -0.00197335  0.83434289  0.67356190  1
  Te  Te171  1  0.33288067  0.16931721  0.00160123  1
  Te  Te172  1  0.33328517  0.16830997  0.32792036  1
  Te  Te173  1  0.34048085  0.16982227  0.66703808  1
  Te  Te174  1  0.33310246  0.50463455  0.00836929  1
  Te  Te175  1  0.33325342  0.49756916  0.32770180  1
  Te  Te176  1  0.33463681  0.49879868  0.66507038  1
  Te  Te177  1  0.33049251  0.83173462  0.00120611  1
  Te  Te178  1  0.33394302  0.83669850  0.33307416  1
  Te  Te179  1  0.33767146  0.83258918  0.66340285  1
  Te  Te180  1  0.66692986  0.16888968  -0.00077526  1
  Te  Te181  1  0.66909348  0.16903765  0.33413003  1
  Te  Te182  1  0.66109868  0.16697620  0.66944622  1
  Te  Te183  1  0.67016129  0.49579541  0.00106246  1
  Te  Te184  1  0.66548828  0.49518283  0.33452643  1
  Te  Te185  1  0.66925061  0.49977775  0.66410182  1
  Te  Te186  1  0.66780309  0.83551287  -0.00166337  1
  Te  Te187  1  0.66414090  0.83272550  0.33674248  1
  Te  Te188  1  0.66238103  0.83266821  0.66524329  1
  Te  Te189  1  0.00095414  0.00070598  0.17592689  1
  Te  Te190  1  0.00030162  0.00168744  0.49581176  1
  Te  Te191  1  0.00486648  0.00172505  0.83289407  1
  Te  Te192  1  -0.00186479  0.33268066  0.16733480  1
  Te  Te193  1  -0.00087147  0.33253779  0.49918395  1
  Te  Te194  1  -0.00005065  0.33018016  0.83385050  1
  Te  Te195  1  -0.00740316  0.66608817  0.16697906  1
  Te  Te196  1  0.00577981  0.66647752  0.50007866  1
  Te  Te197  1  0.00804833  0.67225079  0.83362097  1
  Te  Te198  1  0.33383312  0.00743619  0.16055304  1
  Te  Te199  1  0.33903487  -0.00002077  0.50099130  1
  Te  Te200  1  0.32876105  -0.00005719  0.83936024  1
  Te  Te201  1  0.33522189  0.33362966  0.16934718  1
  Te  Te202  1  0.33234141  0.33465977  0.49781723  1
  Te  Te203  1  0.33788663  0.33962521  0.83248925  1
  Te  Te204  1  0.33428767  0.66592889  0.17546553  1
  Te  Te205  1  0.33331126  0.66464853  0.49043314  1
  Te  Te206  1  0.33035268  0.66255081  0.83424617  1
  Te  Te207  1  0.66596153  -0.00303911  0.17561076  1
  Te  Te208  1  0.66203159  -0.00164140  0.49580532  1
  Te  Te209  1  0.66635699  0.00168497  0.83478741  1
  Te  Te210  1  0.66546972  0.33549689  0.16718994  1
  Te  Te211  1  0.66697318  0.33494552  0.49852309  1
  Te  Te212  1  0.66089196  0.33054986  0.83679650  1
  Te  Te213  1  0.67108547  0.65785765  0.16608723  1
  Te  Te214  1  0.66282512  0.66370379  0.49922813  1
  Te  Te215  1  0.66736088  0.67307068  0.83368387  1
