# generated using pymatgen
data_AgSbTe2
_symmetry_space_group_name_H-M   'P 1'
_cell_length_a   18.34359570
_cell_length_b   18.34467685
_cell_length_c   18.34299436
_cell_angle_alpha   90.00157880
_cell_angle_beta   89.99524437
_cell_angle_gamma   90.00163690
_symmetry_Int_Tables_number   1
_chemical_formula_structural   AgSbTe2
_chemical_formula_sum   'Ag54 Sb54 Te108'
_cell_volume   6172.55213019
_cell_formula_units_Z   54
loop_
 _symmetry_equiv_pos_site_id
 _symmetry_equiv_pos_as_xyz
  1  'x, y, z'
loop_
 _atom_site_type_symbol
 _atom_site_label
 _atom_site_symmetry_multiplicity
 _atom_site_fract_x
 _atom_site_fract_y
 _atom_site_fract_z
 _atom_site_occupancy
  Ag  Ag0  1  0.49697082  0.32968325  0.82387378  1
  Ag  Ag1  1  0.82344595  0.16292661  0.33660435  1
  Ag  Ag2  1  0.17636825  0.49485368  0.66309602  1
  Ag  Ag3  1  0.33406857  0.48490041  0.82700360  1
  Ag  Ag4  1  0.83359290  0.49984006  0.00060862  1
  Ag  Ag5  1  0.49436469  0.00367735  0.16262309  1
  Ag  Ag6  1  0.81900180  0.32994898  0.50664589  1
  Ag  Ag7  1  0.33461234  0.65652950  0.66695838  1
  Ag  Ag8  1  0.66082655  0.16824897  0.49883641  1
  Ag  Ag9  1  0.00202337  0.00405889  0.67000191  1
  Ag  Ag10  1  0.34264237  0.16101874  0.16398215  1
  Ag  Ag11  1  0.33637962  0.84345807  0.16197653  1
  Ag  Ag12  1  0.50096126  0.67794756  0.16535964  1
  Ag  Ag13  1  0.66607213  0.84100894  0.50113959  1
  Ag  Ag14  1  0.49515495  0.48325223  0.66659549  1
  Ag  Ag15  1  0.33016070  0.00237066  0.32057315  1
  Ag  Ag16  1  0.65536812  0.16434959  0.17350473  1
  Ag  Ag17  1  0.16853128  0.00013326  0.83741783  1
  Ag  Ag18  1  0.49880426  0.31839320  0.16626278  1
  Ag  Ag19  1  0.49726250  0.16298495  0.01222507  1
  Ag  Ag20  1  0.66545997  0.00076275  0.00233365  1
  Ag  Ag21  1  -0.00791349  0.83948185  0.16125388  1
  Ag  Ag22  1  0.84237570  0.83574667  0.00462782  1
  Ag  Ag23  1  -0.00273602  -0.00066657  0.00591989  1
  Ag  Ag24  1  0.50046343  0.16837572  0.66483553  1
  Ag  Ag25  1  0.65503407  0.32652120  0.65862367  1
  Ag  Ag26  1  0.49912945  0.84500368  0.00104781  1
  Ag  Ag27  1  0.33650132  0.16641943  0.83344503  1
  Ag  Ag28  1  0.65686769  0.01051296  0.66892392  1
  Ag  Ag29  1  0.82238094  0.16918080  0.66265339  1
  Ag  Ag30  1  0.66424064  0.32745429  0.34693644  1
  Ag  Ag31  1  0.00353782  -0.00148297  0.32187599  1
  Ag  Ag32  1  0.83666997  0.84524268  0.32151018  1
  Ag  Ag33  1  -0.00193107  0.68354244  0.00115468  1
  Ag  Ag34  1  0.50586555  0.32900034  0.51096286  1
  Ag  Ag35  1  0.49609456  0.83941917  0.67140687  1
  Ag  Ag36  1  0.82866395  0.32978954  0.82323859  1
  Ag  Ag37  1  0.34241636  0.16774216  0.50897506  1
  Ag  Ag38  1  0.00439010  0.83914556  0.84347223  1
  Ag  Ag39  1  0.83000300  0.68213840  0.16424791  1
  Ag  Ag40  1  0.50341353  0.16789391  0.32735175  1
  Ag  Ag41  1  0.17172980  -0.00145798  0.16356682  1
  Ag  Ag42  1  0.33868798  0.00595959  0.66826008  1
  Ag  Ag43  1  0.33729762  0.32482928  -0.01084936  1
  Ag  Ag44  1  0.34257505  0.32834049  0.66956843  1
  Ag  Ag45  1  0.16804694  0.50076405  0.34136321  1
  Ag  Ag46  1  0.66574522  0.48179141  0.50106179  1
  Ag  Ag47  1  0.18056805  0.16276753  0.00025300  1
  Ag  Ag48  1  0.33297576  0.84231933  0.83454616  1
  Ag  Ag49  1  0.83600807  -0.00158846  0.16680288  1
  Ag  Ag50  1  0.16927468  0.65863306  0.50049756  1
  Ag  Ag51  1  -0.00117460  0.32439496  0.66613338  1
  Ag  Ag52  1  0.17161574  0.33405165  0.50377042  1
  Ag  Ag53  1  0.16475587  0.83896062  0.33139842  1
  Sb  Sb54  1  -0.00148058  0.16698540  0.50217077  1
  Sb  Sb55  1  0.00025525  0.15843786  0.16673005  1
  Sb  Sb56  1  0.00230243  0.32584714  -0.00536473  1
  Sb  Sb57  1  0.17255661  0.32623709  0.17049891  1
  Sb  Sb58  1  0.83610424  0.66435805  0.83857844  1
  Sb  Sb59  1  0.00034859  0.49777925  0.50104609  1
  Sb  Sb60  1  0.66671684  0.84340896  0.16929914  1
  Sb  Sb61  1  0.66922992  0.67413786  0.00333834  1
  Sb  Sb62  1  0.66235229  0.49506346  0.82934195  1
  Sb  Sb63  1  0.82829974  0.16245989  -0.00043321  1
  Sb  Sb64  1  0.17071712  0.16273223  0.33077446  1
  Sb  Sb65  1  0.50109492  0.00942864  0.50066215  1
  Sb  Sb66  1  -0.00342504  0.32569786  0.33775693  1
  Sb  Sb67  1  -0.00171887  0.83545446  0.49862892  1
  Sb  Sb68  1  0.16853760  0.00341704  0.49975337  1
  Sb  Sb69  1  0.16780566  0.84145138  0.00360565  1
  Sb  Sb70  1  0.83840594  0.00394283  0.83629934  1
  Sb  Sb71  1  0.33679863  0.84018219  0.50120919  1
  Sb  Sb72  1  0.33330691  0.00634366  0.00043508  1
  Sb  Sb73  1  0.49259761  0.00656671  0.83519948  1
  Sb  Sb74  1  0.82890102  0.32644171  0.16732850  1
  Sb  Sb75  1  0.00480303  0.50105660  0.83185939  1
  Sb  Sb76  1  0.82973045  0.84246055  0.66847947  1
  Sb  Sb77  1  0.66044576  0.66540919  0.66390331  1
  Sb  Sb78  1  0.17214055  0.32800223  0.82678507  1
  Sb  Sb79  1  0.00102601  0.67535439  0.32826933  1
  Sb  Sb80  1  0.00526471  0.67006181  0.67041021  1
  Sb  Sb81  1  0.66092226  0.32619663  -0.00241072  1
  Sb  Sb82  1  0.66288379  0.83703358  0.83225927  1
  Sb  Sb83  1  0.49659493  0.66554121  0.83537799  1
  Sb  Sb84  1  -0.00008374  0.50848152  0.16546726  1
  Sb  Sb85  1  0.66476164  0.49224808  0.17008581  1
  Sb  Sb86  1  0.49600994  0.66305423  0.49919600  1
  Sb  Sb87  1  0.83064057  0.48963839  0.66999072  1
  Sb  Sb88  1  0.33487365  0.49739547  0.16368966  1
  Sb  Sb89  1  0.83128647  0.00651920  0.49610419  1
  Sb  Sb90  1  0.16566300  0.49410621  -0.00223544  1
  Sb  Sb91  1  0.83558657  0.66377953  0.49618733  1
  Sb  Sb92  1  0.66582048  0.00697530  0.33236151  1
  Sb  Sb93  1  0.66597505  0.66561783  0.33193323  1
  Sb  Sb94  1  0.16817526  0.67595849  0.16985516  1
  Sb  Sb95  1  0.17282996  0.83426550  0.66337332  1
  Sb  Sb96  1  0.16968586  0.67229826  0.83071627  1
  Sb  Sb97  1  0.17387452  0.16887506  0.66771790  1
  Sb  Sb98  1  0.33244358  0.67323953  0.33683288  1
  Sb  Sb99  1  0.33000476  0.66717975  -0.00281420  1
  Sb  Sb100  1  0.49588491  0.49146141  0.33740810  1
  Sb  Sb101  1  0.50094461  0.84260828  0.33168142  1
  Sb  Sb102  1  0.66029803  0.16638642  0.82861247  1
  Sb  Sb103  1  0.33803386  0.32483794  0.33815954  1
  Sb  Sb104  1  0.00544910  0.16109924  0.83096584  1
  Sb  Sb105  1  0.33495782  0.49115782  0.50643333  1
  Sb  Sb106  1  0.50283975  0.49585873  -0.00326504  1
  Sb  Sb107  1  0.83575731  0.49659504  0.33083432  1
  Te  Te108  1  0.16915548  0.16009451  0.16291850  1
  Te  Te109  1  0.17086174  0.17166799  0.49893548  1
  Te  Te110  1  0.17242910  0.16133047  0.83767529  1
  Te  Te111  1  0.16731987  0.50089349  0.16944066  1
  Te  Te112  1  0.16748942  0.49841653  0.50214967  1
  Te  Te113  1  0.17263562  0.50086617  0.82904175  1
  Te  Te114  1  0.17163071  0.83778170  0.17087537  1
  Te  Te115  1  0.16741740  0.83249557  0.49297481  1
  Te  Te116  1  0.16888670  0.83878530  0.83238099  1
  Te  Te117  1  0.49962441  0.16292069  0.16770772  1
  Te  Te118  1  0.50042032  0.16893187  0.50427843  1
  Te  Te119  1  0.49549395  0.17128088  0.82456517  1
  Te  Te120  1  0.49986407  0.50394025  0.16679399  1
  Te  Te121  1  0.50399324  0.49546157  0.50390310  1
  Te  Te122  1  0.49510195  0.49600935  0.82864318  1
  Te  Te123  1  0.49988680  0.83764632  0.16616500  1
  Te  Te124  1  0.50423461  0.83133734  0.50022337  1
  Te  Te125  1  0.49558734  0.83313613  0.83605161  1
  Te  Te126  1  0.83227024  0.16090619  0.16915268  1
  Te  Te127  1  0.83257189  0.17106497  0.50080871  1
  Te  Te128  1  0.83429349  0.17121903  0.83064830  1
  Te  Te129  1  0.83312354  0.49861808  0.16209939  1
  Te  Te130  1  0.82845409  0.49509878  0.49913115  1
  Te  Te131  1  0.83442428  0.49534391  0.83781010  1
  Te  Te132  1  0.83051782  0.83806346  0.16501489  1
  Te  Te133  1  0.82916007  0.83037223  0.49886708  1
  Te  Te134  1  0.83592928  0.83279136  0.83866675  1
  Te  Te135  1  0.16288200  0.00272238  0.00072760  1
  Te  Te136  1  0.16641384  -0.00136653  0.33221129  1
  Te  Te137  1  0.16497608  0.00112028  0.66782533  1
  Te  Te138  1  0.17153805  0.32591972  0.00081331  1
  Te  Te139  1  0.16574512  0.33528904  0.33812792  1
  Te  Te140  1  0.16172991  0.33486743  0.66478882  1
  Te  Te141  1  0.15992152  0.66277434  0.00168944  1
  Te  Te142  1  0.16640316  0.66588933  0.33732124  1
  Te  Te143  1  0.17193762  0.66296525  0.66323133  1
  Te  Te144  1  0.50201165  0.00258750  0.00023447  1
  Te  Te145  1  0.49608367  0.00646710  0.32849358  1
  Te  Te146  1  0.49967601  -0.00010829  0.66780837  1
  Te  Te147  1  0.49672180  0.33097308  0.00379021  1
  Te  Te148  1  0.50317407  0.32887265  0.32817515  1
  Te  Te149  1  0.49845685  0.32876148  0.66730417  1
  Te  Te150  1  0.50025771  0.66626800  0.00444571  1
  Te  Te151  1  0.49893917  0.66497672  0.32751320  1
  Te  Te152  1  0.49344651  0.67637886  0.66665281  1
  Te  Te153  1  0.83297060  -0.00251612  0.00255179  1
  Te  Te154  1  0.83176496  0.00181488  0.33122257  1
  Te  Te155  1  0.83583810  0.00620391  0.66656257  1
  Te  Te156  1  0.83273086  0.33348411  -0.00208361  1
  Te  Te157  1  0.82972095  0.32870841  0.33648973  1
  Te  Te158  1  0.83727158  0.33045895  0.66563331  1
  Te  Te159  1  0.83563440  0.67308122  0.00396205  1
  Te  Te160  1  0.83399943  0.66715792  0.32656045  1
  Te  Te161  1  0.83464566  0.66556606  0.66653026  1
  Te  Te162  1  -0.00005707  0.15940673  -0.00098056  1
  Te  Te163  1  -0.00466512  0.15874599  0.33448155  1
  Te  Te164  1  -0.00212927  0.16609539  0.66739065  1
  Te  Te165  1  -0.00437667  0.49658086  -0.00134653  1
  Te  Te166  1  0.00573860  0.49946581  0.33251032  1
  Te  Te167  1  0.00279999  0.50106869  0.66767979  1
  Te  Te168  1  0.00331193  0.83963685  0.00166032  1
  Te  Te169  1  -0.00284589  0.83934285  0.33168831  1
  Te  Te170  1  -0.00012030  0.83701576  0.66969855  1
  Te  Te171  1  0.33765800  0.16838736  0.00029051  1
  Te  Te172  1  0.33571703  0.16160995  0.32765324  1
  Te  Te173  1  0.33402785  0.16790079  0.66821811  1
  Te  Te174  1  0.33322143  0.49628524  -0.00687892  1
  Te  Te175  1  0.32787579  0.50092430  0.33377982  1
  Te  Te176  1  0.33486814  0.49779121  0.66735214  1
  Te  Te177  1  0.33618462  0.83019407  0.00004791  1
  Te  Te178  1  0.33214120  0.84053185  0.33056531  1
  Te  Te179  1  0.33598845  0.84333843  0.66724087  1
  Te  Te180  1  0.66070673  0.16051810  0.00157437  1
  Te  Te181  1  0.66507716  0.16718476  0.33597089  1
  Te  Te182  1  0.66602235  0.16716494  0.66729047  1
  Te  Te183  1  0.67227189  0.50017524  -0.00003632  1
  Te  Te184  1  0.66653238  0.49328612  0.33847147  1
  Te  Te185  1  0.66253968  0.49774690  0.66209955  1
  Te  Te186  1  0.65992950  0.84074393  -0.00051129  1
  Te  Te187  1  0.67048659  0.83401753  0.33842847  1
  Te  Te188  1  0.66156675  0.83311625  0.66420120  1
  Te  Te189  1  0.00003383  -0.00344917  0.16622348  1
  Te  Te190  1  -0.00014372  -0.00042321  0.50893245  1
  Te  Te191  1  0.00450498  -0.00339481  0.83076279  1
  Te  Te192  1  0.00092636  0.33468164  0.16651075  1
  Te  Te193  1  0.00766311  0.33341775  0.50503143  1
  Te  Te194  1  -0.00253870  0.33340252  0.82801755  1
  Te  Te195  1  -0.00367532  0.67510318  0.16168423  1
  Te  Te196  1  0.00684486  0.66683990  0.50062912  1
  Te  Te197  1  0.00184166  0.67395497  0.83931680  1
  Te  Te198  1  0.33314720  0.00045750  0.16326847  1
  Te  Te199  1  0.33429278  0.00704175  0.50718516  1
  Te  Te200  1  0.33007227  0.00144699  0.83081704  1
  Te  Te201  1  0.33744702  0.33008852  0.16774774  1
  Te  Te202  1  0.33383997  0.32770302  0.50367039  1
  Te  Te203  1  0.33387140  0.32867995  0.83063984  1
  Te  Te204  1  0.33665619  0.66916581  0.16664761  1
  Te  Te205  1  0.32946228  0.66968537  0.50477745  1
  Te  Te206  1  0.33314217  0.67503455  0.82726495  1
  Te  Te207  1  0.66580176  0.00510432  0.16597746  1
  Te  Te208  1  0.66717200  0.00229470  0.50688763  1
  Te  Te209  1  0.66901544  -0.00042807  0.82927269  1
  Te  Te210  1  0.66187115  0.32539398  0.16536904  1
  Te  Te211  1  0.66357999  0.32560270  0.50278342  1
  Te  Te212  1  0.66573091  0.33304087  0.82892886  1
  Te  Te213  1  0.66705153  0.66295943  0.16761272  1
  Te  Te214  1  0.66646875  0.66976905  0.49866718  1
  Te  Te215  1  0.66690232  0.66505756  0.83378477  1
