# generated using pymatgen
data_AgSbTe2
_symmetry_space_group_name_H-M   'P 1'
_cell_length_a   18.31923879
_cell_length_b   18.31972236
_cell_length_c   18.32389441
_cell_angle_alpha   90.00019888
_cell_angle_beta   89.99779425
_cell_angle_gamma   90.00378814
_symmetry_Int_Tables_number   1
_chemical_formula_structural   AgSbTe2
_chemical_formula_sum   'Ag54 Sb54 Te108'
_cell_volume   6149.56066930
_cell_formula_units_Z   54
loop_
 _symmetry_equiv_pos_site_id
 _symmetry_equiv_pos_as_xyz
  1  'x, y, z'
loop_
 _atom_site_type_symbol
 _atom_site_label
 _atom_site_symmetry_multiplicity
 _atom_site_fract_x
 _atom_site_fract_y
 _atom_site_fract_z
 _atom_site_occupancy
  Ag  Ag0  1  0.50943164  0.33346286  0.83351918  1
  Ag  Ag1  1  0.66692114  0.00042019  -0.01076461  1
  Ag  Ag2  1  0.33868542  -0.00911988  0.66515016  1
  Ag  Ag3  1  0.33198526  0.16698228  0.16614600  1
  Ag  Ag4  1  0.66747907  0.32992761  0.67247530  1
  Ag  Ag5  1  0.17586795  0.83637982  0.67329793  1
  Ag  Ag6  1  0.33596776  0.50487101  0.16358985  1
  Ag  Ag7  1  0.66687169  0.66603156  0.33201441  1
  Ag  Ag8  1  0.16387074  0.33578066  0.83512988  1
  Ag  Ag9  1  0.16678367  0.33049432  0.51022281  1
  Ag  Ag10  1  0.33194162  0.67772928  0.66764775  1
  Ag  Ag11  1  0.83100369  0.17410169  0.00164973  1
  Ag  Ag12  1  0.32631272  0.83133055  0.16344579  1
  Ag  Ag13  1  -0.00044306  0.33303781  0.32157096  1
  Ag  Ag14  1  0.16452739  0.67566332  0.83677028  1
  Ag  Ag15  1  0.00201461  0.33269193  0.67642825  1
  Ag  Ag16  1  0.82958385  0.33210670  0.83829011  1
  Ag  Ag17  1  -0.00041370  0.66622245  0.00021360  1
  Ag  Ag18  1  0.65893070  0.83524912  0.50221329  1
  Ag  Ag19  1  0.33424516  0.83886290  0.51187312  1
  Ag  Ag20  1  0.83268477  0.83544397  0.33194177  1
  Ag  Ag21  1  0.83385495  0.66494461  0.15872815  1
  Ag  Ag22  1  0.48930746  0.83558940  0.67295197  1
  Ag  Ag23  1  0.17041705  -0.00926611  0.16617604  1
  Ag  Ag24  1  0.83600809  0.66936953  0.84022916  1
  Ag  Ag25  1  0.50175334  0.50452312  0.67144188  1
  Ag  Ag26  1  0.66901217  0.16874356  0.83547575  1
  Ag  Ag27  1  0.49222693  0.83022635  -0.00624809  1
  Ag  Ag28  1  0.83831870  0.33375849  0.15568818  1
  Ag  Ag29  1  0.82399188  0.00012476  0.83214984  1
  Ag  Ag30  1  0.00786189  0.83053713  0.83812350  1
  Ag  Ag31  1  0.50393201  0.50274241  -0.00280343  1
  Ag  Ag32  1  0.66355093  0.50428048  0.50637412  1
  Ag  Ag33  1  0.33014439  0.15626581  0.50310869  1
  Ag  Ag34  1  0.16959315  0.16330394  0.66569899  1
  Ag  Ag35  1  0.16950500  0.67560097  0.50742279  1
  Ag  Ag36  1  0.67084218  0.16705090  0.15772907  1
  Ag  Ag37  1  0.82837226  -0.00062725  0.50553591  1
  Ag  Ag38  1  0.65864217  0.00184896  0.67145675  1
  Ag  Ag39  1  0.82770483  0.49263947  -0.00163177  1
  Ag  Ag40  1  0.49652117  -0.00477610  0.50989600  1
  Ag  Ag41  1  0.50282381  0.50148124  0.32956376  1
  Ag  Ag42  1  0.17167885  0.83084398  -0.00348915  1
  Ag  Ag43  1  0.50547432  -0.00182604  0.82916642  1
  Ag  Ag44  1  0.00918528  0.82924075  0.15825302  1
  Ag  Ag45  1  0.32695253  0.33346220  0.00052864  1
  Ag  Ag46  1  0.16370051  0.33276775  0.15990860  1
  Ag  Ag47  1  0.66488894  0.49278634  0.83100583  1
  Ag  Ag48  1  0.32941771  0.83293473  0.82482106  1
  Ag  Ag49  1  0.16983066  0.67555771  0.16103982  1
  Ag  Ag50  1  0.49492810  0.66600506  0.16432301  1
  Ag  Ag51  1  0.83131053  0.16515971  0.32560634  1
  Ag  Ag52  1  0.17525252  -0.00308250  0.50563159  1
  Ag  Ag53  1  -0.00106241  0.33825677  -0.00190767  1
  Sb  Sb54  1  -0.00110292  0.00145930  0.33194687  1
  Sb  Sb55  1  0.00013813  0.16723206  0.16590216  1
  Sb  Sb56  1  0.49590535  -0.00482431  0.16396079  1
  Sb  Sb57  1  0.33653077  -0.00090049  -0.00376572  1
  Sb  Sb58  1  0.50390317  0.17137038  0.33228110  1
  Sb  Sb59  1  0.16844932  0.50209834  0.00008397  1
  Sb  Sb60  1  0.32907164  0.33312423  0.32710378  1
  Sb  Sb61  1  0.50265492  0.82962589  0.33402100  1
  Sb  Sb62  1  0.33374786  0.33209465  0.67300471  1
  Sb  Sb63  1  0.83287610  0.83463482  0.66612224  1
  Sb  Sb64  1  0.33700654  0.50117886  0.49819849  1
  Sb  Sb65  1  0.83449172  0.67073029  0.50006178  1
  Sb  Sb66  1  -0.00487835  0.16709966  0.83400843  1
  Sb  Sb67  1  0.82537897  0.49871226  0.67423631  1
  Sb  Sb68  1  -0.00350538  0.66455499  0.32613225  1
  Sb  Sb69  1  0.66371773  0.16305424  0.50303695  1
  Sb  Sb70  1  0.66353957  0.49717788  0.16246671  1
  Sb  Sb71  1  0.16813687  -0.00321897  0.83183622  1
  Sb  Sb72  1  0.49916231  0.33798587  0.15860057  1
  Sb  Sb73  1  0.49613368  0.33149171  0.50728473  1
  Sb  Sb74  1  0.50429277  0.16714465  -0.00146686  1
  Sb  Sb75  1  -0.00530393  0.50071248  0.83570687  1
  Sb  Sb76  1  -0.00317197  0.49857639  0.50144544  1
  Sb  Sb77  1  0.83460320  0.83323086  0.00124385  1
  Sb  Sb78  1  0.49646979  0.16081847  0.66788250  1
  Sb  Sb79  1  0.33322903  -0.00080578  0.33996651  1
  Sb  Sb80  1  0.33619500  0.16396461  0.83333181  1
  Sb  Sb81  1  0.33646280  0.66794946  0.33213568  1
  Sb  Sb82  1  0.83698737  0.32975397  0.50169583  1
  Sb  Sb83  1  0.83525828  0.00044835  0.16379528  1
  Sb  Sb84  1  0.66978315  0.66981154  0.00157733  1
  Sb  Sb85  1  0.16380118  0.83303080  0.33146350  1
  Sb  Sb86  1  -0.00280780  -0.00236900  -0.00114862  1
  Sb  Sb87  1  0.49657810  0.67034703  0.49891389  1
  Sb  Sb88  1  0.17114966  0.49942549  0.33136168  1
  Sb  Sb89  1  0.83421508  0.16634361  0.66933035  1
  Sb  Sb90  1  0.17350575  0.50090487  0.66844308  1
  Sb  Sb91  1  0.00229299  0.00174542  0.66837732  1
  Sb  Sb92  1  0.33879462  0.50276386  0.83757399  1
  Sb  Sb93  1  0.67059593  0.33677091  0.33650017  1
  Sb  Sb94  1  0.00447962  0.83367490  0.50202583  1
  Sb  Sb95  1  0.66213248  0.66834020  0.66521707  1
  Sb  Sb96  1  0.49958969  0.66818801  0.83678952  1
  Sb  Sb97  1  0.16335253  0.16672094  -0.00187873  1
  Sb  Sb98  1  0.66972020  0.32994053  -0.00661634  1
  Sb  Sb99  1  0.66407471  0.83562673  0.82991423  1
  Sb  Sb100  1  0.82855926  0.50009434  0.32657852  1
  Sb  Sb101  1  0.00682809  0.66440353  0.67376553  1
  Sb  Sb102  1  0.00416115  0.50117926  0.16349820  1
  Sb  Sb103  1  0.16354568  0.16885401  0.33526542  1
  Sb  Sb104  1  0.32950836  0.66724004  -0.00112258  1
  Sb  Sb105  1  0.66645249  0.83494361  0.16807877  1
  Sb  Sb106  1  0.00503977  0.16724567  0.50044735  1
  Sb  Sb107  1  0.66851832  -0.00350975  0.33646305  1
  Te  Te108  1  0.16953637  0.17113645  0.16642077  1
  Te  Te109  1  0.17087673  0.16582128  0.50152002  1
  Te  Te110  1  0.16678996  0.16851594  0.82924916  1
  Te  Te111  1  0.17358861  0.49525330  0.16609360  1
  Te  Te112  1  0.16716390  0.49747014  0.49949657  1
  Te  Te113  1  0.16826407  0.49667172  0.83385071  1
  Te  Te114  1  0.16546272  0.83284193  0.16762161  1
  Te  Te115  1  0.17026543  0.83470485  0.49863960  1
  Te  Te116  1  0.16813932  0.83504379  0.83491007  1
  Te  Te117  1  0.49769644  0.16620618  0.16698271  1
  Te  Te118  1  0.49230918  0.16235355  0.49893934  1
  Te  Te119  1  0.50486624  0.16741171  0.83344454  1
  Te  Te120  1  0.49794856  0.50371837  0.16144559  1
  Te  Te121  1  0.50412912  0.50009251  0.50416558  1
  Te  Te122  1  0.50382170  0.50110693  0.83518144  1
  Te  Te123  1  0.49829118  0.82806578  0.16508655  1
  Te  Te124  1  0.49788365  0.83534555  0.50071102  1
  Te  Te125  1  0.49750387  0.83406033  0.83367662  1
  Te  Te126  1  0.83341314  0.16741500  0.16463366  1
  Te  Te127  1  0.83253927  0.16055310  0.49842128  1
  Te  Te128  1  0.82967091  0.16704773  0.83464331  1
  Te  Te129  1  0.83251962  0.50008020  0.16101757  1
  Te  Te130  1  0.82449540  0.50077135  0.50002272  1
  Te  Te131  1  0.82838954  0.49723638  0.83812433  1
  Te  Te132  1  0.83348638  0.83141525  0.16933391  1
  Te  Te133  1  0.83380188  0.83646287  0.49712394  1
  Te  Te134  1  0.83523305  0.83264874  0.83326573  1
  Te  Te135  1  0.16625678  -0.00415748  0.00371937  1
  Te  Te136  1  0.16533692  0.00147739  0.33360416  1
  Te  Te137  1  0.16760172  -0.00111995  0.66506632  1
  Te  Te138  1  0.16485126  0.33399363  -0.00119091  1
  Te  Te139  1  0.16051312  0.33385067  0.32781291  1
  Te  Te140  1  0.16733144  0.33432768  0.66928869  1
  Te  Te141  1  0.16289319  0.66800963  -0.00032274  1
  Te  Te142  1  0.16505239  0.66482469  0.32809969  1
  Te  Te143  1  0.17041021  0.66856290  0.66922394  1
  Te  Te144  1  0.50421736  -0.00346366  -0.00396601  1
  Te  Te145  1  0.50134346  0.00146940  0.33944103  1
  Te  Te146  1  0.49940356  -0.00177423  0.66772142  1
  Te  Te147  1  0.49749425  0.33602295  -0.00650773  1
  Te  Te148  1  0.50115305  0.34019552  0.33456352  1
  Te  Te149  1  0.50317899  0.33500864  0.67289246  1
  Te  Te150  1  0.50045125  0.66835879  0.00380607  1
  Te  Te151  1  0.50482391  0.66228131  0.32932383  1
  Te  Te152  1  0.49517885  0.67076017  0.66741776  1
  Te  Te153  1  0.82943465  0.00272285  -0.00431777  1
  Te  Te154  1  0.83367174  0.00038983  0.33472204  1
  Te  Te155  1  0.83200587  0.00068635  0.66798645  1
  Te  Te156  1  0.83225720  0.33356392  -0.00065599  1
  Te  Te157  1  0.83809846  0.33096808  0.33329857  1
  Te  Te158  1  0.83256177  0.33282549  0.67117886  1
  Te  Te159  1  0.83648563  0.66746786  -0.00013024  1
  Te  Te160  1  0.82964362  0.66861495  0.33135049  1
  Te  Te161  1  0.83626570  0.66593001  0.67337516  1
  Te  Te162  1  -0.00659753  0.17241097  -0.00016303  1
  Te  Te163  1  -0.00792507  0.17259438  0.33352351  1
  Te  Te164  1  0.00804847  0.17296036  0.66723641  1
  Te  Te165  1  -0.00650770  0.50029410  0.00019273  1
  Te  Te166  1  -0.00191479  0.49229925  0.33363472  1
  Te  Te167  1  -0.00045599  0.49213300  0.66724513  1
  Te  Te168  1  0.00178385  0.83129378  -0.00109930  1
  Te  Te169  1  -0.00723712  0.83213769  0.33058949  1
  Te  Te170  1  0.00610078  0.83279172  0.67208661  1
  Te  Te171  1  0.33224773  0.17036609  0.00397129  1
  Te  Te172  1  0.33447310  0.16649349  0.32930011  1
  Te  Te173  1  0.32859406  0.16480725  0.66463841  1
  Te  Te174  1  0.33739474  0.49592938  0.00363235  1
  Te  Te175  1  0.34235801  0.50037900  0.32734495  1
  Te  Te176  1  0.34214590  0.50188875  0.66639330  1
  Te  Te177  1  0.33242165  0.83400497  0.00339361  1
  Te  Te178  1  0.33419074  0.83298967  0.32470354  1
  Te  Te179  1  0.33262011  0.83404629  0.66760178  1
  Te  Te180  1  0.67009505  0.16280883  -0.00185310  1
  Te  Te181  1  0.67162482  0.16812214  0.33168595  1
  Te  Te182  1  0.66620319  0.16596775  0.67105515  1
  Te  Te183  1  0.66534619  0.50187080  -0.00464246  1
  Te  Te184  1  0.66202202  0.50349651  0.33594100  1
  Te  Te185  1  0.66055070  0.50138073  0.66796912  1
  Te  Te186  1  0.66104819  0.83926583  0.00009466  1
  Te  Te187  1  0.67049676  0.82951192  0.33774752  1
  Te  Te188  1  0.66543513  0.83663014  0.66103493  1
  Te  Te189  1  0.00726592  -0.00671746  0.16606780  1
  Te  Te190  1  -0.00268609  -0.00032825  0.49997881  1
  Te  Te191  1  -0.00622004  -0.00583050  0.83364388  1
  Te  Te192  1  -0.00111380  0.33405157  0.16217520  1
  Te  Te193  1  0.00635644  0.33427315  0.50576588  1
  Te  Te194  1  0.00066084  0.33343040  0.83620728  1
  Te  Te195  1  -0.00032680  0.66791722  0.16266640  1
  Te  Te196  1  0.00838117  0.66577463  0.49899008  1
  Te  Te197  1  0.00201781  0.66827973  0.83790377  1
  Te  Te198  1  0.33029870  0.00011761  0.16609048  1
  Te  Te199  1  0.33295790  -0.00114276  0.50319519  1
  Te  Te200  1  0.33817726  -0.00344077  0.82836342  1
  Te  Te201  1  0.33277311  0.33088180  0.16248089  1
  Te  Te202  1  0.32682138  0.33249160  0.49859770  1
  Te  Te203  1  0.32929089  0.33215618  0.83899126  1
  Te  Te204  1  0.33150594  0.66736167  0.16600600  1
  Te  Te205  1  0.32840435  0.66902598  0.50151791  1
  Te  Te206  1  0.32927635  0.67086654  0.83096360  1
  Te  Te207  1  0.66545194  0.00612435  0.16547583  1
  Te  Te208  1  0.66733806  -0.00171903  0.50353715  1
  Te  Te209  1  0.66615800  -0.00222225  0.83088703  1
  Te  Te210  1  0.66997869  0.32811082  0.16864586  1
  Te  Te211  1  0.66638426  0.33355182  0.50785629  1
  Te  Te212  1  0.66813027  0.33198493  0.83170354  1
  Te  Te213  1  0.67057740  0.66603556  0.16976153  1
  Te  Te214  1  0.66765489  0.66891032  0.49754285  1
  Te  Te215  1  0.67347420  0.66360210  0.83304355  1
