# generated using pymatgen
data_AgSbTe2
_symmetry_space_group_name_H-M   'P 1'
_cell_length_a   18.35761644
_cell_length_b   18.35939015
_cell_length_c   18.35238455
_cell_angle_alpha   89.99918986
_cell_angle_beta   90.00106307
_cell_angle_gamma   90.00237766
_symmetry_Int_Tables_number   1
_chemical_formula_structural   AgSbTe2
_chemical_formula_sum   'Ag54 Sb54 Te108'
_cell_volume   6185.38935883
_cell_formula_units_Z   54
loop_
 _symmetry_equiv_pos_site_id
 _symmetry_equiv_pos_as_xyz
  1  'x, y, z'
loop_
 _atom_site_type_symbol
 _atom_site_label
 _atom_site_symmetry_multiplicity
 _atom_site_fract_x
 _atom_site_fract_y
 _atom_site_fract_z
 _atom_site_occupancy
  Ag  Ag0  1  0.00352513  0.50403609  0.17212279  1
  Ag  Ag1  1  0.49886171  0.17229597  0.33627363  1
  Ag  Ag2  1  0.00413063  0.16782229  0.82617061  1
  Ag  Ag3  1  0.66592203  0.15458759  0.49903096  1
  Ag  Ag4  1  0.33172020  0.00488094  0.00676562  1
  Ag  Ag5  1  0.00572663  0.51074626  0.50033358  1
  Ag  Ag6  1  0.49705767  0.49794403  0.33477106  1
  Ag  Ag7  1  0.00128315  0.51019864  0.83093333  1
  Ag  Ag8  1  0.16563522  0.16367612  0.66411113  1
  Ag  Ag9  1  0.00223089  -0.00434640  0.66299971  1
  Ag  Ag10  1  0.17011799  0.50086536  0.34351327  1
  Ag  Ag11  1  0.48980930  -0.00648476  0.49874976  1
  Ag  Ag12  1  0.66654315  0.33433122  0.00688595  1
  Ag  Ag13  1  0.83615658  0.67176394  0.50080759  1
  Ag  Ag14  1  0.00568355  0.33764032  -0.00117675  1
  Ag  Ag15  1  0.00121884  0.66934121  0.66279707  1
  Ag  Ag16  1  0.67510662  0.83193777  0.17399727  1
  Ag  Ag17  1  0.33235953  -0.00638752  0.34134970  1
  Ag  Ag18  1  0.83574474  -0.00572718  0.50025941  1
  Ag  Ag19  1  -0.00077565  0.16184616  0.16668971  1
  Ag  Ag20  1  0.32340627  0.16512344  0.82236112  1
  Ag  Ag21  1  0.16008118  0.65857575  0.82288255  1
  Ag  Ag22  1  0.32596466  0.16232712  0.50069815  1
  Ag  Ag23  1  0.84124007  0.66743455  0.82656015  1
  Ag  Ag24  1  0.16688723  0.34311919  0.50533141  1
  Ag  Ag25  1  0.67887673  0.50120757  0.82976203  1
  Ag  Ag26  1  0.31933660  0.51604218  0.49273027  1
  Ag  Ag27  1  0.83795973  -0.00907359  0.17570953  1
  Ag  Ag28  1  0.16599574  0.82760222  0.66236502  1
  Ag  Ag29  1  -0.00232779  0.82900645  0.17143075  1
  Ag  Ag30  1  0.32285499  0.83045556  0.49687087  1
  Ag  Ag31  1  0.16504200  -0.00184637  0.50239951  1
  Ag  Ag32  1  0.67618602  -0.00841436  0.66028770  1
  Ag  Ag33  1  0.66826898  0.83177982  0.49798329  1
  Ag  Ag34  1  0.33727719  0.66169065  0.34066234  1
  Ag  Ag35  1  0.84352487  -0.00398202  0.82356866  1
  Ag  Ag36  1  0.16371591  0.33203386  0.82537790  1
  Ag  Ag37  1  0.83777240  0.50341559  0.33476910  1
  Ag  Ag38  1  0.49929443  0.33427253  0.16958331  1
  Ag  Ag39  1  0.32995844  0.82839307  0.17627271  1
  Ag  Ag40  1  0.16572649  0.51211424  0.65830253  1
  Ag  Ag41  1  0.00676458  0.15977371  0.50475794  1
  Ag  Ag42  1  -0.00127262  0.66108339  -0.00949716  1
  Ag  Ag43  1  0.17713498  0.65511315  0.50881574  1
  Ag  Ag44  1  0.83743385  0.66949973  0.17805318  1
  Ag  Ag45  1  0.48857351  0.67327081  0.49811262  1
  Ag  Ag46  1  0.31554847  0.66562536  0.65346627  1
  Ag  Ag47  1  0.32562804  0.33123835  0.00157518  1
  Ag  Ag48  1  0.66478374  0.66352498  0.34037223  1
  Ag  Ag49  1  0.66297095  0.34441675  0.33377901  1
  Ag  Ag50  1  0.16219708  0.00712194  0.82198858  1
  Ag  Ag51  1  0.00715763  0.82848313  0.49844552  1
  Ag  Ag52  1  0.32538513  0.50689900  0.17617271  1
  Ag  Ag53  1  0.67067232  0.67018748  0.65470682  1
  Sb  Sb54  1  0.16653560  0.16668264  -0.00779420  1
  Sb  Sb55  1  0.66804111  0.50691665  0.50021426  1
  Sb  Sb56  1  0.32503994  0.66510199  0.00187268  1
  Sb  Sb57  1  0.67007684  0.16421507  0.17228595  1
  Sb  Sb58  1  0.49510330  0.16348883  0.65794593  1
  Sb  Sb59  1  0.50069059  0.66471596  0.82442710  1
  Sb  Sb60  1  0.83278660  0.82799484  0.33540515  1
  Sb  Sb61  1  0.49602045  0.33363957  0.49402925  1
  Sb  Sb62  1  0.50058951  0.00203345  0.17502907  1
  Sb  Sb63  1  0.66455669  0.00291702  -0.00176284  1
  Sb  Sb64  1  0.16401099  -0.00149660  0.17035932  1
  Sb  Sb65  1  0.49513989  0.33369657  0.84145299  1
  Sb  Sb66  1  0.83801917  0.33482718  0.49918858  1
  Sb  Sb67  1  0.83614493  0.83207967  0.00289200  1
  Sb  Sb68  1  0.00321924  0.00113618  0.34227230  1
  Sb  Sb69  1  0.84042393  0.33550153  0.83523197  1
  Sb  Sb70  1  0.00128260  0.83055640  0.82856522  1
  Sb  Sb71  1  0.83615416  0.16641654  0.00032457  1
  Sb  Sb72  1  0.50022402  0.49906942  0.00563650  1
  Sb  Sb73  1  0.66980945  0.82865516  0.82718172  1
  Sb  Sb74  1  0.16318633  0.50031843  -0.00216188  1
  Sb  Sb75  1  0.00337250  -0.00055137  -0.00373072  1
  Sb  Sb76  1  0.83304787  0.33517712  0.16797519  1
  Sb  Sb77  1  0.32856888  0.16700775  0.17217538  1
  Sb  Sb78  1  0.83658778  0.50139188  0.00257635  1
  Sb  Sb79  1  0.32893443  0.33619626  0.66596633  1
  Sb  Sb80  1  0.49734735  0.16745218  0.00534501  1
  Sb  Sb81  1  0.49548574  0.50284024  0.65986655  1
  Sb  Sb82  1  0.16931422  0.17135578  0.34260323  1
  Sb  Sb83  1  0.33596687  0.33878690  0.33275918  1
  Sb  Sb84  1  0.16138153  0.66683015  0.17283336  1
  Sb  Sb85  1  0.84120147  0.16137884  0.66413235  1
  Sb  Sb86  1  0.50264282  0.66394137  0.17410486  1
  Sb  Sb87  1  -0.00182146  0.33698121  0.33244412  1
  Sb  Sb88  1  0.49845172  0.83108371  0.33817275  1
  Sb  Sb89  1  0.49767326  0.83375923  0.00423295  1
  Sb  Sb90  1  0.32693482  0.49717010  0.83121356  1
  Sb  Sb91  1  0.32969577  0.83724181  0.82969471  1
  Sb  Sb92  1  0.83056925  0.16941287  0.33548892  1
  Sb  Sb93  1  0.66536137  0.33638063  0.66142050  1
  Sb  Sb94  1  0.66462715  -0.00301603  0.34252326  1
  Sb  Sb95  1  0.16814242  0.82789402  0.34311188  1
  Sb  Sb96  1  0.84006620  0.50501849  0.66290905  1
  Sb  Sb97  1  0.49640038  0.00280017  0.82457182  1
  Sb  Sb98  1  0.66892420  0.50232478  0.16871433  1
  Sb  Sb99  1  0.83972397  0.83231261  0.66235703  1
  Sb  Sb100  1  0.16431990  0.83394863  -0.00347724  1
  Sb  Sb101  1  0.67019734  0.17037127  0.82653266  1
  Sb  Sb102  1  0.49522496  0.83400247  0.66124395  1
  Sb  Sb103  1  0.32325751  -0.00438379  0.65928008  1
  Sb  Sb104  1  -0.00078154  0.66413606  0.34195332  1
  Sb  Sb105  1  0.00460914  0.33546527  0.66842106  1
  Sb  Sb106  1  0.67374681  0.66376565  0.00212409  1
  Sb  Sb107  1  0.16746587  0.33390226  0.16760589  1
  Te  Te108  1  0.15819237  0.16612190  0.16970830  1
  Te  Te109  1  0.16491584  0.15746770  0.50156425  1
  Te  Te110  1  0.16544271  0.16790917  0.83121693  1
  Te  Te111  1  0.16614798  0.50079090  0.16657921  1
  Te  Te112  1  0.16390012  0.49999972  0.50066034  1
  Te  Te113  1  0.16190135  0.49829398  0.83181813  1
  Te  Te114  1  0.16997557  0.83282097  0.16636693  1
  Te  Te115  1  0.16534359  0.83866859  0.50149364  1
  Te  Te116  1  0.16818062  0.83654947  0.82775265  1
  Te  Te117  1  0.50163124  0.17007100  0.17403320  1
  Te  Te118  1  0.50183654  0.16705289  0.49567680  1
  Te  Te119  1  0.49653602  0.16740892  0.83410255  1
  Te  Te120  1  0.49842656  0.49772173  0.17273485  1
  Te  Te121  1  0.49808913  0.50157992  0.49542020  1
  Te  Te122  1  0.50004438  0.49972036  0.83309398  1
  Te  Te123  1  0.49359548  0.83341949  0.16831207  1
  Te  Te124  1  0.50476347  0.83328487  0.50090180  1
  Te  Te125  1  0.50056984  0.83365845  0.83490225  1
  Te  Te126  1  0.83915651  0.16324430  0.16763248  1
  Te  Te127  1  0.83421116  0.16561386  0.50003199  1
  Te  Te128  1  0.83932916  0.16134451  0.83205932  1
  Te  Te129  1  0.83715484  0.50493040  0.17071069  1
  Te  Te130  1  0.83862182  0.50115861  0.49574344  1
  Te  Te131  1  0.83834142  0.50408849  0.83245718  1
  Te  Te132  1  0.83441665  0.83148926  0.16821335  1
  Te  Te133  1  0.83190771  0.83441916  0.50007663  1
  Te  Te134  1  0.83149847  0.83513641  0.83430310  1
  Te  Te135  1  0.17254354  -0.00015182  -0.00207228  1
  Te  Te136  1  0.17317499  0.00156153  0.33750451  1
  Te  Te137  1  0.16483983  0.00215795  0.66508324  1
  Te  Te138  1  0.16557804  0.33252572  -0.00008596  1
  Te  Te139  1  0.16613675  0.34034423  0.33838936  1
  Te  Te140  1  0.16698606  0.32788510  0.66563304  1
  Te  Te141  1  0.15908123  0.66742901  -0.00906013  1
  Te  Te142  1  0.17337638  0.66164993  0.33947084  1
  Te  Te143  1  0.16090237  0.66773466  0.66662374  1
  Te  Te144  1  0.49230369  0.00044305  -0.00159891  1
  Te  Te145  1  0.49641732  0.00462969  0.33936389  1
  Te  Te146  1  0.51204716  0.00003529  0.65794359  1
  Te  Te147  1  0.50254416  0.33349863  0.00786159  1
  Te  Te148  1  0.50258570  0.33488005  0.33097839  1
  Te  Te149  1  0.49794970  0.33306069  0.67041880  1
  Te  Te150  1  0.49951737  0.66650951  -0.00158379  1
  Te  Te151  1  0.50061739  0.66307584  0.33784138  1
  Te  Te152  1  0.51110345  0.66739961  0.65812500  1
  Te  Te153  1  0.83183136  -0.00001915  -0.00232506  1
  Te  Te154  1  0.83379118  0.00161021  0.33333316  1
  Te  Te155  1  0.83686638  -0.00125118  0.66538908  1
  Te  Te156  1  0.83006863  0.33349836  0.00089042  1
  Te  Te157  1  0.82499531  0.33962898  0.33286454  1
  Te  Te158  1  0.83176955  0.33371537  0.66798386  1
  Te  Te159  1  0.84053184  0.66658329  -0.00666993  1
  Te  Te160  1  0.83125794  0.66369157  0.33448503  1
  Te  Te161  1  0.83073706  0.66651770  0.66771780  1
  Te  Te162  1  -0.00016229  0.16869860  0.00202348  1
  Te  Te163  1  -0.00048070  0.16922439  0.33333590  1
  Te  Te164  1  0.00521115  0.16600601  0.66670082  1
  Te  Te165  1  -0.00108281  0.49985719  -0.00195397  1
  Te  Te166  1  -0.00024475  0.49843590  0.33462022  1
  Te  Te167  1  0.00483740  0.50175743  0.66559312  1
  Te  Te168  1  -0.00009028  0.82937190  0.01095614  1
  Te  Te169  1  0.00074964  0.83473184  0.33260911  1
  Te  Te170  1  0.00518163  0.83380815  0.66302070  1
  Te  Te171  1  0.33303122  0.16770489  0.00340452  1
  Te  Te172  1  0.33647783  0.16585718  0.33686520  1
  Te  Te173  1  0.32899583  0.16630635  0.66535033  1
  Te  Te174  1  0.33403764  0.49484231  0.00168045  1
  Te  Te175  1  0.33311532  0.49962819  0.33366550  1
  Te  Te176  1  0.32839853  0.50530631  0.66311024  1
  Te  Te177  1  0.33243979  0.83636411  0.00297814  1
  Te  Te178  1  0.33278418  0.83443079  0.33519877  1
  Te  Te179  1  0.32993547  0.82606764  0.66228302  1
  Te  Te180  1  0.66561330  0.17264928  -0.00264139  1
  Te  Te181  1  0.66389348  0.16497590  0.33865949  1
  Te  Te182  1  0.66530645  0.16734104  0.66020282  1
  Te  Te183  1  0.66702572  0.49505549  -0.00266028  1
  Te  Te184  1  0.66539922  0.50260640  0.33238631  1
  Te  Te185  1  0.66605772  0.50393279  0.67108874  1
  Te  Te186  1  0.66479374  0.83483277  0.00594571  1
  Te  Te187  1  0.66534304  0.82841932  0.33353884  1
  Te  Te188  1  0.66520210  0.83252054  0.66178885  1
  Te  Te189  1  -0.00283905  -0.00143705  0.16525972  1
  Te  Te190  1  -0.00188014  -0.00106113  0.50225997  1
  Te  Te191  1  0.00148412  -0.00210877  0.83149228  1
  Te  Te192  1  0.00002070  0.33872361  0.16154283  1
  Te  Te193  1  0.00548152  0.33030372  0.50025380  1
  Te  Te194  1  0.00289628  0.32908194  0.83658973  1
  Te  Te195  1  -0.00135866  0.66596780  0.17267591  1
  Te  Te196  1  -0.00413715  0.66889540  0.50136715  1
  Te  Te197  1  0.00023953  0.66955677  0.82940228  1
  Te  Te198  1  0.33232181  -0.00241254  0.16784661  1
  Te  Te199  1  0.33418127  0.00099182  0.50119817  1
  Te  Te200  1  0.33094026  0.00525857  0.83088097  1
  Te  Te201  1  0.33505653  0.33442008  0.16242472  1
  Te  Te202  1  0.32779633  0.32325011  0.49965170  1
  Te  Te203  1  0.32799919  0.32929185  0.83709252  1
  Te  Te204  1  0.33261595  0.66602321  0.16807725  1
  Te  Te205  1  0.33336563  0.67050358  0.49749020  1
  Te  Te206  1  0.33162789  0.66678336  0.83175179  1
  Te  Te207  1  0.66975884  -0.00522150  0.16526844  1
  Te  Te208  1  0.67498169  -0.00279607  0.50036267  1
  Te  Te209  1  0.66651463  0.00089880  0.82667254  1
  Te  Te210  1  0.66476405  0.33259920  0.16896664  1
  Te  Te211  1  0.66740427  0.33330647  0.49376698  1
  Te  Te212  1  0.66712807  0.33793983  0.83287968  1
  Te  Te213  1  0.67037091  0.67136807  0.16724553  1
  Te  Te214  1  0.67890738  0.66640976  0.49706420  1
  Te  Te215  1  0.66713011  0.66079318  0.83490912  1
