# generated using pymatgen
data_AgSbTe2
_symmetry_space_group_name_H-M   'P 1'
_cell_length_a   18.33544834
_cell_length_b   18.33349033
_cell_length_c   18.33632788
_cell_angle_alpha   90.00262070
_cell_angle_beta   89.99993882
_cell_angle_gamma   89.99952471
_symmetry_Int_Tables_number   1
_chemical_formula_structural   AgSbTe2
_chemical_formula_sum   'Ag54 Sb54 Te108'
_cell_volume   6163.80731023
_cell_formula_units_Z   54
loop_
 _symmetry_equiv_pos_site_id
 _symmetry_equiv_pos_as_xyz
  1  'x, y, z'
loop_
 _atom_site_type_symbol
 _atom_site_label
 _atom_site_symmetry_multiplicity
 _atom_site_fract_x
 _atom_site_fract_y
 _atom_site_fract_z
 _atom_site_occupancy
  Ag  Ag0  1  0.66660911  0.84350956  0.16160431  1
  Ag  Ag1  1  0.66288357  0.16491678  0.83622729  1
  Ag  Ag2  1  0.66929671  0.49060682  0.15902609  1
  Ag  Ag3  1  -0.00460681  0.16811432  0.16819632  1
  Ag  Ag4  1  0.82888406  0.32882466  0.16747812  1
  Ag  Ag5  1  0.50017927  0.83641125  0.33022122  1
  Ag  Ag6  1  0.50524957  0.00917661  0.83418411  1
  Ag  Ag7  1  0.67053734  0.32804325  0.32204872  1
  Ag  Ag8  1  -0.01208872  0.00453403  0.66736320  1
  Ag  Ag9  1  0.33640744  0.49860863  0.50016424  1
  Ag  Ag10  1  0.66862445  0.51031636  0.83864244  1
  Ag  Ag11  1  0.51109121  0.32451853  0.15996420  1
  Ag  Ag12  1  0.66785254  0.32991450  0.00463577  1
  Ag  Ag13  1  0.66404116  0.66752711  0.68041807  1
  Ag  Ag14  1  0.82819081  0.49139039  0.00207481  1
  Ag  Ag15  1  0.16881505  0.83345605  0.00927276  1
  Ag  Ag16  1  0.32781702  0.66660498  0.33386819  1
  Ag  Ag17  1  0.50640956  0.16580902  0.68012338  1
  Ag  Ag18  1  0.50726174  0.32941048  0.49836181  1
  Ag  Ag19  1  -0.01059195  0.49842091  0.83473662  1
  Ag  Ag20  1  0.82322137  0.00975204  0.49513553  1
  Ag  Ag21  1  0.82530246  0.16506726  0.66817249  1
  Ag  Ag22  1  0.33988257  0.66398499  0.66737625  1
  Ag  Ag23  1  -0.01281436  0.33260619  0.00741123  1
  Ag  Ag24  1  0.66554637  0.00772052  0.00139711  1
  Ag  Ag25  1  0.50962797  0.66906021  0.83291572  1
  Ag  Ag26  1  -0.01052096  0.33166783  0.32867475  1
  Ag  Ag27  1  0.82730794  0.17180426  0.00595164  1
  Ag  Ag28  1  0.51021595  0.16813034  -0.00779085  1
  Ag  Ag29  1  0.00674489  0.66027184  0.32922714  1
  Ag  Ag30  1  0.66642140  0.00165716  0.67191203  1
  Ag  Ag31  1  0.16743888  0.33543666  0.49584693  1
  Ag  Ag32  1  0.82862698  0.01190095  0.17031263  1
  Ag  Ag33  1  0.66799693  0.66035375  -0.00433310  1
  Ag  Ag34  1  0.66286326  0.82569242  0.84121541  1
  Ag  Ag35  1  0.82140354  0.66222896  0.84304284  1
  Ag  Ag36  1  0.34573094  0.83389716  0.83403325  1
  Ag  Ag37  1  0.16426216  -0.00306742  0.16909737  1
  Ag  Ag38  1  0.16559531  0.49930744  0.33610810  1
  Ag  Ag39  1  0.50397363  0.32138857  0.84223998  1
  Ag  Ag40  1  0.82958669  0.66339852  0.16416023  1
  Ag  Ag41  1  0.16759706  0.49592520  0.65994205  1
  Ag  Ag42  1  0.83257483  0.17064976  0.32358526  1
  Ag  Ag43  1  0.50748836  0.00783626  0.50284587  1
  Ag  Ag44  1  0.51207478  0.00645961  0.16520761  1
  Ag  Ag45  1  0.16055936  0.17058706  0.33351330  1
  Ag  Ag46  1  0.34803563  0.33134975  -0.00082603  1
  Ag  Ag47  1  0.82378722  0.32735292  0.49052759  1
  Ag  Ag48  1  0.16117228  0.67063284  0.17182258  1
  Ag  Ag49  1  0.66421144  0.49518931  0.49983689  1
  Ag  Ag50  1  0.34796356  0.16530451  0.83319280  1
  Ag  Ag51  1  0.16603150  0.16937211  0.66484123  1
  Ag  Ag52  1  0.17017196  0.82532287  0.32813419  1
  Ag  Ag53  1  0.66717285  0.00672195  0.32163061  1
  Sb  Sb54  1  0.16806339  0.66023458  0.49263456  1
  Sb  Sb55  1  0.16559171  0.16534382  0.00130478  1
  Sb  Sb56  1  0.50992071  0.49010128  -0.00180741  1
  Sb  Sb57  1  0.33854930  -0.00003962  0.66782919  1
  Sb  Sb58  1  0.49924982  0.50152072  0.33432658  1
  Sb  Sb59  1  -0.00423806  0.82998779  0.83460852  1
  Sb  Sb60  1  0.33051633  0.16779223  0.16391874  1
  Sb  Sb61  1  0.16754469  0.66570693  0.83665745  1
  Sb  Sb62  1  0.33857380  0.66338381  -0.00090872  1
  Sb  Sb63  1  0.33941035  0.00416380  -0.00038113  1
  Sb  Sb64  1  0.50547776  0.16475722  0.33029535  1
  Sb  Sb65  1  0.16701518  0.00707366  0.49495095  1
  Sb  Sb66  1  0.66477101  0.83515870  0.49778713  1
  Sb  Sb67  1  -0.00486442  0.17140537  0.83569586  1
  Sb  Sb68  1  0.50046099  0.49536827  0.66727520  1
  Sb  Sb69  1  -0.00221647  0.66672104  0.66510033  1
  Sb  Sb70  1  0.83416098  0.49257365  0.32841726  1
  Sb  Sb71  1  0.83022925  0.83512401  0.00156586  1
  Sb  Sb72  1  0.82429407  0.33562440  0.84060900  1
  Sb  Sb73  1  -0.00414215  0.16825499  0.49558986  1
  Sb  Sb74  1  0.83016632  0.66246710  0.49724545  1
  Sb  Sb75  1  0.33477227  0.17259480  0.50419933  1
  Sb  Sb76  1  0.82271361  -0.00043675  0.83525768  1
  Sb  Sb77  1  0.16324156  0.33350869  0.17144098  1
  Sb  Sb78  1  0.33464441  0.33538628  0.66895585  1
  Sb  Sb79  1  0.33925916  -0.00308753  0.33272941  1
  Sb  Sb80  1  0.17118899  0.00070317  0.83599638  1
  Sb  Sb81  1  0.16960800  0.83398259  0.66550450  1
  Sb  Sb82  1  0.16997595  0.33324464  0.83153486  1
  Sb  Sb83  1  0.50587709  0.66814182  0.16335528  1
  Sb  Sb84  1  0.66647199  0.33090093  0.66943027  1
  Sb  Sb85  1  0.16134126  0.50148875  0.00311762  1
  Sb  Sb86  1  0.00053076  0.83524807  0.49679793  1
  Sb  Sb87  1  0.82874994  0.83937684  0.66762644  1
  Sb  Sb88  1  0.83112123  0.83801704  0.32994677  1
  Sb  Sb89  1  -0.00179312  0.83594680  0.16722144  1
  Sb  Sb90  1  0.66725791  0.66537008  0.32853117  1
  Sb  Sb91  1  0.33553058  0.83262180  0.16303828  1
  Sb  Sb92  1  -0.00101149  0.49615993  0.50057918  1
  Sb  Sb93  1  -0.00686158  0.66216424  0.00441235  1
  Sb  Sb94  1  -0.00598878  0.00499277  -0.00166398  1
  Sb  Sb95  1  -0.00485811  0.00416817  0.33412805  1
  Sb  Sb96  1  0.50203330  0.83951567  -0.00025640  1
  Sb  Sb97  1  0.83303899  0.49363230  0.67049711  1
  Sb  Sb98  1  0.50115070  0.66544223  0.50264788  1
  Sb  Sb99  1  -0.00670028  0.49602801  0.16547520  1
  Sb  Sb100  1  -0.00088005  0.32859323  0.66598256  1
  Sb  Sb101  1  0.33884159  0.49880660  0.83027340  1
  Sb  Sb102  1  0.33740677  0.49914182  0.16967450  1
  Sb  Sb103  1  0.66768326  0.16995143  0.50553064  1
  Sb  Sb104  1  0.67261078  0.16662189  0.15845755  1
  Sb  Sb105  1  0.33648902  0.33579196  0.33108185  1
  Sb  Sb106  1  0.33572951  0.82864166  0.50158817  1
  Sb  Sb107  1  0.50220738  0.83774678  0.66818288  1
  Te  Te108  1  0.16213579  0.16508087  0.16896872  1
  Te  Te109  1  0.16746420  0.17164447  0.50131309  1
  Te  Te110  1  0.16577820  0.16619837  0.82857182  1
  Te  Te111  1  0.16665827  0.50443388  0.17133248  1
  Te  Te112  1  0.16587009  0.49614959  0.49904500  1
  Te  Te113  1  0.16806473  0.49991414  0.83099565  1
  Te  Te114  1  0.16680357  0.83273280  0.16971663  1
  Te  Te115  1  0.16863908  0.83573142  0.49183418  1
  Te  Te116  1  0.16619482  0.83367955  0.83513814  1
  Te  Te117  1  0.49544005  0.16567221  0.16487751  1
  Te  Te118  1  0.49864119  0.16695158  0.49781696  1
  Te  Te119  1  0.50291310  0.16578938  0.83534266  1
  Te  Te120  1  0.50711664  0.49666644  0.16689194  1
  Te  Te121  1  0.50054345  0.49648639  0.50093451  1
  Te  Te122  1  0.50557087  0.50624121  0.83246900  1
  Te  Te123  1  0.50346463  0.83683727  0.16821996  1
  Te  Te124  1  0.49981195  0.83929945  0.49307418  1
  Te  Te125  1  0.50293263  0.83163733  0.83360947  1
  Te  Te126  1  0.83520467  0.16826636  0.16575835  1
  Te  Te127  1  0.83354812  0.16722880  0.50406692  1
  Te  Te128  1  0.82971580  0.16758279  0.83089438  1
  Te  Te129  1  0.82906613  0.50132567  0.16331061  1
  Te  Te130  1  0.82836083  0.49392438  0.50084588  1
  Te  Te131  1  0.82970257  0.50151898  0.83572575  1
  Te  Te132  1  0.82831594  0.82955361  0.16618184  1
  Te  Te133  1  0.83305973  0.84167138  0.49919341  1
  Te  Te134  1  0.82784868  0.82460404  0.83435292  1
  Te  Te135  1  0.16534818  -0.00346227  0.00471764  1
  Te  Te136  1  0.16521501  0.00550352  0.33106415  1
  Te  Te137  1  0.16848501  0.00403072  0.66493227  1
  Te  Te138  1  0.16241992  0.33397729  0.00146577  1
  Te  Te139  1  0.16924978  0.33280120  0.33497482  1
  Te  Te140  1  0.16666111  0.33371563  0.66310894  1
  Te  Te141  1  0.16717279  0.66990348  0.00616658  1
  Te  Te142  1  0.16745644  0.66510066  0.33131679  1
  Te  Te143  1  0.16676715  0.66407811  0.66620336  1
  Te  Te144  1  0.50374664  0.00521382  0.00171841  1
  Te  Te145  1  0.50485882  -0.00105835  0.32767018  1
  Te  Te146  1  0.50373596  0.00392206  0.66773990  1
  Te  Te147  1  0.50539621  0.32942771  0.00037801  1
  Te  Te148  1  0.50474209  0.33265359  0.33620202  1
  Te  Te149  1  0.49965091  0.32714992  0.66102933  1
  Te  Te150  1  0.50474756  0.66844822  -0.00475538  1
  Te  Te151  1  0.49610890  0.67227510  0.33309501  1
  Te  Te152  1  0.50151707  0.66698017  0.66910198  1
  Te  Te153  1  0.82907763  0.00466901  0.00520232  1
  Te  Te154  1  0.82962036  0.00421849  0.33249004  1
  Te  Te155  1  0.82847380  0.00443045  0.66793053  1
  Te  Te156  1  0.82983819  0.33234644  0.00151588  1
  Te  Te157  1  0.83151149  0.33132792  0.33119546  1
  Te  Te158  1  0.83489391  0.32570358  0.65820874  1
  Te  Te159  1  0.82961828  0.66825736  0.00200330  1
  Te  Te160  1  0.83748597  0.66705173  0.32946362  1
  Te  Te161  1  0.83047990  0.66613462  0.66644243  1
  Te  Te162  1  -0.00286567  0.17220908  0.00322635  1
  Te  Te163  1  -0.00164208  0.17000946  0.32984427  1
  Te  Te164  1  0.00436510  0.16368141  0.66869805  1
  Te  Te165  1  -0.00597154  0.49495028  -0.00326543  1
  Te  Te166  1  0.00401065  0.49721509  0.33282815  1
  Te  Te167  1  0.00558980  0.50068687  0.67188349  1
  Te  Te168  1  0.00816505  0.83374850  -0.00112489  1
  Te  Te169  1  0.00694837  0.83067987  0.33250455  1
  Te  Te170  1  0.00120606  0.84035562  0.66621476  1
  Te  Te171  1  0.33261356  0.17151338  -0.00546382  1
  Te  Te172  1  0.32452039  0.16615165  0.33494151  1
  Te  Te173  1  0.33123244  0.16717975  0.67155668  1
  Te  Te174  1  0.33115092  0.49381686  -0.00002020  1
  Te  Te175  1  0.32981266  0.50393932  0.33725301  1
  Te  Te176  1  0.32936066  0.50392299  0.66327644  1
  Te  Te177  1  0.32964481  0.83252538  -0.00625181  1
  Te  Te178  1  0.33290331  0.82880368  0.33342633  1
  Te  Te179  1  0.33343461  0.82538661  0.67248968  1
  Te  Te180  1  0.66793869  0.16724932  -0.00263276  1
  Te  Te181  1  0.67096599  0.16660019  0.33794874  1
  Te  Te182  1  0.66531224  0.16460833  0.67150667  1
  Te  Te183  1  0.66947101  0.49923348  -0.00066324  1
  Te  Te184  1  0.66682618  0.49640265  0.33601704  1
  Te  Te185  1  0.66737147  0.50437942  0.66951026  1
  Te  Te186  1  0.66594203  0.83496935  0.00121889  1
  Te  Te187  1  0.66351507  0.83544758  0.32948459  1
  Te  Te188  1  0.66560853  0.83169758  0.67028284  1
  Te  Te189  1  -0.00057636  0.00433212  0.16623882  1
  Te  Te190  1  -0.00429074  0.00076007  0.50587511  1
  Te  Te191  1  -0.00013605  -0.00042152  0.82898129  1
  Te  Te192  1  -0.00294244  0.33107023  0.16814449  1
  Te  Te193  1  0.00442885  0.33381498  0.49400530  1
  Te  Te194  1  0.00001318  0.33863981  0.83605121  1
  Te  Te195  1  -0.00135751  0.66627618  0.16999009  1
  Te  Te196  1  -0.00155410  0.66677740  0.49252792  1
  Te  Te197  1  -0.00332244  0.66136845  0.83367245  1
  Te  Te198  1  0.32531552  -0.00024543  0.16651920  1
  Te  Te199  1  0.34249165  -0.00127099  0.49997249  1
  Te  Te200  1  0.34001550  -0.00057813  0.83383289  1
  Te  Te201  1  0.33998834  0.33413080  0.16105841  1
  Te  Te202  1  0.33208692  0.33954789  0.49932059  1
  Te  Te203  1  0.33957260  0.33077579  0.83686743  1
  Te  Te204  1  0.33249851  0.66574128  0.16994613  1
  Te  Te205  1  0.33411876  0.66107357  0.50124578  1
  Te  Te206  1  0.33502914  0.66853097  0.83130763  1
  Te  Te207  1  0.66854151  0.00147842  0.16487879  1
  Te  Te208  1  0.66580330  -0.00239888  0.50540866  1
  Te  Te209  1  0.66498374  0.00158580  0.83411216  1
  Te  Te210  1  0.66808691  0.33198990  0.16607051  1
  Te  Te211  1  0.66578182  0.33633735  0.50430298  1
  Te  Te212  1  0.66239913  0.32904684  0.83487801  1
  Te  Te213  1  0.66922164  0.66550407  0.16388332  1
  Te  Te214  1  0.66669940  0.66101743  0.50060333  1
  Te  Te215  1  0.66649311  0.66792090  0.83558859  1
