# generated using pymatgen
data_AgSbTe2
_symmetry_space_group_name_H-M   'P 1'
_cell_length_a   18.32212361
_cell_length_b   18.33320574
_cell_length_c   18.34049547
_cell_angle_alpha   89.99906594
_cell_angle_beta   90.00053815
_cell_angle_gamma   89.99739690
_symmetry_Int_Tables_number   1
_chemical_formula_structural   AgSbTe2
_chemical_formula_sum   'Ag54 Sb54 Te108'
_cell_volume   6160.63224321
_cell_formula_units_Z   54
loop_
 _symmetry_equiv_pos_site_id
 _symmetry_equiv_pos_as_xyz
  1  'x, y, z'
loop_
 _atom_site_type_symbol
 _atom_site_label
 _atom_site_symmetry_multiplicity
 _atom_site_fract_x
 _atom_site_fract_y
 _atom_site_fract_z
 _atom_site_occupancy
  Ag  Ag0  1  0.16874255  0.82414647  0.33497250  1
  Ag  Ag1  1  0.16790950  -0.00568686  0.50122062  1
  Ag  Ag2  1  0.66882071  0.66437645  0.33047374  1
  Ag  Ag3  1  0.16593678  0.50220360  0.01114262  1
  Ag  Ag4  1  0.17393176  0.67022015  0.49517706  1
  Ag  Ag5  1  0.50026929  0.16724664  0.33649884  1
  Ag  Ag6  1  0.32845875  0.32301022  0.65984047  1
  Ag  Ag7  1  0.67654721  0.34059129  0.00406011  1
  Ag  Ag8  1  0.83679107  0.49476995  0.00073132  1
  Ag  Ag9  1  0.66250012  0.66649624  0.67100909  1
  Ag  Ag10  1  0.66653843  0.66139427  0.00044735  1
  Ag  Ag11  1  0.17741235  0.17228088  0.66524241  1
  Ag  Ag12  1  0.84028279  0.00726934  0.49353389  1
  Ag  Ag13  1  0.84193225  0.32907835  0.16474444  1
  Ag  Ag14  1  0.83489620  0.16848102  0.33017969  1
  Ag  Ag15  1  0.32824469  0.50047692  0.16864589  1
  Ag  Ag16  1  0.50000745  0.00025354  0.16329700  1
  Ag  Ag17  1  0.16257966  0.33778038  0.16994759  1
  Ag  Ag18  1  0.17244543  0.82825062  0.00413838  1
  Ag  Ag19  1  -0.00277650  0.16854615  0.16722187  1
  Ag  Ag20  1  0.32991084  0.83126084  0.16635328  1
  Ag  Ag21  1  -0.00336233  0.32918784  0.00541816  1
  Ag  Ag22  1  0.33145851  0.49953057  0.82320045  1
  Ag  Ag23  1  0.49008120  0.16332934  0.66324361  1
  Ag  Ag24  1  0.82801193  0.66323526  0.83539448  1
  Ag  Ag25  1  0.16853103  0.50368460  0.32940232  1
  Ag  Ag26  1  0.49186705  0.83298985  -0.00973365  1
  Ag  Ag27  1  0.32981455  0.83354976  0.50890174  1
  Ag  Ag28  1  0.49147272  0.66517503  0.50397395  1
  Ag  Ag29  1  0.00061341  0.16910095  0.83576065  1
  Ag  Ag30  1  0.33400760  0.17442951  0.51022437  1
  Ag  Ag31  1  0.00876041  0.66502215  0.33251806  1
  Ag  Ag32  1  0.83607543  0.00546247  0.83585341  1
  Ag  Ag33  1  0.17222496  0.49788349  0.66268929  1
  Ag  Ag34  1  0.50075376  0.67499590  0.82599965  1
  Ag  Ag35  1  0.68025733  0.17245267  0.16784292  1
  Ag  Ag36  1  0.48992502  0.83626878  0.67179777  1
  Ag  Ag37  1  -0.00096999  0.00762855  0.00507722  1
  Ag  Ag38  1  0.17405551  0.83345573  0.65813425  1
  Ag  Ag39  1  0.00865898  0.33111331  0.66480664  1
  Ag  Ag40  1  0.00414430  0.32961188  0.32779618  1
  Ag  Ag41  1  0.32610587  0.33324897  0.34171539  1
  Ag  Ag42  1  0.48980734  0.33262541  0.50052095  1
  Ag  Ag43  1  0.49394402  -0.00461593  0.83363111  1
  Ag  Ag44  1  0.33039873  0.49484167  0.50487404  1
  Ag  Ag45  1  -0.00054098  0.01019457  0.32909200  1
  Ag  Ag46  1  0.83598151  0.00988861  0.16615937  1
  Ag  Ag47  1  0.66418265  0.49592802  0.16420731  1
  Ag  Ag48  1  0.33201262  0.16714286  0.82337420  1
  Ag  Ag49  1  0.83316386  0.32942325  0.49587481  1
  Ag  Ag50  1  0.16636664  0.65812356  0.17471895  1
  Ag  Ag51  1  0.83800617  0.33176600  0.84538113  1
  Ag  Ag52  1  0.33230963  0.00956250  0.66599862  1
  Ag  Ag53  1  0.33547160  0.83416812  0.82311956  1
  Sb  Sb54  1  0.66064008  -0.00239699  0.66768653  1
  Sb  Sb55  1  0.66832588  0.33554657  0.32775036  1
  Sb  Sb56  1  -0.00042298  0.66414254  0.00352642  1
  Sb  Sb57  1  0.83301846  0.16745584  0.66287574  1
  Sb  Sb58  1  0.49314667  0.50223317  0.66657661  1
  Sb  Sb59  1  0.00652307  0.83947170  0.16710752  1
  Sb  Sb60  1  0.00755275  0.49713122  0.49819079  1
  Sb  Sb61  1  0.49936368  0.16221232  -0.00037014  1
  Sb  Sb62  1  0.65881030  0.83135115  0.83444711  1
  Sb  Sb63  1  0.33549873  0.66765602  -0.00017583  1
  Sb  Sb64  1  0.66372074  0.50235152  0.83821398  1
  Sb  Sb65  1  0.16320305  0.33384302  0.83273841  1
  Sb  Sb66  1  0.66854136  0.16743820  0.83788592  1
  Sb  Sb67  1  0.83764620  0.49749974  0.67095282  1
  Sb  Sb68  1  0.00944240  0.83548867  0.49901907  1
  Sb  Sb69  1  0.33077794  0.66108442  0.33532705  1
  Sb  Sb70  1  0.16545791  0.16925333  0.33840164  1
  Sb  Sb71  1  0.00544752  0.16889589  0.49922961  1
  Sb  Sb72  1  0.83633824  0.66322259  0.16429375  1
  Sb  Sb73  1  0.83448151  0.83492459  0.66825936  1
  Sb  Sb74  1  0.67044965  -0.00055682  0.00161468  1
  Sb  Sb75  1  0.32981929  0.16756812  0.16741063  1
  Sb  Sb76  1  0.83421217  0.83096936  -0.00065106  1
  Sb  Sb77  1  0.49105636  0.83546862  0.33541933  1
  Sb  Sb78  1  0.32893678  -0.00309761  -0.00453609  1
  Sb  Sb79  1  0.16934594  0.66623235  0.83202172  1
  Sb  Sb80  1  0.49768613  0.50466231  0.00012875  1
  Sb  Sb81  1  0.66180470  0.83258997  0.16638707  1
  Sb  Sb82  1  0.49293384  0.49622772  0.33316946  1
  Sb  Sb83  1  0.83330741  0.66557384  0.50159979  1
  Sb  Sb84  1  0.16941404  0.33561064  0.49871189  1
  Sb  Sb85  1  0.16595138  0.00064800  0.17023330  1
  Sb  Sb86  1  0.33687321  0.66912448  0.66452474  1
  Sb  Sb87  1  0.65933887  0.83215418  0.50003986  1
  Sb  Sb88  1  0.49607576  0.67030783  0.16844353  1
  Sb  Sb89  1  0.00118904  0.66199627  0.66391273  1
  Sb  Sb90  1  0.49822848  0.32833379  0.17014993  1
  Sb  Sb91  1  0.00402734  0.49128282  0.16636700  1
  Sb  Sb92  1  0.66102693  0.50024980  0.49451656  1
  Sb  Sb93  1  0.67058523  -0.00169081  0.33160522  1
  Sb  Sb94  1  0.32829068  0.00405088  0.33809366  1
  Sb  Sb95  1  0.00642606  0.83873186  0.83475227  1
  Sb  Sb96  1  0.16949147  0.00013365  0.82909046  1
  Sb  Sb97  1  0.49431105  0.00071263  0.50133371  1
  Sb  Sb98  1  0.66472350  0.33707370  0.66943407  1
  Sb  Sb99  1  0.33034228  0.33589490  -0.00122497  1
  Sb  Sb100  1  0.00451491  0.49445734  0.83527437  1
  Sb  Sb101  1  0.84068729  0.83740799  0.33307689  1
  Sb  Sb102  1  0.66217073  0.16748884  0.49505989  1
  Sb  Sb103  1  0.83831579  0.49421544  0.32806212  1
  Sb  Sb104  1  0.00660020  0.00618175  0.66638909  1
  Sb  Sb105  1  0.50019190  0.33178555  0.82953386  1
  Sb  Sb106  1  0.83438669  0.17276578  0.00602043  1
  Sb  Sb107  1  0.16359330  0.16842253  -0.00337487  1
  Te  Te108  1  0.16105048  0.17246941  0.16593843  1
  Te  Te109  1  0.17228979  0.16250664  0.50526623  1
  Te  Te110  1  0.16681403  0.16674577  0.82770995  1
  Te  Te111  1  0.16737805  0.49913402  0.16822904  1
  Te  Te112  1  0.17177367  0.50254658  0.50024680  1
  Te  Te113  1  0.17248140  0.50100926  0.83000463  1
  Te  Te114  1  0.17049325  0.83376402  0.16596693  1
  Te  Te115  1  0.17089303  0.83155081  0.49834909  1
  Te  Te116  1  0.17387732  0.83210144  0.83869550  1
  Te  Te117  1  0.49722220  0.16062984  0.16862008  1
  Te  Te118  1  0.49590538  0.16748159  0.49920520  1
  Te  Te119  1  0.49933054  0.16270687  0.83072130  1
  Te  Te120  1  0.49708541  0.50078508  0.16649684  1
  Te  Te121  1  0.49327071  0.49991904  0.49960083  1
  Te  Te122  1  0.49232216  0.50389382  0.83409982  1
  Te  Te123  1  0.49448681  0.83852621  0.16697433  1
  Te  Te124  1  0.49245095  0.83085106  0.50331919  1
  Te  Te125  1  0.49583029  0.83348710  0.83224942  1
  Te  Te126  1  0.83623580  0.16764922  0.16965030  1
  Te  Te127  1  0.83193555  0.16702831  0.49576882  1
  Te  Te128  1  0.83489058  0.16763786  0.83044538  1
  Te  Te129  1  0.82842010  0.49674528  0.16188403  1
  Te  Te130  1  0.83246406  0.49538799  0.50012385  1
  Te  Te131  1  0.83316406  0.49773620  0.83806175  1
  Te  Te132  1  0.83169594  0.83940719  0.16627185  1
  Te  Te133  1  0.83324045  0.83749483  0.50111741  1
  Te  Te134  1  0.83545990  0.83573435  0.83340660  1
  Te  Te135  1  0.16010896  -0.00314565  0.00096265  1
  Te  Te136  1  0.16080370  0.00059585  0.33748646  1
  Te  Te137  1  0.17053169  -0.00313407  0.66263152  1
  Te  Te138  1  0.16217798  0.33679752  0.00353454  1
  Te  Te139  1  0.16549681  0.33427970  0.33291789  1
  Te  Te140  1  0.16816166  0.33319524  0.66632336  1
  Te  Te141  1  0.16530295  0.66527808  0.00137928  1
  Te  Te142  1  0.16821449  0.66490003  0.33378189  1
  Te  Te143  1  0.16310255  0.66559537  0.66332356  1
  Te  Te144  1  0.50142370  -0.00514866  -0.00248945  1
  Te  Te145  1  0.50101422  0.00404507  0.33202896  1
  Te  Te146  1  0.49630316  -0.00183567  0.66852244  1
  Te  Te147  1  0.50383862  0.33265247  -0.00030890  1
  Te  Te148  1  0.49893249  0.32845973  0.33837677  1
  Te  Te149  1  0.49751049  0.33001747  0.66205681  1
  Te  Te150  1  0.50544171  0.67204614  0.00005087  1
  Te  Te151  1  0.50471463  0.66733718  0.33705146  1
  Te  Te152  1  0.50292700  0.66793497  0.66621357  1
  Te  Te153  1  0.83716194  -0.00227534  -0.00026380  1
  Te  Te154  1  0.83764849  0.00271022  0.33126054  1
  Te  Te155  1  0.83343589  -0.00058274  0.67023765  1
  Te  Te156  1  0.83529608  0.33557581  0.00346965  1
  Te  Te157  1  0.83558632  0.33025447  0.33107627  1
  Te  Te158  1  0.83353911  0.33381280  0.66269060  1
  Te  Te159  1  0.83087475  0.66255129  -0.00350495  1
  Te  Te160  1  0.83413169  0.66690578  0.33400769  1
  Te  Te161  1  0.82964870  0.66654114  0.67150959  1
  Te  Te162  1  -0.00027103  0.16773193  -0.00180080  1
  Te  Te163  1  -0.00125420  0.16882208  0.33343539  1
  Te  Te164  1  0.00039749  0.17203458  0.66977119  1
  Te  Te165  1  0.00177694  0.49601759  0.00000874  1
  Te  Te166  1  0.00580333  0.49844536  0.33276389  1
  Te  Te167  1  0.00731557  0.49223450  0.66701480  1
  Te  Te168  1  0.00527592  0.83584681  -0.00015328  1
  Te  Te169  1  0.00731478  0.83021099  0.33297255  1
  Te  Te170  1  0.00872706  0.83283354  0.66758537  1
  Te  Te171  1  0.33213510  0.16622938  -0.00831506  1
  Te  Te172  1  0.33624665  0.17196682  0.33374458  1
  Te  Te173  1  0.33347793  0.16583007  0.66697890  1
  Te  Te174  1  0.32744483  0.50064188  0.00565385  1
  Te  Te175  1  0.32879634  0.49390898  0.33074459  1
  Te  Te176  1  0.33037373  0.49862303  0.66532397  1
  Te  Te177  1  0.33291493  0.83358865  0.00463815  1
  Te  Te178  1  0.32753952  0.83620468  0.32926556  1
  Te  Te179  1  0.33160017  0.83126325  0.66708163  1
  Te  Te180  1  0.66520941  0.17049195  0.00715495  1
  Te  Te181  1  0.66651734  0.16631389  0.32804547  1
  Te  Te182  1  0.65807833  0.16704655  0.66701971  1
  Te  Te183  1  0.66547668  0.50046881  0.00335853  1
  Te  Te184  1  0.66768898  0.50426152  0.32671592  1
  Te  Te185  1  0.66657730  0.50607195  0.66573937  1
  Te  Te186  1  0.66272985  0.82760963  0.00138072  1
  Te  Te187  1  0.66645138  0.82576829  0.33293719  1
  Te  Te188  1  0.66214662  0.82726895  0.66631759  1
  Te  Te189  1  -0.00126047  0.00501339  0.16735963  1
  Te  Te190  1  0.00005704  0.00165695  0.49754678  1
  Te  Te191  1  -0.00202961  0.00541799  0.83415253  1
  Te  Te192  1  0.00096202  0.33019696  0.16696762  1
  Te  Te193  1  -0.00499898  0.33248928  0.49972576  1
  Te  Te194  1  -0.00307066  0.32948681  0.83409146  1
  Te  Te195  1  0.00511286  0.66867162  0.17167396  1
  Te  Te196  1  0.00248088  0.66590787  0.49433581  1
  Te  Te197  1  -0.00778209  0.66714079  0.83360531  1
  Te  Te198  1  0.33642179  -0.00106980  0.16690176  1
  Te  Te199  1  0.33096784  -0.00310282  0.50373579  1
  Te  Te200  1  0.33529723  -0.00051205  0.82973572  1
  Te  Te201  1  0.32985930  0.33613665  0.16736709  1
  Te  Te202  1  0.33238686  0.33389648  0.50064643  1
  Te  Te203  1  0.33394305  0.33370294  0.83042434  1
  Te  Te204  1  0.32832976  0.66667990  0.16760223  1
  Te  Te205  1  0.33320621  0.66649137  0.49861065  1
  Te  Te206  1  0.33764198  0.66590880  0.83409725  1
  Te  Te207  1  0.66711761  0.00399873  0.16620022  1
  Te  Te208  1  0.67781972  -0.00059160  0.50031382  1
  Te  Te209  1  0.67138969  0.00011734  0.83399653  1
  Te  Te210  1  0.66488865  0.33381947  0.16384691  1
  Te  Te211  1  0.66943520  0.33446922  0.50027380  1
  Te  Te212  1  0.67296266  0.33470860  0.83878951  1
  Te  Te213  1  0.66731939  0.66421940  0.16567716  1
  Te  Te214  1  0.66474927  0.66614932  0.49873922  1
  Te  Te215  1  0.66571583  0.66633171  0.83507491  1
