# generated using pymatgen
data_AgSbTe2
_symmetry_space_group_name_H-M   'P 1'
_cell_length_a   18.31164120
_cell_length_b   18.31379903
_cell_length_c   18.31085862
_cell_angle_alpha   89.99821904
_cell_angle_beta   89.99716642
_cell_angle_gamma   90.00106958
_symmetry_Int_Tables_number   1
_chemical_formula_structural   AgSbTe2
_chemical_formula_sum   'Ag54 Sb54 Te108'
_cell_volume   6140.65110930
_cell_formula_units_Z   54
loop_
 _symmetry_equiv_pos_site_id
 _symmetry_equiv_pos_as_xyz
  1  'x, y, z'
loop_
 _atom_site_type_symbol
 _atom_site_label
 _atom_site_symmetry_multiplicity
 _atom_site_fract_x
 _atom_site_fract_y
 _atom_site_fract_z
 _atom_site_occupancy
  Ag  Ag0  1  0.82980205  0.50221360  0.67496676  1
  Ag  Ag1  1  0.33452816  0.49417986  0.50301817  1
  Ag  Ag2  1  0.82961096  0.66515800  0.16945802  1
  Ag  Ag3  1  0.83031272  -0.00289092  0.50586986  1
  Ag  Ag4  1  0.50431946  0.00117952  0.50664125  1
  Ag  Ag5  1  0.17368063  0.16708923  0.33681399  1
  Ag  Ag6  1  0.50738207  0.65878212  0.16338530  1
  Ag  Ag7  1  0.33132743  0.16874096  0.49588408  1
  Ag  Ag8  1  0.50396485  0.83562478  0.67163210  1
  Ag  Ag9  1  0.49653309  0.17003778  0.33049854  1
  Ag  Ag10  1  0.67067537  0.84394541  0.83167242  1
  Ag  Ag11  1  0.66824025  -0.00099740  0.67691895  1
  Ag  Ag12  1  -0.00017583  0.15635932  0.83302745  1
  Ag  Ag13  1  0.49988802  0.49653167  0.32497604  1
  Ag  Ag14  1  0.82513891  0.33522843  0.16534514  1
  Ag  Ag15  1  -0.00452534  0.50170093  0.83440785  1
  Ag  Ag16  1  0.50567566  0.66055289  0.83569388  1
  Ag  Ag17  1  0.33389827  0.83216547  0.16593801  1
  Ag  Ag18  1  0.83137164  -0.00079410  0.15368407  1
  Ag  Ag19  1  0.15989858  0.83705353  -0.00742255  1
  Ag  Ag20  1  0.83198020  0.16419139  0.33637570  1
  Ag  Ag21  1  0.67062729  0.66406763  0.33112808  1
  Ag  Ag22  1  0.83456157  0.67072729  0.50092701  1
  Ag  Ag23  1  0.83708324  0.83792750  -0.00232803  1
  Ag  Ag24  1  0.16137975  0.16373915  0.67608313  1
  Ag  Ag25  1  0.83264397  0.16418677  0.66950146  1
  Ag  Ag26  1  0.33560872  0.32827034  0.33592018  1
  Ag  Ag27  1  0.50521813  0.49584815  -0.00182657  1
  Ag  Ag28  1  0.50455830  0.33995860  0.16126906  1
  Ag  Ag29  1  0.16496840  0.66665486  0.16479513  1
  Ag  Ag30  1  0.16629796  0.50018885  -0.00418399  1
  Ag  Ag31  1  0.51205759  0.00175858  0.83112700  1
  Ag  Ag32  1  0.67281126  0.00029628  -0.01067844  1
  Ag  Ag33  1  0.66733610  0.33123553  0.67167399  1
  Ag  Ag34  1  0.82788634  0.00019221  0.83516830  1
  Ag  Ag35  1  0.16166197  0.00624988  0.83477644  1
  Ag  Ag36  1  0.16946452  0.32562844  0.83133297  1
  Ag  Ag37  1  0.16998837  0.32982351  0.50806584  1
  Ag  Ag38  1  0.67148717  0.66736591  0.67010110  1
  Ag  Ag39  1  0.33974546  0.49763789  0.83228711  1
  Ag  Ag40  1  0.66886044  0.15558767  0.83141391  1
  Ag  Ag41  1  0.82803241  0.50425142  -0.00559369  1
  Ag  Ag42  1  -0.00701475  -0.00154049  -0.00587394  1
  Ag  Ag43  1  0.16907789  0.16445017  -0.00905018  1
  Ag  Ag44  1  0.33463194  0.00981347  0.33475173  1
  Ag  Ag45  1  -0.00241948  0.83803682  0.83171683  1
  Ag  Ag46  1  -0.00153520  0.83259710  0.51117378  1
  Ag  Ag47  1  0.66587101  0.50012504  0.83640585  1
  Ag  Ag48  1  0.66494843  0.50228369  0.15771150  1
  Ag  Ag49  1  0.50137941  0.33614120  0.83836418  1
  Ag  Ag50  1  0.16348218  0.83806541  0.67527780  1
  Ag  Ag51  1  -0.00778698  0.66983763  0.66713732  1
  Ag  Ag52  1  0.49833999  0.17072538  -0.00344777  1
  Ag  Ag53  1  -0.00917364  0.66733284  0.33602898  1
  Sb  Sb54  1  0.16683855  0.66673622  0.83625727  1
  Sb  Sb55  1  0.16525151  0.00382702  0.50645083  1
  Sb  Sb56  1  -0.00599654  -0.00473909  0.67490169  1
  Sb  Sb57  1  0.83713365  0.33237552  0.49964197  1
  Sb  Sb58  1  0.83375810  0.83403453  0.32979557  1
  Sb  Sb59  1  0.17176030  0.49707038  0.32911036  1
  Sb  Sb60  1  0.00224251  0.50501750  0.50551441  1
  Sb  Sb61  1  0.49545863  0.33021534  0.50082370  1
  Sb  Sb62  1  0.16171131  0.66422760  0.49783452  1
  Sb  Sb63  1  0.33472139  0.66614568  0.66831252  1
  Sb  Sb64  1  0.33325289  0.83153921  0.83671731  1
  Sb  Sb65  1  0.33311724  0.16964280  0.82963950  1
  Sb  Sb66  1  0.33429185  0.16449009  0.17270005  1
  Sb  Sb67  1  0.00056981  -0.00184447  0.33091528  1
  Sb  Sb68  1  -0.00178109  0.67020447  -0.00420713  1
  Sb  Sb69  1  0.33797947  0.00154579  0.66478684  1
  Sb  Sb70  1  0.50037512  0.83443428  0.33463864  1
  Sb  Sb71  1  0.66771098  0.66610675  -0.00435046  1
  Sb  Sb72  1  0.66707611  0.17047674  0.16087609  1
  Sb  Sb73  1  0.66417967  0.16510852  0.50570450  1
  Sb  Sb74  1  0.66609130  -0.00143900  0.33322123  1
  Sb  Sb75  1  0.34160257  0.50225010  0.16355090  1
  Sb  Sb76  1  0.16223239  0.49935548  0.67374970  1
  Sb  Sb77  1  0.83327540  0.83410236  0.67361596  1
  Sb  Sb78  1  0.82857816  0.50037910  0.33063286  1
  Sb  Sb79  1  0.67195039  0.83345433  0.50900502  1
  Sb  Sb80  1  0.50515221  0.66909621  0.50117613  1
  Sb  Sb81  1  -0.00319404  0.33482424  0.67047022  1
  Sb  Sb82  1  -0.00661088  0.50301420  0.15943288  1
  Sb  Sb83  1  0.82990676  0.33229313  0.83594866  1
  Sb  Sb84  1  0.50208792  0.83286919  -0.00572016  1
  Sb  Sb85  1  0.82892984  0.66821736  0.83242341  1
  Sb  Sb86  1  0.66336056  0.50160686  0.50287495  1
  Sb  Sb87  1  0.33622001  0.33195360  0.66501146  1
  Sb  Sb88  1  0.00258796  0.33555957  0.33289070  1
  Sb  Sb89  1  -0.00193068  0.16603561  0.16139910  1
  Sb  Sb90  1  0.33322182  0.66603433  0.00019640  1
  Sb  Sb91  1  0.50618941  0.50337650  0.67404624  1
  Sb  Sb92  1  0.16999722  0.33636702  0.16258666  1
  Sb  Sb93  1  0.33440160  0.00039382  0.00102757  1
  Sb  Sb94  1  0.66530409  0.82826513  0.15925576  1
  Sb  Sb95  1  0.33543175  0.33386684  0.00169808  1
  Sb  Sb96  1  0.33590679  0.66415505  0.33167734  1
  Sb  Sb97  1  0.00220214  0.16108763  0.50588485  1
  Sb  Sb98  1  0.50239961  0.16352897  0.66991727  1
  Sb  Sb99  1  0.16544495  0.83695039  0.33175219  1
  Sb  Sb100  1  0.33064235  0.83536181  0.49789579  1
  Sb  Sb101  1  -0.00022541  0.32983924  -0.00391596  1
  Sb  Sb102  1  0.83250371  0.16366670  -0.00426905  1
  Sb  Sb103  1  0.16450301  -0.00247014  0.16038204  1
  Sb  Sb104  1  0.00095378  0.83088521  0.16069237  1
  Sb  Sb105  1  0.66577798  0.33199823  -0.00693932  1
  Sb  Sb106  1  0.66213918  0.33566264  0.33519563  1
  Sb  Sb107  1  0.50360458  0.00045243  0.16400782  1
  Te  Te108  1  0.16561625  0.16786768  0.16522554  1
  Te  Te109  1  0.16753811  0.16864433  0.49737188  1
  Te  Te110  1  0.16950678  0.16758311  0.83332224  1
  Te  Te111  1  0.16617318  0.50442226  0.15948352  1
  Te  Te112  1  0.17111861  0.49506644  0.49993654  1
  Te  Te113  1  0.16532486  0.50058653  0.83696653  1
  Te  Te114  1  0.16839301  0.82969468  0.16348889  1
  Te  Te115  1  0.16109556  0.83401068  0.50482740  1
  Te  Te116  1  0.16681100  0.83256369  0.83418761  1
  Te  Te117  1  0.50128956  0.16958844  0.16515882  1
  Te  Te118  1  0.49651867  0.16241377  0.49868348  1
  Te  Te119  1  0.49985679  0.16629608  0.83529049  1
  Te  Te120  1  0.50225877  0.50003235  0.16375086  1
  Te  Te121  1  0.49491878  0.49997464  0.49725940  1
  Te  Te122  1  0.50205055  0.49865742  0.83519310  1
  Te  Te123  1  0.49684713  0.82926331  0.16519057  1
  Te  Te124  1  0.49937043  0.83942270  0.50593519  1
  Te  Te125  1  0.50000388  0.83590701  0.83099206  1
  Te  Te126  1  0.83252296  0.16614418  0.16798544  1
  Te  Te127  1  0.83391788  0.16431236  0.50260115  1
  Te  Te128  1  0.83319183  0.16627949  0.83074349  1
  Te  Te129  1  0.82777853  0.50209549  0.16517832  1
  Te  Te130  1  0.83387490  0.50241137  0.50334861  1
  Te  Te131  1  0.83238383  0.49967453  0.83410137  1
  Te  Te132  1  0.83306504  0.83287349  0.15970152  1
  Te  Te133  1  0.83781662  0.83363400  0.49800309  1
  Te  Te134  1  0.83386476  0.83436893  0.83814273  1
  Te  Te135  1  0.16650778  0.00109866  -0.00341922  1
  Te  Te136  1  0.16922366  0.00593402  0.33207086  1
  Te  Te137  1  0.16701132  0.00058898  0.67195230  1
  Te  Te138  1  0.16768847  0.33260347  -0.00471823  1
  Te  Te139  1  0.17047743  0.32842304  0.33119811  1
  Te  Te140  1  0.16634448  0.33075687  0.67016558  1
  Te  Te141  1  0.16496418  0.66605442  0.00426207  1
  Te  Te142  1  0.16461769  0.66701877  0.32828841  1
  Te  Te143  1  0.16353789  0.67026013  0.66617908  1
  Te  Te144  1  0.50248809  0.00246019  -0.00385508  1
  Te  Te145  1  0.49804069  0.00329570  0.33309645  1
  Te  Te146  1  0.50421803  -0.00212315  0.66838718  1
  Te  Te147  1  0.50034741  0.33282973  -0.00037098  1
  Te  Te148  1  0.49781585  0.33147257  0.33409204  1
  Te  Te149  1  0.50593728  0.33316066  0.67158661  1
  Te  Te150  1  0.50054241  0.66410428  0.00094535  1
  Te  Te151  1  0.50416463  0.66446020  0.33165033  1
  Te  Te152  1  0.50403079  0.67179894  0.66916894  1
  Te  Te153  1  0.83309598  0.00179955  -0.00400883  1
  Te  Te154  1  0.83414153  0.00465611  0.33793043  1
  Te  Te155  1  0.82900173  0.00111663  0.66801101  1
  Te  Te156  1  0.83289297  0.33905086  0.00630680  1
  Te  Te157  1  0.83309118  0.32829478  0.33003796  1
  Te  Te158  1  0.82877260  0.33128223  0.66661544  1
  Te  Te159  1  0.83429483  0.66315375  0.00558675  1
  Te  Te160  1  0.83188386  0.66631072  0.33249000  1
  Te  Te161  1  0.83248672  0.66742572  0.66612860  1
  Te  Te162  1  0.00430001  0.16195800  -0.00619105  1
  Te  Te163  1  -0.00312990  0.16688063  0.33365884  1
  Te  Te164  1  -0.00009453  0.16773189  0.67285138  1
  Te  Te165  1  0.00047860  0.50053054  -0.00657813  1
  Te  Te166  1  0.00111853  0.50580840  0.33387287  1
  Te  Te167  1  -0.00582806  0.50526851  0.67248888  1
  Te  Te168  1  -0.00042546  0.83627277  -0.00561894  1
  Te  Te169  1  0.00095117  0.82792616  0.33631592  1
  Te  Te170  1  0.00067720  0.83068704  0.67125866  1
  Te  Te171  1  0.33348855  0.16671102  0.00150880  1
  Te  Te172  1  0.33516114  0.16715873  0.33517269  1
  Te  Te173  1  0.32551095  0.16658258  0.65745093  1
  Te  Te174  1  0.33301976  0.49973469  -0.00579258  1
  Te  Te175  1  0.33856217  0.49652873  0.33522105  1
  Te  Te176  1  0.33282426  0.49946844  0.66761074  1
  Te  Te177  1  0.32581041  0.83338146  0.00471153  1
  Te  Te178  1  0.33245366  0.83667556  0.32944231  1
  Te  Te179  1  0.32982986  0.83349596  0.66606054  1
  Te  Te180  1  0.66250975  0.16268038  -0.00604951  1
  Te  Te181  1  0.66720565  0.16683367  0.33325302  1
  Te  Te182  1  0.66915279  0.16315936  0.67147032  1
  Te  Te183  1  0.66618959  0.49936808  -0.00115766  1
  Te  Te184  1  0.66099306  0.50324724  0.33297792  1
  Te  Te185  1  0.67084643  0.50500297  0.66885385  1
  Te  Te186  1  0.67010450  0.83819054  -0.00752905  1
  Te  Te187  1  0.66603937  0.82537826  0.33421193  1
  Te  Te188  1  0.66551770  0.83336401  0.67288709  1
  Te  Te189  1  -0.00800392  -0.00179196  0.16068616  1
  Te  Te190  1  -0.00562085  -0.00658718  0.49908976  1
  Te  Te191  1  0.00187714  -0.00092083  0.83466534  1
  Te  Te192  1  -0.00769889  0.33491136  0.16623833  1
  Te  Te193  1  0.00932923  0.33321735  0.50056372  1
  Te  Te194  1  0.00549250  0.33663816  0.83299542  1
  Te  Te195  1  -0.00244536  0.66674496  0.17112943  1
  Te  Te196  1  -0.00445466  0.67009750  0.50173873  1
  Te  Te197  1  -0.00086359  0.66760937  0.82877795  1
  Te  Te198  1  0.33405459  -0.00545946  0.17262480  1
  Te  Te199  1  0.33564808  0.00183178  0.49566956  1
  Te  Te200  1  0.32980582  0.00039637  0.83300718  1
  Te  Te201  1  0.33953312  0.33409504  0.17380566  1
  Te  Te202  1  0.33006936  0.33304097  0.49791609  1
  Te  Te203  1  0.33460137  0.33733189  0.83303043  1
  Te  Te204  1  0.33342026  0.67008529  0.16740520  1
  Te  Te205  1  0.33309301  0.66188980  0.49950759  1
  Te  Te206  1  0.34306639  0.65992105  0.83327725  1
  Te  Te207  1  0.67293395  -0.00171286  0.16523573  1
  Te  Te208  1  0.66769929  -0.00105284  0.50112318  1
  Te  Te209  1  0.66785674  0.00000405  0.83326717  1
  Te  Te210  1  0.66472542  0.33847105  0.16830591  1
  Te  Te211  1  0.66817036  0.33322510  0.51027836  1
  Te  Te212  1  0.66396571  0.33979931  0.82990643  1
  Te  Te213  1  0.66678397  0.66403579  0.16638743  1
  Te  Te214  1  0.67351321  0.66764598  0.50222493  1
  Te  Te215  1  0.66355604  0.66030436  0.83015284  1
