# generated using pymatgen
data_AgSbTe2
_symmetry_space_group_name_H-M   'P 1'
_cell_length_a   18.31524685
_cell_length_b   18.32190503
_cell_length_c   18.32425203
_cell_angle_alpha   90.00047830
_cell_angle_beta   90.00111611
_cell_angle_gamma   89.99883635
_symmetry_Int_Tables_number   1
_chemical_formula_structural   AgSbTe2
_chemical_formula_sum   'Ag54 Sb54 Te108'
_cell_volume   6149.07316019
_cell_formula_units_Z   54
loop_
 _symmetry_equiv_pos_site_id
 _symmetry_equiv_pos_as_xyz
  1  'x, y, z'
loop_
 _atom_site_type_symbol
 _atom_site_label
 _atom_site_symmetry_multiplicity
 _atom_site_fract_x
 _atom_site_fract_y
 _atom_site_fract_z
 _atom_site_occupancy
  Ag  Ag0  1  0.32995424  0.17922897  0.83248628  1
  Ag  Ag1  1  0.17003856  -0.00655729  0.83547058  1
  Ag  Ag2  1  0.83328535  0.34082589  0.83221815  1
  Ag  Ag3  1  0.67357702  0.66643834  0.66980842  1
  Ag  Ag4  1  0.83330837  0.83080312  0.66425274  1
  Ag  Ag5  1  0.32918977  0.33375625  0.32748097  1
  Ag  Ag6  1  0.67442023  0.84532780  0.16760643  1
  Ag  Ag7  1  0.51086400  0.00290793  0.16544946  1
  Ag  Ag8  1  0.17644356  0.50040367  -0.00737367  1
  Ag  Ag9  1  -0.00068038  0.66675531  0.33502135  1
  Ag  Ag10  1  0.32907589  -0.00213628  0.67239832  1
  Ag  Ag11  1  0.16821765  0.34365618  0.50109857  1
  Ag  Ag12  1  0.82263218  -0.00458904  0.16750703  1
  Ag  Ag13  1  0.83452538  0.66822959  0.50208021  1
  Ag  Ag14  1  0.00036248  0.33411231  0.66967292  1
  Ag  Ag15  1  0.66840457  0.66794174  -0.00390611  1
  Ag  Ag16  1  0.66594444  -0.00476784  0.00998156  1
  Ag  Ag17  1  0.83274624  0.50094378  0.00128232  1
  Ag  Ag18  1  0.32899251  0.83123604  0.82908836  1
  Ag  Ag19  1  0.16521439  0.82628614  0.66244410  1
  Ag  Ag20  1  0.32760633  0.49651230  0.15409750  1
  Ag  Ag21  1  0.83694764  0.49990124  0.32806992  1
  Ag  Ag22  1  0.49137910  0.33378020  0.83506919  1
  Ag  Ag23  1  0.16741001  0.50290493  0.67332359  1
  Ag  Ag24  1  0.16810387  0.33834810  0.17009990  1
  Ag  Ag25  1  0.83124374  0.16947913  0.66626226  1
  Ag  Ag26  1  0.67462738  0.33684008  0.66754862  1
  Ag  Ag27  1  0.32852797  0.33341435  0.67484570  1
  Ag  Ag28  1  0.66832233  0.00218543  0.32294002  1
  Ag  Ag29  1  0.16513173  0.66327422  0.82846634  1
  Ag  Ag30  1  0.67108549  0.50257122  0.50126317  1
  Ag  Ag31  1  0.83322664  0.66611059  0.16626773  1
  Ag  Ag32  1  -0.00562926  0.83273816  0.17290552  1
  Ag  Ag33  1  0.32156621  0.83146225  0.50862710  1
  Ag  Ag34  1  0.66889716  0.15759046  0.17248370  1
  Ag  Ag35  1  0.00237726  0.17796814  0.83111030  1
  Ag  Ag36  1  0.16706047  -0.00044452  0.16294185  1
  Ag  Ag37  1  0.66981953  0.16634378  0.49336789  1
  Ag  Ag38  1  0.16148096  0.66653225  0.50578361  1
  Ag  Ag39  1  0.00353195  0.82849465  0.49802408  1
  Ag  Ag40  1  0.33455542  0.65635867  -0.00300982  1
  Ag  Ag41  1  0.16463666  0.82670098  0.34012971  1
  Ag  Ag42  1  0.50100732  0.17222650  0.00297911  1
  Ag  Ag43  1  0.67115673  0.83042909  0.50209225  1
  Ag  Ag44  1  0.32641392  0.49687391  0.84149262  1
  Ag  Ag45  1  0.83339237  0.66144368  0.83260370  1
  Ag  Ag46  1  0.00575877  0.49785933  0.83287837  1
  Ag  Ag47  1  0.83491943  0.33691911  0.16421899  1
  Ag  Ag48  1  0.82817342  0.17147866  0.33347882  1
  Ag  Ag49  1  0.33402997  0.34298372  -0.00626925  1
  Ag  Ag50  1  0.16358549  0.50201691  0.33392762  1
  Ag  Ag51  1  0.48858192  0.49540121  -0.00056228  1
  Ag  Ag52  1  0.66721470  0.83020691  0.83182717  1
  Ag  Ag53  1  0.51038582  0.16726113  0.32579014  1
  Sb  Sb54  1  -0.00612707  0.16373254  0.16370779  1
  Sb  Sb55  1  0.16145513  0.66408003  0.16561302  1
  Sb  Sb56  1  0.16433845  0.16887198  0.33164650  1
  Sb  Sb57  1  0.33096944  0.66570186  0.67185390  1
  Sb  Sb58  1  -0.00415584  -0.00476239  0.33146990  1
  Sb  Sb59  1  0.33531269  0.00332506  0.33442883  1
  Sb  Sb60  1  0.33607791  0.00077109  -0.00313476  1
  Sb  Sb61  1  0.66477497  -0.00223044  0.66771442  1
  Sb  Sb62  1  0.66411083  0.33634200  -0.00424902  1
  Sb  Sb63  1  0.49742533  0.33351606  0.50422106  1
  Sb  Sb64  1  0.83533744  -0.00124241  0.83686920  1
  Sb  Sb65  1  0.83480372  0.33851094  0.50222064  1
  Sb  Sb66  1  0.83007503  0.82729662  -0.00029367  1
  Sb  Sb67  1  0.16805778  0.82781877  -0.00266219  1
  Sb  Sb68  1  0.66764462  0.50368888  0.83119442  1
  Sb  Sb69  1  0.50392035  0.16868834  0.66842996  1
  Sb  Sb70  1  0.82737425  0.17234636  0.00025647  1
  Sb  Sb71  1  -0.00066969  0.50473286  0.50358278  1
  Sb  Sb72  1  0.00324984  0.00121561  0.66832656  1
  Sb  Sb73  1  0.49679566  0.49821821  0.67230863  1
  Sb  Sb74  1  0.00218190  0.33845943  0.33691524  1
  Sb  Sb75  1  0.33145942  0.82972953  0.16494675  1
  Sb  Sb76  1  0.83079819  -0.00569141  0.49536832  1
  Sb  Sb77  1  0.16617357  0.34041304  0.83090581  1
  Sb  Sb78  1  0.17250223  0.17266299  -0.00279874  1
  Sb  Sb79  1  0.33592158  0.16627798  0.50495863  1
  Sb  Sb80  1  0.00198626  0.50252392  0.16345575  1
  Sb  Sb81  1  0.83685390  0.82974465  0.33463060  1
  Sb  Sb82  1  0.16393819  0.17006503  0.66948219  1
  Sb  Sb83  1  0.50061743  0.32970360  0.16174981  1
  Sb  Sb84  1  -0.00481285  0.16496901  0.50343556  1
  Sb  Sb85  1  0.49878281  0.49344403  0.32842871  1
  Sb  Sb86  1  0.00455016  0.33577435  -0.00407821  1
  Sb  Sb87  1  0.50217371  0.66662965  0.50047984  1
  Sb  Sb88  1  0.67373295  0.67083201  0.33344521  1
  Sb  Sb89  1  -0.00205366  0.66394643  0.66411696  1
  Sb  Sb90  1  0.50242796  0.83355549  -0.00078892  1
  Sb  Sb91  1  0.50183948  0.00141540  0.49586442  1
  Sb  Sb92  1  -0.00216980  0.66444375  0.00128186  1
  Sb  Sb93  1  0.83627105  0.50150841  0.66805383  1
  Sb  Sb94  1  0.49647615  0.00443712  0.83826102  1
  Sb  Sb95  1  0.49914812  0.83767384  0.33250069  1
  Sb  Sb96  1  0.49910583  0.83333424  0.66760647  1
  Sb  Sb97  1  0.66711781  0.16558020  0.83403542  1
  Sb  Sb98  1  0.33057631  0.50265223  0.50240498  1
  Sb  Sb99  1  0.66867166  0.49952977  0.16763641  1
  Sb  Sb100  1  0.33688475  0.17132749  0.16241827  1
  Sb  Sb101  1  0.16799672  -0.00554438  0.50108510  1
  Sb  Sb102  1  0.49977761  0.66216268  0.83517103  1
  Sb  Sb103  1  0.32469196  0.66187294  0.33032365  1
  Sb  Sb104  1  0.50620919  0.66928189  0.16382026  1
  Sb  Sb105  1  -0.00404889  -0.00003652  0.00072881  1
  Sb  Sb106  1  0.66564882  0.32832035  0.33587562  1
  Sb  Sb107  1  0.00092810  0.82916754  0.83111012  1
  Te  Te108  1  0.16440921  0.16736633  0.16525927  1
  Te  Te109  1  0.16548912  0.16993205  0.49995136  1
  Te  Te110  1  0.16804768  0.16090368  0.83302784  1
  Te  Te111  1  0.16724757  0.49847462  0.17105680  1
  Te  Te112  1  0.16649936  0.50342016  0.49614621  1
  Te  Te113  1  0.16639811  0.50147331  0.83353470  1
  Te  Te114  1  0.16599364  0.83285064  0.16867981  1
  Te  Te115  1  0.16495400  0.83158868  0.50115665  1
  Te  Te116  1  0.16649039  0.83034325  0.83003775  1
  Te  Te117  1  0.50301392  0.16468420  0.16577522  1
  Te  Te118  1  0.50691466  0.16731936  0.49509178  1
  Te  Te119  1  0.49686086  0.17187766  0.83651895  1
  Te  Te120  1  0.49599338  0.49973732  0.16094144  1
  Te  Te121  1  0.50857301  0.49973856  0.49853059  1
  Te  Te122  1  0.49547950  0.49467314  0.83903280  1
  Te  Te123  1  0.50410872  0.84007115  0.16711410  1
  Te  Te124  1  0.50652635  0.83338251  0.49907253  1
  Te  Te125  1  0.50100582  0.83427125  0.83337356  1
  Te  Te126  1  0.83067894  0.16932837  0.16757201  1
  Te  Te127  1  0.83035269  0.16684676  0.50065642  1
  Te  Te128  1  0.83602050  0.16691418  0.83103009  1
  Te  Te129  1  0.83497319  0.49956356  0.16809007  1
  Te  Te130  1  0.83179313  0.50592215  0.49734498  1
  Te  Te131  1  0.83375359  0.50110447  0.83266462  1
  Te  Te132  1  0.83330988  0.83259756  0.16749276  1
  Te  Te133  1  0.83176050  0.82888895  0.50110694  1
  Te  Te134  1  0.83244837  0.83032064  0.82929334  1
  Te  Te135  1  0.16671166  0.00016623  -0.00077709  1
  Te  Te136  1  0.16650215  -0.00160946  0.33051062  1
  Te  Te137  1  0.17060668  -0.00238634  0.66910015  1
  Te  Te138  1  0.17122186  0.33923529  0.00719334  1
  Te  Te139  1  0.16834404  0.33509563  0.33156321  1
  Te  Te140  1  0.16698109  0.33507775  0.66499426  1
  Te  Te141  1  0.16810731  0.66038470  -0.00416248  1
  Te  Te142  1  0.16191110  0.66606311  0.33390219  1
  Te  Te143  1  0.16674139  0.66612568  0.66722331  1
  Te  Te144  1  0.50388212  0.00343143  0.00467774  1
  Te  Te145  1  0.50279806  0.00600814  0.32763542  1
  Te  Te146  1  0.49033667  0.00149206  0.66780569  1
  Te  Te147  1  0.49753215  0.33415547  -0.00381138  1
  Te  Te148  1  0.49349896  0.32749148  0.33328601  1
  Te  Te149  1  0.49674739  0.33321047  0.67349187  1
  Te  Te150  1  0.50288676  0.66090249  0.00063329  1
  Te  Te151  1  0.49827727  0.66496771  0.33208597  1
  Te  Te152  1  0.51357495  0.66554717  0.66710380  1
  Te  Te153  1  0.82763316  0.00108875  0.00606349  1
  Te  Te154  1  0.82928770  0.00390102  0.32821296  1
  Te  Te155  1  0.83380685  -0.00149610  0.66740156  1
  Te  Te156  1  0.83375008  0.33824128  -0.00190060  1
  Te  Te157  1  0.83401480  0.33646435  0.33283825  1
  Te  Te158  1  0.83348341  0.33392693  0.66788875  1
  Te  Te159  1  0.83140431  0.66304766  -0.00329574  1
  Te  Te160  1  0.83732240  0.66315901  0.33410802  1
  Te  Te161  1  0.83194126  0.66815174  0.66746800  1
  Te  Te162  1  0.00026735  0.16744335  -0.00883464  1
  Te  Te163  1  -0.00856592  0.16710363  0.33380940  1
  Te  Te164  1  -0.00637020  0.17075415  0.67054048  1
  Te  Te165  1  -0.00673198  0.50002715  -0.00569956  1
  Te  Te166  1  0.00040120  0.50447905  0.33339893  1
  Te  Te167  1  0.00576810  0.49522702  0.67041496  1
  Te  Te168  1  -0.00002960  0.83259831  0.00871207  1
  Te  Te169  1  0.00319754  0.82984882  0.33375375  1
  Te  Te170  1  -0.00055153  0.83380959  0.66382253  1
  Te  Te171  1  0.33959091  0.16849703  -0.00565394  1
  Te  Te172  1  0.33350310  0.17208730  0.33511941  1
  Te  Te173  1  0.33446233  0.16989406  0.67111309  1
  Te  Te174  1  0.33263068  0.49979733  -0.00153944  1
  Te  Te175  1  0.33045835  0.49435650  0.33466982  1
  Te  Te176  1  0.32908150  0.49698718  0.66963747  1
  Te  Te177  1  0.33459762  0.82846628  -0.00510330  1
  Te  Te178  1  0.32834653  0.83369389  0.33512842  1
  Te  Te179  1  0.33139961  0.83090673  0.66781473  1
  Te  Te180  1  0.66151905  0.16612972  0.00233199  1
  Te  Te181  1  0.66930734  0.16659278  0.33348028  1
  Te  Te182  1  0.67102778  0.16734003  0.66511130  1
  Te  Te183  1  0.67333326  0.50487137  -0.00034366  1
  Te  Te184  1  0.66797680  0.49973430  0.33764218  1
  Te  Te185  1  0.66527677  0.49928057  0.66374586  1
  Te  Te186  1  0.66655510  0.83094061  -0.00012084  1
  Te  Te187  1  0.66688161  0.83850288  0.33286842  1
  Te  Te188  1  0.66874328  0.83309624  0.66667330  1
  Te  Te189  1  0.00698256  -0.00430635  0.16610880  1
  Te  Te190  1  -0.00036784  -0.00870921  0.49990604  1
  Te  Te191  1  0.00663883  0.00023687  0.83455986  1
  Te  Te192  1  -0.00318940  0.33258710  0.16752479  1
  Te  Te193  1  0.00619141  0.33326472  0.50638805  1
  Te  Te194  1  -0.00130205  0.33542143  0.83050072  1
  Te  Te195  1  -0.00657321  0.66992165  0.17038492  1
  Te  Te196  1  0.00037200  0.66932622  0.49751447  1
  Te  Te197  1  -0.00096096  0.66247675  0.83400447  1
  Te  Te198  1  0.32620748  -0.00028799  0.16638412  1
  Te  Te199  1  0.33459781  -0.00589640  0.50473606  1
  Te  Te200  1  0.33049404  -0.00749807  0.83180477  1
  Te  Te201  1  0.33298947  0.33535691  0.16623124  1
  Te  Te202  1  0.32936484  0.33339641  0.50452667  1
  Te  Te203  1  0.32964250  0.33555022  0.83438889  1
  Te  Te204  1  0.33504892  0.66085078  0.16144231  1
  Te  Te205  1  0.33120604  0.67145771  0.50024995  1
  Te  Te206  1  0.33290201  0.66756237  0.83559500  1
  Te  Te207  1  0.66709006  0.00131877  0.16614120  1
  Te  Te208  1  0.66635196  -0.00003616  0.49904725  1
  Te  Te209  1  0.66580805  -0.00700221  0.83645544  1
  Te  Te210  1  0.67311890  0.33101950  0.16596759  1
  Te  Te211  1  0.66624001  0.33248511  0.50560240  1
  Te  Te212  1  0.67391203  0.33281860  0.82788400  1
  Te  Te213  1  0.67365633  0.66764510  0.16404191  1
  Te  Te214  1  0.66889306  0.66840134  0.50011097  1
  Te  Te215  1  0.66803251  0.66897675  0.83373291  1
