# generated using pymatgen
data_AgSbTe2
_symmetry_space_group_name_H-M   'P 1'
_cell_length_a   18.33609404
_cell_length_b   18.33703329
_cell_length_c   18.33551547
_cell_angle_alpha   90.00090179
_cell_angle_beta   89.99983009
_cell_angle_gamma   89.99875254
_symmetry_Int_Tables_number   1
_chemical_formula_structural   AgSbTe2
_chemical_formula_sum   'Ag54 Sb54 Te108'
_cell_volume   6164.94241911
_cell_formula_units_Z   54
loop_
 _symmetry_equiv_pos_site_id
 _symmetry_equiv_pos_as_xyz
  1  'x, y, z'
loop_
 _atom_site_type_symbol
 _atom_site_label
 _atom_site_symmetry_multiplicity
 _atom_site_fract_x
 _atom_site_fract_y
 _atom_site_fract_z
 _atom_site_occupancy
  Ag  Ag0  1  0.32309870  0.83346361  0.16613771  1
  Ag  Ag1  1  0.49039457  0.33479391  0.82916938  1
  Ag  Ag2  1  0.33141800  0.83654039  0.84761406  1
  Ag  Ag3  1  -0.00248048  0.84203310  0.16800843  1
  Ag  Ag4  1  0.66493372  0.33786031  0.01268819  1
  Ag  Ag5  1  0.67085267  0.50058796  0.16934326  1
  Ag  Ag6  1  0.15461604  -0.00446243  0.16791056  1
  Ag  Ag7  1  0.33191178  0.49707923  0.16841701  1
  Ag  Ag8  1  0.32644679  0.49571107  0.49257826  1
  Ag  Ag9  1  0.83124494  0.33381547  0.48673545  1
  Ag  Ag10  1  0.66277531  0.66542825  0.65698745  1
  Ag  Ag11  1  0.16630459  0.49717017  0.65894217  1
  Ag  Ag12  1  0.49267614  0.33880092  0.49905111  1
  Ag  Ag13  1  0.00196557  0.33709376  0.66092746  1
  Ag  Ag14  1  0.50091545  0.16904673  0.33330609  1
  Ag  Ag15  1  0.83778255  0.83274011  0.32714657  1
  Ag  Ag16  1  0.66192929  0.17172515  0.48686719  1
  Ag  Ag17  1  0.33086022  0.00785489  0.32995178  1
  Ag  Ag18  1  -0.00035001  -0.00899231  0.01323704  1
  Ag  Ag19  1  0.00458738  0.49770705  0.84163498  1
  Ag  Ag20  1  0.82867522  0.32951110  0.16944849  1
  Ag  Ag21  1  0.83394945  0.16696056  0.00824351  1
  Ag  Ag22  1  -0.00155325  -0.00481642  0.32428068  1
  Ag  Ag23  1  0.00176380  0.82957769  0.48455973  1
  Ag  Ag24  1  0.32600420  0.66132612  0.00541633  1
  Ag  Ag25  1  0.66542709  0.66492049  0.32902709  1
  Ag  Ag26  1  -0.00098318  0.49998145  0.16766645  1
  Ag  Ag27  1  0.33336957  0.17258237  0.84236551  1
  Ag  Ag28  1  0.66660108  0.66296935  0.01135235  1
  Ag  Ag29  1  -0.00197963  0.00165112  0.66320313  1
  Ag  Ag30  1  0.49424261  0.49824745  0.66171683  1
  Ag  Ag31  1  0.33433505  0.33721296  0.00846722  1
  Ag  Ag32  1  0.49826934  0.65880273  0.49319986  1
  Ag  Ag33  1  0.67096121  -0.00143676  0.65906025  1
  Ag  Ag34  1  0.00818788  0.49915921  0.49711475  1
  Ag  Ag35  1  0.33697430  0.32929491  0.33363162  1
  Ag  Ag36  1  0.67347384  0.17360879  0.17012809  1
  Ag  Ag37  1  -0.01034928  0.15401390  0.16638690  1
  Ag  Ag38  1  0.66535995  0.32930834  0.32995055  1
  Ag  Ag39  1  0.66971341  0.00766079  0.33082804  1
  Ag  Ag40  1  0.17094102  0.33712195  0.83307392  1
  Ag  Ag41  1  0.00385108  0.66983898  0.00558335  1
  Ag  Ag42  1  0.67874569  0.82891845  0.16944311  1
  Ag  Ag43  1  0.33415386  0.17112987  0.16977283  1
  Ag  Ag44  1  0.16605275  0.50326018  0.00196986  1
  Ag  Ag45  1  0.50419180  0.66598440  0.16915415  1
  Ag  Ag46  1  0.33871230  0.17993782  0.48680995  1
  Ag  Ag47  1  0.83169106  0.50056845  0.32947981  1
  Ag  Ag48  1  0.84075640  0.00139255  0.16815221  1
  Ag  Ag49  1  0.16877328  0.65594842  0.49912536  1
  Ag  Ag50  1  0.16998825  0.33822065  0.50009900  1
  Ag  Ag51  1  0.84323716  0.83460369  0.01117055  1
  Ag  Ag52  1  0.15893862  0.83522500  0.32468079  1
  Ag  Ag53  1  0.16283980  0.82558619  0.00817075  1
  Sb  Sb54  1  -0.00038186  0.16921182  0.49274344  1
  Sb  Sb55  1  0.83430974  0.83480821  0.66211523  1
  Sb  Sb56  1  0.16355857  0.50399687  0.33207879  1
  Sb  Sb57  1  0.16476258  0.16919751  0.00347756  1
  Sb  Sb58  1  0.66160176  0.16883605  0.83785419  1
  Sb  Sb59  1  0.16587909  0.00285790  0.83888906  1
  Sb  Sb60  1  0.00437677  0.17110994  0.83857919  1
  Sb  Sb61  1  0.17226188  0.16291435  0.33211497  1
  Sb  Sb62  1  0.50285446  0.49554295  0.33527603  1
  Sb  Sb63  1  0.16891501  0.67159453  0.16796187  1
  Sb  Sb64  1  0.32739047  0.82967889  0.49214546  1
  Sb  Sb65  1  0.66945857  0.49906323  0.83827707  1
  Sb  Sb66  1  0.00183028  0.33580511  0.00153550  1
  Sb  Sb67  1  0.16465053  0.82850628  0.66687911  1
  Sb  Sb68  1  0.32854877  0.49582529  0.83625953  1
  Sb  Sb69  1  0.83586853  0.33414491  0.83874330  1
  Sb  Sb70  1  0.16436062  0.00148265  0.49292155  1
  Sb  Sb71  1  0.16773654  0.66124459  0.83447653  1
  Sb  Sb72  1  -0.00292627  0.66293933  0.66616924  1
  Sb  Sb73  1  0.82752703  0.16821708  0.32635003  1
  Sb  Sb74  1  0.32794631  0.33486598  0.66274657  1
  Sb  Sb75  1  0.33103928  0.00075223  0.66119597  1
  Sb  Sb76  1  0.49781941  0.00713042  0.83025293  1
  Sb  Sb77  1  0.66918432  0.33460332  0.66147444  1
  Sb  Sb78  1  0.49572273  0.83000744  0.00442265  1
  Sb  Sb79  1  0.83581957  0.49837989  0.65987834  1
  Sb  Sb80  1  -0.00206102  0.67079493  0.32710258  1
  Sb  Sb81  1  0.32647545  0.00057982  0.01083595  1
  Sb  Sb82  1  0.50139487  0.83504124  0.33130610  1
  Sb  Sb83  1  0.83287607  0.16642587  0.66920416  1
  Sb  Sb84  1  0.82834900  0.67110234  0.16733146  1
  Sb  Sb85  1  0.83474782  -0.00007604  0.84009110  1
  Sb  Sb86  1  0.16590144  0.17304008  0.66556849  1
  Sb  Sb87  1  0.66614897  0.49602346  0.49269688  1
  Sb  Sb88  1  0.67489368  -0.00006377  0.00978106  1
  Sb  Sb89  1  0.49807822  0.66070152  0.83579389  1
  Sb  Sb90  1  0.00484249  0.83055476  0.84134817  1
  Sb  Sb91  1  0.83371336  0.66210150  0.49629499  1
  Sb  Sb92  1  0.50085914  0.00214656  0.49669058  1
  Sb  Sb93  1  0.50179018  0.17113967  0.00812920  1
  Sb  Sb94  1  0.16715320  0.33228850  0.16872802  1
  Sb  Sb95  1  0.83434512  0.00597189  0.48900968  1
  Sb  Sb96  1  0.33578486  0.66368976  0.66840327  1
  Sb  Sb97  1  0.50227767  0.82721200  0.66573005  1
  Sb  Sb98  1  -0.00065362  0.33094839  0.33443825  1
  Sb  Sb99  1  0.50038270  0.17317125  0.66001242  1
  Sb  Sb100  1  0.50274139  0.33727963  0.17189773  1
  Sb  Sb101  1  0.49595106  0.49794252  0.00038036  1
  Sb  Sb102  1  0.67175749  0.83483117  0.49057484  1
  Sb  Sb103  1  0.66247536  0.83351764  0.84169491  1
  Sb  Sb104  1  0.83816674  0.50060392  0.01027389  1
  Sb  Sb105  1  0.33691934  0.66432480  0.32720450  1
  Sb  Sb106  1  0.50169807  -0.00221501  0.16863081  1
  Sb  Sb107  1  0.83326101  0.66574694  0.83718541  1
  Te  Te108  1  0.17189894  0.16175550  0.16643514  1
  Te  Te109  1  0.17201010  0.17307591  0.50023484  1
  Te  Te110  1  0.17324880  0.17364835  0.83434190  1
  Te  Te111  1  0.16908206  0.49973396  0.16499176  1
  Te  Te112  1  0.16708140  0.49887692  0.49610466  1
  Te  Te113  1  0.16363392  0.49652071  0.83518251  1
  Te  Te114  1  0.16410310  0.83311461  0.16589068  1
  Te  Te115  1  0.16079398  0.83368404  0.49976438  1
  Te  Te116  1  0.17244265  0.83293817  0.83661352  1
  Te  Te117  1  0.49571597  0.16582035  0.17296447  1
  Te  Te118  1  0.49989952  0.16904771  0.49567054  1
  Te  Te119  1  0.49342919  0.17437326  0.83222772  1
  Te  Te120  1  0.49687834  0.50516539  0.16613683  1
  Te  Te121  1  0.50103055  0.49955674  0.50169841  1
  Te  Te122  1  0.50046056  0.49403416  0.82619851  1
  Te  Te123  1  0.49830970  0.82715578  0.16715176  1
  Te  Te124  1  0.49884811  0.82409780  0.49980822  1
  Te  Te125  1  0.49197691  0.83366425  0.83373727  1
  Te  Te126  1  0.83226191  0.16831092  0.16501725  1
  Te  Te127  1  0.82993096  0.17378672  0.50174305  1
  Te  Te128  1  0.83336061  0.16739311  0.84425326  1
  Te  Te129  1  0.83056136  0.49565030  0.16976667  1
  Te  Te130  1  0.83592807  0.49441591  0.49339699  1
  Te  Te131  1  0.84306567  0.49871921  0.83304856  1
  Te  Te132  1  0.83624999  0.83377173  0.16759404  1
  Te  Te133  1  0.84047713  0.83379954  0.49396143  1
  Te  Te134  1  0.83290988  0.83352681  0.84052453  1
  Te  Te135  1  0.16034664  -0.00298258  0.00508401  1
  Te  Te136  1  0.16550798  -0.00453779  0.32882581  1
  Te  Te137  1  0.16167770  -0.00088030  0.66699604  1
  Te  Te138  1  0.17116846  0.33766408  -0.00120373  1
  Te  Te139  1  0.17139582  0.33521075  0.33780339  1
  Te  Te140  1  0.16217297  0.33838157  0.66515865  1
  Te  Te141  1  0.16737216  0.66552005  -0.00029972  1
  Te  Te142  1  0.16794021  0.67400852  0.34060985  1
  Te  Te143  1  0.16628446  0.66000892  0.66130655  1
  Te  Te144  1  0.50109115  0.00131500  -0.00310807  1
  Te  Te145  1  0.50371535  0.00585268  0.33337034  1
  Te  Te146  1  0.50667698  -0.00091512  0.66448335  1
  Te  Te147  1  0.49911611  0.33366961  -0.00526677  1
  Te  Te148  1  0.49922310  0.32999779  0.33802414  1
  Te  Te149  1  0.50232944  0.33891831  0.66322134  1
  Te  Te150  1  0.50523777  0.66421194  0.00319691  1
  Te  Te151  1  0.50406062  0.66715834  0.33359956  1
  Te  Te152  1  0.50373409  0.66027484  0.66540122  1
  Te  Te153  1  0.83896145  -0.00188276  0.00583006  1
  Te  Te154  1  0.83289100  -0.00357031  0.32820116  1
  Te  Te155  1  0.83272038  -0.00004727  0.66764898  1
  Te  Te156  1  0.82972560  0.33162808  0.00569864  1
  Te  Te157  1  0.83305421  0.33535151  0.32972155  1
  Te  Te158  1  0.83999747  0.33299124  0.66708234  1
  Te  Te159  1  0.83151301  0.67060047  0.00006573  1
  Te  Te160  1  0.82680458  0.66682585  0.33393883  1
  Te  Te161  1  0.82384435  0.66687373  0.66707543  1
  Te  Te162  1  -0.00301224  0.16605873  0.00542394  1
  Te  Te163  1  0.00133976  0.15998787  0.32693687  1
  Te  Te164  1  -0.00077714  0.16665450  0.66703434  1
  Te  Te165  1  0.00336323  0.50151976  0.00242539  1
  Te  Te166  1  -0.00373719  0.50114711  0.33318968  1
  Te  Te167  1  0.00311990  0.49925492  0.65818468  1
  Te  Te168  1  0.00222799  0.83126118  0.00206757  1
  Te  Te169  1  -0.00117430  0.83286958  0.32884497  1
  Te  Te170  1  -0.00093290  0.83414240  0.67061335  1
  Te  Te171  1  0.33371051  0.16985836  0.00388635  1
  Te  Te172  1  0.33408377  0.16805686  0.33126496  1
  Te  Te173  1  0.33387732  0.16368684  0.66767150  1
  Te  Te174  1  0.33039119  0.49892310  0.00183716  1
  Te  Te175  1  0.33331429  0.49688538  0.33176787  1
  Te  Te176  1  0.33110354  0.50105269  0.66309031  1
  Te  Te177  1  0.32950131  0.83389182  0.00539825  1
  Te  Te178  1  0.33174356  0.83598787  0.32770307  1
  Te  Te179  1  0.33347611  0.83358533  0.66898295  1
  Te  Te180  1  0.66941025  0.16956056  0.00584714  1
  Te  Te181  1  0.66671067  0.16873555  0.33043416  1
  Te  Te182  1  0.66670825  0.16256272  0.66636315  1
  Te  Te183  1  0.66699141  0.49910319  0.00471355  1
  Te  Te184  1  0.66935145  0.49805128  0.32892556  1
  Te  Te185  1  0.66729767  0.50335435  0.66931980  1
  Te  Te186  1  0.66722999  0.83083701  0.00669768  1
  Te  Te187  1  0.66863430  0.83351639  0.32888810  1
  Te  Te188  1  0.66752244  0.83272605  0.66766467  1
  Te  Te189  1  -0.00099125  -0.00109202  0.16856040  1
  Te  Te190  1  -0.00055221  -0.00070479  0.50268584  1
  Te  Te191  1  0.00051165  0.00145628  0.82559925  1
  Te  Te192  1  -0.00176703  0.34087516  0.16674628  1
  Te  Te193  1  0.00046888  0.33383368  0.49997192  1
  Te  Te194  1  0.00399923  0.33657086  0.83060210  1
  Te  Te195  1  0.00165881  0.65784279  0.16308315  1
  Te  Te196  1  0.00192565  0.66579198  0.49962132  1
  Te  Te197  1  0.00067232  0.66013389  0.83810912  1
  Te  Te198  1  0.33537880  -0.00115720  0.17197754  1
  Te  Te199  1  0.33311553  0.00105600  0.49229086  1
  Te  Te200  1  0.33231189  0.00145059  0.83239199  1
  Te  Te201  1  0.33433930  0.33495333  0.16774239  1
  Te  Te202  1  0.33364326  0.33558182  0.50068744  1
  Te  Te203  1  0.33146292  0.33291980  0.83210737  1
  Te  Te204  1  0.33553774  0.66457666  0.16339234  1
  Te  Te205  1  0.33450595  0.66229562  0.49979180  1
  Te  Te206  1  0.33437426  0.67055767  0.84185231  1
  Te  Te207  1  0.66829460  0.00010318  0.17144157  1
  Te  Te208  1  0.66766708  0.00341821  0.49745973  1
  Te  Te209  1  0.66650604  0.00013636  0.82622801  1
  Te  Te210  1  0.66361615  0.33329456  0.16939813  1
  Te  Te211  1  0.66927565  0.33054258  0.49776138  1
  Te  Te212  1  0.66547556  0.33299129  0.83496669  1
  Te  Te213  1  0.66586641  0.66581192  0.16860991  1
  Te  Te214  1  0.66467621  0.66682357  0.49745623  1
  Te  Te215  1  0.66481534  0.66756753  0.83681892  1
