# generated using pymatgen
data_AgSbTe2
_symmetry_space_group_name_H-M   'P 1'
_cell_length_a   18.32246082
_cell_length_b   18.32399980
_cell_length_c   18.32373261
_cell_angle_alpha   89.99981629
_cell_angle_beta   90.00224708
_cell_angle_gamma   89.99625092
_symmetry_Int_Tables_number   1
_chemical_formula_structural   AgSbTe2
_chemical_formula_sum   'Ag54 Sb54 Te108'
_cell_volume   6152.02404900
_cell_formula_units_Z   54
loop_
 _symmetry_equiv_pos_site_id
 _symmetry_equiv_pos_as_xyz
  1  'x, y, z'
loop_
 _atom_site_type_symbol
 _atom_site_label
 _atom_site_symmetry_multiplicity
 _atom_site_fract_x
 _atom_site_fract_y
 _atom_site_fract_z
 _atom_site_occupancy
  Ag  Ag0  1  -0.00173531  0.00054765  -0.00102905  1
  Ag  Ag1  1  0.83717176  0.00931065  0.83224684  1
  Ag  Ag2  1  0.49690887  0.49396487  0.00820785  1
  Ag  Ag3  1  0.66863984  0.49759263  0.83387841  1
  Ag  Ag4  1  0.49917347  0.83107242  0.66488900  1
  Ag  Ag5  1  0.16131063  0.16824906  0.66571223  1
  Ag  Ag6  1  0.15969645  0.66590903  0.49996861  1
  Ag  Ag7  1  0.83604684  0.49693330  0.66737567  1
  Ag  Ag8  1  0.84132408  0.66625857  0.50397498  1
  Ag  Ag9  1  0.33306420  0.50057040  0.49450892  1
  Ag  Ag10  1  0.15956769  0.82350006  0.66425344  1
  Ag  Ag11  1  0.17114540  0.50346722  0.00009384  1
  Ag  Ag12  1  0.00134065  0.66448823  0.66590480  1
  Ag  Ag13  1  0.66662879  0.82537923  0.16649335  1
  Ag  Ag14  1  0.15756356  0.00001714  0.49936798  1
  Ag  Ag15  1  0.50010375  0.17179234  -0.00386442  1
  Ag  Ag16  1  0.67267210  -0.00056477  0.33352237  1
  Ag  Ag17  1  0.33636685  0.33176234  0.00112822  1
  Ag  Ag18  1  0.65937154  0.50443576  0.16205468  1
  Ag  Ag19  1  0.50138044  0.00432365  0.16873431  1
  Ag  Ag20  1  0.84285687  0.00296404  0.50090219  1
  Ag  Ag21  1  0.83804574  0.66564005  0.83129903  1
  Ag  Ag22  1  -0.00323922  0.00033921  0.34228927  1
  Ag  Ag23  1  0.67030913  0.66550783  0.32916711  1
  Ag  Ag24  1  0.83288017  0.33296925  0.50953286  1
  Ag  Ag25  1  0.67796380  0.17204662  0.83292500  1
  Ag  Ag26  1  0.33945466  0.50096210  0.17074760  1
  Ag  Ag27  1  0.00002670  0.15995494  0.50456840  1
  Ag  Ag28  1  0.50363162  0.33383337  0.50348496  1
  Ag  Ag29  1  -0.00617254  0.33813528  0.66635778  1
  Ag  Ag30  1  0.83636525  0.16335110  -0.01097944  1
  Ag  Ag31  1  0.83586051  0.83713833  -0.00433838  1
  Ag  Ag32  1  0.50082101  0.00564046  0.49816733  1
  Ag  Ag33  1  0.49487697  0.50057170  0.32997217  1
  Ag  Ag34  1  -0.00283639  0.83127570  0.82774791  1
  Ag  Ag35  1  0.32043391  0.65923791  0.33440047  1
  Ag  Ag36  1  0.16169783  0.50541350  0.66473882  1
  Ag  Ag37  1  0.17244801  0.50793386  0.33693280  1
  Ag  Ag38  1  0.15678674  0.66385075  0.83047415  1
  Ag  Ag39  1  0.50009440  0.33858480  0.16523778  1
  Ag  Ag40  1  0.16436199  0.66354367  0.17321364  1
  Ag  Ag41  1  0.16201112  0.16707658  -0.00346038  1
  Ag  Ag42  1  0.83274207  0.33017172  0.82754258  1
  Ag  Ag43  1  0.67371360  0.33571086  0.66823213  1
  Ag  Ag44  1  0.00114762  0.83461280  0.50580219  1
  Ag  Ag45  1  0.32787428  0.00686085  0.00170732  1
  Ag  Ag46  1  0.15907007  0.16672503  0.34262993  1
  Ag  Ag47  1  -0.00316575  0.67075526  -0.01169877  1
  Ag  Ag48  1  0.49886894  0.17214522  0.66719322  1
  Ag  Ag49  1  0.67397838  0.66296414  0.00392865  1
  Ag  Ag50  1  0.50259419  0.49595308  0.66359857  1
  Ag  Ag51  1  0.00105477  0.66942547  0.34507921  1
  Ag  Ag52  1  -0.00422306  0.16051177  0.82988959  1
  Ag  Ag53  1  0.83888046  0.16301255  0.33988251  1
  Sb  Sb54  1  0.15913028  0.83130744  -0.00512242  1
  Sb  Sb55  1  0.32571753  0.83262745  0.83329868  1
  Sb  Sb56  1  0.66493098  0.16773403  0.16277983  1
  Sb  Sb57  1  0.00175580  0.50414275  0.16587120  1
  Sb  Sb58  1  0.33830413  0.82806404  0.16584992  1
  Sb  Sb59  1  0.50103657  0.66210892  0.16768421  1
  Sb  Sb60  1  0.66643240  0.33428173  0.33776073  1
  Sb  Sb61  1  0.83709689  0.82838332  0.66966652  1
  Sb  Sb62  1  0.82976901  0.00017482  0.16784892  1
  Sb  Sb63  1  0.50282009  0.82934451  0.33731504  1
  Sb  Sb64  1  0.50545269  0.83383183  -0.00263054  1
  Sb  Sb65  1  0.15910250  0.33739682  0.83197646  1
  Sb  Sb66  1  0.33345316  0.33977692  0.33217527  1
  Sb  Sb67  1  0.33408544  0.33580521  0.66953265  1
  Sb  Sb68  1  0.50621396  0.33326393  0.83101341  1
  Sb  Sb69  1  0.67301737  0.66124017  0.66699883  1
  Sb  Sb70  1  0.66307119  0.50022975  0.50159077  1
  Sb  Sb71  1  0.32866107  0.66314314  0.00413555  1
  Sb  Sb72  1  0.33243412  0.00057608  0.66879967  1
  Sb  Sb73  1  0.83748857  0.17348863  0.66767129  1
  Sb  Sb74  1  0.16262987  0.82899973  0.33867418  1
  Sb  Sb75  1  -0.00075201  0.33151837  0.34219290  1
  Sb  Sb76  1  0.15805789  -0.00133466  0.82964480  1
  Sb  Sb77  1  0.16973625  -0.00333844  0.16896104  1
  Sb  Sb78  1  0.32369008  0.66340054  0.66151042  1
  Sb  Sb79  1  0.32938872  0.16697371  0.83556918  1
  Sb  Sb80  1  0.00056954  0.16592033  0.16609286  1
  Sb  Sb81  1  0.67184576  0.83344371  0.49847215  1
  Sb  Sb82  1  0.66332412  0.33748623  -0.00542373  1
  Sb  Sb83  1  0.00424934  0.50400501  0.50253792  1
  Sb  Sb84  1  0.82728959  0.33359341  0.16463419  1
  Sb  Sb85  1  0.32821924  0.83008199  0.50054064  1
  Sb  Sb86  1  0.66754155  0.00541076  0.66248912  1
  Sb  Sb87  1  -0.00416698  0.50409310  0.83040233  1
  Sb  Sb88  1  0.83435943  0.66643778  0.16602743  1
  Sb  Sb89  1  0.83412980  0.83606033  0.33270729  1
  Sb  Sb90  1  0.50000696  0.66436175  0.50053143  1
  Sb  Sb91  1  0.67457886  0.83206053  0.83567376  1
  Sb  Sb92  1  0.16393627  0.33516522  0.50178615  1
  Sb  Sb93  1  0.83242723  0.50015430  -0.00661787  1
  Sb  Sb94  1  0.17160273  0.33910639  0.16429650  1
  Sb  Sb95  1  0.67198605  0.16640734  0.50484443  1
  Sb  Sb96  1  0.33158513  -0.00330547  0.33177346  1
  Sb  Sb97  1  0.50692034  0.00270769  0.83300097  1
  Sb  Sb98  1  0.67084098  -0.00100613  0.00398736  1
  Sb  Sb99  1  0.33399118  0.17242279  0.16494439  1
  Sb  Sb100  1  0.33572189  0.50005818  0.83473650  1
  Sb  Sb101  1  -0.00372007  0.83200519  0.16573324  1
  Sb  Sb102  1  0.50064471  0.16971177  0.33454516  1
  Sb  Sb103  1  0.00202699  0.33248692  -0.00762445  1
  Sb  Sb104  1  0.83387127  0.49945625  0.33993010  1
  Sb  Sb105  1  -0.00051871  -0.00040056  0.66424885  1
  Sb  Sb106  1  0.50479488  0.66490926  0.83239384  1
  Sb  Sb107  1  0.32927300  0.17096588  0.49989827  1
  Te  Te108  1  0.16791369  0.16666874  0.15967848  1
  Te  Te109  1  0.16374157  0.16732807  0.50149570  1
  Te  Te110  1  0.16145563  0.16684929  0.83379298  1
  Te  Te111  1  0.16795081  0.50343382  0.16532809  1
  Te  Te112  1  0.17017466  0.50064028  0.50030895  1
  Te  Te113  1  0.16793901  0.50372132  0.83200843  1
  Te  Te114  1  0.16868680  0.82562523  0.16564138  1
  Te  Te115  1  0.16276721  0.83514026  0.50449843  1
  Te  Te116  1  0.15895121  0.82966535  0.82636737  1
  Te  Te117  1  0.49978575  0.16781561  0.16414033  1
  Te  Te118  1  0.49967660  0.16806185  0.50125032  1
  Te  Te119  1  0.50017038  0.16633363  0.83487781  1
  Te  Te120  1  0.50019874  0.50038803  0.16661591  1
  Te  Te121  1  0.49701890  0.49922506  0.50082856  1
  Te  Te122  1  0.50533079  0.50010477  0.83063653  1
  Te  Te123  1  0.50596236  0.83850087  0.16631737  1
  Te  Te124  1  0.49963211  0.83608408  0.50497185  1
  Te  Te125  1  0.49984683  0.83377485  0.82604906  1
  Te  Te126  1  0.83234179  0.16849040  0.16716762  1
  Te  Te127  1  0.83719537  0.16442517  0.50047136  1
  Te  Te128  1  0.83433164  0.16628818  0.83116024  1
  Te  Te129  1  0.82606988  0.49809611  0.16815088  1
  Te  Te130  1  0.83334103  0.49833233  0.50549781  1
  Te  Te131  1  0.82946946  0.50196631  0.82905724  1
  Te  Te132  1  0.82684778  0.83337111  0.15791036  1
  Te  Te133  1  0.83932969  0.83457074  0.50042894  1
  Te  Te134  1  0.83848679  0.82903607  0.83605214  1
  Te  Te135  1  0.16337848  0.00187246  0.00046740  1
  Te  Te136  1  0.16404608  0.00241961  0.33687754  1
  Te  Te137  1  0.16877878  0.00576158  0.66151018  1
  Te  Te138  1  0.17020133  0.33244368  -0.00088760  1
  Te  Te139  1  0.16592920  0.33036499  0.33241246  1
  Te  Te140  1  0.16423030  0.33192900  0.66725638  1
  Te  Te141  1  0.16395054  0.66497279  -0.00344101  1
  Te  Te142  1  0.16180795  0.66628297  0.33766732  1
  Te  Te143  1  0.16302279  0.66535816  0.66335866  1
  Te  Te144  1  0.50226275  0.00228439  0.00139581  1
  Te  Te145  1  0.49939865  0.00049212  0.33483670  1
  Te  Te146  1  0.49964192  0.00588786  0.66345711  1
  Te  Te147  1  0.49849386  0.33362127  -0.00100118  1
  Te  Te148  1  0.50015019  0.33859160  0.33598973  1
  Te  Te149  1  0.49955519  0.33363493  0.66478910  1
  Te  Te150  1  0.50161424  0.66335121  -0.00060994  1
  Te  Te151  1  0.50859885  0.66122543  0.33430041  1
  Te  Te152  1  0.50016807  0.66184046  0.66677205  1
  Te  Te153  1  0.83682371  0.00271604  0.00047793  1
  Te  Te154  1  0.83479584  0.00194860  0.33513515  1
  Te  Te155  1  0.83143197  -0.00331011  0.66332759  1
  Te  Te156  1  0.83345975  0.32763248  -0.00453989  1
  Te  Te157  1  0.83304396  0.32685841  0.33800265  1
  Te  Te158  1  0.83357152  0.33580786  0.66670693  1
  Te  Te159  1  0.83592733  0.66429556  -0.00074048  1
  Te  Te160  1  0.83612834  0.66673446  0.33683070  1
  Te  Te161  1  0.83809075  0.66199305  0.66578421  1
  Te  Te162  1  0.00005148  0.16625106  -0.00140522  1
  Te  Te163  1  -0.00007077  0.16453942  0.33424791  1
  Te  Te164  1  0.00241312  0.16562501  0.66707864  1
  Te  Te165  1  0.00592989  0.50310331  -0.00092039  1
  Te  Te166  1  0.00421550  0.50359815  0.33351810  1
  Te  Te167  1  0.00173351  0.49963350  0.66699286  1
  Te  Te168  1  -0.00429652  0.83224809  -0.00109473  1
  Te  Te169  1  -0.00124967  0.83476407  0.33588842  1
  Te  Te170  1  0.00167761  0.83049978  0.66618522  1
  Te  Te171  1  0.33549887  0.16639976  0.00034608  1
  Te  Te172  1  0.32417938  0.16620485  0.33266786  1
  Te  Te173  1  0.33473299  0.16799962  0.66791591  1
  Te  Te174  1  0.33354166  0.49916310  0.00158743  1
  Te  Te175  1  0.33267175  0.50187090  0.33281134  1
  Te  Te176  1  0.33427654  0.49967368  0.66420666  1
  Te  Te177  1  0.33482591  0.84009074  -0.00003567  1
  Te  Te178  1  0.33437238  0.82254013  0.33270876  1
  Te  Te179  1  0.33670811  0.83255494  0.66745794  1
  Te  Te180  1  0.66663082  0.16744650  -0.00477289  1
  Te  Te181  1  0.67019628  0.16207614  0.33296825  1
  Te  Te182  1  0.66027282  0.17158227  0.67121411  1
  Te  Te183  1  0.66535868  0.50288323  -0.00152360  1
  Te  Te184  1  0.66581857  0.50228062  0.33137290  1
  Te  Te185  1  0.66493113  0.49705993  0.66829387  1
  Te  Te186  1  0.67142850  0.82705637  0.00300956  1
  Te  Te187  1  0.66768852  0.83296287  0.32888576  1
  Te  Te188  1  0.65985658  0.83238064  0.66690243  1
  Te  Te189  1  0.00150207  -0.00159373  0.16473581  1
  Te  Te190  1  0.00072864  -0.00019134  0.50010546  1
  Te  Te191  1  -0.00444211  -0.00036974  0.83694079  1
  Te  Te192  1  -0.00206745  0.33549820  0.16701901  1
  Te  Te193  1  -0.00469381  0.32691915  0.50672061  1
  Te  Te194  1  -0.00675534  0.32722961  0.82679112  1
  Te  Te195  1  0.00438950  0.66793783  0.16826749  1
  Te  Te196  1  -0.00057962  0.66714188  0.50261223  1
  Te  Te197  1  -0.00109180  0.66651271  0.83138610  1
  Te  Te198  1  0.33891973  -0.00184429  0.16337337  1
  Te  Te199  1  0.33735086  -0.00022516  0.49932345  1
  Te  Te200  1  0.33292967  -0.00077892  0.84209144  1
  Te  Te201  1  0.33945269  0.34036019  0.16214924  1
  Te  Te202  1  0.34053895  0.33850513  0.50099697  1
  Te  Te203  1  0.33114698  0.33375602  0.84196675  1
  Te  Te204  1  0.32890556  0.66159095  0.17142696  1
  Te  Te205  1  0.32996383  0.66257271  0.49485714  1
  Te  Te206  1  0.32554482  0.66743184  0.83420607  1
  Te  Te207  1  0.66212189  0.00013497  0.17182491  1
  Te  Te208  1  0.66288109  -0.00030963  0.49415082  1
  Te  Te209  1  0.67586337  0.00223092  0.83329732  1
  Te  Te210  1  0.65960555  0.33943855  0.16737829  1
  Te  Te211  1  0.66664102  0.33309625  0.50560667  1
  Te  Te212  1  0.67188122  0.33356152  0.82908788  1
  Te  Te213  1  0.66770283  0.66548182  0.16662840  1
  Te  Te214  1  0.67347051  0.66766048  0.49548242  1
  Te  Te215  1  0.67256576  0.66404475  0.83630474  1
