# generated using pymatgen
data_AgSbTe2
_symmetry_space_group_name_H-M   'P 1'
_cell_length_a   18.32047979
_cell_length_b   18.32001892
_cell_length_c   18.32548381
_cell_angle_alpha   90.00123309
_cell_angle_beta   90.00352497
_cell_angle_gamma   89.99920894
_symmetry_Int_Tables_number   1
_chemical_formula_structural   AgSbTe2
_chemical_formula_sum   'Ag54 Sb54 Te108'
_cell_volume   6150.61027273
_cell_formula_units_Z   54
loop_
 _symmetry_equiv_pos_site_id
 _symmetry_equiv_pos_as_xyz
  1  'x, y, z'
loop_
 _atom_site_type_symbol
 _atom_site_label
 _atom_site_symmetry_multiplicity
 _atom_site_fract_x
 _atom_site_fract_y
 _atom_site_fract_z
 _atom_site_occupancy
  Ag  Ag0  1  0.17533756  -0.00934376  0.16846733  1
  Ag  Ag1  1  0.84068100  0.83343206  0.32842592  1
  Ag  Ag2  1  0.49045954  0.49673673  0.66816057  1
  Ag  Ag3  1  0.67481770  0.33353906  0.32971716  1
  Ag  Ag4  1  0.83856474  0.32956158  0.49409623  1
  Ag  Ag5  1  0.16877467  0.67096632  0.17189155  1
  Ag  Ag6  1  0.66846926  0.66421056  0.00347494  1
  Ag  Ag7  1  0.50366879  0.33135155  0.49979662  1
  Ag  Ag8  1  0.49129223  0.00537673  0.83887495  1
  Ag  Ag9  1  0.67168382  0.49636409  0.50015627  1
  Ag  Ag10  1  0.67158496  0.00093572  0.32971317  1
  Ag  Ag11  1  0.83803644  0.49269211  0.33523107  1
  Ag  Ag12  1  0.49325447  0.00261031  0.16574561  1
  Ag  Ag13  1  0.33068278  0.83790837  0.84052423  1
  Ag  Ag14  1  0.00040041  0.33121319  0.65774895  1
  Ag  Ag15  1  0.33034832  -0.00319735  0.67384789  1
  Ag  Ag16  1  0.00859509  0.66673405  0.00093660  1
  Ag  Ag17  1  0.66158954  -0.00206590  0.00631479  1
  Ag  Ag18  1  0.65941926  0.49660016  0.83329074  1
  Ag  Ag19  1  0.33069411  0.66874581  0.00030787  1
  Ag  Ag20  1  0.66353279  0.33524440  0.00527281  1
  Ag  Ag21  1  0.83145114  0.83494728  0.00977519  1
  Ag  Ag22  1  0.16959279  0.50333119  -0.00210377  1
  Ag  Ag23  1  0.33256170  0.50036146  0.83320430  1
  Ag  Ag24  1  0.16215284  0.50675071  0.33958708  1
  Ag  Ag25  1  0.83683913  0.66884975  0.16662241  1
  Ag  Ag26  1  -0.00627895  0.33316574  0.34073792  1
  Ag  Ag27  1  0.00199081  0.49398394  0.49751512  1
  Ag  Ag28  1  0.32520845  0.66675674  0.33043777  1
  Ag  Ag29  1  0.00062831  0.16757257  0.82628285  1
  Ag  Ag30  1  0.84334817  0.00781093  0.49569774  1
  Ag  Ag31  1  0.33215287  0.15588897  0.16695999  1
  Ag  Ag32  1  0.32750469  0.16297614  0.49723270  1
  Ag  Ag33  1  0.33759004  0.33247160  -0.00139418  1
  Ag  Ag34  1  0.00033056  0.16860333  0.50225977  1
  Ag  Ag35  1  0.00516616  0.84118035  0.49688348  1
  Ag  Ag36  1  0.50339050  0.32866290  0.16318093  1
  Ag  Ag37  1  0.17191882  0.33438748  0.83408201  1
  Ag  Ag38  1  0.49424019  0.33354917  0.83516219  1
  Ag  Ag39  1  0.82663073  0.33490929  0.17532777  1
  Ag  Ag40  1  0.66602526  0.83700462  0.16553163  1
  Ag  Ag41  1  0.83461650  0.16417165  -0.00132735  1
  Ag  Ag42  1  0.33217194  0.83781286  0.16141557  1
  Ag  Ag43  1  0.16317592  0.83054791  0.33738815  1
  Ag  Ag44  1  0.17368298  0.00104348  0.83280820  1
  Ag  Ag45  1  0.16938816  0.83200159  0.65776503  1
  Ag  Ag46  1  0.17083637  0.50398775  0.66528013  1
  Ag  Ag47  1  0.33566778  -0.00128223  -0.00194975  1
  Ag  Ag48  1  0.49482721  0.00497642  0.49716210  1
  Ag  Ag49  1  0.16462735  -0.00519276  0.49676748  1
  Ag  Ag50  1  0.16668942  0.67138608  0.49115986  1
  Ag  Ag51  1  0.83939357  0.16687215  0.66388913  1
  Ag  Ag52  1  -0.00185798  -0.00030150  0.33815476  1
  Ag  Ag53  1  0.32800228  0.66927914  0.66839050  1
  Sb  Sb54  1  0.49516625  0.66255050  0.83399172  1
  Sb  Sb55  1  0.83242649  0.33347891  0.83338318  1
  Sb  Sb56  1  0.83143088  -0.00049851  0.17152755  1
  Sb  Sb57  1  0.49055524  0.83233605  0.66750400  1
  Sb  Sb58  1  0.32963151  0.49647126  0.50501140  1
  Sb  Sb59  1  0.00745526  0.66193030  0.66745797  1
  Sb  Sb60  1  0.32980988  0.33162837  0.67032428  1
  Sb  Sb61  1  0.66285786  0.16447036  0.16518643  1
  Sb  Sb62  1  0.66193586  0.66407309  0.66978345  1
  Sb  Sb63  1  0.32657601  0.83794159  0.49903441  1
  Sb  Sb64  1  0.83572468  0.50091728  0.00488479  1
  Sb  Sb65  1  0.16380270  0.33381087  0.50220056  1
  Sb  Sb66  1  0.84092892  0.66497858  0.49151665  1
  Sb  Sb67  1  0.67296798  0.83323231  0.49249932  1
  Sb  Sb68  1  0.16603299  0.16290441  0.33489240  1
  Sb  Sb69  1  0.66963707  0.17037151  0.83642344  1
  Sb  Sb70  1  0.84136957  0.83888755  0.66147878  1
  Sb  Sb71  1  0.50067510  0.16963164  0.66549647  1
  Sb  Sb72  1  0.66072938  -0.00094671  0.66520491  1
  Sb  Sb73  1  0.49626794  0.83607844  0.33287710  1
  Sb  Sb74  1  0.00549367  0.66690580  0.33064312  1
  Sb  Sb75  1  0.49706603  0.66754059  0.16546051  1
  Sb  Sb76  1  0.00493787  0.49488981  0.82939255  1
  Sb  Sb77  1  0.83666715  0.49648765  0.65965566  1
  Sb  Sb78  1  0.16842711  0.33540589  0.16478731  1
  Sb  Sb79  1  0.83436753  0.16863091  0.33326480  1
  Sb  Sb80  1  0.49297681  0.66594406  0.50083668  1
  Sb  Sb81  1  0.00159441  -0.00310976  0.00411041  1
  Sb  Sb82  1  -0.00022157  0.33609355  0.00128371  1
  Sb  Sb83  1  0.00881865  0.00565605  0.65912311  1
  Sb  Sb84  1  0.50008411  0.49716263  0.33782074  1
  Sb  Sb85  1  0.00034279  0.50067935  0.17300387  1
  Sb  Sb86  1  0.50074985  0.16668529  -0.00010259  1
  Sb  Sb87  1  0.49882182  0.83631609  0.00082572  1
  Sb  Sb88  1  0.83203158  0.66703104  0.84293330  1
  Sb  Sb89  1  0.66663386  0.66578841  0.32909333  1
  Sb  Sb90  1  0.33209594  0.33832056  0.33015755  1
  Sb  Sb91  1  0.16444681  0.16799642  -0.00082748  1
  Sb  Sb92  1  0.33160983  0.50304035  0.16054685  1
  Sb  Sb93  1  0.65970039  0.83130170  0.84306052  1
  Sb  Sb94  1  0.66914863  0.33451868  0.66518856  1
  Sb  Sb95  1  0.33030487  -0.00524695  0.33050687  1
  Sb  Sb96  1  0.00800005  0.83829724  0.82958657  1
  Sb  Sb97  1  0.32875939  0.16522046  0.83473687  1
  Sb  Sb98  1  0.16462287  0.16627832  0.66618029  1
  Sb  Sb99  1  0.16642449  0.82959720  0.00315479  1
  Sb  Sb100  1  0.00177360  0.83293428  0.17191068  1
  Sb  Sb101  1  0.49632224  0.49615606  -0.00444476  1
  Sb  Sb102  1  0.17017029  0.66548786  0.83515683  1
  Sb  Sb103  1  0.83326609  0.00115962  0.83219776  1
  Sb  Sb104  1  0.66677620  0.49925335  0.16649894  1
  Sb  Sb105  1  0.00257564  0.16600154  0.16971975  1
  Sb  Sb106  1  0.67002505  0.17089302  0.49894458  1
  Sb  Sb107  1  0.49870580  0.16550150  0.33360747  1
  Te  Te108  1  0.17239265  0.16382135  0.16701547  1
  Te  Te109  1  0.16497472  0.16229636  0.50009987  1
  Te  Te110  1  0.16168855  0.16738543  0.83312196  1
  Te  Te111  1  0.16616972  0.50504349  0.16512915  1
  Te  Te112  1  0.16536391  0.50024147  0.50035847  1
  Te  Te113  1  0.16891984  0.49767167  0.83244560  1
  Te  Te114  1  0.16820645  0.83181772  0.16886001  1
  Te  Te115  1  0.16601261  0.83301388  0.49796055  1
  Te  Te116  1  0.17174894  0.83881887  0.83095685  1
  Te  Te117  1  0.49273696  0.16705691  0.16656514  1
  Te  Te118  1  0.49852917  0.16704456  0.50108155  1
  Te  Te119  1  0.50002373  0.16791920  0.83195002  1
  Te  Te120  1  0.49963377  0.49098834  0.16814160  1
  Te  Te121  1  0.50058148  0.49740843  0.50534296  1
  Te  Te122  1  0.49731570  0.49605984  0.82988345  1
  Te  Te123  1  0.49899415  0.83734506  0.16726549  1
  Te  Te124  1  0.50314716  0.83993649  0.50100310  1
  Te  Te125  1  0.49185774  0.84266565  0.83297678  1
  Te  Te126  1  0.83460719  0.17085090  0.16067670  1
  Te  Te127  1  0.83607509  0.16791138  0.50028560  1
  Te  Te128  1  0.83923155  0.16683382  0.83351621  1
  Te  Te129  1  0.83338942  0.49965148  0.17340948  1
  Te  Te130  1  0.83439989  0.49751491  0.49545714  1
  Te  Te131  1  0.82928229  0.50031545  0.83129067  1
  Te  Te132  1  0.83412660  0.83364034  0.16761439  1
  Te  Te133  1  0.84015732  0.83532115  0.49428042  1
  Te  Te134  1  0.83369675  0.83408552  0.83475539  1
  Te  Te135  1  0.16935865  -0.00133944  0.00120541  1
  Te  Te136  1  0.16406214  -0.00287350  0.33453008  1
  Te  Te137  1  0.17108695  -0.00118468  0.66558126  1
  Te  Te138  1  0.16907419  0.33774692  -0.00255340  1
  Te  Te139  1  0.16289037  0.34062185  0.33190142  1
  Te  Te140  1  0.16300971  0.33691085  0.67114108  1
  Te  Te141  1  0.16998854  0.66487751  0.00136370  1
  Te  Te142  1  0.16670830  0.66689461  0.33218647  1
  Te  Te143  1  0.17038172  0.66576714  0.66809877  1
  Te  Te144  1  0.49889951  0.00120865  0.00200672  1
  Te  Te145  1  0.50660884  -0.00076640  0.33221724  1
  Te  Te146  1  0.49301721  0.00072540  0.66453364  1
  Te  Te147  1  0.50074848  0.33219172  -0.00058454  1
  Te  Te148  1  0.50289793  0.33335468  0.33611135  1
  Te  Te149  1  0.50071275  0.33609805  0.66679742  1
  Te  Te150  1  0.49858753  0.66555681  0.00072420  1
  Te  Te151  1  0.49105243  0.66626854  0.33391885  1
  Te  Te152  1  0.49084057  0.66021393  0.66644446  1
  Te  Te153  1  0.83249692  -0.00129353  0.00091870  1
  Te  Te154  1  0.83339891  -0.00153765  0.33553002  1
  Te  Te155  1  0.83183301  0.00343740  0.66044278  1
  Te  Te156  1  0.83067792  0.33261793  0.00152778  1
  Te  Te157  1  0.83264485  0.33286569  0.33398516  1
  Te  Te158  1  0.83770935  0.32995686  0.66247240  1
  Te  Te159  1  0.82759407  0.66860618  0.00708280  1
  Te  Te160  1  0.83314250  0.67051245  0.32640537  1
  Te  Te161  1  0.83367713  0.66862642  0.66558584  1
  Te  Te162  1  -0.00513563  0.16658398  -0.00123846  1
  Te  Te163  1  0.00025913  0.16730245  0.33830824  1
  Te  Te164  1  -0.00168635  0.17032717  0.66411180  1
  Te  Te165  1  0.00480302  0.50485171  -0.00210468  1
  Te  Te166  1  0.00008897  0.49968833  0.33753496  1
  Te  Te167  1  0.00477661  0.49445826  0.66196632  1
  Te  Te168  1  -0.00630348  0.82865621  -0.00270766  1
  Te  Te169  1  0.00126392  0.83430766  0.33743922  1
  Te  Te170  1  0.00810334  0.83168583  0.66054923  1
  Te  Te171  1  0.33168897  0.16598122  0.00389478  1
  Te  Te172  1  0.33165876  0.16965514  0.33461057  1
  Te  Te173  1  0.33344528  0.16051498  0.66040522  1
  Te  Te174  1  0.33041954  0.49772353  -0.00550180  1
  Te  Te175  1  0.32831213  0.50600977  0.33360286  1
  Te  Te176  1  0.33103015  0.49842053  0.67132094  1
  Te  Te177  1  0.33200729  0.83601278  0.00050694  1
  Te  Te178  1  0.32898587  0.82763188  0.32874810  1
  Te  Te179  1  0.32794373  0.83423212  0.66765896  1
  Te  Te180  1  0.67379387  0.16783873  0.00009196  1
  Te  Te181  1  0.66700967  0.16606985  0.33259258  1
  Te  Te182  1  0.67703440  0.16545562  0.66793519  1
  Te  Te183  1  0.66761477  0.49799535  -0.00243132  1
  Te  Te184  1  0.66905156  0.49715131  0.33705429  1
  Te  Te185  1  0.66582335  0.50109771  0.66721594  1
  Te  Te186  1  0.66965794  0.83556415  0.00444056  1
  Te  Te187  1  0.67015059  0.83492197  0.32696038  1
  Te  Te188  1  0.66788443  0.83109843  0.66867512  1
  Te  Te189  1  0.00840434  0.00056687  0.17318833  1
  Te  Te190  1  0.00207429  0.00158187  0.49856290  1
  Te  Te191  1  0.00368621  0.00541792  0.83381637  1
  Te  Te192  1  -0.00431350  0.33229999  0.17145286  1
  Te  Te193  1  0.00075709  0.33222146  0.49839476  1
  Te  Te194  1  0.00265112  0.32907838  0.83337721  1
  Te  Te195  1  0.00110903  0.66656944  0.16025218  1
  Te  Te196  1  0.00697981  0.66234193  0.50115991  1
  Te  Te197  1  -0.00043945  0.66770263  0.84023612  1
  Te  Te198  1  0.33360209  -0.00142986  0.16838451  1
  Te  Te199  1  0.33319097  0.00239635  0.49528897  1
  Te  Te200  1  0.33205922  0.00327481  0.83638230  1
  Te  Te201  1  0.33625693  0.33315438  0.16209307  1
  Te  Te202  1  0.33745047  0.32759981  0.49946349  1
  Te  Te203  1  0.33318197  0.33120259  0.83645543  1
  Te  Te204  1  0.33203786  0.66967304  0.16203872  1
  Te  Te205  1  0.32696606  0.66710337  0.50313999  1
  Te  Te206  1  0.33354342  0.66645827  0.83579131  1
  Te  Te207  1  0.66541273  -0.00142982  0.16644504  1
  Te  Te208  1  0.66295839  -0.00102169  0.49675003  1
  Te  Te209  1  0.66249208  -0.00032949  0.83843194  1
  Te  Te210  1  0.66583887  0.33232962  0.16719674  1
  Te  Te211  1  0.66454423  0.33567837  0.49855466  1
  Te  Te212  1  0.66344231  0.33731771  0.83635287  1
  Te  Te213  1  0.66510026  0.67063994  0.16275348  1
  Te  Te214  1  0.66588337  0.66062527  0.49986170  1
  Te  Te215  1  0.66402962  0.66186729  0.84094020  1
