# generated using pymatgen
data_AgSbTe2
_symmetry_space_group_name_H-M   'P 1'
_cell_length_a   18.31136184
_cell_length_b   18.31093988
_cell_length_c   18.31329642
_cell_angle_alpha   89.99990881
_cell_angle_beta   89.99982758
_cell_angle_gamma   90.00068053
_symmetry_Int_Tables_number   1
_chemical_formula_structural   AgSbTe2
_chemical_formula_sum   'Ag54 Sb54 Te108'
_cell_volume   6140.41616314
_cell_formula_units_Z   54
loop_
 _symmetry_equiv_pos_site_id
 _symmetry_equiv_pos_as_xyz
  1  'x, y, z'
loop_
 _atom_site_type_symbol
 _atom_site_label
 _atom_site_symmetry_multiplicity
 _atom_site_fract_x
 _atom_site_fract_y
 _atom_site_fract_z
 _atom_site_occupancy
  Ag  Ag0  1  0.32965246  0.33600517  -0.00378628  1
  Ag  Ag1  1  0.33365810  0.83621061  0.83352484  1
  Ag  Ag2  1  0.50171819  0.00940792  0.82949542  1
  Ag  Ag3  1  0.16639291  0.83102696  0.67499031  1
  Ag  Ag4  1  0.49208265  0.17454469  0.67317815  1
  Ag  Ag5  1  0.16266113  0.00431386  0.16738748  1
  Ag  Ag6  1  0.66510449  0.82956577  0.83253997  1
  Ag  Ag7  1  0.00839248  0.33218248  -0.00832107  1
  Ag  Ag8  1  0.83038430  -0.00079819  0.84071065  1
  Ag  Ag9  1  0.00535078  0.33329690  0.33439124  1
  Ag  Ag10  1  0.83685924  0.16991429  0.32807353  1
  Ag  Ag11  1  0.00519257  0.49073824  0.82641340  1
  Ag  Ag12  1  0.16966430  0.49249266  0.66765532  1
  Ag  Ag13  1  0.66443413  0.82934535  0.49895131  1
  Ag  Ag14  1  0.50388601  0.66898941  0.49396603  1
  Ag  Ag15  1  0.33064024  0.65982147  0.00101780  1
  Ag  Ag16  1  0.82309660  0.66932423  0.16985050  1
  Ag  Ag17  1  0.83412846  -0.00149171  0.16349018  1
  Ag  Ag18  1  0.49915072  -0.00211880  0.50452159  1
  Ag  Ag19  1  0.00674027  0.17375006  0.82851938  1
  Ag  Ag20  1  0.17306153  0.17699655  0.67047271  1
  Ag  Ag21  1  0.82675131  0.66668970  0.49141567  1
  Ag  Ag22  1  0.17301761  0.33759914  0.16293961  1
  Ag  Ag23  1  0.00312943  0.17506332  0.50261508  1
  Ag  Ag24  1  0.66592625  0.66638842  0.32983031  1
  Ag  Ag25  1  0.49168567  0.32837493  0.83081208  1
  Ag  Ag26  1  0.83257011  0.83309576  0.67337159  1
  Ag  Ag27  1  0.50205099  0.83025644  0.33373824  1
  Ag  Ag28  1  0.17032805  0.66146354  0.16139260  1
  Ag  Ag29  1  0.33144531  0.17732698  0.50961465  1
  Ag  Ag30  1  0.66825365  0.16989930  0.16653012  1
  Ag  Ag31  1  0.16944888  0.33593156  0.83149670  1
  Ag  Ag32  1  0.00926783  0.33309781  0.67281635  1
  Ag  Ag33  1  0.50515053  0.65948299  0.17044803  1
  Ag  Ag34  1  0.32985292  0.49465932  0.49880192  1
  Ag  Ag35  1  -0.00136550  0.00958725  0.33308237  1
  Ag  Ag36  1  0.66779174  0.82607522  0.16737932  1
  Ag  Ag37  1  0.50075146  0.17015784  -0.00813451  1
  Ag  Ag38  1  0.16479556  0.49724550  0.33369805  1
  Ag  Ag39  1  0.66131531  0.50308593  0.16670833  1
  Ag  Ag40  1  0.83822525  0.49891421  0.33173152  1
  Ag  Ag41  1  0.00638394  0.49326716  0.50175574  1
  Ag  Ag42  1  0.33385102  0.49680975  0.17090629  1
  Ag  Ag43  1  0.66742936  0.50024369  0.83287170  1
  Ag  Ag44  1  0.32821479  0.33628849  0.33234492  1
  Ag  Ag45  1  0.33501689  0.17301087  0.82912555  1
  Ag  Ag46  1  0.33096173  0.33305024  0.67250494  1
  Ag  Ag47  1  0.49396316  0.49234252  0.66773863  1
  Ag  Ag48  1  0.49369479  0.34008114  0.16179854  1
  Ag  Ag49  1  0.16576871  0.82984828  -0.00410556  1
  Ag  Ag50  1  0.65534626  0.33520793  0.67058845  1
  Ag  Ag51  1  0.16887501  0.66075286  0.83723949  1
  Ag  Ag52  1  0.83467201  0.83772590  -0.00122348  1
  Ag  Ag53  1  0.83130079  0.16294992  0.00300697  1
  Sb  Sb54  1  0.83600478  0.67048276  0.83606797  1
  Sb  Sb55  1  0.66594918  0.33789321  0.33366409  1
  Sb  Sb56  1  0.33350530  0.00922707  0.66772134  1
  Sb  Sb57  1  0.33249571  0.65903372  0.67104668  1
  Sb  Sb58  1  0.49787223  0.49446989  -0.00106042  1
  Sb  Sb59  1  0.83708554  0.33824682  0.49964181  1
  Sb  Sb60  1  0.16219054  0.17671546  0.33633727  1
  Sb  Sb61  1  0.00467470  0.66159996  -0.00005180  1
  Sb  Sb62  1  0.49610824  0.66393328  0.83554747  1
  Sb  Sb63  1  0.00079621  0.00708153  0.66395124  1
  Sb  Sb64  1  0.83457303  0.50276284  0.66378954  1
  Sb  Sb65  1  0.00162682  0.65948370  0.66726605  1
  Sb  Sb66  1  0.49988680  0.83330406  0.66573956  1
  Sb  Sb67  1  0.16834288  0.66254756  0.50035657  1
  Sb  Sb68  1  0.16705767  0.33534147  0.50611745  1
  Sb  Sb69  1  0.66996074  -0.00465727  0.33166252  1
  Sb  Sb70  1  0.66249743  0.66787618  0.00649676  1
  Sb  Sb71  1  0.82799524  0.83145290  0.33015046  1
  Sb  Sb72  1  0.49590520  0.33496951  0.50474790  1
  Sb  Sb73  1  0.32985118  0.00704655  0.33302960  1
  Sb  Sb74  1  0.83223683  0.33297084  0.16634552  1
  Sb  Sb75  1  0.66343426  0.16805816  0.83625933  1
  Sb  Sb76  1  0.50221125  0.16622474  0.33421170  1
  Sb  Sb77  1  -0.00387848  0.83149786  0.50146283  1
  Sb  Sb78  1  0.33191336  0.00380043  -0.00097999  1
  Sb  Sb79  1  0.66547566  0.66393226  0.66378265  1
  Sb  Sb80  1  0.83057948  -0.00397874  0.49827123  1
  Sb  Sb81  1  0.83620342  0.32924250  0.83432617  1
  Sb  Sb82  1  0.17091417  0.82882638  0.32941087  1
  Sb  Sb83  1  0.83456665  0.49978268  0.00358716  1
  Sb  Sb84  1  0.00269462  0.49695320  0.16963740  1
  Sb  Sb85  1  0.66367675  0.33217469  -0.00300159  1
  Sb  Sb86  1  0.16758964  0.50036522  -0.00131751  1
  Sb  Sb87  1  0.50003924  0.83686390  0.00130232  1
  Sb  Sb88  1  0.16686108  0.16860666  -0.00316028  1
  Sb  Sb89  1  0.33667819  0.82573902  0.16126362  1
  Sb  Sb90  1  0.33721347  0.65989580  0.32891656  1
  Sb  Sb91  1  0.33199986  0.49404666  0.83165137  1
  Sb  Sb92  1  0.33702144  0.17563888  0.16450292  1
  Sb  Sb93  1  -0.00445739  0.83373665  0.16626488  1
  Sb  Sb94  1  0.16954695  0.00168262  0.49666125  1
  Sb  Sb95  1  0.66503641  0.50484845  0.49924443  1
  Sb  Sb96  1  0.66877616  -0.00001056  -0.00074379  1
  Sb  Sb97  1  -0.00421569  0.66202485  0.33304904  1
  Sb  Sb98  1  0.50173824  0.00074216  0.16493903  1
  Sb  Sb99  1  0.49765191  0.50185750  0.33392929  1
  Sb  Sb100  1  0.66546108  0.16371095  0.49716767  1
  Sb  Sb101  1  -0.00382424  0.16868275  0.16719624  1
  Sb  Sb102  1  -0.00080610  0.00594577  0.00154037  1
  Sb  Sb103  1  0.33778568  0.83054459  0.50539315  1
  Sb  Sb104  1  0.16703045  0.00224666  0.83620779  1
  Sb  Sb105  1  0.66571699  0.00210494  0.66838329  1
  Sb  Sb106  1  0.83391482  0.16490642  0.66808239  1
  Sb  Sb107  1  0.00089273  0.83526219  0.83290863  1
  Te  Te108  1  0.16736223  0.16681914  0.16681598  1
  Te  Te109  1  0.16732760  0.16472399  0.50562015  1
  Te  Te110  1  0.16717271  0.16759728  0.83021445  1
  Te  Te111  1  0.16854148  0.49854766  0.16755449  1
  Te  Te112  1  0.16707338  0.50120917  0.50119875  1
  Te  Te113  1  0.16597593  0.49823348  0.83024906  1
  Te  Te114  1  0.16785658  0.82792269  0.16361895  1
  Te  Te115  1  0.16750805  0.83201366  0.50492283  1
  Te  Te116  1  0.16735941  0.83517313  0.83469383  1
  Te  Te117  1  0.50501228  0.16758223  0.16506036  1
  Te  Te118  1  0.49827818  0.16373773  0.50274638  1
  Te  Te119  1  0.50116540  0.16786800  0.83253094  1
  Te  Te120  1  0.50009978  0.49994855  0.16677600  1
  Te  Te121  1  0.49715303  0.50281346  0.50351230  1
  Te  Te122  1  0.50295849  0.49664767  0.82965636  1
  Te  Te123  1  0.50515795  0.83232390  0.16891115  1
  Te  Te124  1  0.50278847  0.83128793  0.49906504  1
  Te  Te125  1  0.50129923  0.83310841  0.83366673  1
  Te  Te126  1  0.83065084  0.16601381  0.16616691  1
  Te  Te127  1  0.83636523  0.16489515  0.49672423  1
  Te  Te128  1  0.83125822  0.16110078  0.83633776  1
  Te  Te129  1  0.83157210  0.50324395  0.17065766  1
  Te  Te130  1  0.83525653  0.50624219  0.49592329  1
  Te  Te131  1  0.82909465  0.50186316  0.83357534  1
  Te  Te132  1  0.82922085  0.83336598  0.16412822  1
  Te  Te133  1  0.82821535  0.82828615  0.50148359  1
  Te  Te134  1  0.83280983  0.83581929  0.83544301  1
  Te  Te135  1  0.16522181  -0.00710596  0.00704591  1
  Te  Te136  1  0.16191085  -0.00215106  0.32733300  1
  Te  Te137  1  0.16631131  -0.00590520  0.66597871  1
  Te  Te138  1  0.16825962  0.33283165  -0.00163965  1
  Te  Te139  1  0.16719406  0.33757515  0.32956618  1
  Te  Te140  1  0.16807973  0.33376276  0.66944331  1
  Te  Te141  1  0.16947297  0.66943161  -0.00074108  1
  Te  Te142  1  0.16634016  0.66002470  0.32893309  1
  Te  Te143  1  0.16707252  0.66811848  0.67071398  1
  Te  Te144  1  0.49881115  0.00850696  -0.00560709  1
  Te  Te145  1  0.49880402  -0.00370973  0.33617623  1
  Te  Te146  1  0.49995363  0.00412300  0.66861953  1
  Te  Te147  1  0.49719438  0.32940207  -0.00010049  1
  Te  Te148  1  0.49669678  0.33336812  0.32663337  1
  Te  Te149  1  0.49638442  0.33402602  0.66718448  1
  Te  Te150  1  0.49182541  0.66793661  0.00556325  1
  Te  Te151  1  0.50311321  0.66795731  0.33168106  1
  Te  Te152  1  0.49922670  0.66023791  0.66391843  1
  Te  Te153  1  0.83525530  0.00017046  0.00211312  1
  Te  Te154  1  0.83712920  0.00291786  0.33024852  1
  Te  Te155  1  0.83318004  -0.00647929  0.66889625  1
  Te  Te156  1  0.83767752  0.32814199  0.00085898  1
  Te  Te157  1  0.83518264  0.33384988  0.33285240  1
  Te  Te158  1  0.83568280  0.33361617  0.66674359  1
  Te  Te159  1  0.83497495  0.67088458  0.00650951  1
  Te  Te160  1  0.83038072  0.66506395  0.33060123  1
  Te  Te161  1  0.83381204  0.67314731  0.66591621  1
  Te  Te162  1  -0.00253748  0.17243128  -0.00423883  1
  Te  Te163  1  -0.00217140  0.17031477  0.33552854  1
  Te  Te164  1  0.00020810  0.17218005  0.66581231  1
  Te  Te165  1  -0.00067865  0.49150417  -0.00791370  1
  Te  Te166  1  0.00025315  0.49634599  0.33691860  1
  Te  Te167  1  0.00222716  0.49401457  0.66521063  1
  Te  Te168  1  -0.00046997  0.83348510  -0.00091857  1
  Te  Te169  1  0.00222031  0.83776323  0.33493954  1
  Te  Te170  1  0.00061311  0.83390649  0.66619763  1
  Te  Te171  1  0.33609475  0.17198523  -0.00433347  1
  Te  Te172  1  0.33269668  0.17493581  0.33771187  1
  Te  Te173  1  0.33267300  0.17095842  0.66751527  1
  Te  Te174  1  0.33366024  0.49760176  0.00623196  1
  Te  Te175  1  0.33075056  0.49560048  0.33364086  1
  Te  Te176  1  0.33126815  0.49466984  0.66462887  1
  Te  Te177  1  0.33128677  0.83296019  -0.00510710  1
  Te  Te178  1  0.33998728  0.83454080  0.33501490  1
  Te  Te179  1  0.33054037  0.83127565  0.67286693  1
  Te  Te180  1  0.66894511  0.16732331  0.00584006  1
  Te  Te181  1  0.67281544  0.16801995  0.32850201  1
  Te  Te182  1  0.66442932  0.17379511  0.66529920  1
  Te  Te183  1  0.66713132  0.50044951  0.00008832  1
  Te  Te184  1  0.67117390  0.50400317  0.33027963  1
  Te  Te185  1  0.66636754  0.49639691  0.66897971  1
  Te  Te186  1  0.67031359  0.83292835  -0.00039540  1
  Te  Te187  1  0.66333174  0.82899080  0.33220070  1
  Te  Te188  1  0.66815153  0.83322153  0.66950461  1
  Te  Te189  1  -0.00159604  0.00083625  0.17065731  1
  Te  Te190  1  -0.00013203  0.00466716  0.49431764  1
  Te  Te191  1  -0.00515145  0.00738327  0.83287066  1
  Te  Te192  1  0.00536523  0.33366440  0.17043002  1
  Te  Te193  1  0.00097503  0.33345966  0.49632801  1
  Te  Te194  1  0.00010826  0.33208555  0.83246115  1
  Te  Te195  1  0.00402567  0.66551029  0.16625555  1
  Te  Te196  1  -0.00464162  0.66148256  0.49962441  1
  Te  Te197  1  0.00663059  0.66061720  0.83370666  1
  Te  Te198  1  0.32854616  -0.00050021  0.16747668  1
  Te  Te199  1  0.34007605  0.00286896  0.49875494  1
  Te  Te200  1  0.33724992  -0.00028382  0.83364231  1
  Te  Te201  1  0.33349432  0.33580436  0.16445519  1
  Te  Te202  1  0.33303531  0.33432615  0.49848938  1
  Te  Te203  1  0.33241892  0.33314846  0.83436936  1
  Te  Te204  1  0.33179655  0.66149715  0.16296992  1
  Te  Te205  1  0.33882714  0.66122420  0.49886742  1
  Te  Te206  1  0.32894873  0.66858101  0.83821014  1
  Te  Te207  1  0.67115248  -0.00005212  0.16717787  1
  Te  Te208  1  0.66040961  -0.00694659  0.49989609  1
  Te  Te209  1  0.66667244  -0.00589224  0.83261839  1
  Te  Te210  1  0.66197349  0.33653040  0.16624779  1
  Te  Te211  1  0.66684705  0.33318585  0.50639804  1
  Te  Te212  1  0.66476535  0.33744659  0.83089726  1
  Te  Te213  1  0.66511791  0.66519888  0.16766197  1
  Te  Te214  1  0.66551901  0.67007083  0.49686152  1
  Te  Te215  1  0.66642191  0.66712135  0.83485277  1
