# generated using pymatgen
data_AgSbTe2
_symmetry_space_group_name_H-M   'P 1'
_cell_length_a   18.32979975
_cell_length_b   18.32624206
_cell_length_c   18.32264523
_cell_angle_alpha   90.00312206
_cell_angle_beta   90.00307811
_cell_angle_gamma   89.99747275
_symmetry_Int_Tables_number   1
_chemical_formula_structural   AgSbTe2
_chemical_formula_sum   'Ag54 Sb54 Te108'
_cell_volume   6154.87602976
_cell_formula_units_Z   54
loop_
 _symmetry_equiv_pos_site_id
 _symmetry_equiv_pos_as_xyz
  1  'x, y, z'
loop_
 _atom_site_type_symbol
 _atom_site_label
 _atom_site_symmetry_multiplicity
 _atom_site_fract_x
 _atom_site_fract_y
 _atom_site_fract_z
 _atom_site_occupancy
  Ag  Ag0  1  0.00717543  0.16469019  0.16312415  1
  Ag  Ag1  1  0.00637223  0.66509773  0.33195419  1
  Ag  Ag2  1  0.32856893  0.15923390  0.16642504  1
  Ag  Ag3  1  0.17458215  0.50092044  0.32993685  1
  Ag  Ag4  1  0.82833157  0.32940525  0.50360156  1
  Ag  Ag5  1  0.49896387  0.33024278  0.50856639  1
  Ag  Ag6  1  0.65948178  0.16788097  0.50814888  1
  Ag  Ag7  1  0.83599286  0.33564207  0.83194893  1
  Ag  Ag8  1  0.00108698  0.32756558  0.67209980  1
  Ag  Ag9  1  0.49510375  0.83161908  0.34181875  1
  Ag  Ag10  1  0.49702524  0.16769640  0.66969305  1
  Ag  Ag11  1  0.33394661  0.84091759  0.16985670  1
  Ag  Ag12  1  0.83665740  0.16983173  0.33490463  1
  Ag  Ag13  1  0.33803221  0.32820312  0.67026213  1
  Ag  Ag14  1  0.16848656  0.32814301  0.83191620  1
  Ag  Ag15  1  0.00733821  0.17154998  0.83035057  1
  Ag  Ag16  1  0.65768071  0.83458024  0.83302304  1
  Ag  Ag17  1  0.17006872  -0.00091666  0.15837163  1
  Ag  Ag18  1  0.65946070  0.17468871  0.82783185  1
  Ag  Ag19  1  0.33881963  0.83731971  0.49582944  1
  Ag  Ag20  1  0.66620291  0.49120105  0.83516597  1
  Ag  Ag21  1  0.00012021  0.49582666  0.16046100  1
  Ag  Ag22  1  0.49810477  0.67524528  0.49714223  1
  Ag  Ag23  1  0.83682348  0.33167024  0.16393827  1
  Ag  Ag24  1  0.17687876  0.83542340  0.67927520  1
  Ag  Ag25  1  0.49616562  0.32682350  0.82652114  1
  Ag  Ag26  1  0.49364387  0.50316727  0.33056245  1
  Ag  Ag27  1  0.33252900  0.66939876  -0.00412041  1
  Ag  Ag28  1  0.83439294  0.50244687  -0.00517778  1
  Ag  Ag29  1  0.16682913  0.83930197  -0.00334642  1
  Ag  Ag30  1  0.33453602  0.33037877  0.33839560  1
  Ag  Ag31  1  0.33327000  0.49308498  0.83535504  1
  Ag  Ag32  1  0.65676530  0.83815027  0.50483365  1
  Ag  Ag33  1  0.16794094  0.67276981  0.83532726  1
  Ag  Ag34  1  0.00058976  0.16795564  0.50666196  1
  Ag  Ag35  1  0.49100610  0.00335383  0.83579556  1
  Ag  Ag36  1  0.65954463  0.32910550  0.66953915  1
  Ag  Ag37  1  0.49958872  0.49928795  -0.00476520  1
  Ag  Ag38  1  0.33458324  -0.00161880  0.32762298  1
  Ag  Ag39  1  0.48723865  -0.00164465  0.16116321  1
  Ag  Ag40  1  0.49548077  0.83940035  0.66485215  1
  Ag  Ag41  1  -0.00173539  0.49138220  0.83872383  1
  Ag  Ag42  1  0.17159286  0.00099161  0.83960864  1
  Ag  Ag43  1  0.83784173  0.65860664  0.83598168  1
  Ag  Ag44  1  0.33268193  0.66898370  0.33114293  1
  Ag  Ag45  1  0.33084429  0.16974394  0.83164543  1
  Ag  Ag46  1  0.83879623  0.82892696  -0.00170118  1
  Ag  Ag47  1  0.65731406  0.83572140  0.16271383  1
  Ag  Ag48  1  0.33631158  0.16752145  0.50209713  1
  Ag  Ag49  1  0.00609704  -0.00000144  -0.00291717  1
  Ag  Ag50  1  0.33112640  0.83607586  0.83347603  1
  Ag  Ag51  1  0.00624174  0.83873512  0.16285098  1
  Ag  Ag52  1  0.00536830  0.00877890  0.67891380  1
  Ag  Ag53  1  0.16683700  0.15803582  -0.00404742  1
  Sb  Sb54  1  0.83338877  0.00741719  0.49937399  1
  Sb  Sb55  1  0.33511669  0.66905128  0.66852304  1
  Sb  Sb56  1  0.83596221  0.00336166  0.83452320  1
  Sb  Sb57  1  0.49421741  0.83179002  -0.00230895  1
  Sb  Sb58  1  0.66321777  0.66470028  0.67025684  1
  Sb  Sb59  1  0.33091923  0.00162224  0.66908081  1
  Sb  Sb60  1  0.66830837  0.50206626  0.16105459  1
  Sb  Sb61  1  0.32648296  -0.00510095  0.00210351  1
  Sb  Sb62  1  0.33333841  0.33581837  -0.00575834  1
  Sb  Sb63  1  0.16568519  0.50095286  -0.00172724  1
  Sb  Sb64  1  0.33570118  0.49776005  0.50070309  1
  Sb  Sb65  1  0.49309974  0.16842034  -0.00828295  1
  Sb  Sb66  1  0.00497660  0.83666556  0.83739549  1
  Sb  Sb67  1  0.49673250  0.67253935  0.17013609  1
  Sb  Sb68  1  0.00403734  0.67023373  0.00071117  1
  Sb  Sb69  1  0.17039620  0.33116198  0.50580724  1
  Sb  Sb70  1  0.16793035  0.16933511  0.32886346  1
  Sb  Sb71  1  -0.00080696  0.49309401  0.50048392  1
  Sb  Sb72  1  0.00209459  0.66635415  0.66793851  1
  Sb  Sb73  1  0.16436654  0.32897333  0.16161618  1
  Sb  Sb74  1  0.17298166  0.66902953  0.50160408  1
  Sb  Sb75  1  0.49575507  0.66680076  0.83037852  1
  Sb  Sb76  1  0.67049768  -0.00289402  -0.00168247  1
  Sb  Sb77  1  0.66532875  0.16314398  0.16577204  1
  Sb  Sb78  1  0.83406412  0.49490314  0.32736236  1
  Sb  Sb79  1  0.83765002  0.00298890  0.16439379  1
  Sb  Sb80  1  0.16946841  0.16295319  0.67523046  1
  Sb  Sb81  1  0.66668879  0.00445970  0.66953482  1
  Sb  Sb82  1  0.83657980  0.66506064  0.16085213  1
  Sb  Sb83  1  0.83944274  0.16822995  0.00054907  1
  Sb  Sb84  1  0.49815189  0.49433462  0.67088362  1
  Sb  Sb85  1  0.32932191  0.49920832  0.16543392  1
  Sb  Sb86  1  0.50050817  0.32909618  0.16631075  1
  Sb  Sb87  1  0.49759897  0.16448323  0.33817519  1
  Sb  Sb88  1  0.17565645  0.83065055  0.32943780  1
  Sb  Sb89  1  0.66774633  0.33268073  -0.00995693  1
  Sb  Sb90  1  0.66263774  0.66747302  0.33421971  1
  Sb  Sb91  1  0.83299971  0.16995562  0.66531460  1
  Sb  Sb92  1  0.83041890  0.83431853  0.67368360  1
  Sb  Sb93  1  0.82921203  0.66327434  0.50343463  1
  Sb  Sb94  1  0.66268560  0.66821705  -0.00292611  1
  Sb  Sb95  1  0.66207468  0.33164663  0.34034531  1
  Sb  Sb96  1  0.00217060  0.83781945  0.49743627  1
  Sb  Sb97  1  0.16947901  0.00118068  0.50227180  1
  Sb  Sb98  1  0.49663552  0.00067230  0.50400001  1
  Sb  Sb99  1  0.00440946  0.33439388  0.33523001  1
  Sb  Sb100  1  -0.00018500  0.32929749  -0.00720993  1
  Sb  Sb101  1  0.82958439  0.83633457  0.32798911  1
  Sb  Sb102  1  0.16687288  0.67210493  0.16190309  1
  Sb  Sb103  1  0.66253461  0.49568019  0.50599183  1
  Sb  Sb104  1  0.83305652  0.49437636  0.67628608  1
  Sb  Sb105  1  0.16847249  0.50170912  0.66972570  1
  Sb  Sb106  1  0.00667948  -0.00135419  0.32874066  1
  Sb  Sb107  1  0.65836993  -0.00030476  0.33364505  1
  Te  Te108  1  0.16733824  0.16410034  0.16241000  1
  Te  Te109  1  0.16884218  0.16708489  0.49884186  1
  Te  Te110  1  0.16756512  0.16592843  0.83466910  1
  Te  Te111  1  0.16052393  0.49904073  0.16857031  1
  Te  Te112  1  0.16589560  0.50089984  0.49236582  1
  Te  Te113  1  0.16910271  0.49743374  0.83417172  1
  Te  Te114  1  0.16819168  0.83656785  0.16366953  1
  Te  Te115  1  0.17229507  0.83345273  0.50369935  1
  Te  Te116  1  0.16614780  0.83522603  0.83543661  1
  Te  Te117  1  0.49673614  0.16051556  0.16539370  1
  Te  Te118  1  0.49834878  0.16758103  0.50424202  1
  Te  Te119  1  0.49784540  0.16713606  0.83145373  1
  Te  Te120  1  0.50068844  0.49905396  0.16695381  1
  Te  Te121  1  0.50107671  0.49501382  0.49643429  1
  Te  Te122  1  0.49734685  0.50057613  0.83463898  1
  Te  Te123  1  0.49643984  0.83712842  0.16439281  1
  Te  Te124  1  0.49829229  0.83851922  0.50103115  1
  Te  Te125  1  0.49819946  0.83296373  0.83256030  1
  Te  Te126  1  0.83312969  0.17084302  0.16857438  1
  Te  Te127  1  0.83461119  0.17075394  0.49747306  1
  Te  Te128  1  0.83381732  0.17166306  0.83486163  1
  Te  Te129  1  0.83662262  0.49547889  0.15992337  1
  Te  Te130  1  0.83083291  0.49315703  0.49825380  1
  Te  Te131  1  0.83470030  0.49806119  0.83701815  1
  Te  Te132  1  0.83741585  0.83346410  0.16238155  1
  Te  Te133  1  0.82848484  0.83208514  0.49945486  1
  Te  Te134  1  0.83306174  0.83451098  0.83750487  1
  Te  Te135  1  0.16407177  -0.00050129  -0.00094211  1
  Te  Te136  1  0.17440286  -0.00013746  0.32801931  1
  Te  Te137  1  0.16291457  -0.00616427  0.67111716  1
  Te  Te138  1  0.16664041  0.32899280  -0.00735869  1
  Te  Te139  1  0.17302613  0.33856925  0.33334947  1
  Te  Te140  1  0.16595694  0.33440674  0.67266631  1
  Te  Te141  1  0.17127087  0.67041632  -0.00505219  1
  Te  Te142  1  0.16821204  0.66335734  0.33351032  1
  Te  Te143  1  0.16681834  0.67349494  0.67236000  1
  Te  Te144  1  0.50315262  0.00043452  -0.00301657  1
  Te  Te145  1  0.49363856  -0.00396431  0.32729975  1
  Te  Te146  1  0.50020717  0.00106950  0.67473006  1
  Te  Te147  1  0.50081972  0.34012356  -0.00244775  1
  Te  Te148  1  0.49532655  0.33480937  0.33415997  1
  Te  Te149  1  0.49832481  0.33233808  0.66748535  1
  Te  Te150  1  0.49338873  0.66023178  0.00041928  1
  Te  Te151  1  0.49644290  0.66811065  0.33616572  1
  Te  Te152  1  0.49974146  0.67418660  0.65817902  1
  Te  Te153  1  0.84193915  -0.00727133  0.00018415  1
  Te  Te154  1  0.83355846  0.00682714  0.33225831  1
  Te  Te155  1  0.84574869  0.00001657  0.66621165  1
  Te  Te156  1  0.83365667  0.33735058  -0.00097277  1
  Te  Te157  1  0.83356736  0.33044539  0.33624029  1
  Te  Te158  1  0.83606722  0.33234028  0.66757588  1
  Te  Te159  1  0.83359792  0.66699809  -0.00544637  1
  Te  Te160  1  0.83715055  0.66507421  0.33443947  1
  Te  Te161  1  0.83369096  0.66592982  0.67392543  1
  Te  Te162  1  0.00307330  0.16241714  0.00173688  1
  Te  Te163  1  -0.00162756  0.16651523  0.33008438  1
  Te  Te164  1  0.00166703  0.16731810  0.66846570  1
  Te  Te165  1  -0.00156403  0.50315475  -0.00019349  1
  Te  Te166  1  0.00053614  0.50306216  0.33191922  1
  Te  Te167  1  0.00139043  0.49538995  0.67191481  1
  Te  Te168  1  0.00158840  0.83447384  0.00335664  1
  Te  Te169  1  -0.00090481  0.82958935  0.32926588  1
  Te  Te170  1  0.00019788  0.83562125  0.66285788  1
  Te  Te171  1  0.32824302  0.16899174  -0.00049252  1
  Te  Te172  1  0.33404091  0.16824307  0.33388864  1
  Te  Te173  1  0.33518599  0.16749754  0.66711625  1
  Te  Te174  1  0.33402344  0.50568318  -0.00247671  1
  Te  Te175  1  0.33480788  0.50240235  0.33299682  1
  Te  Te176  1  0.33254901  0.49306605  0.67332588  1
  Te  Te177  1  0.33056368  0.82883238  -0.00273707  1
  Te  Te178  1  0.33537458  0.83131718  0.33287994  1
  Te  Te179  1  0.33517769  0.83483928  0.66989686  1
  Te  Te180  1  0.66737667  0.16495800  -0.00681751  1
  Te  Te181  1  0.67113562  0.16602805  0.33711816  1
  Te  Te182  1  0.66341971  0.16876734  0.66781608  1
  Te  Te183  1  0.66652120  0.50161254  -0.00544920  1
  Te  Te184  1  0.65912543  0.50020610  0.33170313  1
  Te  Te185  1  0.66570246  0.49312031  0.67487945  1
  Te  Te186  1  0.67033387  0.83243078  -0.00171607  1
  Te  Te187  1  0.66121501  0.83337934  0.33373010  1
  Te  Te188  1  0.66271503  0.83487929  0.66767629  1
  Te  Te189  1  0.00434251  0.00135022  0.16464785  1
  Te  Te190  1  0.00137304  0.00799049  0.49854518  1
  Te  Te191  1  0.00223563  0.00319842  0.83596575  1
  Te  Te192  1  -0.00258138  0.33152858  0.16784759  1
  Te  Te193  1  -0.00078659  0.32764436  0.50503768  1
  Te  Te194  1  -0.00124417  0.33210025  0.83234051  1
  Te  Te195  1  0.00062384  0.66615399  0.17037268  1
  Te  Te196  1  -0.00100793  0.66636533  0.49525660  1
  Te  Te197  1  0.00141098  0.66382127  0.83259186  1
  Te  Te198  1  0.33152922  0.00103599  0.16541509  1
  Te  Te199  1  0.33290695  0.00107406  0.49416695  1
  Te  Te200  1  0.33215095  -0.00044736  0.83372556  1
  Te  Te201  1  0.33319278  0.32920113  0.17167670  1
  Te  Te202  1  0.33638549  0.33045983  0.50150778  1
  Te  Te203  1  0.33549837  0.33129802  0.83289337  1
  Te  Te204  1  0.33232762  0.66834207  0.16984769  1
  Te  Te205  1  0.33801868  0.66918550  0.49702793  1
  Te  Te206  1  0.33033177  0.67041718  0.83315749  1
  Te  Te207  1  0.66470761  -0.00593445  0.16610787  1
  Te  Te208  1  0.66628649  0.00098977  0.50144802  1
  Te  Te209  1  0.66508379  -0.00361782  0.83270349  1
  Te  Te210  1  0.67255991  0.33206487  0.16756932  1
  Te  Te211  1  0.66482101  0.32920615  0.50605542  1
  Te  Te212  1  0.66538126  0.33237453  0.82966306  1
  Te  Te213  1  0.66819467  0.67588096  0.16663988  1
  Te  Te214  1  0.66142538  0.67120226  0.50180472  1
  Te  Te215  1  0.67063539  0.67090931  0.83358679  1
