# generated using pymatgen
data_AgSbTe2
_symmetry_space_group_name_H-M   'P 1'
_cell_length_a   18.31499870
_cell_length_b   18.30838939
_cell_length_c   18.31572826
_cell_angle_alpha   89.99933121
_cell_angle_beta   89.99887692
_cell_angle_gamma   89.99832743
_symmetry_Int_Tables_number   1
_chemical_formula_structural   AgSbTe2
_chemical_formula_sum   'Ag54 Sb54 Te108'
_cell_volume   6141.59570552
_cell_formula_units_Z   54
loop_
 _symmetry_equiv_pos_site_id
 _symmetry_equiv_pos_as_xyz
  1  'x, y, z'
loop_
 _atom_site_type_symbol
 _atom_site_label
 _atom_site_symmetry_multiplicity
 _atom_site_fract_x
 _atom_site_fract_y
 _atom_site_fract_z
 _atom_site_occupancy
  Ag  Ag0  1  0.66679518  0.49990998  0.83427214  1
  Ag  Ag1  1  0.83570813  -0.00301967  0.49887672  1
  Ag  Ag2  1  0.16661000  0.83557034  0.00881746  1
  Ag  Ag3  1  0.66666373  0.50334845  0.50784525  1
  Ag  Ag4  1  -0.00099743  0.16804657  0.83308992  1
  Ag  Ag5  1  0.33450548  0.67032199  0.33852420  1
  Ag  Ag6  1  -0.00358503  -0.00176042  0.66155598  1
  Ag  Ag7  1  0.33567000  0.00180748  0.00189698  1
  Ag  Ag8  1  0.82696014  0.49482480  -0.00140760  1
  Ag  Ag9  1  0.50179849  0.16664314  0.66581453  1
  Ag  Ag10  1  0.00110860  0.67533215  0.34008379  1
  Ag  Ag11  1  0.16398566  0.83286282  0.33615820  1
  Ag  Ag12  1  0.32734837  0.82738610  0.16952409  1
  Ag  Ag13  1  0.67003255  0.33953094  0.66578821  1
  Ag  Ag14  1  0.33838509  0.66890519  0.65828953  1
  Ag  Ag15  1  0.16535538  0.33041582  0.16497749  1
  Ag  Ag16  1  0.50300931  0.16617999  0.33267860  1
  Ag  Ag17  1  0.83294128  0.00805391  0.16750302  1
  Ag  Ag18  1  0.50726276  0.50577476  0.67086434  1
  Ag  Ag19  1  0.66309065  0.49709727  0.15967321  1
  Ag  Ag20  1  0.16314316  0.16503010  0.66414350  1
  Ag  Ag21  1  0.34359405  0.50404098  0.16466449  1
  Ag  Ag22  1  0.50329065  0.34105720  0.16368484  1
  Ag  Ag23  1  -0.00362894  0.66510549  0.00063638  1
  Ag  Ag24  1  0.50223252  0.66597373  0.82703939  1
  Ag  Ag25  1  0.83551390  0.16450119  0.32525783  1
  Ag  Ag26  1  0.32804162  0.33159146  0.00504301  1
  Ag  Ag27  1  0.16513541  0.33504024  0.49853668  1
  Ag  Ag28  1  0.66578841  -0.00111394  -0.00254691  1
  Ag  Ag29  1  0.50056786  0.66085716  0.16736490  1
  Ag  Ag30  1  0.83584520  0.66827187  0.49915705  1
  Ag  Ag31  1  0.66695316  0.65770465  0.00506870  1
  Ag  Ag32  1  0.50785423  0.50237192  0.00408926  1
  Ag  Ag33  1  0.66824610  0.00409260  0.67100042  1
  Ag  Ag34  1  0.49871271  0.66604730  0.50247062  1
  Ag  Ag35  1  0.16095709  0.16854196  0.00406419  1
  Ag  Ag36  1  0.83252116  0.32890017  0.15951318  1
  Ag  Ag37  1  0.16522826  0.67111705  0.49954294  1
  Ag  Ag38  1  0.32383122  0.82782726  0.49841110  1
  Ag  Ag39  1  -0.00198222  -0.00503904  0.33740217  1
  Ag  Ag40  1  0.82596011  0.49736631  0.66932280  1
  Ag  Ag41  1  0.50345621  -0.00196063  0.83098206  1
  Ag  Ag42  1  0.00300664  0.67133207  0.65985333  1
  Ag  Ag43  1  0.00547219  0.82957559  0.49700697  1
  Ag  Ag44  1  0.16301264  0.16408790  0.33186946  1
  Ag  Ag45  1  0.16637986  0.83178536  0.65681887  1
  Ag  Ag46  1  -0.00339477  0.33112533  0.67065016  1
  Ag  Ag47  1  0.66318093  0.66483014  0.33194040  1
  Ag  Ag48  1  0.67040664  0.17353570  0.16554452  1
  Ag  Ag49  1  -0.00366393  0.33226120  -0.00071375  1
  Ag  Ag50  1  0.00694050  0.83142490  0.17455786  1
  Ag  Ag51  1  0.83636059  0.17389784  0.00538202  1
  Ag  Ag52  1  0.49549842  0.82257625  0.66522946  1
  Ag  Ag53  1  0.83365324  0.33424530  0.84130169  1
  Sb  Sb54  1  0.66519526  0.66193504  0.66510607  1
  Sb  Sb55  1  0.66730296  0.16964158  0.49809393  1
  Sb  Sb56  1  -0.00692211  0.49620023  0.83316933  1
  Sb  Sb57  1  0.16886775  0.00058983  0.83355962  1
  Sb  Sb58  1  0.83025762  0.00680875  0.83369379  1
  Sb  Sb59  1  0.67155332  0.33679007  0.00133777  1
  Sb  Sb60  1  0.83488532  0.17012840  0.66706505  1
  Sb  Sb61  1  0.33218163  0.33749054  0.32738242  1
  Sb  Sb62  1  0.49576321  0.82903572  -0.00226852  1
  Sb  Sb63  1  0.49383247  0.83178800  0.33686309  1
  Sb  Sb64  1  -0.00531091  0.50768082  0.50210136  1
  Sb  Sb65  1  0.33147385  0.16144949  0.49971788  1
  Sb  Sb66  1  0.82927747  0.65931011  0.83078017  1
  Sb  Sb67  1  0.16167824  0.00088381  0.16638754  1
  Sb  Sb68  1  0.83475159  0.82969080  0.66406560  1
  Sb  Sb69  1  0.16912596  0.66729557  0.17097567  1
  Sb  Sb70  1  0.83780755  0.83249878  0.00275789  1
  Sb  Sb71  1  0.66762422  0.82669054  0.50109284  1
  Sb  Sb72  1  0.00109719  0.33071865  0.33275119  1
  Sb  Sb73  1  0.67267366  -0.00225810  0.33301876  1
  Sb  Sb74  1  0.49649049  0.33853852  0.49796681  1
  Sb  Sb75  1  0.83114065  0.49855099  0.33178920  1
  Sb  Sb76  1  0.66668875  0.33621141  0.33245347  1
  Sb  Sb77  1  0.50390553  -0.00055456  0.16387863  1
  Sb  Sb78  1  -0.00169860  0.00170808  0.00004817  1
  Sb  Sb79  1  0.00132277  0.83595728  0.83112899  1
  Sb  Sb80  1  0.16686762  0.50357533  0.33293186  1
  Sb  Sb81  1  0.16864882  0.66774060  0.82938324  1
  Sb  Sb82  1  0.00083120  0.16195900  0.50283254  1
  Sb  Sb83  1  0.33130942  0.16667364  0.83416488  1
  Sb  Sb84  1  0.33455246  0.83267098  0.83294099  1
  Sb  Sb85  1  0.50642408  0.33542513  0.83637485  1
  Sb  Sb86  1  0.34294778  0.50164686  0.83854588  1
  Sb  Sb87  1  0.33444431  0.66662046  0.00310394  1
  Sb  Sb88  1  0.33263139  0.33758687  0.66952624  1
  Sb  Sb89  1  0.16134479  -0.00535764  0.50030229  1
  Sb  Sb90  1  0.66432295  0.82840463  0.83161072  1
  Sb  Sb91  1  0.33569329  0.16757664  0.16573134  1
  Sb  Sb92  1  0.50135196  0.50186466  0.32889929  1
  Sb  Sb93  1  0.50211759  0.17004021  0.00018334  1
  Sb  Sb94  1  0.66574644  0.83079922  0.16637731  1
  Sb  Sb95  1  0.83079444  0.66524978  0.16958577  1
  Sb  Sb96  1  0.67014526  0.17077753  0.83641771  1
  Sb  Sb97  1  0.15972318  0.33109330  0.83607255  1
  Sb  Sb98  1  0.50599954  -0.00481350  0.50632392  1
  Sb  Sb99  1  0.16626196  0.49857627  0.00272455  1
  Sb  Sb100  1  -0.00292013  0.50278284  0.16470508  1
  Sb  Sb101  1  0.84179140  0.83614739  0.33337922  1
  Sb  Sb102  1  0.33355777  -0.00569783  0.66956848  1
  Sb  Sb103  1  0.33797189  0.50793283  0.49767013  1
  Sb  Sb104  1  0.16543527  0.50146574  0.66415172  1
  Sb  Sb105  1  -0.00564488  0.16417932  0.16416263  1
  Sb  Sb106  1  0.32825916  -0.00460653  0.32861453  1
  Sb  Sb107  1  0.83710067  0.33444250  0.50041376  1
  Te  Te108  1  0.16753139  0.16953261  0.16529599  1
  Te  Te109  1  0.16703798  0.16888092  0.50108686  1
  Te  Te110  1  0.16186663  0.16622771  0.83221931  1
  Te  Te111  1  0.16967270  0.49278185  0.16695828  1
  Te  Te112  1  0.16798622  0.49952007  0.49922221  1
  Te  Te113  1  0.16859606  0.49988736  0.83332413  1
  Te  Te114  1  0.16653724  0.83371032  0.16769239  1
  Te  Te115  1  0.16575978  0.83159656  0.49954564  1
  Te  Te116  1  0.16716061  0.83380497  0.83298145  1
  Te  Te117  1  0.50493159  0.16765672  0.16900204  1
  Te  Te118  1  0.49892502  0.16763663  0.50159006  1
  Te  Te119  1  0.50107166  0.16430784  0.82779593  1
  Te  Te120  1  0.50188597  0.50052101  0.16644399  1
  Te  Te121  1  0.50448739  0.50440169  0.50270158  1
  Te  Te122  1  0.50638416  0.50272420  0.83301691  1
  Te  Te123  1  0.49577699  0.82880077  0.16745286  1
  Te  Te124  1  0.49785395  0.82782083  0.50447962  1
  Te  Te125  1  0.49981263  0.83257290  0.82719382  1
  Te  Te126  1  0.83215789  0.16742727  0.16557867  1
  Te  Te127  1  0.83348560  0.16358752  0.49422242  1
  Te  Te128  1  0.83795852  0.17291261  0.83870474  1
  Te  Te129  1  0.82884097  0.49629779  0.16344103  1
  Te  Te130  1  0.82791407  0.50230046  0.50216433  1
  Te  Te131  1  0.82768961  0.49463549  0.83403689  1
  Te  Te132  1  0.83757975  0.83728954  0.16674805  1
  Te  Te133  1  0.83868463  0.83174319  0.49972221  1
  Te  Te134  1  0.83305419  0.83346877  0.83343418  1
  Te  Te135  1  0.16889318  0.00154382  -0.00022970  1
  Te  Te136  1  0.16054062  0.00167996  0.33347554  1
  Te  Te137  1  0.16431550  0.00137186  0.66701042  1
  Te  Te138  1  0.16286736  0.33166612  0.00228918  1
  Te  Te139  1  0.16602821  0.32914026  0.33194455  1
  Te  Te140  1  0.16415868  0.33134025  0.66582482  1
  Te  Te141  1  0.16244311  0.66854930  -0.00097540  1
  Te  Te142  1  0.16519742  0.66999614  0.33690594  1
  Te  Te143  1  0.16289483  0.66886434  0.66328066  1
  Te  Te144  1  0.50197588  0.00039084  -0.00380754  1
  Te  Te145  1  0.50082692  0.00603553  0.33463231  1
  Te  Te146  1  0.50073251  0.00523058  0.66913122  1
  Te  Te147  1  0.49802197  0.33673708  0.00339119  1
  Te  Te148  1  0.49879167  0.32562291  0.32874823  1
  Te  Te149  1  0.50103998  0.33148799  0.66700546  1
  Te  Te150  1  0.50124823  0.66403966  0.00282174  1
  Te  Te151  1  0.49975033  0.66774264  0.33313927  1
  Te  Te152  1  0.50296731  0.66604113  0.66572358  1
  Te  Te153  1  0.82938713  0.00228816  0.00209110  1
  Te  Te154  1  0.83681229  0.00331303  0.33333527  1
  Te  Te155  1  0.83413742  0.00096069  0.66528085  1
  Te  Te156  1  0.83420039  0.33384251  0.00150217  1
  Te  Te157  1  0.83473047  0.32656207  0.32879903  1
  Te  Te158  1  0.83520102  0.33654142  0.66429905  1
  Te  Te159  1  0.83340478  0.66361727  -0.00012890  1
  Te  Te160  1  0.83474934  0.66598415  0.33784611  1
  Te  Te161  1  0.83574120  0.66202191  0.66316530  1
  Te  Te162  1  0.00068207  0.16850063  -0.00160416  1
  Te  Te163  1  0.00194896  0.16269133  0.33362096  1
  Te  Te164  1  0.00120151  0.16843035  0.66829487  1
  Te  Te165  1  -0.00472062  0.50014382  -0.00054316  1
  Te  Te166  1  -0.00113586  0.51033216  0.33312419  1
  Te  Te167  1  -0.00317588  0.49828641  0.66800235  1
  Te  Te168  1  0.00546380  0.83169459  -0.00015888  1
  Te  Te169  1  0.00365232  0.83381329  0.33375636  1
  Te  Te170  1  0.00171433  0.83300083  0.66463430  1
  Te  Te171  1  0.32939982  0.16679625  -0.00002157  1
  Te  Te172  1  0.32830191  0.16493810  0.33383410  1
  Te  Te173  1  0.32986882  0.16725919  0.66662490  1
  Te  Te174  1  0.33670093  0.49690651  0.00488573  1
  Te  Te175  1  0.33430731  0.50792279  0.32607798  1
  Te  Te176  1  0.33842171  0.50584748  0.66749108  1
  Te  Te177  1  0.32829211  0.83565206  0.00342978  1
  Te  Te178  1  0.32723923  0.83051024  0.33198646  1
  Te  Te179  1  0.33109036  0.82985940  0.66523908  1
  Te  Te180  1  0.67003971  0.16420291  0.00403228  1
  Te  Te181  1  0.66751640  0.16575698  0.32972058  1
  Te  Te182  1  0.66535591  0.16522914  0.66599038  1
  Te  Te183  1  0.66730436  0.49897230  0.00089037  1
  Te  Te184  1  0.66665590  0.50532569  0.33175529  1
  Te  Te185  1  0.66634521  0.50074144  0.66757932  1
  Te  Te186  1  0.66688075  0.83722582  -0.00057841  1
  Te  Te187  1  0.66539105  0.82510503  0.33318754  1
  Te  Te188  1  0.66275116  0.84190206  0.66622310  1
  Te  Te189  1  -0.00523862  -0.00573266  0.16850198  1
  Te  Te190  1  -0.00389767  -0.00429493  0.50159739  1
  Te  Te191  1  -0.00098659  0.00572454  0.82677648  1
  Te  Te192  1  -0.00011386  0.33454405  0.16471967  1
  Te  Te193  1  0.00590855  0.33556200  0.50144866  1
  Te  Te194  1  -0.00560339  0.33045448  0.83324367  1
  Te  Te195  1  -0.00034741  0.67075723  0.16263984  1
  Te  Te196  1  0.00040834  0.66865237  0.50115334  1
  Te  Te197  1  -0.00095922  0.66638856  0.83544061  1
  Te  Te198  1  0.33450616  -0.00541080  0.16102580  1
  Te  Te199  1  0.33578365  -0.01004891  0.49899502  1
  Te  Te200  1  0.34116549  -0.00017463  0.84042614  1
  Te  Te201  1  0.33408044  0.33448939  0.16385735  1
  Te  Te202  1  0.32593605  0.33411917  0.49991504  1
  Te  Te203  1  0.33320124  0.33429941  0.84250604  1
  Te  Te204  1  0.33537932  0.66676706  0.16790113  1
  Te  Te205  1  0.33358645  0.66838885  0.49921412  1
  Te  Te206  1  0.34045515  0.66646415  0.82667600  1
  Te  Te207  1  0.67146336  0.00022263  0.16476145  1
  Te  Te208  1  0.67443450  -0.00058290  0.50349476  1
  Te  Te209  1  0.66343628  0.00076340  0.83312916  1
  Te  Te210  1  0.66653345  0.33379665  0.16785130  1
  Te  Te211  1  0.66615408  0.34001423  0.50490766  1
  Te  Te212  1  0.67190936  0.33749360  0.82613215  1
  Te  Te213  1  0.66401043  0.66483503  0.16502459  1
  Te  Te214  1  0.66751144  0.66387536  0.49776040  1
  Te  Te215  1  0.66265013  0.66215584  0.84013725  1
