# generated using pymatgen
data_AgSbTe2
_symmetry_space_group_name_H-M   'P 1'
_cell_length_a   18.31702007
_cell_length_b   18.32121999
_cell_length_c   18.32629623
_cell_angle_alpha   90.00022565
_cell_angle_beta   90.00062848
_cell_angle_gamma   89.99923396
_symmetry_Int_Tables_number   1
_chemical_formula_structural   AgSbTe2
_chemical_formula_sum   'Ag54 Sb54 Te108'
_cell_volume   6150.12457841
_cell_formula_units_Z   54
loop_
 _symmetry_equiv_pos_site_id
 _symmetry_equiv_pos_as_xyz
  1  'x, y, z'
loop_
 _atom_site_type_symbol
 _atom_site_label
 _atom_site_symmetry_multiplicity
 _atom_site_fract_x
 _atom_site_fract_y
 _atom_site_fract_z
 _atom_site_occupancy
  Ag  Ag0  1  0.50269608  0.00342105  0.84357624  1
  Ag  Ag1  1  0.83727172  0.67516076  0.50179643  1
  Ag  Ag2  1  -0.00038166  0.32980533  0.33057527  1
  Ag  Ag3  1  0.17074892  0.16334712  -0.00192772  1
  Ag  Ag4  1  0.49957753  0.49988800  -0.00228774  1
  Ag  Ag5  1  0.33048766  0.32759331  0.67279454  1
  Ag  Ag6  1  -0.00392036  -0.00480726  0.00811958  1
  Ag  Ag7  1  -0.00188465  0.83652560  0.49212279  1
  Ag  Ag8  1  0.67708648  0.16387400  0.50410446  1
  Ag  Ag9  1  -0.00219521  0.50105017  0.16649277  1
  Ag  Ag10  1  0.33748908  0.16526845  0.83694438  1
  Ag  Ag11  1  0.15712126  0.00288672  0.16407281  1
  Ag  Ag12  1  0.33314820  0.32557255  -0.00458184  1
  Ag  Ag13  1  -0.00346515  0.83746395  0.17680643  1
  Ag  Ag14  1  0.50194934  0.50128981  0.67502277  1
  Ag  Ag15  1  0.66227337  0.49470088  0.83545160  1
  Ag  Ag16  1  -0.00272703  0.83525102  0.83279022  1
  Ag  Ag17  1  0.34124196  0.49201349  0.83592512  1
  Ag  Ag18  1  0.66613944  0.00039691  0.00407735  1
  Ag  Ag19  1  0.00152914  0.67901372  0.33150419  1
  Ag  Ag20  1  0.84181611  0.83513789  0.33516838  1
  Ag  Ag21  1  0.83302236  0.50042372  0.66942808  1
  Ag  Ag22  1  0.50184426  0.66651386  0.49280903  1
  Ag  Ag23  1  0.84026271  0.83467176  0.00369764  1
  Ag  Ag24  1  0.33711657  0.00491986  -0.00332513  1
  Ag  Ag25  1  0.83977008  0.16247180  0.66137397  1
  Ag  Ag26  1  0.15975591  0.32424725  0.17034867  1
  Ag  Ag27  1  0.15889010  0.32782616  0.49572029  1
  Ag  Ag28  1  0.49725267  0.66975381  0.16981261  1
  Ag  Ag29  1  0.49401668  0.15735835  0.00174385  1
  Ag  Ag30  1  -0.00000624  0.67747789  0.00649433  1
  Ag  Ag31  1  0.84042292  0.83706657  0.65937829  1
  Ag  Ag32  1  0.33509153  0.66896910  0.33133442  1
  Ag  Ag33  1  0.33343898  0.66729915  0.00389003  1
  Ag  Ag34  1  0.16333361  0.16233341  0.66873483  1
  Ag  Ag35  1  0.15710616  0.84031812  0.65944072  1
  Ag  Ag36  1  0.32261293  0.83375514  0.49951316  1
  Ag  Ag37  1  0.67616005  0.83765435  0.16671522  1
  Ag  Ag38  1  0.67365658  -0.00008599  0.32685704  1
  Ag  Ag39  1  0.83146561  -0.00098625  0.83077397  1
  Ag  Ag40  1  0.00071363  0.16081874  0.17323013  1
  Ag  Ag41  1  0.66273490  0.16405312  0.83244046  1
  Ag  Ag42  1  0.49959085  0.50416932  0.32955056  1
  Ag  Ag43  1  0.83996608  0.32178594  0.49751274  1
  Ag  Ag44  1  -0.00406676  0.16024286  0.49534321  1
  Ag  Ag45  1  -0.00382091  -0.00620498  0.32762989  1
  Ag  Ag46  1  -0.00272869  0.67398529  0.65732736  1
  Ag  Ag47  1  0.15488490  0.83452140  0.33761465  1
  Ag  Ag48  1  0.83191663  0.50390011  -0.00391696  1
  Ag  Ag49  1  0.49951199  -0.00101657  0.16178174  1
  Ag  Ag50  1  0.50067029  0.16431660  0.32711051  1
  Ag  Ag51  1  0.83590660  -0.00058609  0.50424850  1
  Ag  Ag52  1  0.84218149  0.33413940  0.17166653  1
  Ag  Ag53  1  0.33222274  0.00402862  0.67416366  1
  Sb  Sb54  1  -0.00085012  0.15891323  0.83216290  1
  Sb  Sb55  1  0.67356718  0.83893953  0.83806646  1
  Sb  Sb56  1  0.83455001  0.67207466  0.82983997  1
  Sb  Sb57  1  0.16004502  0.83973584  0.00289543  1
  Sb  Sb58  1  0.16578986  0.67068900  0.16666581  1
  Sb  Sb59  1  0.16891110  0.33056629  0.83465806  1
  Sb  Sb60  1  0.00219564  0.33384181  0.65940783  1
  Sb  Sb61  1  0.66793166  0.67147424  0.00095250  1
  Sb  Sb62  1  0.66433334  0.32844552  0.00099845  1
  Sb  Sb63  1  -0.00245681  0.50548201  0.83862004  1
  Sb  Sb64  1  0.32945149  0.83415796  0.16913863  1
  Sb  Sb65  1  0.83405341  0.32958258  0.83193514  1
  Sb  Sb66  1  0.67200026  0.32647369  0.33383107  1
  Sb  Sb67  1  0.83476680  0.16320425  -0.00193196  1
  Sb  Sb68  1  0.83233264  0.50315784  0.33360080  1
  Sb  Sb69  1  0.83559343  0.66817202  0.16873478  1
  Sb  Sb70  1  0.16342515  0.66838694  0.49912745  1
  Sb  Sb71  1  0.32758186  0.16508979  0.15989120  1
  Sb  Sb72  1  0.16765970  0.49505015  0.00197074  1
  Sb  Sb73  1  0.50347019  -0.00319219  0.49820400  1
  Sb  Sb74  1  0.66830365  0.49655671  0.50210635  1
  Sb  Sb75  1  0.67500980  0.83873705  0.49534189  1
  Sb  Sb76  1  0.50122449  0.83308718  0.33205593  1
  Sb  Sb77  1  0.49767653  0.32932221  0.83447266  1
  Sb  Sb78  1  0.50182331  0.83631436  0.00103258  1
  Sb  Sb79  1  0.16693689  0.50394843  0.33168059  1
  Sb  Sb80  1  0.00272766  0.33024351  0.00889125  1
  Sb  Sb81  1  0.66532623  0.33248781  0.66618943  1
  Sb  Sb82  1  0.50047494  0.83004483  0.66561899  1
  Sb  Sb83  1  0.33102049  0.50070111  0.16112505  1
  Sb  Sb84  1  0.16463787  0.49799482  0.66608718  1
  Sb  Sb85  1  0.49877051  0.16867194  0.66881275  1
  Sb  Sb86  1  0.16025985  0.00077822  0.49744286  1
  Sb  Sb87  1  0.49899782  0.33119561  0.16522759  1
  Sb  Sb88  1  0.67107345  0.15984217  0.16627446  1
  Sb  Sb89  1  -0.00288615  0.50192404  0.49543274  1
  Sb  Sb90  1  0.66810300  0.00165419  0.66846755  1
  Sb  Sb91  1  0.83673104  -0.00000150  0.16662047  1
  Sb  Sb92  1  0.66770925  0.67243911  0.33258384  1
  Sb  Sb93  1  0.00086786  -0.00598202  0.66450483  1
  Sb  Sb94  1  0.33518597  0.50370214  0.50388934  1
  Sb  Sb95  1  0.16568450  0.66898605  0.83435075  1
  Sb  Sb96  1  0.66856642  0.50439022  0.16258041  1
  Sb  Sb97  1  0.33117597  0.16232379  0.50483795  1
  Sb  Sb98  1  0.16567719  0.16232644  0.33224587  1
  Sb  Sb99  1  0.67253676  0.66583348  0.66536134  1
  Sb  Sb100  1  0.49886291  0.66707164  0.83562889  1
  Sb  Sb101  1  0.16496529  0.00023979  0.83727529  1
  Sb  Sb102  1  0.32815527  0.83757424  0.83136713  1
  Sb  Sb103  1  0.83482076  0.15873685  0.33826264  1
  Sb  Sb104  1  0.32891896  0.66777872  0.66636940  1
  Sb  Sb105  1  0.49971753  0.33591757  0.50009714  1
  Sb  Sb106  1  0.32917053  0.33684590  0.33258914  1
  Sb  Sb107  1  0.33204305  -0.00362970  0.33216677  1
  Te  Te108  1  0.16213149  0.16415944  0.16610078  1
  Te  Te109  1  0.16312218  0.16813244  0.50233410  1
  Te  Te110  1  0.17064808  0.16609263  0.83144223  1
  Te  Te111  1  0.15943289  0.49429457  0.16726553  1
  Te  Te112  1  0.16665438  0.48960374  0.49959044  1
  Te  Te113  1  0.17448712  0.49937880  0.83317327  1
  Te  Te114  1  0.16081772  0.83820248  0.17116573  1
  Te  Te115  1  0.16293968  0.83405656  0.49953680  1
  Te  Te116  1  0.15962394  0.83470118  0.82261712  1
  Te  Te117  1  0.50259672  0.16439535  0.16400947  1
  Te  Te118  1  0.50254984  0.16696194  0.49899785  1
  Te  Te119  1  0.49989266  0.16335385  0.83534486  1
  Te  Te120  1  0.50047242  0.50082737  0.16351195  1
  Te  Te121  1  0.50147665  0.50437603  0.49862956  1
  Te  Te122  1  0.50067595  0.50101735  0.83594043  1
  Te  Te123  1  0.50012462  0.83446073  0.16680009  1
  Te  Te124  1  0.50158724  0.82710088  0.50042174  1
  Te  Te125  1  0.50156795  0.84134055  0.83208640  1
  Te  Te126  1  0.83910407  0.17306282  0.16644968  1
  Te  Te127  1  0.83555271  0.16454604  0.50029112  1
  Te  Te128  1  0.83057394  0.16209625  0.82840541  1
  Te  Te129  1  0.83553900  0.49891621  0.16399993  1
  Te  Te130  1  0.83135345  0.50362316  0.50471072  1
  Te  Te131  1  0.83052856  0.49905006  0.83366051  1
  Te  Te132  1  0.83540747  0.83313717  0.16539902  1
  Te  Te133  1  0.83566057  0.83482814  0.49980677  1
  Te  Te134  1  0.83644024  0.83849284  0.83625087  1
  Te  Te135  1  0.16833165  0.00357098  0.00367766  1
  Te  Te136  1  0.16360431  -0.00441725  0.32824609  1
  Te  Te137  1  0.16992559  0.00160177  0.66604196  1
  Te  Te138  1  0.17137110  0.32693521  0.00456814  1
  Te  Te139  1  0.16302205  0.33362228  0.33229142  1
  Te  Te140  1  0.16992256  0.32989713  0.66355669  1
  Te  Te141  1  0.16691321  0.66650993  0.00151105  1
  Te  Te142  1  0.16623558  0.67153038  0.33332321  1
  Te  Te143  1  0.15916334  0.67049556  0.66645499  1
  Te  Te144  1  0.49903915  -0.00118145  0.00100753  1
  Te  Te145  1  0.50042847  0.00322445  0.33051284  1
  Te  Te146  1  0.49463468  -0.00024681  0.66734903  1
  Te  Te147  1  0.49516649  0.33732381  0.00173406  1
  Te  Te148  1  0.49979964  0.33306402  0.33261043  1
  Te  Te149  1  0.49302899  0.34110020  0.66524329  1
  Te  Te150  1  0.49846291  0.66574465  0.00291770  1
  Te  Te151  1  0.50031803  0.66627273  0.33214293  1
  Te  Te152  1  0.49895236  0.66114165  0.66382535  1
  Te  Te153  1  0.83402450  -0.00075108  -0.00106917  1
  Te  Te154  1  0.83434196  -0.00369432  0.33500190  1
  Te  Te155  1  0.83397918  0.00109725  0.66618337  1
  Te  Te156  1  0.83315260  0.33686933  0.00091951  1
  Te  Te157  1  0.83805736  0.33541734  0.33562873  1
  Te  Te158  1  0.83379178  0.33346418  0.66269206  1
  Te  Te159  1  0.83602937  0.66646539  0.00044113  1
  Te  Te160  1  0.83650095  0.67043494  0.33742226  1
  Te  Te161  1  0.83795038  0.66621919  0.66340490  1
  Te  Te162  1  0.00372853  0.16179440  0.00051950  1
  Te  Te163  1  0.00127747  0.16753394  0.33453783  1
  Te  Te164  1  0.00098103  0.16645936  0.66385429  1
  Te  Te165  1  -0.00298051  0.50157409  0.00401125  1
  Te  Te166  1  -0.00117165  0.49689274  0.32670141  1
  Te  Te167  1  -0.00502502  0.50599517  0.66887587  1
  Te  Te168  1  0.00054877  0.83450532  -0.00032588  1
  Te  Te169  1  -0.00177012  0.83474275  0.33434890  1
  Te  Te170  1  -0.00169115  0.83354389  0.66545391  1
  Te  Te171  1  0.33391035  0.16542708  -0.00204463  1
  Te  Te172  1  0.33974437  0.16714920  0.33490048  1
  Te  Te173  1  0.33151431  0.16607704  0.67024567  1
  Te  Te174  1  0.33490831  0.50324472  -0.00361619  1
  Te  Te175  1  0.33839081  0.50634303  0.33326539  1
  Te  Te176  1  0.33376926  0.49883575  0.67192353  1
  Te  Te177  1  0.32991089  0.83083405  -0.00043546  1
  Te  Te178  1  0.33248369  0.82846931  0.33760511  1
  Te  Te179  1  0.33174586  0.83669020  0.66314740  1
  Te  Te180  1  0.66354699  0.16149005  -0.00412839  1
  Te  Te181  1  0.66253304  0.16064762  0.33430852  1
  Te  Te182  1  0.66923992  0.16689392  0.66793792  1
  Te  Te183  1  0.66680571  0.49967221  -0.00349053  1
  Te  Te184  1  0.66005298  0.49896514  0.33196285  1
  Te  Te185  1  0.66739652  0.49904206  0.67121112  1
  Te  Te186  1  0.67367279  0.83909356  0.00429797  1
  Te  Te187  1  0.67089913  0.84018463  0.32854438  1
  Te  Te188  1  0.67568514  0.83340852  0.66803362  1
  Te  Te189  1  -0.00148632  0.00003878  0.16806856  1
  Te  Te190  1  -0.00305670  0.00045221  0.49741484  1
  Te  Te191  1  -0.00443593  -0.00416231  0.83964255  1
  Te  Te192  1  -0.00000826  0.33132428  0.16883817  1
  Te  Te193  1  -0.00138164  0.33477086  0.49546324  1
  Te  Te194  1  0.00107081  0.33439750  0.83329851  1
  Te  Te195  1  0.00004188  0.66930942  0.16800574  1
  Te  Te196  1  -0.00193569  0.66875813  0.49665491  1
  Te  Te197  1  -0.00053763  0.67285432  0.84149693  1
  Te  Te198  1  0.33874881  -0.00046818  0.16317627  1
  Te  Te199  1  0.33393958  -0.00633883  0.50133912  1
  Te  Te200  1  0.33360532  0.00187260  0.83487058  1
  Te  Te201  1  0.32765606  0.33324550  0.16278902  1
  Te  Te202  1  0.33061943  0.33252952  0.50240547  1
  Te  Te203  1  0.33308220  0.33082529  0.83433676  1
  Te  Te204  1  0.33600171  0.66715518  0.16661686  1
  Te  Te205  1  0.33396327  0.67125315  0.49783946  1
  Te  Te206  1  0.33367225  0.66649707  0.83842007  1
  Te  Te207  1  0.66472205  -0.00250325  0.16586661  1
  Te  Te208  1  0.67126077  0.00522350  0.49711022  1
  Te  Te209  1  0.66704091  0.00299152  0.83523803  1
  Te  Te210  1  0.67475075  0.33367509  0.16730734  1
  Te  Te211  1  0.67306764  0.32513431  0.49943972  1
  Te  Te212  1  0.66634705  0.33125330  0.83358823  1
  Te  Te213  1  0.65864676  0.67390847  0.16640169  1
  Te  Te214  1  0.66632448  0.66660034  0.49895449  1
  Te  Te215  1  0.66554239  0.65867509  0.83343697  1
