# generated using pymatgen
data_AgSbTe2
_symmetry_space_group_name_H-M   'P 1'
_cell_length_a   18.36373629
_cell_length_b   18.34702801
_cell_length_c   18.35705377
_cell_angle_alpha   90.00187436
_cell_angle_beta   89.99763796
_cell_angle_gamma   89.99539689
_symmetry_Int_Tables_number   1
_chemical_formula_structural   AgSbTe2
_chemical_formula_sum   'Ag54 Sb54 Te108'
_cell_volume   6184.85823377
_cell_formula_units_Z   54
loop_
 _symmetry_equiv_pos_site_id
 _symmetry_equiv_pos_as_xyz
  1  'x, y, z'
loop_
 _atom_site_type_symbol
 _atom_site_label
 _atom_site_symmetry_multiplicity
 _atom_site_fract_x
 _atom_site_fract_y
 _atom_site_fract_z
 _atom_site_occupancy
  Ag  Ag0  1  0.49144113  0.16174055  0.66941182  1
  Ag  Ag1  1  0.33149877  0.33693790  0.34153145  1
  Ag  Ag2  1  0.83836412  0.83012484  0.34555471  1
  Ag  Ag3  1  0.32620650  0.33614086  -0.00192906  1
  Ag  Ag4  1  0.49782747  0.16804390  -0.00749931  1
  Ag  Ag5  1  0.84369482  0.50880625  -0.00549322  1
  Ag  Ag6  1  0.84593547  0.66844628  0.83117704  1
  Ag  Ag7  1  0.00704647  0.66956855  0.33536276  1
  Ag  Ag8  1  0.17061128  0.16138049  0.67145227  1
  Ag  Ag9  1  0.15301351  0.81742210  -0.01522949  1
  Ag  Ag10  1  -0.00138009  -0.01207188  0.67374311  1
  Ag  Ag11  1  0.83182525  0.51266025  0.66951478  1
  Ag  Ag12  1  -0.00178216  0.67166048  0.67373239  1
  Ag  Ag13  1  0.50145869  0.83336100  0.66449074  1
  Ag  Ag14  1  0.00828177  0.15608254  0.83226313  1
  Ag  Ag15  1  0.17107825  0.34023518  0.50864179  1
  Ag  Ag16  1  0.67516823  0.67371280  0.66526985  1
  Ag  Ag17  1  0.66818087  0.33174363  -0.00039371  1
  Ag  Ag18  1  0.49398647  0.33487374  0.49987255  1
  Ag  Ag19  1  0.67562352  -0.00215874  -0.00783128  1
  Ag  Ag20  1  0.32981400  0.32574892  0.65897703  1
  Ag  Ag21  1  0.66899332  0.50369489  0.50208448  1
  Ag  Ag22  1  0.49646798  0.17126451  0.34579561  1
  Ag  Ag23  1  0.66857238  -0.00873349  0.67083945  1
  Ag  Ag24  1  0.67105239  0.82734112  0.50826575  1
  Ag  Ag25  1  0.49624598  -0.00319423  0.83060285  1
  Ag  Ag26  1  0.32756938  0.16959850  0.82658607  1
  Ag  Ag27  1  -0.00183704  0.83039813  0.14658936  1
  Ag  Ag28  1  -0.00334680  -0.01038296  -0.00780885  1
  Ag  Ag29  1  0.00240902  0.83577190  0.83196521  1
  Ag  Ag30  1  0.32510888  0.66605860  -0.00168810  1
  Ag  Ag31  1  0.32430977  0.66320767  0.33755510  1
  Ag  Ag32  1  0.83415262  -0.00587313  0.15890082  1
  Ag  Ag33  1  0.84313297  0.83013048  0.66668664  1
  Ag  Ag34  1  0.00500379  0.33682287  0.33698231  1
  Ag  Ag35  1  0.00084561  0.82872741  0.51682930  1
  Ag  Ag36  1  0.32980663  0.82676711  0.50285064  1
  Ag  Ag37  1  0.16560696  0.50506498  0.33496048  1
  Ag  Ag38  1  0.16538265  0.67455524  0.83860500  1
  Ag  Ag39  1  0.16726831  0.66432084  0.50221758  1
  Ag  Ag40  1  0.16766098  0.66783958  0.15346542  1
  Ag  Ag41  1  0.84086131  0.82802578  -0.00475830  1
  Ag  Ag42  1  0.83626371  0.33567655  0.50089465  1
  Ag  Ag43  1  0.49302487  0.66910596  0.15852718  1
  Ag  Ag44  1  0.01254480  0.67668099  -0.00702529  1
  Ag  Ag45  1  0.16015276  0.50497719  -0.00083101  1
  Ag  Ag46  1  0.15819860  0.83037117  0.66799175  1
  Ag  Ag47  1  0.33438113  0.17756480  0.50893235  1
  Ag  Ag48  1  0.16798348  0.33109655  0.83056598  1
  Ag  Ag49  1  0.16179869  -0.00209560  0.83011723  1
  Ag  Ag50  1  0.66455581  0.33359921  0.34382633  1
  Ag  Ag51  1  0.00484023  0.33475706  -0.00260655  1
  Ag  Ag52  1  0.49350789  0.66784086  0.50401879  1
  Ag  Ag53  1  0.49591000  0.67361678  0.82807454  1
  Sb  Sb54  1  0.16017800  -0.00901223  0.15714759  1
  Sb  Sb55  1  0.66328291  0.33297725  0.66572622  1
  Sb  Sb56  1  0.66697671  0.66500353  0.34167192  1
  Sb  Sb57  1  0.66697990  0.00197924  0.33545882  1
  Sb  Sb58  1  0.16578800  0.33682261  0.16447684  1
  Sb  Sb59  1  0.83519972  0.33145890  0.16814869  1
  Sb  Sb60  1  0.83559218  0.66682737  0.50728927  1
  Sb  Sb61  1  0.83372771  -0.00191905  0.50049731  1
  Sb  Sb62  1  -0.00064505  -0.00561002  0.33348452  1
  Sb  Sb63  1  0.66730285  0.50123018  0.83003768  1
  Sb  Sb64  1  0.32797204  0.82804818  0.17008094  1
  Sb  Sb65  1  0.16286638  0.50460460  0.66905646  1
  Sb  Sb66  1  0.67161314  0.83267879  0.82583456  1
  Sb  Sb67  1  0.00202229  0.50640019  0.83624736  1
  Sb  Sb68  1  0.83885680  0.67152279  0.16183022  1
  Sb  Sb69  1  0.50174019  0.83439687  0.33992168  1
  Sb  Sb70  1  0.66946658  0.66755294  -0.00595942  1
  Sb  Sb71  1  0.49658491  0.49879468  0.33596353  1
  Sb  Sb72  1  -0.00190091  0.50487656  0.49993750  1
  Sb  Sb73  1  0.83297324  0.16516344  -0.00195890  1
  Sb  Sb74  1  0.00165675  0.50702906  0.16380775  1
  Sb  Sb75  1  0.83749675  -0.00492516  0.83454394  1
  Sb  Sb76  1  0.16635540  -0.00451389  0.50676622  1
  Sb  Sb77  1  0.32815730  0.83519016  0.82819008  1
  Sb  Sb78  1  0.00386624  0.33506404  0.66715664  1
  Sb  Sb79  1  0.16090527  0.82528608  0.33956783  1
  Sb  Sb80  1  0.84013858  0.33823691  0.83149755  1
  Sb  Sb81  1  0.16950654  0.16810777  -0.00904986  1
  Sb  Sb82  1  0.66353079  0.16479622  0.83360406  1
  Sb  Sb83  1  0.50284974  0.50219911  0.66438200  1
  Sb  Sb84  1  0.83263234  0.16636255  0.33532591  1
  Sb  Sb85  1  0.66642855  0.16687723  0.16551596  1
  Sb  Sb86  1  0.00578981  0.16551872  0.50511614  1
  Sb  Sb87  1  0.33093724  0.49787189  0.83409596  1
  Sb  Sb88  1  0.33024478  0.66626300  0.66613839  1
  Sb  Sb89  1  0.50004034  0.83472903  -0.00793877  1
  Sb  Sb90  1  0.49956114  0.33474934  0.16937422  1
  Sb  Sb91  1  0.83497816  0.16361186  0.66688569  1
  Sb  Sb92  1  0.00079553  0.16214765  0.16062865  1
  Sb  Sb93  1  0.83755182  0.50295897  0.33484537  1
  Sb  Sb94  1  0.33339144  0.16853228  0.16560595  1
  Sb  Sb95  1  0.50491801  -0.00303674  0.15962073  1
  Sb  Sb96  1  0.33381038  0.50036726  0.49989486  1
  Sb  Sb97  1  0.49452884  0.33216063  0.83125823  1
  Sb  Sb98  1  0.33035741  -0.00201384  -0.00376071  1
  Sb  Sb99  1  0.17136657  0.17572522  0.34226367  1
  Sb  Sb100  1  0.49957719  -0.00086771  0.50819801  1
  Sb  Sb101  1  0.66073953  0.16839498  0.50172071  1
  Sb  Sb102  1  0.33132688  0.50208890  0.16726181  1
  Sb  Sb103  1  0.33182948  0.00250034  0.66851700  1
  Sb  Sb104  1  0.67208204  0.83213153  0.16905822  1
  Sb  Sb105  1  0.49832349  0.49847201  -0.00055431  1
  Sb  Sb106  1  0.66788635  0.50123694  0.16913714  1
  Sb  Sb107  1  0.33335629  -0.00050036  0.33648957  1
  Te  Te108  1  0.16642423  0.16296338  0.16970249  1
  Te  Te109  1  0.17310178  0.16956656  0.50752130  1
  Te  Te110  1  0.16762669  0.16912866  0.83109827  1
  Te  Te111  1  0.16606047  0.50662347  0.16490754  1
  Te  Te112  1  0.16573565  0.49959449  0.49881326  1
  Te  Te113  1  0.16797584  0.49587930  0.83775169  1
  Te  Te114  1  0.16111332  0.82781829  0.16604340  1
  Te  Te115  1  0.16578802  0.83044340  0.50550996  1
  Te  Te116  1  0.16858523  0.83444849  0.83036298  1
  Te  Te117  1  0.49991510  0.16530304  0.15947374  1
  Te  Te118  1  0.49572185  0.16716091  0.50254750  1
  Te  Te119  1  0.49835621  0.16730434  0.83154969  1
  Te  Te120  1  0.50094981  0.51102304  0.16751456  1
  Te  Te121  1  0.50701248  0.49915865  0.49860423  1
  Te  Te122  1  0.49963766  0.51026110  0.83308567  1
  Te  Te123  1  0.50005208  0.82850846  0.16915318  1
  Te  Te124  1  0.49879795  0.83193526  0.50263558  1
  Te  Te125  1  0.49662953  0.83538546  0.82769324  1
  Te  Te126  1  0.83392776  0.15762134  0.16872685  1
  Te  Te127  1  0.83411704  0.17474423  0.49964877  1
  Te  Te128  1  0.83991888  0.16937834  0.83205037  1
  Te  Te129  1  0.83327646  0.49822394  0.15561674  1
  Te  Te130  1  0.83005849  0.49409464  0.50010451  1
  Te  Te131  1  0.83251746  0.50529397  0.83313875  1
  Te  Te132  1  0.83644090  0.83480633  0.15878810  1
  Te  Te133  1  0.83524664  0.83308935  0.50416807  1
  Te  Te134  1  0.83667081  0.82991760  0.83220737  1
  Te  Te135  1  0.16043735  -0.00057247  -0.00746970  1
  Te  Te136  1  0.16681357  0.00234687  0.33160200  1
  Te  Te137  1  0.16227289  -0.00235301  0.67034263  1
  Te  Te138  1  0.16717058  0.33481410  -0.00017841  1
  Te  Te139  1  0.16750851  0.33891533  0.33154199  1
  Te  Te140  1  0.16817694  0.33718246  0.66746958  1
  Te  Te141  1  0.16686593  0.66383514  -0.00225992  1
  Te  Te142  1  0.16721490  0.66594625  0.34404360  1
  Te  Te143  1  0.16382699  0.66881753  0.66314432  1
  Te  Te144  1  0.50065164  0.00292124  -0.00524751  1
  Te  Te145  1  0.50152792  0.00820353  0.32858552  1
  Te  Te146  1  0.50122316  0.00189008  0.67099385  1
  Te  Te147  1  0.50034482  0.33085851  0.00054224  1
  Te  Te148  1  0.49725485  0.33216794  0.33384492  1
  Te  Te149  1  0.49682815  0.33129223  0.66285724  1
  Te  Te150  1  0.50048009  0.66672838  -0.00289691  1
  Te  Te151  1  0.49817270  0.66740105  0.34403041  1
  Te  Te152  1  0.49566351  0.66712034  0.66418740  1
  Te  Te153  1  0.83488876  -0.00056199  -0.00048105  1
  Te  Te154  1  0.83202396  -0.00478290  0.33178117  1
  Te  Te155  1  0.83328718  -0.00430496  0.66687671  1
  Te  Te156  1  0.83269680  0.33420051  -0.00034697  1
  Te  Te157  1  0.83498424  0.33430543  0.33715455  1
  Te  Te158  1  0.83320248  0.33236489  0.66146153  1
  Te  Te159  1  0.83256411  0.66753596  -0.00541773  1
  Te  Te160  1  0.83492216  0.66989952  0.32951209  1
  Te  Te161  1  0.83425017  0.66894630  0.66788404  1
  Te  Te162  1  0.00066206  0.17429255  -0.00474001  1
  Te  Te163  1  0.00160824  0.17006507  0.33326103  1
  Te  Te164  1  0.00446949  0.16617671  0.67101130  1
  Te  Te165  1  0.00021364  0.49430854  0.00066557  1
  Te  Te166  1  0.00318421  0.49841523  0.33197733  1
  Te  Te167  1  -0.00786159  0.50597791  0.66645055  1
  Te  Te168  1  -0.00231512  0.83206811  -0.00782521  1
  Te  Te169  1  -0.00340890  0.83167985  0.33922290  1
  Te  Te170  1  0.00078280  0.83141587  0.67188070  1
  Te  Te171  1  0.33741363  0.16676404  -0.00117120  1
  Te  Te172  1  0.33800018  0.17089605  0.33417808  1
  Te  Te173  1  0.33117941  0.16618615  0.66677391  1
  Te  Te174  1  0.33156884  0.50228726  0.00051840  1
  Te  Te175  1  0.32775486  0.50047904  0.33330761  1
  Te  Te176  1  0.33397855  0.48766956  0.66735886  1
  Te  Te177  1  0.33292290  0.82661396  0.00316483  1
  Te  Te178  1  0.33270709  0.82919357  0.33992991  1
  Te  Te179  1  0.34011380  0.83163799  0.66145689  1
  Te  Te180  1  0.66300928  0.16715334  -0.00073200  1
  Te  Te181  1  0.66253093  0.17286377  0.33312901  1
  Te  Te182  1  0.66533120  0.16177630  0.66723760  1
  Te  Te183  1  0.66836633  0.49682167  0.00123950  1
  Te  Te184  1  0.66874836  0.49334331  0.33754717  1
  Te  Te185  1  0.67190811  0.50082641  0.66312659  1
  Te  Te186  1  0.66756617  0.83824621  0.00198268  1
  Te  Te187  1  0.67329868  0.83449205  0.33997000  1
  Te  Te188  1  0.66060973  0.83265664  0.66589852  1
  Te  Te189  1  -0.00544408  -0.00525105  0.16493258  1
  Te  Te190  1  0.00035332  -0.00485437  0.50404404  1
  Te  Te191  1  -0.00055190  0.00049235  0.83295907  1
  Te  Te192  1  -0.00083323  0.33088978  0.16896187  1
  Te  Te193  1  0.00551646  0.33312178  0.49683088  1
  Te  Te194  1  0.00509309  0.33293617  0.83482447  1
  Te  Te195  1  0.00255984  0.67219325  0.16925788  1
  Te  Te196  1  0.00102442  0.66907252  0.49570938  1
  Te  Te197  1  0.00341229  0.66822514  0.83460290  1
  Te  Te198  1  0.33404367  -0.00142612  0.16675501  1
  Te  Te199  1  0.33288482  -0.00323066  0.49924997  1
  Te  Te200  1  0.33408161  0.00755810  0.83496549  1
  Te  Te201  1  0.33424644  0.33331029  0.16205052  1
  Te  Te202  1  0.33269481  0.33570793  0.49783813  1
  Te  Te203  1  0.33117619  0.32993763  0.83895921  1
  Te  Te204  1  0.33267677  0.66755253  0.16770635  1
  Te  Te205  1  0.33322293  0.66624993  0.50043881  1
  Te  Te206  1  0.32955230  0.66718851  0.83710339  1
  Te  Te207  1  0.67223051  -0.00052374  0.16256363  1
  Te  Te208  1  0.66697197  -0.00482697  0.50497506  1
  Te  Te209  1  0.66336187  -0.00017054  0.83276475  1
  Te  Te210  1  0.66696506  0.33403104  0.16105132  1
  Te  Te211  1  0.66102900  0.33336024  0.50024948  1
  Te  Te212  1  0.66721778  0.33373818  0.83914355  1
  Te  Te213  1  0.65955256  0.66659675  0.16936712  1
  Te  Te214  1  0.66830409  0.66662676  0.50521975  1
  Te  Te215  1  0.65758386  0.66678733  0.82598995  1
