# generated using pymatgen
data_AgSbTe2
_symmetry_space_group_name_H-M   'P 1'
_cell_length_a   18.33948195
_cell_length_b   18.35015368
_cell_length_c   18.34311527
_cell_angle_alpha   90.00171259
_cell_angle_beta   89.99911664
_cell_angle_gamma   90.00302198
_symmetry_Int_Tables_number   1
_chemical_formula_structural   AgSbTe2
_chemical_formula_sum   'Ag54 Sb54 Te108'
_cell_volume   6173.05098637
_cell_formula_units_Z   54
loop_
 _symmetry_equiv_pos_site_id
 _symmetry_equiv_pos_as_xyz
  1  'x, y, z'
loop_
 _atom_site_type_symbol
 _atom_site_label
 _atom_site_symmetry_multiplicity
 _atom_site_fract_x
 _atom_site_fract_y
 _atom_site_fract_z
 _atom_site_occupancy
  Ag  Ag0  1  0.66992744  -0.00980090  0.65575786  1
  Ag  Ag1  1  0.83508797  0.49684544  0.33580352  1
  Ag  Ag2  1  0.83213840  0.66762996  0.50027703  1
  Ag  Ag3  1  0.33224708  0.16054669  0.83220042  1
  Ag  Ag4  1  -0.00253172  0.33208401  0.65773520  1
  Ag  Ag5  1  -0.00412879  0.34162217  0.34033250  1
  Ag  Ag6  1  0.50531382  0.50585590  0.33541085  1
  Ag  Ag7  1  0.16638011  0.83467187  0.66287665  1
  Ag  Ag8  1  0.49281690  -0.00849360  0.83080840  1
  Ag  Ag9  1  0.83287347  0.51133903  -0.00170034  1
  Ag  Ag10  1  -0.00059076  0.49815642  0.49765073  1
  Ag  Ag11  1  0.16866770  0.83287420  0.01381598  1
  Ag  Ag12  1  0.66518557  0.82837169  0.82970092  1
  Ag  Ag13  1  0.83118239  0.34103110  0.82361292  1
  Ag  Ag14  1  0.17263635  -0.00768442  0.82384598  1
  Ag  Ag15  1  0.16791446  0.15697482  0.66235326  1
  Ag  Ag16  1  0.82486374  0.66312292  0.83106539  1
  Ag  Ag17  1  0.66902626  0.67051133  0.67554855  1
  Ag  Ag18  1  0.33226796  0.67526791  -0.00118602  1
  Ag  Ag19  1  0.82532255  0.17363948  0.33619526  1
  Ag  Ag20  1  0.67424095  0.33395177  0.65814516  1
  Ag  Ag21  1  0.33610193  -0.00033892  0.33155770  1
  Ag  Ag22  1  0.16453066  0.50927655  0.66251128  1
  Ag  Ag23  1  0.67104250  0.32580555  0.33804153  1
  Ag  Ag24  1  0.66974571  0.51580045  0.83044927  1
  Ag  Ag25  1  0.66587962  0.83424494  0.17543115  1
  Ag  Ag26  1  0.66570699  0.83193549  0.49906876  1
  Ag  Ag27  1  0.16638544  -0.00661311  0.50194664  1
  Ag  Ag28  1  0.66866056  0.67114093  -0.01105914  1
  Ag  Ag29  1  0.83852738  0.33443928  0.49796262  1
  Ag  Ag30  1  0.32982210  -0.00655432  0.01205064  1
  Ag  Ag31  1  0.50695826  0.67071472  0.50023166  1
  Ag  Ag32  1  0.49359363  0.83502353  0.33719034  1
  Ag  Ag33  1  0.16609044  0.67521913  0.82886849  1
  Ag  Ag34  1  0.16426479  0.67848512  0.17469298  1
  Ag  Ag35  1  0.50239194  0.16133956  0.33422030  1
  Ag  Ag36  1  0.51405849  0.67134142  0.82927261  1
  Ag  Ag37  1  0.32500132  0.83682699  0.17389338  1
  Ag  Ag38  1  0.32243668  0.83595181  0.49306632  1
  Ag  Ag39  1  0.83097697  0.82960783  0.00036160  1
  Ag  Ag40  1  0.00125485  0.66250010  0.33564160  1
  Ag  Ag41  1  0.66205580  0.15728186  0.17587722  1
  Ag  Ag42  1  0.66208844  -0.00032671  0.33681838  1
  Ag  Ag43  1  0.01051643  0.00062117  0.66279223  1
  Ag  Ag44  1  0.15845594  0.33737174  0.50087089  1
  Ag  Ag45  1  0.33382946  0.32300217  0.33607110  1
  Ag  Ag46  1  0.83441434  -0.00183819  0.49876791  1
  Ag  Ag47  1  0.01363727  0.82947106  0.16888850  1
  Ag  Ag48  1  0.16556874  0.67426157  0.49995319  1
  Ag  Ag49  1  0.33401219  0.15527163  0.17659682  1
  Ag  Ag50  1  0.17192883  -0.01051685  0.17711739  1
  Ag  Ag51  1  -0.00046084  0.50901590  0.18004797  1
  Ag  Ag52  1  0.17208890  0.83471697  0.32966592  1
  Ag  Ag53  1  0.33028987  0.15607198  0.49279819  1
  Sb  Sb54  1  0.83569736  -0.00279931  0.17297137  1
  Sb  Sb55  1  0.32681044  0.50491234  0.17159044  1
  Sb  Sb56  1  0.00646445  -0.00401422  -0.00292931  1
  Sb  Sb57  1  0.83396620  0.83241861  0.66749156  1
  Sb  Sb58  1  -0.00119172  0.66708580  0.66049873  1
  Sb  Sb59  1  0.32838077  0.50380154  0.49637439  1
  Sb  Sb60  1  0.49585583  0.67045546  0.17002875  1
  Sb  Sb61  1  0.33109623  -0.00128417  0.66230482  1
  Sb  Sb62  1  0.50533319  0.50620278  0.00376412  1
  Sb  Sb63  1  0.32906181  0.33029247  0.65911598  1
  Sb  Sb64  1  0.00095868  0.83149436  0.83497283  1
  Sb  Sb65  1  0.83443394  0.33413940  0.17562253  1
  Sb  Sb66  1  0.49754286  0.16377012  0.66090145  1
  Sb  Sb67  1  0.83777158  0.66825441  0.16695951  1
  Sb  Sb68  1  0.32972085  0.32982526  0.00455387  1
  Sb  Sb69  1  0.50551863  0.33474090  0.82918791  1
  Sb  Sb70  1  0.66313998  0.16162514  0.83472236  1
  Sb  Sb71  1  0.00173799  -0.00085982  0.33906097  1
  Sb  Sb72  1  0.16203815  0.50536343  0.33843673  1
  Sb  Sb73  1  0.66989528  0.66977050  0.33514820  1
  Sb  Sb74  1  0.00170087  0.82978207  0.49557601  1
  Sb  Sb75  1  0.66194159  -0.00841681  0.00320959  1
  Sb  Sb76  1  0.16936150  0.15706713  -0.00340197  1
  Sb  Sb77  1  0.49381165  -0.00231474  0.16865490  1
  Sb  Sb78  1  0.33252156  0.66905230  0.66902295  1
  Sb  Sb79  1  0.50237820  0.33774315  0.49627546  1
  Sb  Sb80  1  0.00349145  0.16614031  0.82956588  1
  Sb  Sb81  1  0.33342383  0.83648329  0.83511022  1
  Sb  Sb82  1  0.83604064  0.16768396  0.65968570  1
  Sb  Sb83  1  -0.00142033  0.33764592  0.00023571  1
  Sb  Sb84  1  0.67296301  0.50434324  0.50231859  1
  Sb  Sb85  1  0.16089271  0.51216660  -0.00366345  1
  Sb  Sb86  1  0.66338146  0.16234955  0.49498950  1
  Sb  Sb87  1  -0.00634660  0.50216875  0.82872010  1
  Sb  Sb88  1  0.50001233  0.33206063  0.17244403  1
  Sb  Sb89  1  0.00569841  0.17169265  0.49892480  1
  Sb  Sb90  1  0.16618980  0.33236343  0.17820699  1
  Sb  Sb91  1  0.83633151  0.49942784  0.66317969  1
  Sb  Sb92  1  -0.00119628  0.66899512  0.00486535  1
  Sb  Sb93  1  0.67226624  0.50352547  0.16783762  1
  Sb  Sb94  1  0.83008561  0.16467146  0.00447226  1
  Sb  Sb95  1  0.49961765  0.50327030  0.66167802  1
  Sb  Sb96  1  0.00375881  0.16359402  0.17304527  1
  Sb  Sb97  1  0.49871130  0.16264797  0.00502630  1
  Sb  Sb98  1  0.49838397  -0.00635854  0.49957950  1
  Sb  Sb99  1  0.33665715  0.50107010  0.83472400  1
  Sb  Sb100  1  0.83364603  0.83177312  0.33214123  1
  Sb  Sb101  1  0.49795787  0.83219048  0.00368327  1
  Sb  Sb102  1  0.16214233  0.33318536  0.82237376  1
  Sb  Sb103  1  0.17137498  0.16164426  0.34017081  1
  Sb  Sb104  1  0.67001801  0.33887214  0.00172837  1
  Sb  Sb105  1  0.32906014  0.67285229  0.33256270  1
  Sb  Sb106  1  0.83338762  -0.00379135  0.82739387  1
  Sb  Sb107  1  0.49986055  0.83387075  0.66299836  1
  Te  Te108  1  0.17207896  0.16286729  0.16555862  1
  Te  Te109  1  0.17149787  0.16320454  0.50284046  1
  Te  Te110  1  0.17124388  0.16535816  0.82834294  1
  Te  Te111  1  0.15969539  0.50255195  0.16515453  1
  Te  Te112  1  0.16299555  0.50007835  0.50247999  1
  Te  Te113  1  0.16671753  0.50091589  0.82791563  1
  Te  Te114  1  0.16979817  0.83399872  0.16858493  1
  Te  Te115  1  0.16310481  0.83351943  0.49843623  1
  Te  Te116  1  0.16717203  0.83425900  0.82507992  1
  Te  Te117  1  0.49825919  0.16475786  0.17278485  1
  Te  Te118  1  0.49176946  0.16816574  0.49467777  1
  Te  Te119  1  0.49482781  0.16599056  0.83315568  1
  Te  Te120  1  0.49987112  0.50160047  0.17516654  1
  Te  Te121  1  0.49935614  0.50871015  0.49516289  1
  Te  Te122  1  0.50567177  0.50564914  0.83329251  1
  Te  Te123  1  0.50675487  0.83321538  0.17361897  1
  Te  Te124  1  0.50474059  0.82909637  0.49761039  1
  Te  Te125  1  0.50036804  0.83056759  0.83218818  1
  Te  Te126  1  0.82973499  0.16541927  0.17300850  1
  Te  Te127  1  0.83088804  0.16542275  0.49555465  1
  Te  Te128  1  0.83310224  0.16918191  0.83472024  1
  Te  Te129  1  0.83923109  0.50090790  0.16924021  1
  Te  Te130  1  0.83694040  0.50157641  0.49701695  1
  Te  Te131  1  0.83001075  0.50278747  0.83325550  1
  Te  Te132  1  0.82403724  0.83364733  0.16153283  1
  Te  Te133  1  0.83122645  0.83209462  0.50027441  1
  Te  Te134  1  0.83089873  0.82885585  0.83704484  1
  Te  Te135  1  0.17077279  -0.00705490  -0.00505887  1
  Te  Te136  1  0.16713554  -0.00350965  0.33662341  1
  Te  Te137  1  0.16868070  -0.00178473  0.66378201  1
  Te  Te138  1  0.16565914  0.33517117  -0.00085629  1
  Te  Te139  1  0.16557347  0.33257869  0.34113437  1
  Te  Te140  1  0.16349495  0.33090262  0.65987724  1
  Te  Te141  1  0.16721312  0.67273835  -0.00260089  1
  Te  Te142  1  0.16423922  0.67024595  0.33503631  1
  Te  Te143  1  0.16565422  0.66928665  0.66262858  1
  Te  Te144  1  0.49210220  -0.00094233  -0.00955016  1
  Te  Te145  1  0.49953951  -0.00242942  0.33398812  1
  Te  Te146  1  0.51071449  0.00068855  0.67148813  1
  Te  Te147  1  0.49917560  0.33554566  -0.00046214  1
  Te  Te148  1  0.50242435  0.32859558  0.33461279  1
  Te  Te149  1  0.51016268  0.33427347  0.66476815  1
  Te  Te150  1  0.49831592  0.66679682  -0.00557428  1
  Te  Te151  1  0.49878428  0.66930460  0.33744447  1
  Te  Te152  1  0.50429374  0.66668570  0.66615800  1
  Te  Te153  1  0.83410721  -0.00441351  -0.00127482  1
  Te  Te154  1  0.83136228  0.00095396  0.33885599  1
  Te  Te155  1  0.82794631  0.00078328  0.66047744  1
  Te  Te156  1  0.83364018  0.33427470  -0.00507814  1
  Te  Te157  1  0.83298698  0.33558618  0.33693109  1
  Te  Te158  1  0.83450721  0.33293390  0.66248105  1
  Te  Te159  1  0.83281488  0.66877969  -0.00028083  1
  Te  Te160  1  0.83744930  0.66299227  0.33646099  1
  Te  Te161  1  0.83083131  0.66649607  0.66611074  1
  Te  Te162  1  -0.00052175  0.16772123  0.00173322  1
  Te  Te163  1  -0.00849739  0.17167202  0.33299847  1
  Te  Te164  1  0.00510382  0.16593477  0.66581290  1
  Te  Te165  1  -0.00796319  0.50120225  0.00207569  1
  Te  Te166  1  0.00063429  0.50081022  0.33683203  1
  Te  Te167  1  0.00453283  0.49685952  0.66218503  1
  Te  Te168  1  0.00040620  0.83387258  0.00649197  1
  Te  Te169  1  0.00192843  0.83164638  0.32827383  1
  Te  Te170  1  0.00341322  0.83814525  0.66711122  1
  Te  Te171  1  0.33390289  0.16215350  -0.00158835  1
  Te  Te172  1  0.33202070  0.16338358  0.33344453  1
  Te  Te173  1  0.33018587  0.16759346  0.66834531  1
  Te  Te174  1  0.33305606  0.50330451  0.00251924  1
  Te  Te175  1  0.33970373  0.49279012  0.33251015  1
  Te  Te176  1  0.32598561  0.49806830  0.66708130  1
  Te  Te177  1  0.33205026  0.83421160  0.00080015  1
  Te  Te178  1  0.33332398  0.83372194  0.33346484  1
  Te  Te179  1  0.32914672  0.83247920  0.65624500  1
  Te  Te180  1  0.66554181  0.16611627  0.01101275  1
  Te  Te181  1  0.66432766  0.16463445  0.33366355  1
  Te  Te182  1  0.66621019  0.17086956  0.66687955  1
  Te  Te183  1  0.67299748  0.50650849  -0.00216256  1
  Te  Te184  1  0.66804192  0.49855838  0.33329807  1
  Te  Te185  1  0.66633581  0.49957723  0.67037678  1
  Te  Te186  1  0.66515617  0.83032111  -0.00418321  1
  Te  Te187  1  0.66835945  0.83593151  0.33674986  1
  Te  Te188  1  0.66702336  0.83157375  0.66582959  1
  Te  Te189  1  0.00734041  -0.00495622  0.16708108  1
  Te  Te190  1  -0.00062403  0.00048686  0.50345525  1
  Te  Te191  1  0.00442752  -0.00028835  0.82586180  1
  Te  Te192  1  0.00126201  0.33517127  0.17126255  1
  Te  Te193  1  -0.00141094  0.33356060  0.50005587  1
  Te  Te194  1  -0.00695085  0.33383227  0.82788366  1
  Te  Te195  1  0.00358524  0.66893247  0.17070617  1
  Te  Te196  1  -0.00132542  0.66362278  0.49729939  1
  Te  Te197  1  0.00695023  0.66664551  0.83142912  1
  Te  Te198  1  0.33198543  -0.00222920  0.16899999  1
  Te  Te199  1  0.33291168  -0.00299312  0.49624856  1
  Te  Te200  1  0.33270401  -0.00003067  0.82810422  1
  Te  Te201  1  0.33222338  0.33005638  0.17276103  1
  Te  Te202  1  0.33189801  0.33391616  0.49524667  1
  Te  Te203  1  0.33457055  0.32962239  0.83440715  1
  Te  Te204  1  0.32773320  0.67188886  0.16221102  1
  Te  Te205  1  0.32841185  0.67128008  0.50070201  1
  Te  Te206  1  0.32501073  0.66672579  0.83698277  1
  Te  Te207  1  0.66691972  -0.00151115  0.17008256  1
  Te  Te208  1  0.66488452  -0.00265788  0.49825816  1
  Te  Te209  1  0.66588356  -0.00445145  0.83440337  1
  Te  Te210  1  0.66710520  0.33287094  0.17220338  1
  Te  Te211  1  0.66972120  0.33510319  0.49832414  1
  Te  Te212  1  0.67174632  0.33006584  0.83341891  1
  Te  Te213  1  0.66488294  0.67085424  0.16430515  1
  Te  Te214  1  0.66943801  0.66964759  0.49988830  1
  Te  Te215  1  0.66969920  0.67157781  0.83276692  1
