# generated using pymatgen
data_AgSbTe2
_symmetry_space_group_name_H-M   'P 1'
_cell_length_a   18.32434444
_cell_length_b   18.31709738
_cell_length_c   18.32039947
_cell_angle_alpha   90.00261364
_cell_angle_beta   89.99791818
_cell_angle_gamma   90.00340720
_symmetry_Int_Tables_number   1
_chemical_formula_structural   AgSbTe2
_chemical_formula_sum   'Ag54 Sb54 Te108'
_cell_volume   6149.22010366
_cell_formula_units_Z   54
loop_
 _symmetry_equiv_pos_site_id
 _symmetry_equiv_pos_as_xyz
  1  'x, y, z'
loop_
 _atom_site_type_symbol
 _atom_site_label
 _atom_site_symmetry_multiplicity
 _atom_site_fract_x
 _atom_site_fract_y
 _atom_site_fract_z
 _atom_site_occupancy
  Ag  Ag0  1  0.66749691  0.83156001  0.50192646  1
  Ag  Ag1  1  0.17407482  0.32648102  0.16892587  1
  Ag  Ag2  1  0.32308716  0.33437915  0.32130770  1
  Ag  Ag3  1  0.33670023  0.33268920  0.00811765  1
  Ag  Ag4  1  0.00162687  0.48794692  0.83610498  1
  Ag  Ag5  1  0.16849083  0.65952035  0.84361268  1
  Ag  Ag6  1  0.16393421  0.66287353  0.16205065  1
  Ag  Ag7  1  0.50024773  0.49376409  0.00277928  1
  Ag  Ag8  1  0.33248024  0.00543804  0.66577521  1
  Ag  Ag9  1  0.83532474  0.33435341  0.50041540  1
  Ag  Ag10  1  0.67175168  0.32639016  0.67374778  1
  Ag  Ag11  1  -0.00103025  0.84073662  0.16583553  1
  Ag  Ag12  1  0.49844440  0.66759268  0.83871959  1
  Ag  Ag13  1  0.00094062  0.00370326  0.32266959  1
  Ag  Ag14  1  0.83515724  0.49480612  0.32607178  1
  Ag  Ag15  1  0.16254711  0.17323310  0.31808629  1
  Ag  Ag16  1  0.66708075  0.66012699  0.32729860  1
  Ag  Ag17  1  0.33317742  0.48958355  0.16648827  1
  Ag  Ag18  1  0.83135362  0.49803357  0.00680432  1
  Ag  Ag19  1  0.66653634  0.00514422  0.66925969  1
  Ag  Ag20  1  -0.00136996  0.32585380  0.67252113  1
  Ag  Ag21  1  0.32796863  0.16945554  0.84164646  1
  Ag  Ag22  1  0.83134582  0.83483895  0.66587474  1
  Ag  Ag23  1  0.16668585  0.16890986  0.67306388  1
  Ag  Ag24  1  0.66477221  0.17005986  0.83243684  1
  Ag  Ag25  1  0.83493588  0.66405208  0.16601441  1
  Ag  Ag26  1  0.00768329  0.17030153  0.83708245  1
  Ag  Ag27  1  0.66008814  0.33349787  0.00394333  1
  Ag  Ag28  1  0.66938411  0.33613091  0.32824303  1
  Ag  Ag29  1  0.16197257  0.32998630  0.83658528  1
  Ag  Ag30  1  0.49492091  0.00931352  0.16363372  1
  Ag  Ag31  1  0.66844016  0.82801684  0.16484396  1
  Ag  Ag32  1  0.16560100  0.33245426  0.48950121  1
  Ag  Ag33  1  0.33062525  0.65923387  0.00121081  1
  Ag  Ag34  1  0.33569655  0.82810582  0.50133306  1
  Ag  Ag35  1  0.16541155  0.01336943  0.16629470  1
  Ag  Ag36  1  0.00834252  0.66821488  0.00251942  1
  Ag  Ag37  1  0.33362249  0.49905638  0.49149123  1
  Ag  Ag38  1  0.00264922  0.00214188  0.00817464  1
  Ag  Ag39  1  0.50130740  0.83023034  0.00137609  1
  Ag  Ag40  1  0.49599619  0.16670941  0.67712378  1
  Ag  Ag41  1  0.17028219  0.17077970  0.00396818  1
  Ag  Ag42  1  0.49845365  0.66774261  0.50376808  1
  Ag  Ag43  1  0.84059720  0.17568563  0.33004173  1
  Ag  Ag44  1  0.48765924  0.33029543  0.16275325  1
  Ag  Ag45  1  0.66447026  0.49810447  0.16637862  1
  Ag  Ag46  1  0.00073733  0.00695924  0.66828962  1
  Ag  Ag47  1  0.84047943  0.33291394  0.83125976  1
  Ag  Ag48  1  0.00978358  0.16263908  0.16053736  1
  Ag  Ag49  1  0.32177980  0.17796638  0.15963223  1
  Ag  Ag50  1  0.66614062  0.83603820  0.83407164  1
  Ag  Ag51  1  0.49205943  0.17237126  -0.00137896  1
  Ag  Ag52  1  -0.00120206  0.83425343  0.49787484  1
  Ag  Ag53  1  0.16506357  0.49105849  0.32825064  1
  Sb  Sb54  1  0.49961036  0.66314502  0.16206588  1
  Sb  Sb55  1  0.50000405  0.49860987  0.32498929  1
  Sb  Sb56  1  0.67137553  0.00223939  0.33408006  1
  Sb  Sb57  1  0.16462232  0.00582177  0.49692028  1
  Sb  Sb58  1  0.00361433  0.33254388  -0.00377628  1
  Sb  Sb59  1  0.83338087  0.83234028  0.33485373  1
  Sb  Sb60  1  0.83726595  -0.00274756  0.16701044  1
  Sb  Sb61  1  0.33650945  0.65981128  0.32826695  1
  Sb  Sb62  1  0.33141691  0.16994708  0.49910888  1
  Sb  Sb63  1  0.49797314  0.16928799  0.32786059  1
  Sb  Sb64  1  0.16537247  0.00688030  0.83796010  1
  Sb  Sb65  1  0.66238193  0.50192163  0.49199233  1
  Sb  Sb66  1  0.33245844  0.32714001  0.66842318  1
  Sb  Sb67  1  0.50502589  0.83888947  0.67010321  1
  Sb  Sb68  1  0.33140986  0.00582514  -0.00084275  1
  Sb  Sb69  1  0.49908818  0.33677549  0.49649369  1
  Sb  Sb70  1  0.50015355  0.00166572  0.83745826  1
  Sb  Sb71  1  0.16931093  0.83383739  0.00127256  1
  Sb  Sb72  1  0.50012599  0.49413805  0.67238586  1
  Sb  Sb73  1  0.32818021  0.00641525  0.33397888  1
  Sb  Sb74  1  0.33303761  0.83347160  0.16784919  1
  Sb  Sb75  1  0.33630106  0.83590638  0.83249503  1
  Sb  Sb76  1  0.49925111  0.33224049  0.84149523  1
  Sb  Sb77  1  0.16702283  0.49116229  0.66562754  1
  Sb  Sb78  1  0.33323311  0.67069334  0.67102982  1
  Sb  Sb79  1  -0.00228161  0.66969764  0.32544122  1
  Sb  Sb80  1  0.83298600  0.66210556  0.83920557  1
  Sb  Sb81  1  0.83334706  0.00663794  0.83179466  1
  Sb  Sb82  1  0.16773928  0.49533604  0.00574355  1
  Sb  Sb83  1  0.00132077  0.66781651  0.67246212  1
  Sb  Sb84  1  0.00169819  0.49793798  0.16206250  1
  Sb  Sb85  1  0.66936236  0.49559949  0.84143901  1
  Sb  Sb86  1  0.00275957  0.49969166  0.50208395  1
  Sb  Sb87  1  0.66829348  0.00375082  -0.00203736  1
  Sb  Sb88  1  0.66591953  0.17014835  0.16235545  1
  Sb  Sb89  1  0.49951438  -0.00330069  0.49837347  1
  Sb  Sb90  1  0.83094720  0.66331355  0.49378134  1
  Sb  Sb91  1  0.32950599  0.49515939  0.83866264  1
  Sb  Sb92  1  0.00054307  0.16588149  0.50035142  1
  Sb  Sb93  1  0.66748198  0.16643382  0.50446001  1
  Sb  Sb94  1  0.66401750  0.66245796  0.00462977  1
  Sb  Sb95  1  0.16326004  0.84092738  0.66710421  1
  Sb  Sb96  1  0.83622498  0.17346329  0.00248968  1
  Sb  Sb97  1  0.50112845  0.83180652  0.32918045  1
  Sb  Sb98  1  0.83595841  0.33734918  0.16587270  1
  Sb  Sb99  1  0.17047476  0.66213923  0.49772597  1
  Sb  Sb100  1  0.83517357  0.00324832  0.50082907  1
  Sb  Sb101  1  0.00129493  0.32925550  0.33416333  1
  Sb  Sb102  1  0.83063779  0.82832124  -0.00104819  1
  Sb  Sb103  1  0.16547720  0.83412130  0.33180762  1
  Sb  Sb104  1  0.66598705  0.66706217  0.66441744  1
  Sb  Sb105  1  0.83276702  0.49846395  0.66749743  1
  Sb  Sb106  1  -0.00404660  0.83662533  0.83641715  1
  Sb  Sb107  1  0.83536919  0.16743093  0.66639253  1
  Te  Te108  1  0.16600179  0.16891263  0.16226039  1
  Te  Te109  1  0.16697991  0.17343367  0.50718530  1
  Te  Te110  1  0.16698381  0.16773219  0.83421773  1
  Te  Te111  1  0.16825411  0.50215482  0.16955450  1
  Te  Te112  1  0.17047020  0.49484705  0.49480709  1
  Te  Te113  1  0.16337397  0.49891378  0.83261556  1
  Te  Te114  1  0.16264979  0.82523346  0.16718008  1
  Te  Te115  1  0.16477233  0.83233958  0.50006530  1
  Te  Te116  1  0.16673213  0.82524838  0.83271952  1
  Te  Te117  1  0.50076531  0.16846914  0.16191380  1
  Te  Te118  1  0.49933121  0.16574238  0.50558445  1
  Te  Te119  1  0.50100198  0.16679627  0.83640157  1
  Te  Te120  1  0.49926296  0.49626073  0.16131633  1
  Te  Te121  1  0.49462418  0.50491548  0.50284854  1
  Te  Te122  1  0.49857181  0.50573600  0.83993262  1
  Te  Te123  1  0.50163055  0.83365196  0.16229403  1
  Te  Te124  1  0.50164238  0.83005750  0.50067229  1
  Te  Te125  1  0.50417415  0.83115449  0.83745666  1
  Te  Te126  1  0.83555527  0.16583911  0.17114060  1
  Te  Te127  1  0.83375172  0.17493229  0.49233711  1
  Te  Te128  1  0.83053291  0.17329427  0.83327016  1
  Te  Te129  1  0.83430919  0.50266018  0.16692175  1
  Te  Te130  1  0.83272126  0.49498188  0.49555371  1
  Te  Te131  1  0.83722486  0.49503406  0.83529315  1
  Te  Te132  1  0.83267507  0.82796781  0.16683225  1
  Te  Te133  1  0.83270182  0.83176323  0.50199909  1
  Te  Te134  1  0.82695130  0.83172901  0.83038639  1
  Te  Te135  1  0.16369090  0.00262549  0.00500697  1
  Te  Te136  1  0.16158720  0.00470424  0.32856794  1
  Te  Te137  1  0.16548578  0.00633239  0.66621037  1
  Te  Te138  1  0.16994350  0.33125775  -0.00022118  1
  Te  Te139  1  0.16481749  0.33291526  0.33221797  1
  Te  Te140  1  0.16486143  0.32887285  0.67284814  1
  Te  Te141  1  0.16792087  0.66721048  0.00026681  1
  Te  Te142  1  0.16691403  0.66158855  0.32873419  1
  Te  Te143  1  0.16712579  0.66649658  0.67069532  1
  Te  Te144  1  0.50041763  0.00222051  0.00444670  1
  Te  Te145  1  0.50028711  0.00067188  0.32502342  1
  Te  Te146  1  0.50277635  0.00633443  0.66625287  1
  Te  Te147  1  0.49883950  0.33251246  0.00184135  1
  Te  Te148  1  0.50537645  0.33289905  0.32824748  1
  Te  Te149  1  0.50515591  0.32658516  0.66568452  1
  Te  Te150  1  0.49803691  0.66698338  -0.00148209  1
  Te  Te151  1  0.50520848  0.66552158  0.33922236  1
  Te  Te152  1  0.49935643  0.66644877  0.66776017  1
  Te  Te153  1  0.84180740  0.00024064  -0.00110554  1
  Te  Te154  1  0.83985459  0.00676525  0.33451391  1
  Te  Te155  1  0.83175054  -0.00291499  0.66597322  1
  Te  Te156  1  0.82822991  0.33873993  -0.00287650  1
  Te  Te157  1  0.83447913  0.33488121  0.33296964  1
  Te  Te158  1  0.83241342  0.33376457  0.66725411  1
  Te  Te159  1  0.83508085  0.66052195  0.00459445  1
  Te  Te160  1  0.82861050  0.66180912  0.32787508  1
  Te  Te161  1  0.83349528  0.67140980  0.66620342  1
  Te  Te162  1  0.00113153  0.16583827  -0.00136591  1
  Te  Te163  1  0.00286439  0.16378511  0.33465130  1
  Te  Te164  1  0.00008639  0.16742530  0.66714227  1
  Te  Te165  1  -0.00249711  0.50284017  -0.00383354  1
  Te  Te166  1  -0.00129369  0.50113828  0.33443028  1
  Te  Te167  1  -0.00064406  0.49641285  0.67324302  1
  Te  Te168  1  -0.00074128  0.83377523  0.00449892  1
  Te  Te169  1  -0.00089254  0.83888615  0.33128184  1
  Te  Te170  1  -0.00418697  0.83555073  0.66628718  1
  Te  Te171  1  0.33264954  0.16662273  0.00066532  1
  Te  Te172  1  0.32933932  0.17285621  0.32927581  1
  Te  Te173  1  0.33322501  0.16356977  0.66629373  1
  Te  Te174  1  0.33495374  0.49827343  0.00300498  1
  Te  Te175  1  0.33267144  0.49542801  0.32912476  1
  Te  Te176  1  0.33446685  0.50095105  0.66153829  1
  Te  Te177  1  0.34012990  0.83095033  -0.00070692  1
  Te  Te178  1  0.33336900  0.83321857  0.34094623  1
  Te  Te179  1  0.33363626  0.83980536  0.66273078  1
  Te  Te180  1  0.66647188  0.17066941  -0.00514748  1
  Te  Te181  1  0.66760024  0.17138236  0.33459402  1
  Te  Te182  1  0.66907216  0.16614324  0.66997461  1
  Te  Te183  1  0.66620492  0.49591092  0.00538637  1
  Te  Te184  1  0.66787700  0.49876761  0.32752784  1
  Te  Te185  1  0.66653459  0.49252181  0.66600153  1
  Te  Te186  1  0.66387081  0.83515866  0.00091938  1
  Te  Te187  1  0.66827384  0.83328427  0.33142341  1
  Te  Te188  1  0.66920639  0.83374122  0.66720541  1
  Te  Te189  1  0.00123638  0.00014030  0.16560907  1
  Te  Te190  1  -0.00032079  -0.00640050  0.50823985  1
  Te  Te191  1  -0.00044695  0.00544570  0.82838027  1
  Te  Te192  1  0.00696649  0.32662918  0.16551610  1
  Te  Te193  1  0.00130546  0.33505178  0.50713429  1
  Te  Te194  1  0.00060224  0.33065470  0.83377721  1
  Te  Te195  1  0.00022972  0.66619970  0.16259126  1
  Te  Te196  1  0.00049721  0.67284337  0.50033155  1
  Te  Te197  1  0.00256132  0.66799914  0.84018456  1
  Te  Te198  1  0.33112485  0.00121772  0.16750797  1
  Te  Te199  1  0.33275211  -0.00486133  0.50317053  1
  Te  Te200  1  0.33260570  0.00586160  0.82729093  1
  Te  Te201  1  0.33235568  0.33333226  0.16556562  1
  Te  Te202  1  0.33069785  0.33778816  0.49985275  1
  Te  Te203  1  0.32923689  0.32862878  0.83594118  1
  Te  Te204  1  0.33032198  0.66656080  0.16174629  1
  Te  Te205  1  0.33605272  0.66637241  0.49910416  1
  Te  Te206  1  0.33323740  0.66627674  0.83836090  1
  Te  Te207  1  0.66474302  -0.00417036  0.16680818  1
  Te  Te208  1  0.66696088  -0.00688608  0.50387357  1
  Te  Te209  1  0.66695545  -0.00007763  0.82953621  1
  Te  Te210  1  0.67016832  0.33584707  0.16627790  1
  Te  Te211  1  0.66847107  0.33426269  0.49509425  1
  Te  Te212  1  0.66519315  0.33154980  0.83369484  1
  Te  Te213  1  0.66636481  0.66708230  0.16884453  1
  Te  Te214  1  0.66322021  0.67043567  0.49652640  1
  Te  Te215  1  0.66356364  0.66816877  0.83334199  1
