# generated using pymatgen
data_AgSbTe2
_symmetry_space_group_name_H-M   'P 1'
_cell_length_a   18.32093553
_cell_length_b   18.32205019
_cell_length_c   18.31811343
_cell_angle_alpha   89.99969676
_cell_angle_beta   90.00165011
_cell_angle_gamma   89.99958801
_symmetry_Int_Tables_number   1
_chemical_formula_structural   AgSbTe2
_chemical_formula_sum   'Ag54 Sb54 Te108'
_cell_volume   6148.97119861
_cell_formula_units_Z   54
loop_
 _symmetry_equiv_pos_site_id
 _symmetry_equiv_pos_as_xyz
  1  'x, y, z'
loop_
 _atom_site_type_symbol
 _atom_site_label
 _atom_site_symmetry_multiplicity
 _atom_site_fract_x
 _atom_site_fract_y
 _atom_site_fract_z
 _atom_site_occupancy
  Ag  Ag0  1  0.49710727  0.17214992  0.66356332  1
  Ag  Ag1  1  -0.00246515  0.16358762  0.50166182  1
  Ag  Ag2  1  0.65528096  0.00105204  0.33491480  1
  Ag  Ag3  1  0.17637601  0.50359407  0.34036596  1
  Ag  Ag4  1  0.33429218  0.50333725  0.83198494  1
  Ag  Ag5  1  0.83358964  0.49801295  0.66239063  1
  Ag  Ag6  1  0.16987596  0.67081598  0.50422003  1
  Ag  Ag7  1  0.33755908  0.49315479  0.17410440  1
  Ag  Ag8  1  0.17418409  -0.00774852  0.83485114  1
  Ag  Ag9  1  0.49950189  0.33733274  0.49788830  1
  Ag  Ag10  1  0.65477354  0.17043290  0.16922243  1
  Ag  Ag11  1  0.16979457  0.83464644  0.33987034  1
  Ag  Ag12  1  0.83235404  0.66573290  0.50362097  1
  Ag  Ag13  1  0.16691227  0.83533906  -0.00132547  1
  Ag  Ag14  1  0.33494239  0.66173387  0.00044432  1
  Ag  Ag15  1  0.17237957  -0.00171225  0.16917418  1
  Ag  Ag16  1  0.33243008  0.33470444  0.66072235  1
  Ag  Ag17  1  0.17364949  0.67196934  0.82367242  1
  Ag  Ag18  1  0.83893568  0.17434646  0.65788948  1
  Ag  Ag19  1  0.33258120  0.33758385  0.01007955  1
  Ag  Ag20  1  0.83021257  0.00717942  0.49939574  1
  Ag  Ag21  1  0.33701506  0.17259248  0.16947508  1
  Ag  Ag22  1  0.83052139  0.32683245  0.49988115  1
  Ag  Ag23  1  0.17055459  0.50429400  0.66153876  1
  Ag  Ag24  1  0.65548784  0.49387787  0.17501686  1
  Ag  Ag25  1  0.00775606  0.83478555  0.49914210  1
  Ag  Ag26  1  0.33455545  0.00208634  0.33170652  1
  Ag  Ag27  1  0.66163275  0.50549133  0.49735513  1
  Ag  Ag28  1  0.50311010  0.00041999  0.49699234  1
  Ag  Ag29  1  0.00537240  0.32883472  -0.00002335  1
  Ag  Ag30  1  0.49793864  0.65985244  0.50442161  1
  Ag  Ag31  1  0.16855133  0.16340429  0.33835282  1
  Ag  Ag32  1  0.83724549  0.16773845  0.34037882  1
  Ag  Ag33  1  0.00533276  0.83516045  0.17022856  1
  Ag  Ag34  1  0.49466221  0.32821571  0.17243507  1
  Ag  Ag35  1  0.49311171  0.00888542  0.17455377  1
  Ag  Ag36  1  0.16701566  0.16909266  0.65992682  1
  Ag  Ag37  1  0.33161982  0.65825629  0.33417307  1
  Ag  Ag38  1  0.49495363  -0.00285685  0.83015321  1
  Ag  Ag39  1  0.49430362  0.49619419  0.65855404  1
  Ag  Ag40  1  0.65652426  0.66729550  -0.00290114  1
  Ag  Ag41  1  0.83345942  0.66655058  0.82289472  1
  Ag  Ag42  1  0.00427205  0.00250714  0.00168730  1
  Ag  Ag43  1  0.16698053  0.82336674  0.66065407  1
  Ag  Ag44  1  0.49734342  0.16622369  0.01274038  1
  Ag  Ag45  1  0.66514747  0.82917240  0.50198331  1
  Ag  Ag46  1  0.33419750  0.33958122  0.33211768  1
  Ag  Ag47  1  0.49551107  0.49799857  0.33933932  1
  Ag  Ag48  1  0.00502411  0.33508901  0.66348270  1
  Ag  Ag49  1  0.32659592  0.83155264  0.49741832  1
  Ag  Ag50  1  0.00512916  0.66114153  0.66407211  1
  Ag  Ag51  1  0.82835369  0.33265541  0.17553952  1
  Ag  Ag52  1  0.66334724  0.82990269  0.82518363  1
  Ag  Ag53  1  0.49556751  0.66789867  0.82774629  1
  Sb  Sb54  1  0.16954997  0.33501344  0.83013452  1
  Sb  Sb55  1  0.83275443  -0.00468006  0.82630678  1
  Sb  Sb56  1  0.33294279  0.00550444  0.66204771  1
  Sb  Sb57  1  0.66269454  0.15999757  0.83626571  1
  Sb  Sb58  1  0.33114684  -0.00049679  0.00487095  1
  Sb  Sb59  1  0.00313676  0.00165838  0.66597557  1
  Sb  Sb60  1  0.49773678  0.33500259  0.83078998  1
  Sb  Sb61  1  0.83373229  0.00628308  0.17408494  1
  Sb  Sb62  1  0.83037181  0.16856722  0.00131294  1
  Sb  Sb63  1  0.66923586  0.66647218  0.66720529  1
  Sb  Sb64  1  0.49470286  0.83513804  -0.00115196  1
  Sb  Sb65  1  0.17066259  0.50355425  -0.00133788  1
  Sb  Sb66  1  0.00368996  0.50113198  0.16744760  1
  Sb  Sb67  1  0.49236402  0.83336336  0.33786511  1
  Sb  Sb68  1  0.17038017  0.16251237  0.00093476  1
  Sb  Sb69  1  0.17164222  0.32949936  0.16819330  1
  Sb  Sb70  1  0.49771106  0.66490195  0.16860756  1
  Sb  Sb71  1  0.82837616  0.49422235  0.34030354  1
  Sb  Sb72  1  0.83805531  0.83230881  -0.00091314  1
  Sb  Sb73  1  0.83161934  0.66097104  0.17110363  1
  Sb  Sb74  1  0.17026856  0.33757948  0.50156773  1
  Sb  Sb75  1  0.83896547  0.82932038  0.66222137  1
  Sb  Sb76  1  0.00661612  0.50163287  0.82927569  1
  Sb  Sb77  1  0.00549393  0.66787576  -0.00545586  1
  Sb  Sb78  1  0.00778506  0.66808424  0.34279309  1
  Sb  Sb79  1  0.66078506  0.66900926  0.33581527  1
  Sb  Sb80  1  0.66442248  0.33416147  0.66262909  1
  Sb  Sb81  1  0.66641756  -0.00436920  0.00447067  1
  Sb  Sb82  1  0.49569135  0.16818201  0.33421828  1
  Sb  Sb83  1  0.66849855  0.16513397  0.49379090  1
  Sb  Sb84  1  0.49395971  0.83070978  0.66315290  1
  Sb  Sb85  1  0.83194287  0.50006280  -0.00440315  1
  Sb  Sb86  1  0.66006002  0.32841328  0.33416287  1
  Sb  Sb87  1  0.83773717  0.83724883  0.33798490  1
  Sb  Sb88  1  0.33915874  0.50480055  0.49776669  1
  Sb  Sb89  1  0.00478880  0.33287350  0.33720574  1
  Sb  Sb90  1  0.66057568  0.50777223  0.83051594  1
  Sb  Sb91  1  0.33183983  0.16419656  0.49539884  1
  Sb  Sb92  1  0.16836416  -0.00456421  0.49835421  1
  Sb  Sb93  1  0.32870487  0.83439122  0.17174259  1
  Sb  Sb94  1  0.16849394  0.67118261  0.16998089  1
  Sb  Sb95  1  0.66467288  0.00018156  0.65953894  1
  Sb  Sb96  1  0.83524871  0.33873965  0.82616971  1
  Sb  Sb97  1  0.49761784  0.49768820  0.00171418  1
  Sb  Sb98  1  0.33419573  0.16896590  0.83550088  1
  Sb  Sb99  1  0.33325529  0.82837611  0.82800598  1
  Sb  Sb100  1  0.66865156  0.83418387  0.17045580  1
  Sb  Sb101  1  -0.00286431  0.50007044  0.50300180  1
  Sb  Sb102  1  0.00205346  0.83277040  0.82955353  1
  Sb  Sb103  1  0.66211261  0.33740662  0.00620431  1
  Sb  Sb104  1  0.32950545  0.65916210  0.66369760  1
  Sb  Sb105  1  0.00156630  0.16599123  0.82700193  1
  Sb  Sb106  1  0.00561940  0.00042818  0.33234104  1
  Sb  Sb107  1  0.00268252  0.16463799  0.17144921  1
  Te  Te108  1  0.17023617  0.16076140  0.16932357  1
  Te  Te109  1  0.16412556  0.16591163  0.49995188  1
  Te  Te110  1  0.16711311  0.16065699  0.82869471  1
  Te  Te111  1  0.17251000  0.50080904  0.17077898  1
  Te  Te112  1  0.16398443  0.50437332  0.50078968  1
  Te  Te113  1  0.17303394  0.50533802  0.82900614  1
  Te  Te114  1  0.16431026  0.83753991  0.16713990  1
  Te  Te115  1  0.16630152  0.83377667  0.50067943  1
  Te  Te116  1  0.16712564  0.83260124  0.83115799  1
  Te  Te117  1  0.49833812  0.16710416  0.17034037  1
  Te  Te118  1  0.50066579  0.16756820  0.50322987  1
  Te  Te119  1  0.50006169  0.16251831  0.82552681  1
  Te  Te120  1  0.49822392  0.49855095  0.16830184  1
  Te  Te121  1  0.50130896  0.49949264  0.49995837  1
  Te  Te122  1  0.49538696  0.50423740  0.82931414  1
  Te  Te123  1  0.50156258  0.84240009  0.16720502  1
  Te  Te124  1  0.50437069  0.83467825  0.50059958  1
  Te  Te125  1  0.50214779  0.83226472  0.83126298  1
  Te  Te126  1  0.83460753  0.17356336  0.16905642  1
  Te  Te127  1  0.83093475  0.16773258  0.50050838  1
  Te  Te128  1  0.83151235  0.16626899  0.82630213  1
  Te  Te129  1  0.83231668  0.49281519  0.16818313  1
  Te  Te130  1  0.82981509  0.50168089  0.50289104  1
  Te  Te131  1  0.83118219  0.50674896  0.82579013  1
  Te  Te132  1  0.84093787  0.83284809  0.16845997  1
  Te  Te133  1  0.83069991  0.82998579  0.50043995  1
  Te  Te134  1  0.82746722  0.82678791  0.83103452  1
  Te  Te135  1  0.16512596  -0.00274545  -0.00080824  1
  Te  Te136  1  0.17079583  0.00059238  0.33224704  1
  Te  Te137  1  0.16716519  0.00634615  0.67043722  1
  Te  Te138  1  0.16887158  0.33251597  -0.00125894  1
  Te  Te139  1  0.17305048  0.32989451  0.33495827  1
  Te  Te140  1  0.16620412  0.33151076  0.66599992  1
  Te  Te141  1  0.16983061  0.67107540  -0.00340418  1
  Te  Te142  1  0.17189047  0.66772083  0.33688276  1
  Te  Te143  1  0.16647253  0.66459439  0.66508835  1
  Te  Te144  1  0.50053154  0.00390503  -0.00252810  1
  Te  Te145  1  0.49683620  -0.00041386  0.33506852  1
  Te  Te146  1  0.49922768  0.00203267  0.66682686  1
  Te  Te147  1  0.49488593  0.32860996  0.00177901  1
  Te  Te148  1  0.49540294  0.33508751  0.33452575  1
  Te  Te149  1  0.49818888  0.33453879  0.66428788  1
  Te  Te150  1  0.49606779  0.66723391  -0.00164273  1
  Te  Te151  1  0.49352520  0.66363116  0.33696355  1
  Te  Te152  1  0.49880857  0.66352106  0.66495706  1
  Te  Te153  1  0.83940629  0.00065748  -0.00175583  1
  Te  Te154  1  0.83350742  0.00489622  0.33919185  1
  Te  Te155  1  0.83382840  0.00587972  0.66037158  1
  Te  Te156  1  0.83589666  0.33342583  -0.00074505  1
  Te  Te157  1  0.83548795  0.32953128  0.33646507  1
  Te  Te158  1  0.83398515  0.33475579  0.66180897  1
  Te  Te159  1  0.83511121  0.66562156  -0.00238253  1
  Te  Te160  1  0.83369273  0.66401437  0.34104051  1
  Te  Te161  1  0.83673276  0.66378966  0.66399853  1
  Te  Te162  1  0.00004071  0.16805944  -0.00015520  1
  Te  Te163  1  0.00214673  0.16690859  0.33964001  1
  Te  Te164  1  0.00096796  0.16955711  0.66182476  1
  Te  Te165  1  0.00095580  0.49173754  -0.00058894  1
  Te  Te166  1  0.01174913  0.49999262  0.33337474  1
  Te  Te167  1  0.00210269  0.49667682  0.66681659  1
  Te  Te168  1  0.00515739  0.83577775  0.00090720  1
  Te  Te169  1  0.00709404  0.83389305  0.33563925  1
  Te  Te170  1  0.00590390  0.83155475  0.66113094  1
  Te  Te171  1  0.33782179  0.16992735  0.00368210  1
  Te  Te172  1  0.32931639  0.16448412  0.33033779  1
  Te  Te173  1  0.33298707  0.17315819  0.66719341  1
  Te  Te174  1  0.33369220  0.49964679  -0.00035248  1
  Te  Te175  1  0.33411173  0.49928919  0.33368350  1
  Te  Te176  1  0.33290902  0.49469579  0.66611193  1
  Te  Te177  1  0.32717606  0.82781535  0.00010639  1
  Te  Te178  1  0.32831635  0.83517424  0.33698846  1
  Te  Te179  1  0.32644348  0.83666797  0.65941014  1
  Te  Te180  1  0.66082713  0.16592973  0.00669385  1
  Te  Te181  1  0.67237637  0.16254914  0.32825062  1
  Te  Te182  1  0.66223471  0.16665265  0.66774260  1
  Te  Te183  1  0.66549411  0.50667409  0.00341071  1
  Te  Te184  1  0.66112584  0.50133486  0.33351043  1
  Te  Te185  1  0.66570398  0.50016919  0.66207955  1
  Te  Te186  1  0.66739793  0.82693011  0.00100550  1
  Te  Te187  1  0.66836178  0.83816168  0.33837621  1
  Te  Te188  1  0.66700343  0.83360411  0.66433931  1
  Te  Te189  1  0.00159098  -0.00276852  0.16327467  1
  Te  Te190  1  -0.00384451  -0.00047226  0.49936359  1
  Te  Te191  1  0.00213516  -0.00105637  0.83928258  1
  Te  Te192  1  -0.00207420  0.33345481  0.16404754  1
  Te  Te193  1  -0.00272222  0.32924667  0.50397555  1
  Te  Te194  1  0.00117220  0.33369154  0.83352296  1
  Te  Te195  1  -0.00127744  0.67236684  0.16524408  1
  Te  Te196  1  0.00087547  0.66889362  0.50514910  1
  Te  Te197  1  -0.00052934  0.66679757  0.82649399  1
  Te  Te198  1  0.33319165  0.00101088  0.16934182  1
  Te  Te199  1  0.33871202  -0.00393958  0.49527916  1
  Te  Te200  1  0.33433826  -0.00091354  0.83460864  1
  Te  Te201  1  0.33430705  0.33288285  0.16833105  1
  Te  Te202  1  0.33754195  0.33031344  0.49984678  1
  Te  Te203  1  0.33400477  0.33944006  0.83205870  1
  Te  Te204  1  0.33349292  0.66271520  0.16668640  1
  Te  Te205  1  0.33407097  0.67061383  0.49788445  1
  Te  Te206  1  0.33402440  0.66475259  0.83375665  1
  Te  Te207  1  0.66509008  0.00304590  0.17217027  1
  Te  Te208  1  0.66454817  -0.00091758  0.49502897  1
  Te  Te209  1  0.66275305  -0.00799217  0.83497044  1
  Te  Te210  1  0.66475638  0.33410703  0.16833510  1
  Te  Te211  1  0.66546978  0.33866640  0.49872990  1
  Te  Te212  1  0.66720225  0.33301704  0.83684605  1
  Te  Te213  1  0.66634079  0.66303646  0.16261775  1
  Te  Te214  1  0.66315868  0.66687322  0.49932911  1
  Te  Te215  1  0.66158793  0.67031005  0.83556263  1
