# generated using pymatgen
data_AgSbTe2
_symmetry_space_group_name_H-M   'P 1'
_cell_length_a   18.32134272
_cell_length_b   18.31965854
_cell_length_c   18.32141967
_cell_angle_alpha   89.99958465
_cell_angle_beta   90.00056167
_cell_angle_gamma   89.99954720
_symmetry_Int_Tables_number   1
_chemical_formula_structural   AgSbTe2
_chemical_formula_sum   'Ag54 Sb54 Te108'
_cell_volume   6149.41489982
_cell_formula_units_Z   54
loop_
 _symmetry_equiv_pos_site_id
 _symmetry_equiv_pos_as_xyz
  1  'x, y, z'
loop_
 _atom_site_type_symbol
 _atom_site_label
 _atom_site_symmetry_multiplicity
 _atom_site_fract_x
 _atom_site_fract_y
 _atom_site_fract_z
 _atom_site_occupancy
  Ag  Ag0  1  0.82624276  0.82631875  0.00016835  1
  Ag  Ag1  1  0.66518950  -0.00527883  0.00632393  1
  Ag  Ag2  1  0.00230048  0.66356831  0.33509227  1
  Ag  Ag3  1  0.66488452  0.33872774  0.32916873  1
  Ag  Ag4  1  0.17376914  0.16275518  0.33172062  1
  Ag  Ag5  1  0.50489858  0.00521122  0.17787117  1
  Ag  Ag6  1  -0.00907739  0.34119941  0.00314084  1
  Ag  Ag7  1  -0.00542763  0.50225737  0.83253376  1
  Ag  Ag8  1  0.67100026  0.66458781  0.66841908  1
  Ag  Ag9  1  0.34032583  0.49718502  0.17787555  1
  Ag  Ag10  1  -0.00327153  -0.00500601  0.33173570  1
  Ag  Ag11  1  0.83367375  0.50294650  0.00239062  1
  Ag  Ag12  1  0.83327263  0.50265295  0.66464065  1
  Ag  Ag13  1  0.34344358  0.00036179  0.33628104  1
  Ag  Ag14  1  0.66890664  0.49635761  0.17597485  1
  Ag  Ag15  1  0.33739640  0.00598099  0.65316670  1
  Ag  Ag16  1  0.16362572  0.83519961  0.33553223  1
  Ag  Ag17  1  0.49964216  0.00155991  0.49512546  1
  Ag  Ag18  1  0.34156244  0.83905244  0.49764128  1
  Ag  Ag19  1  0.34045114  0.16004346  0.49969675  1
  Ag  Ag20  1  0.50078088  0.33357944  0.16934778  1
  Ag  Ag21  1  0.66587513  0.83459414  0.83905312  1
  Ag  Ag22  1  -0.00361423  0.50389713  0.50078025  1
  Ag  Ag23  1  0.33798058  0.50130546  0.49658297  1
  Ag  Ag24  1  0.66021025  0.16383170  0.49828209  1
  Ag  Ag25  1  0.66294968  0.00271975  0.33077293  1
  Ag  Ag26  1  0.51017369  0.83552623  -0.00229978  1
  Ag  Ag27  1  0.16569483  0.16846600  0.00937449  1
  Ag  Ag28  1  -0.00550847  0.49595551  0.16650559  1
  Ag  Ag29  1  0.67223637  0.67302030  -0.00517333  1
  Ag  Ag30  1  -0.00850305  0.66008386  0.66519320  1
  Ag  Ag31  1  0.66525227  0.50141391  0.49540300  1
  Ag  Ag32  1  0.50856748  0.49722805  0.33625459  1
  Ag  Ag33  1  0.33043972  0.66581090  0.33771371  1
  Ag  Ag34  1  0.66266071  0.16206359  0.83033374  1
  Ag  Ag35  1  0.83099727  0.33570471  0.83422808  1
  Ag  Ag36  1  0.50338332  0.50108826  0.65725285  1
  Ag  Ag37  1  0.66392877  0.83258795  0.50146384  1
  Ag  Ag38  1  0.50326665  0.66802820  0.83312551  1
  Ag  Ag39  1  0.50374456  -0.00020008  0.83184234  1
  Ag  Ag40  1  0.82976462  0.16967511  0.66699167  1
  Ag  Ag41  1  0.16761450  0.66324283  0.49701453  1
  Ag  Ag42  1  0.16281364  0.50118964  0.66181148  1
  Ag  Ag43  1  0.82342758  0.00055063  0.17020484  1
  Ag  Ag44  1  0.34225770  0.16567972  0.82465246  1
  Ag  Ag45  1  -0.00700944  0.65803645  0.00021334  1
  Ag  Ag46  1  0.83318986  0.83250762  0.33360983  1
  Ag  Ag47  1  0.16796393  0.33382642  0.16696004  1
  Ag  Ag48  1  0.33486330  0.33223259  0.66546681  1
  Ag  Ag49  1  0.82822691  0.82856248  0.66572146  1
  Ag  Ag50  1  0.82844979  0.50401136  0.33196974  1
  Ag  Ag51  1  0.00201734  0.17321978  0.16882051  1
  Ag  Ag52  1  0.67142532  0.33608284  0.00439989  1
  Ag  Ag53  1  0.49997163  0.16103160  0.33484019  1
  Sb  Sb54  1  0.66420926  0.33792504  0.66545233  1
  Sb  Sb55  1  -0.00482654  0.33799110  0.32712353  1
  Sb  Sb56  1  0.15745860  0.49594358  -0.00057797  1
  Sb  Sb57  1  0.50710136  0.83046322  0.66785413  1
  Sb  Sb58  1  0.16812840  0.17197794  0.66254893  1
  Sb  Sb59  1  0.16934975  0.66559234  0.82920116  1
  Sb  Sb60  1  0.33162632  0.17096947  0.17148963  1
  Sb  Sb61  1  0.49843505  0.66597662  0.50132855  1
  Sb  Sb62  1  0.16260118  0.83625095  0.00598560  1
  Sb  Sb63  1  -0.00380962  0.82702750  0.49652455  1
  Sb  Sb64  1  0.83568076  0.66446648  0.50162872  1
  Sb  Sb65  1  -0.01121343  0.82622539  0.83318149  1
  Sb  Sb66  1  0.33646506  0.66475549  0.65988649  1
  Sb  Sb67  1  0.00027198  -0.00394807  0.66047903  1
  Sb  Sb68  1  0.34200147  0.00066817  0.00491265  1
  Sb  Sb69  1  0.50022842  0.16336929  0.00389683  1
  Sb  Sb70  1  -0.00056281  0.17045573  0.49406287  1
  Sb  Sb71  1  0.66840936  0.66569956  0.33517832  1
  Sb  Sb72  1  0.16367586  0.82696075  0.65854071  1
  Sb  Sb73  1  0.50334956  0.83450755  0.33237960  1
  Sb  Sb74  1  0.50206962  0.16940392  0.66221589  1
  Sb  Sb75  1  0.16349199  0.33367975  0.83739320  1
  Sb  Sb76  1  0.16751694  0.00632628  0.17096295  1
  Sb  Sb77  1  0.33470457  0.33321599  -0.00107888  1
  Sb  Sb78  1  0.67108554  0.50159598  0.83159794  1
  Sb  Sb79  1  0.17434452  0.00251513  0.83407242  1
  Sb  Sb80  1  0.83238518  0.16991031  -0.00180082  1
  Sb  Sb81  1  0.82652944  0.00288391  0.83660983  1
  Sb  Sb82  1  0.83153066  0.33637603  0.50329349  1
  Sb  Sb83  1  0.16938824  0.33827843  0.49471820  1
  Sb  Sb84  1  0.34310065  0.83825128  0.82540698  1
  Sb  Sb85  1  0.82510220  -0.00129179  0.49469485  1
  Sb  Sb86  1  0.33568958  0.83110249  0.17483944  1
  Sb  Sb87  1  -0.00344861  0.83088156  0.16991879  1
  Sb  Sb88  1  0.16565565  0.49967814  0.33654515  1
  Sb  Sb89  1  0.83290392  0.66575868  0.16517941  1
  Sb  Sb90  1  0.51038734  0.50360355  0.00381434  1
  Sb  Sb91  1  0.66690221  0.83282589  0.16636925  1
  Sb  Sb92  1  0.82713850  0.66102657  0.83347669  1
  Sb  Sb93  1  0.33547279  0.66447658  0.00539896  1
  Sb  Sb94  1  0.33200804  0.49600799  0.82786834  1
  Sb  Sb95  1  0.50037049  0.33265895  0.49439644  1
  Sb  Sb96  1  0.33855836  0.33382342  0.33635302  1
  Sb  Sb97  1  0.00069199  0.34170392  0.67223729  1
  Sb  Sb98  1  0.66289072  -0.00273034  0.66484725  1
  Sb  Sb99  1  0.50567040  0.33301693  0.83770110  1
  Sb  Sb100  1  -0.00294645  0.17013238  0.83722548  1
  Sb  Sb101  1  0.82890504  0.16737497  0.33536820  1
  Sb  Sb102  1  -0.00920904  0.00073614  0.00754183  1
  Sb  Sb103  1  0.17496997  -0.00491699  0.49566469  1
  Sb  Sb104  1  0.16455618  0.65945932  0.17277210  1
  Sb  Sb105  1  0.66838977  0.16848451  0.16872658  1
  Sb  Sb106  1  0.50243341  0.66538548  0.16518509  1
  Sb  Sb107  1  0.83133874  0.33356437  0.16327270  1
  Te  Te108  1  0.16494394  0.17174122  0.16940712  1
  Te  Te109  1  0.16946629  0.16750777  0.49372430  1
  Te  Te110  1  0.16945606  0.16712721  0.83297066  1
  Te  Te111  1  0.16333582  0.49348837  0.16666972  1
  Te  Te112  1  0.16930314  0.50263136  0.50220905  1
  Te  Te113  1  0.16110018  0.50019790  0.82610758  1
  Te  Te114  1  0.16714614  0.83296651  0.17510711  1
  Te  Te115  1  0.16949680  0.82718640  0.49394782  1
  Te  Te116  1  0.16681687  0.83395877  0.83421975  1
  Te  Te117  1  0.49960415  0.16693031  0.17236139  1
  Te  Te118  1  0.50048666  0.16536279  0.49671915  1
  Te  Te119  1  0.50181604  0.16536788  0.83328103  1
  Te  Te120  1  0.50169901  0.49830330  0.16926038  1
  Te  Te121  1  0.50183836  0.49989947  0.49775223  1
  Te  Te122  1  0.49890356  0.50226460  0.83234524  1
  Te  Te123  1  0.49960450  0.83878817  0.15945759  1
  Te  Te124  1  0.50266986  0.83712017  0.50031804  1
  Te  Te125  1  0.50580204  0.83453984  0.83512060  1
  Te  Te126  1  0.83971720  0.16100457  0.16668660  1
  Te  Te127  1  0.83021918  0.16701592  0.50647710  1
  Te  Te128  1  0.82951641  0.17077981  0.82883125  1
  Te  Te129  1  0.83237693  0.49923148  0.16773764  1
  Te  Te130  1  0.82951425  0.49966717  0.49904901  1
  Te  Te131  1  0.83612926  0.49649522  0.83374599  1
  Te  Te132  1  0.83283680  0.84010017  0.16969738  1
  Te  Te133  1  0.82734717  0.83345420  0.49902187  1
  Te  Te134  1  0.82484689  0.83526870  0.83352185  1
  Te  Te135  1  0.16487552  0.00517057  0.00242032  1
  Te  Te136  1  0.16505235  0.00028080  0.33312197  1
  Te  Te137  1  0.17242976  -0.00065078  0.66617284  1
  Te  Te138  1  0.16570243  0.32895544  0.00490493  1
  Te  Te139  1  0.16564763  0.32729979  0.32732700  1
  Te  Te140  1  0.17116418  0.33968483  0.66721420  1
  Te  Te141  1  0.16052192  0.66922428  -0.00044837  1
  Te  Te142  1  0.16612246  0.66817276  0.33636778  1
  Te  Te143  1  0.16338861  0.66176544  0.66184321  1
  Te  Te144  1  0.50568515  -0.00282217  -0.00387735  1
  Te  Te145  1  0.50188966  -0.00177226  0.33497585  1
  Te  Te146  1  0.49559996  0.00074357  0.66776827  1
  Te  Te147  1  0.50531533  0.33338368  0.00651037  1
  Te  Te148  1  0.50443009  0.33760197  0.32863778  1
  Te  Te149  1  0.49626871  0.33982682  0.66945718  1
  Te  Te150  1  0.50352127  0.67167573  -0.00377453  1
  Te  Te151  1  0.49548707  0.66158667  0.33314325  1
  Te  Te152  1  0.50415888  0.66190379  0.67007051  1
  Te  Te153  1  0.82640273  -0.00383352  0.00407554  1
  Te  Te154  1  0.83092015  -0.00020391  0.33067688  1
  Te  Te155  1  0.83535267  -0.00302440  0.66711261  1
  Te  Te156  1  0.83210464  0.33620795  -0.00240798  1
  Te  Te157  1  0.82579508  0.33889694  0.33391665  1
  Te  Te158  1  0.83288222  0.33581742  0.67188743  1
  Te  Te159  1  0.83339006  0.66631280  -0.00030364  1
  Te  Te160  1  0.83681450  0.66622802  0.33223050  1
  Te  Te161  1  0.83204381  0.66601433  0.66752880  1
  Te  Te162  1  0.00286179  0.16797192  0.00377651  1
  Te  Te163  1  -0.00061658  0.16651692  0.33039247  1
  Te  Te164  1  -0.00400812  0.16646701  0.66567750  1
  Te  Te165  1  -0.00332216  0.50062509  0.00229901  1
  Te  Te166  1  -0.00150183  0.50260946  0.33350578  1
  Te  Te167  1  -0.00464169  0.50204763  0.66361870  1
  Te  Te168  1  -0.00517456  0.82858195  0.00096953  1
  Te  Te169  1  -0.00409538  0.83212348  0.33389024  1
  Te  Te170  1  -0.00628524  0.82637619  0.66512492  1
  Te  Te171  1  0.32823885  0.16644004  -0.00349264  1
  Te  Te172  1  0.33642894  0.16664640  0.33732762  1
  Te  Te173  1  0.33323407  0.16661684  0.66289064  1
  Te  Te174  1  0.33160287  0.50024039  0.00190484  1
  Te  Te175  1  0.33186349  0.49901245  0.33487959  1
  Te  Te176  1  0.33649126  0.49969539  0.66393848  1
  Te  Te177  1  0.33212205  0.83268384  -0.00045160  1
  Te  Te178  1  0.33510471  0.83333612  0.33826503  1
  Te  Te179  1  0.33224000  0.83653007  0.65807047  1
  Te  Te180  1  0.66672911  0.16679875  -0.00258346  1
  Te  Te181  1  0.66406414  0.16369159  0.33563310  1
  Te  Te182  1  0.66842415  0.16813274  0.66460238  1
  Te  Te183  1  0.67274968  0.49741696  -0.00193323  1
  Te  Te184  1  0.66810367  0.50329112  0.33472879  1
  Te  Te185  1  0.66821686  0.50258353  0.66500342  1
  Te  Te186  1  0.66836360  0.83308756  0.00209566  1
  Te  Te187  1  0.67110677  0.83382137  0.33536448  1
  Te  Te188  1  0.66982406  0.83001371  0.66266051  1
  Te  Te189  1  0.00063043  0.00236494  0.17219793  1
  Te  Te190  1  0.00118818  0.00017346  0.49210122  1
  Te  Te191  1  0.00192276  -0.00134116  0.83231922  1
  Te  Te192  1  -0.00108789  0.33412159  0.16276201  1
  Te  Te193  1  0.00062593  0.34202392  0.49982554  1
  Te  Te194  1  -0.00431201  0.33783286  0.84061025  1
  Te  Te195  1  -0.00052767  0.66094233  0.16845701  1
  Te  Te196  1  0.00395602  0.66268056  0.49764699  1
  Te  Te197  1  0.00205877  0.66168748  0.83238645  1
  Te  Te198  1  0.33963243  0.00069172  0.17408327  1
  Te  Te199  1  0.33687490  0.00058291  0.49646124  1
  Te  Te200  1  0.34100228  0.00525010  0.83479543  1
  Te  Te201  1  0.33596718  0.33823849  0.16664244  1
  Te  Te202  1  0.33425719  0.33770362  0.50505368  1
  Te  Te203  1  0.33364519  0.32695155  0.82961158  1
  Te  Te204  1  0.33274382  0.65904122  0.17421561  1
  Te  Te205  1  0.33175155  0.66263777  0.49653742  1
  Te  Te206  1  0.34071656  0.66858550  0.83436852  1
  Te  Te207  1  0.66452821  0.00101344  0.16785072  1
  Te  Te208  1  0.66112956  0.00095255  0.49827619  1
  Te  Te209  1  0.66321655  0.00074273  0.83143669  1
  Te  Te210  1  0.66538714  0.33467880  0.16762631  1
  Te  Te211  1  0.66626577  0.33436395  0.49487429  1
  Te  Te212  1  0.66970177  0.32857561  0.83635397  1
  Te  Te213  1  0.66622457  0.65746386  0.15909093  1
  Te  Te214  1  0.66512005  0.66633875  0.50304841  1
  Te  Te215  1  0.66283532  0.66878395  0.83382989  1
