# generated using pymatgen
data_AgSbTe2
_symmetry_space_group_name_H-M   'P 1'
_cell_length_a   18.33564302
_cell_length_b   18.32741655
_cell_length_c   18.33593125
_cell_angle_alpha   90.00205359
_cell_angle_beta   89.99869389
_cell_angle_gamma   89.99755621
_symmetry_Int_Tables_number   1
_chemical_formula_structural   AgSbTe2
_chemical_formula_sum   'Ag54 Sb54 Te108'
_cell_volume   6161.69740681
_cell_formula_units_Z   54
loop_
 _symmetry_equiv_pos_site_id
 _symmetry_equiv_pos_as_xyz
  1  'x, y, z'
loop_
 _atom_site_type_symbol
 _atom_site_label
 _atom_site_symmetry_multiplicity
 _atom_site_fract_x
 _atom_site_fract_y
 _atom_site_fract_z
 _atom_site_occupancy
  Ag  Ag0  1  0.00077029  0.00247289  0.66097185  1
  Ag  Ag1  1  0.17348362  0.83338962  0.33570901  1
  Ag  Ag2  1  0.32922410  -0.00643151  0.66116767  1
  Ag  Ag3  1  0.16876501  0.67041575  0.17035563  1
  Ag  Ag4  1  0.00419617  0.66625670  0.00268698  1
  Ag  Ag5  1  0.83768223  0.34097915  0.83814945  1
  Ag  Ag6  1  0.66243704  0.83468572  0.17223970  1
  Ag  Ag7  1  -0.00089874  0.49768949  0.83211228  1
  Ag  Ag8  1  0.49752133  0.15637151  0.33245975  1
  Ag  Ag9  1  0.83300552  0.66620276  0.83544007  1
  Ag  Ag10  1  0.49984863  0.66689375  0.83196095  1
  Ag  Ag11  1  0.00495392  0.33217936  0.66350900  1
  Ag  Ag12  1  0.17075383  0.83560194  0.65634568  1
  Ag  Ag13  1  0.00333046  -0.00484560  0.01423092  1
  Ag  Ag14  1  0.33310337  0.83558510  0.17480888  1
  Ag  Ag15  1  -0.00337618  0.33286771  0.33015105  1
  Ag  Ag16  1  0.83538057  0.33543353  0.16944613  1
  Ag  Ag17  1  0.33139794  0.67196200  0.65216560  1
  Ag  Ag18  1  0.33342695  0.66968760  0.33706003  1
  Ag  Ag19  1  0.00502715  0.16231683  0.16859359  1
  Ag  Ag20  1  0.00451657  0.50086375  0.49926553  1
  Ag  Ag21  1  0.15755713  0.33789926  0.83453215  1
  Ag  Ag22  1  0.49360710  0.83275403  0.33306310  1
  Ag  Ag23  1  0.49534681  0.50208217  0.00881299  1
  Ag  Ag24  1  0.33042016  0.51424338  0.49853123  1
  Ag  Ag25  1  0.32790152  -0.00532017  0.01418761  1
  Ag  Ag26  1  0.32582719  0.33343942  0.66144926  1
  Ag  Ag27  1  0.32885645  0.66857361  0.00442961  1
  Ag  Ag28  1  0.67134143  -0.00464296  0.65268848  1
  Ag  Ag29  1  0.16990725  -0.00517265  0.17155563  1
  Ag  Ag30  1  0.66061709  0.83437934  0.49357872  1
  Ag  Ag31  1  0.17625177  0.67291473  0.49271656  1
  Ag  Ag32  1  0.83425915  -0.00486688  0.83205624  1
  Ag  Ag33  1  0.66746464  0.33814937  0.01487227  1
  Ag  Ag34  1  0.83635368  0.66609917  0.16952644  1
  Ag  Ag35  1  0.66767359  0.83318585  0.82920461  1
  Ag  Ag36  1  -0.00298300  0.00270292  0.33030941  1
  Ag  Ag37  1  0.33417054  0.16066682  0.49335719  1
  Ag  Ag38  1  0.66872844  0.33495742  0.33126125  1
  Ag  Ag39  1  0.33131068  0.82968936  0.49272968  1
  Ag  Ag40  1  0.16188684  0.33486952  0.16719418  1
  Ag  Ag41  1  0.66970454  -0.00450255  0.33261401  1
  Ag  Ag42  1  0.16868792  -0.00845374  0.49220792  1
  Ag  Ag43  1  0.83798146  -0.00215474  0.17186705  1
  Ag  Ag44  1  0.83437164  0.67098338  0.49302981  1
  Ag  Ag45  1  0.16847264  0.50309184  0.00274376  1
  Ag  Ag46  1  0.32821370  0.15477704  0.17312727  1
  Ag  Ag47  1  0.48819812  -0.00311189  0.17063535  1
  Ag  Ag48  1  0.48736439  0.66516984  0.49670193  1
  Ag  Ag49  1  0.84106083  -0.00570623  0.49466173  1
  Ag  Ag50  1  0.50397452  0.50285040  0.33226624  1
  Ag  Ag51  1  0.66858360  0.50273268  0.16977608  1
  Ag  Ag52  1  0.49519780  0.34160620  0.49496683  1
  Ag  Ag53  1  0.83010624  0.50086338  0.33149634  1
  Sb  Sb54  1  0.83548399  0.83508872  0.66477863  1
  Sb  Sb55  1  0.00512688  0.83216665  0.49881820  1
  Sb  Sb56  1  0.67172417  0.50415928  0.84050290  1
  Sb  Sb57  1  0.49630251  0.16445944  0.65797487  1
  Sb  Sb58  1  0.33040419  0.50179230  0.83037902  1
  Sb  Sb59  1  0.00543704  0.16596600  0.49449262  1
  Sb  Sb60  1  0.66519189  0.50620852  0.49244445  1
  Sb  Sb61  1  0.83545192  0.16373318  0.66560144  1
  Sb  Sb62  1  0.33684188  0.83107271  0.83144804  1
  Sb  Sb63  1  0.66253748  0.66967385  0.33321048  1
  Sb  Sb64  1  0.00429056  0.66715469  0.66621035  1
  Sb  Sb65  1  0.17027123  0.33637192  0.49725779  1
  Sb  Sb66  1  0.66261685  0.67252367  0.66509988  1
  Sb  Sb67  1  0.66126663  0.16022224  0.49560537  1
  Sb  Sb68  1  0.16636049  0.50364352  0.33089067  1
  Sb  Sb69  1  -0.00028317  0.16881918  0.83807307  1
  Sb  Sb70  1  0.16586882  0.66408414  0.83448775  1
  Sb  Sb71  1  0.49848533  0.82790591  0.00624576  1
  Sb  Sb72  1  0.83321568  0.33327584  0.49552399  1
  Sb  Sb73  1  0.00243544  0.66726648  0.33162279  1
  Sb  Sb74  1  0.83545665  0.50105116  0.66141371  1
  Sb  Sb75  1  0.83495734  0.16720521  0.00341462  1
  Sb  Sb76  1  0.16685487  0.50310204  0.66714226  1
  Sb  Sb77  1  -0.00174003  0.33597730  0.00314858  1
  Sb  Sb78  1  0.66749343  0.16554845  0.16982502  1
  Sb  Sb79  1  0.66849231  0.00225491  0.00727950  1
  Sb  Sb80  1  0.33124220  -0.00809098  0.33424162  1
  Sb  Sb81  1  0.17271661  0.16204717  0.33191548  1
  Sb  Sb82  1  -0.00332739  0.83147720  0.83179553  1
  Sb  Sb83  1  0.50059176  0.33156073  0.17449391  1
  Sb  Sb84  1  0.66662252  0.66397801  0.00277825  1
  Sb  Sb85  1  0.33399798  0.33768835  0.33664361  1
  Sb  Sb86  1  0.33551864  0.50352145  0.17057294  1
  Sb  Sb87  1  0.33440224  0.33467087  -0.00028698  1
  Sb  Sb88  1  0.16629944  0.16891315  0.00516496  1
  Sb  Sb89  1  0.49752156  0.16994109  0.00896370  1
  Sb  Sb90  1  0.50369293  -0.00774276  0.83821513  1
  Sb  Sb91  1  0.49705317  0.67004693  0.17038516  1
  Sb  Sb92  1  0.49696759  0.50192252  0.66109598  1
  Sb  Sb93  1  -0.00273156  0.49848903  0.16906246  1
  Sb  Sb94  1  0.66807171  0.32817234  0.66161343  1
  Sb  Sb95  1  0.16859574  0.82949121  0.00294032  1
  Sb  Sb96  1  0.49592456  0.83399487  0.65774349  1
  Sb  Sb97  1  0.49647337  -0.00499178  0.49078833  1
  Sb  Sb98  1  0.83256464  0.83267287  0.00201527  1
  Sb  Sb99  1  0.66824585  0.16175562  0.83386039  1
  Sb  Sb100  1  0.16181205  0.00262952  0.83434018  1
  Sb  Sb101  1  0.33291867  0.16550155  0.83299491  1
  Sb  Sb102  1  0.50191524  0.34073633  0.83029297  1
  Sb  Sb103  1  0.00254529  0.83759282  0.16907464  1
  Sb  Sb104  1  0.16736392  0.16288231  0.66395316  1
  Sb  Sb105  1  0.83182105  0.83235852  0.33347067  1
  Sb  Sb106  1  0.83584860  0.50102754  0.00582381  1
  Sb  Sb107  1  0.83167503  0.16673872  0.33183945  1
  Te  Te108  1  0.16718734  0.16457535  0.16732513  1
  Te  Te109  1  0.17339828  0.15741580  0.49861337  1
  Te  Te110  1  0.16707351  0.17892084  0.83447031  1
  Te  Te111  1  0.16603580  0.50277929  0.16385809  1
  Te  Te112  1  0.16622692  0.50479420  0.49888669  1
  Te  Te113  1  0.16234892  0.49665716  0.83713871  1
  Te  Te114  1  0.17027044  0.83209589  0.16827666  1
  Te  Te115  1  0.16789147  0.83276654  0.49789184  1
  Te  Te116  1  0.16739871  0.83309449  0.82825364  1
  Te  Te117  1  0.49485392  0.16203106  0.17263799  1
  Te  Te118  1  0.49440419  0.16988819  0.49240040  1
  Te  Te119  1  0.50033162  0.16832670  0.83435887  1
  Te  Te120  1  0.50427531  0.50038099  0.16880127  1
  Te  Te121  1  0.49868639  0.50432041  0.49565016  1
  Te  Te122  1  0.50208461  0.50678033  0.83580021  1
  Te  Te123  1  0.50045928  0.83580950  0.17172716  1
  Te  Te124  1  0.49888368  0.82846135  0.49460706  1
  Te  Te125  1  0.50620348  0.82621874  0.83484133  1
  Te  Te126  1  0.83884214  0.16805322  0.16751940  1
  Te  Te127  1  0.83357453  0.15672064  0.49921072  1
  Te  Te128  1  0.83310931  0.16549468  0.83401927  1
  Te  Te129  1  0.83081799  0.49867842  0.17045519  1
  Te  Te130  1  0.83494590  0.50123479  0.49418811  1
  Te  Te131  1  0.83769870  0.50086047  0.83338867  1
  Te  Te132  1  0.82884460  0.83231229  0.16781748  1
  Te  Te133  1  0.82988098  0.83494973  0.49945860  1
  Te  Te134  1  0.82901552  0.83238243  0.83272793  1
  Te  Te135  1  0.16644745  -0.00036237  0.00245810  1
  Te  Te136  1  0.16374783  -0.00250030  0.33217063  1
  Te  Te137  1  0.16737877  -0.00254095  0.66888639  1
  Te  Te138  1  0.16631913  0.33890129  0.00380312  1
  Te  Te139  1  0.16023250  0.33408907  0.32854924  1
  Te  Te140  1  0.16554930  0.33356873  0.66652098  1
  Te  Te141  1  0.16552659  0.66393134  0.00104981  1
  Te  Te142  1  0.16846024  0.66977741  0.33194206  1
  Te  Te143  1  0.17101013  0.67078922  0.66441420  1
  Te  Te144  1  0.49592184  0.00067183  0.00673748  1
  Te  Te145  1  0.50486199  -0.00312015  0.32965029  1
  Te  Te146  1  0.49753445  -0.00014797  0.66996998  1
  Te  Te147  1  0.50354743  0.34016136  -0.00096805  1
  Te  Te148  1  0.50129114  0.34294012  0.33668410  1
  Te  Te149  1  0.49813873  0.33321111  0.66071208  1
  Te  Te150  1  0.49743241  0.66173795  0.00011042  1
  Te  Te151  1  0.49698159  0.66717354  0.33589963  1
  Te  Te152  1  0.49368121  0.66750508  0.66554094  1
  Te  Te153  1  0.83767560  0.00006823  0.00054901  1
  Te  Te154  1  0.83345669  -0.00007527  0.33377482  1
  Te  Te155  1  0.83391934  -0.00112119  0.66696826  1
  Te  Te156  1  0.83023650  0.33398758  0.00096122  1
  Te  Te157  1  0.83372997  0.33380855  0.33120862  1
  Te  Te158  1  0.83728865  0.33235391  0.66843865  1
  Te  Te159  1  0.83769723  0.66604308  0.00026677  1
  Te  Te160  1  0.83522146  0.66424231  0.33023713  1
  Te  Te161  1  0.83406180  0.66749933  0.67102590  1
  Te  Te162  1  0.00052481  0.15645180  0.00682613  1
  Te  Te163  1  0.00040819  0.16728313  0.32878396  1
  Te  Te164  1  0.00138223  0.16829514  0.66634250  1
  Te  Te165  1  0.00329769  0.50310355  -0.00230815  1
  Te  Te166  1  -0.00283348  0.49773255  0.33672273  1
  Te  Te167  1  0.00054465  0.49577448  0.66593917  1
  Te  Te168  1  0.00060543  0.83356021  -0.00121851  1
  Te  Te169  1  0.00764690  0.84035426  0.33422655  1
  Te  Te170  1  0.00769628  0.83921013  0.66606881  1
  Te  Te171  1  0.33373980  0.16020006  0.00538990  1
  Te  Te172  1  0.33797350  0.17058335  0.33195517  1
  Te  Te173  1  0.33290435  0.16784273  0.66301318  1
  Te  Te174  1  0.33329058  0.50219470  -0.00080168  1
  Te  Te175  1  0.33574396  0.50601369  0.33803552  1
  Te  Te176  1  0.33247329  0.49973645  0.66063640  1
  Te  Te177  1  0.33402491  0.83442455  0.00227069  1
  Te  Te178  1  0.33361798  0.83002009  0.33242550  1
  Te  Te179  1  0.33140086  0.83248247  0.66537065  1
  Te  Te180  1  0.66535616  0.17832157  0.00083284  1
  Te  Te181  1  0.65855720  0.16955709  0.33283740  1
  Te  Te182  1  0.66489043  0.15451477  0.66559542  1
  Te  Te183  1  0.66378775  0.49674369  0.00692739  1
  Te  Te184  1  0.66780330  0.49909206  0.32984202  1
  Te  Te185  1  0.66647062  0.49814751  0.66687277  1
  Te  Te186  1  0.66502159  0.83352335  0.00502571  1
  Te  Te187  1  0.66601134  0.83541235  0.33275800  1
  Te  Te188  1  0.66583726  0.83854536  0.66625688  1
  Te  Te189  1  -0.00137816  -0.00090033  0.17009164  1
  Te  Te190  1  0.00080616  0.00079682  0.50004521  1
  Te  Te191  1  -0.00510969  0.00075526  0.82630263  1
  Te  Te192  1  -0.00090262  0.33219249  0.16818999  1
  Te  Te193  1  0.00176616  0.33463423  0.49957556  1
  Te  Te194  1  -0.00215562  0.33504992  0.83575150  1
  Te  Te195  1  -0.00098664  0.66666518  0.16433382  1
  Te  Te196  1  -0.00809745  0.66181014  0.50068533  1
  Te  Te197  1  -0.00264863  0.66316892  0.83480729  1
  Te  Te198  1  0.33032791  -0.00293415  0.17061966  1
  Te  Te199  1  0.33138362  -0.00234492  0.50099252  1
  Te  Te200  1  0.33361699  0.00006336  0.82778938  1
  Te  Te201  1  0.32822815  0.33259215  0.16618091  1
  Te  Te202  1  0.33341978  0.32854142  0.50224309  1
  Te  Te203  1  0.33177612  0.33322276  0.82703449  1
  Te  Te204  1  0.33067503  0.66871083  0.16428311  1
  Te  Te205  1  0.33170378  0.66985285  0.49728889  1
  Te  Te206  1  0.33608162  0.66629182  0.84387253  1
  Te  Te207  1  0.67536350  -0.00135244  0.16997325  1
  Te  Te208  1  0.66293769  -0.00528813  0.49589524  1
  Te  Te209  1  0.67189510  -0.00547840  0.83894576  1
  Te  Te210  1  0.66796561  0.33259603  0.17210805  1
  Te  Te211  1  0.66245906  0.33304820  0.49536918  1
  Te  Te212  1  0.67272237  0.33329502  0.82821908  1
  Te  Te213  1  0.67131521  0.66724129  0.16713130  1
  Te  Te214  1  0.67698827  0.67336121  0.50087982  1
  Te  Te215  1  0.66972215  0.67165115  0.83321259  1
