# generated using pymatgen
data_AgSbTe2
_symmetry_space_group_name_H-M   'P 1'
_cell_length_a   18.33946728
_cell_length_b   18.34059347
_cell_length_c   18.33584914
_cell_angle_alpha   89.99812309
_cell_angle_beta   90.00015174
_cell_angle_gamma   90.00020105
_symmetry_Int_Tables_number   1
_chemical_formula_structural   AgSbTe2
_chemical_formula_sum   'Ag54 Sb54 Te108'
_cell_volume   6167.38595877
_cell_formula_units_Z   54
loop_
 _symmetry_equiv_pos_site_id
 _symmetry_equiv_pos_as_xyz
  1  'x, y, z'
loop_
 _atom_site_type_symbol
 _atom_site_label
 _atom_site_symmetry_multiplicity
 _atom_site_fract_x
 _atom_site_fract_y
 _atom_site_fract_z
 _atom_site_occupancy
  Ag  Ag0  1  0.49840158  0.33184786  0.82638191  1
  Ag  Ag1  1  0.83965206  0.00254547  0.50685318  1
  Ag  Ag2  1  0.33777392  0.17002724  0.83512286  1
  Ag  Ag3  1  0.65782942  0.16789425  0.17151265  1
  Ag  Ag4  1  0.15868175  0.00697286  0.81990578  1
  Ag  Ag5  1  0.00321525  0.01115855  0.33888400  1
  Ag  Ag6  1  0.34153762  0.33397381  0.66756714  1
  Ag  Ag7  1  0.66462970  0.16769063  0.50449392  1
  Ag  Ag8  1  0.00045569  0.84088875  0.16772820  1
  Ag  Ag9  1  0.16578057  0.16637618  0.66190652  1
  Ag  Ag10  1  0.65873796  0.33099257  0.34075807  1
  Ag  Ag11  1  0.01018381  0.33073006  0.33580587  1
  Ag  Ag12  1  0.16349617  0.84749155  0.66555142  1
  Ag  Ag13  1  0.83869409  0.00841159  0.82368784  1
  Ag  Ag14  1  0.67357225  0.00868587  0.66503652  1
  Ag  Ag15  1  0.00584661  0.32658645  0.00089483  1
  Ag  Ag16  1  0.84244124  0.48663238  0.33551347  1
  Ag  Ag17  1  0.34109106  0.65876044  0.66712488  1
  Ag  Ag18  1  0.82237064  0.32560127  0.83007027  1
  Ag  Ag19  1  0.65815009  0.48691666  0.82773925  1
  Ag  Ag20  1  0.17253960  0.32795157  0.49694195  1
  Ag  Ag21  1  -0.00292991  0.00443549  0.66575149  1
  Ag  Ag22  1  0.17997960  0.33048369  0.18090395  1
  Ag  Ag23  1  0.49769791  0.49460983  0.34086737  1
  Ag  Ag24  1  0.49642248  0.33203748  0.49762728  1
  Ag  Ag25  1  0.16088615  0.00933716  0.50259548  1
  Ag  Ag26  1  0.49983595  0.00805099  0.49993679  1
  Ag  Ag27  1  0.00156695  0.32386165  0.66373876  1
  Ag  Ag28  1  0.50118610  0.65605224  0.50367014  1
  Ag  Ag29  1  0.49376706  0.33080998  0.17381339  1
  Ag  Ag30  1  0.50220509  0.84288467  -0.00286415  1
  Ag  Ag31  1  0.33746948  0.17277713  0.16626538  1
  Ag  Ag32  1  0.49892044  0.16686099  0.00390714  1
  Ag  Ag33  1  0.66032212  0.32883398  0.66823313  1
  Ag  Ag34  1  0.50000573  0.49473158  0.66165600  1
  Ag  Ag35  1  0.16295905  0.17067136  0.34107456  1
  Ag  Ag36  1  0.33177554  0.01225691  0.33425593  1
  Ag  Ag37  1  0.50119346  0.83079678  0.66842510  1
  Ag  Ag38  1  0.66792792  0.16907120  0.82511466  1
  Ag  Ag39  1  0.65882333  0.66626385  0.66559991  1
  Ag  Ag40  1  0.33268126  0.33102560  0.00968729  1
  Ag  Ag41  1  -0.00069055  0.49141894  0.49685779  1
  Ag  Ag42  1  0.33742436  0.48682897  0.83079336  1
  Ag  Ag43  1  -0.00032651  0.16515919  0.83159670  1
  Ag  Ag44  1  0.49902009  0.01124612  0.17527753  1
  Ag  Ag45  1  0.84103033  0.17019785  0.33358642  1
  Ag  Ag46  1  0.49969690  0.65983166  0.17299733  1
  Ag  Ag47  1  -0.00160252  0.00759237  -0.00831521  1
  Ag  Ag48  1  0.16515665  0.48741322  0.33611892  1
  Ag  Ag49  1  0.83186959  0.83854834  -0.00711795  1
  Ag  Ag50  1  0.83232827  0.84098915  0.67074559  1
  Ag  Ag51  1  0.33684113  0.48899097  0.16847036  1
  Ag  Ag52  1  -0.00027797  0.65207677  0.33433971  1
  Ag  Ag53  1  0.32477408  0.33109936  0.32324346  1
  Sb  Sb54  1  0.49960765  0.83219485  0.33619343  1
  Sb  Sb55  1  0.83400457  0.16409725  0.66487404  1
  Sb  Sb56  1  0.66577853  0.83888699  0.82771248  1
  Sb  Sb57  1  0.50001232  0.65924538  0.82742783  1
  Sb  Sb58  1  0.83210835  0.00198386  0.16760524  1
  Sb  Sb59  1  0.50077942  0.00770841  0.83052451  1
  Sb  Sb60  1  0.16677890  0.83856199  -0.00374059  1
  Sb  Sb61  1  0.33778920  0.66006608  -0.00352879  1
  Sb  Sb62  1  -0.00129475  0.84327550  0.83449990  1
  Sb  Sb63  1  0.33537064  0.84013702  0.82895961  1
  Sb  Sb64  1  0.00190174  0.48660853  0.82554781  1
  Sb  Sb65  1  0.49890680  0.49277615  -0.00160622  1
  Sb  Sb66  1  0.16683664  0.49393267  0.00233108  1
  Sb  Sb67  1  0.66604796  0.01137400  0.33986432  1
  Sb  Sb68  1  0.49857479  0.17009279  0.66811132  1
  Sb  Sb69  1  -0.00032131  0.66865762  0.66332318  1
  Sb  Sb70  1  0.33203153  0.00617156  0.66255395  1
  Sb  Sb71  1  0.82864475  0.66825777  0.16880278  1
  Sb  Sb72  1  0.17009878  0.16902185  -0.00216450  1
  Sb  Sb73  1  0.16990916  0.66296704  0.50128894  1
  Sb  Sb74  1  0.83418736  0.49762160  0.00088376  1
  Sb  Sb75  1  0.33247632  0.00632989  0.00273570  1
  Sb  Sb76  1  0.33521776  0.16904171  0.49787985  1
  Sb  Sb77  1  0.33416377  0.83616984  0.50339956  1
  Sb  Sb78  1  0.17345612  0.32681864  0.82793695  1
  Sb  Sb79  1  0.33252178  0.65855700  0.33663280  1
  Sb  Sb80  1  0.83217372  0.66675870  0.83143143  1
  Sb  Sb81  1  0.00041847  0.16840007  0.50194095  1
  Sb  Sb82  1  0.17043721  0.66205214  0.16988438  1
  Sb  Sb83  1  0.66262531  0.66727412  -0.00472793  1
  Sb  Sb84  1  0.66018703  0.49321816  0.16627513  1
  Sb  Sb85  1  0.66711133  0.49103053  0.50377830  1
  Sb  Sb86  1  0.16865950  0.67024306  0.82863105  1
  Sb  Sb87  1  0.16473487  0.83828206  0.33770135  1
  Sb  Sb88  1  0.17261451  0.48994623  0.66224735  1
  Sb  Sb89  1  0.00488061  0.49756168  0.17403916  1
  Sb  Sb90  1  0.00045360  0.83576358  0.49900696  1
  Sb  Sb91  1  0.66315048  0.32982918  -0.00440366  1
  Sb  Sb92  1  -0.00079716  0.66859772  0.00534231  1
  Sb  Sb93  1  0.83701994  0.83876095  0.33522414  1
  Sb  Sb94  1  0.83131424  0.16560281  -0.00073844  1
  Sb  Sb95  1  0.82971671  0.66996424  0.50040974  1
  Sb  Sb96  1  0.82892696  0.49812776  0.66399205  1
  Sb  Sb97  1  0.16850262  0.00546341  0.17166776  1
  Sb  Sb98  1  0.66504586  0.83889466  0.16571309  1
  Sb  Sb99  1  0.66445250  0.84128551  0.50329893  1
  Sb  Sb100  1  0.49715366  0.17446989  0.33077462  1
  Sb  Sb101  1  0.33543848  0.49343218  0.49909334  1
  Sb  Sb102  1  0.00300040  0.16633561  0.16694645  1
  Sb  Sb103  1  0.83270581  0.32644001  0.50015972  1
  Sb  Sb104  1  0.66890978  0.00287285  -0.00559664  1
  Sb  Sb105  1  0.33340012  0.83601458  0.16642350  1
  Sb  Sb106  1  0.83147947  0.33239001  0.16921508  1
  Sb  Sb107  1  0.66696264  0.65514666  0.33800661  1
  Te  Te108  1  0.17153001  0.17052439  0.16929926  1
  Te  Te109  1  0.16805781  0.16793601  0.50077930  1
  Te  Te110  1  0.16316507  0.16389217  0.83279372  1
  Te  Te111  1  0.17326331  0.49529296  0.17161958  1
  Te  Te112  1  0.16233888  0.49574262  0.49601497  1
  Te  Te113  1  0.17110151  0.50178462  0.83145091  1
  Te  Te114  1  0.16127075  0.83275299  0.16575238  1
  Te  Te115  1  0.16748201  0.83813692  0.50632844  1
  Te  Te116  1  0.16727307  0.84016714  0.82666685  1
  Te  Te117  1  0.49831309  0.16835780  0.16627523  1
  Te  Te118  1  0.50399038  0.16847993  0.49982205  1
  Te  Te119  1  0.50016199  0.17161352  0.83609326  1
  Te  Te120  1  0.49688027  0.49634892  0.16446328  1
  Te  Te121  1  0.50137451  0.49526428  0.50153264  1
  Te  Te122  1  0.49821380  0.49422082  0.83216619  1
  Te  Te123  1  0.49978974  0.83622648  0.16555928  1
  Te  Te124  1  0.50027957  0.83574225  0.50360280  1
  Te  Te125  1  0.50056959  0.83317742  0.83380330  1
  Te  Te126  1  0.82616672  0.16714020  0.17101497  1
  Te  Te127  1  0.82715258  0.16106467  0.49410185  1
  Te  Te128  1  0.83245659  0.16754321  0.83586680  1
  Te  Te129  1  0.82988247  0.50205339  0.17353442  1
  Te  Te130  1  0.83627297  0.50281212  0.49449020  1
  Te  Te131  1  0.83465345  0.49622443  0.83347450  1
  Te  Te132  1  0.83694102  0.83327183  0.16356782  1
  Te  Te133  1  0.83224972  0.84055703  0.50508217  1
  Te  Te134  1  0.83234843  0.83559166  0.83308773  1
  Te  Te135  1  0.16029430  0.00098303  -0.00071942  1
  Te  Te136  1  0.16649080  0.00386917  0.33845403  1
  Te  Te137  1  0.17110864  0.00375478  0.66346508  1
  Te  Te138  1  0.16516639  0.33300056  0.00314019  1
  Te  Te139  1  0.16827036  0.33215056  0.33776137  1
  Te  Te140  1  0.16022860  0.32835042  0.66057193  1
  Te  Te141  1  0.16782286  0.66783612  -0.00040468  1
  Te  Te142  1  0.16189071  0.66709410  0.33445985  1
  Te  Te143  1  0.16931568  0.67089398  0.66468964  1
  Te  Te144  1  0.50042564  0.00262156  -0.00174624  1
  Te  Te145  1  0.49879261  -0.00279312  0.33629849  1
  Te  Te146  1  0.49861809  -0.00240819  0.66249223  1
  Te  Te147  1  0.49696819  0.33010053  0.00058925  1
  Te  Te148  1  0.50019774  0.33451113  0.33592559  1
  Te  Te149  1  0.50141818  0.33445118  0.66449654  1
  Te  Te150  1  0.49930458  0.67162493  0.00363066  1
  Te  Te151  1  0.49947478  0.66132571  0.33627183  1
  Te  Te152  1  0.50063688  0.66588603  0.66697903  1
  Te  Te153  1  0.83683268  -0.00285627  0.00032967  1
  Te  Te154  1  0.83571197  0.00588759  0.33648378  1
  Te  Te155  1  0.83441747  0.00080990  0.66555774  1
  Te  Te156  1  0.83995960  0.33457152  -0.00563756  1
  Te  Te157  1  0.83076115  0.33089898  0.33406632  1
  Te  Te158  1  0.83744076  0.33551946  0.67059446  1
  Te  Te159  1  0.83231909  0.67367087  0.00027560  1
  Te  Te160  1  0.83808031  0.66632075  0.33392719  1
  Te  Te161  1  0.82959838  0.67336005  0.66624707  1
  Te  Te162  1  -0.00068562  0.16648043  -0.00055847  1
  Te  Te163  1  0.00129933  0.16994859  0.33188211  1
  Te  Te164  1  0.00077973  0.16501096  0.66777371  1
  Te  Te165  1  -0.00041285  0.49613887  -0.00045667  1
  Te  Te166  1  0.00106438  0.49341828  0.33437125  1
  Te  Te167  1  0.00064353  0.50062484  0.65850391  1
  Te  Te168  1  -0.00166954  0.83552267  0.00383108  1
  Te  Te169  1  -0.00005519  0.83893838  0.32869794  1
  Te  Te170  1  0.00028221  0.83633452  0.66718836  1
  Te  Te171  1  0.33644009  0.17032159  -0.00068003  1
  Te  Te172  1  0.32933467  0.16943471  0.33124871  1
  Te  Te173  1  0.32846425  0.17273437  0.67144122  1
  Te  Te174  1  0.33247770  0.49279273  -0.00095300  1
  Te  Te175  1  0.33646787  0.49531063  0.33158777  1
  Te  Te176  1  0.33654096  0.49746281  0.66719928  1
  Te  Te177  1  0.33871615  0.83296759  -0.00244067  1
  Te  Te178  1  0.33255062  0.83620479  0.33286116  1
  Te  Te179  1  0.33904750  0.83045318  0.66829055  1
  Te  Te180  1  0.66196110  0.16578139  0.00241803  1
  Te  Te181  1  0.66783330  0.17168403  0.33327007  1
  Te  Te182  1  0.66642372  0.16767395  0.66589481  1
  Te  Te183  1  0.66908037  0.50069668  -0.00896069  1
  Te  Te184  1  0.66062172  0.49086576  0.33297227  1
  Te  Te185  1  0.66466968  0.49340354  0.66943507  1
  Te  Te186  1  0.66541229  0.83477364  -0.00127614  1
  Te  Te187  1  0.66771887  0.82891882  0.33281225  1
  Te  Te188  1  0.66386764  0.83599725  0.66678810  1
  Te  Te189  1  -0.00004317  -0.00141609  0.17057170  1
  Te  Te190  1  0.00047745  0.00022552  0.50161220  1
  Te  Te191  1  -0.00060486  0.00271123  0.82945725  1
  Te  Te192  1  -0.00086407  0.33383400  0.16782554  1
  Te  Te193  1  -0.00263039  0.33292022  0.49992399  1
  Te  Te194  1  0.00473428  0.32696928  0.82997025  1
  Te  Te195  1  -0.00052749  0.66722158  0.17332784  1
  Te  Te196  1  -0.00045670  0.66642124  0.49364575  1
  Te  Te197  1  0.00013079  0.66227809  0.83591436  1
  Te  Te198  1  0.33826966  0.00251893  0.17037574  1
  Te  Te199  1  0.33769788  0.00083164  0.49420469  1
  Te  Te200  1  0.33099536  0.00904640  0.83468331  1
  Te  Te201  1  0.33586589  0.33271206  0.16572042  1
  Te  Te202  1  0.33513903  0.33312167  0.50677124  1
  Te  Te203  1  0.33332151  0.33024939  0.82619980  1
  Te  Te204  1  0.34061923  0.66745986  0.16674039  1
  Te  Te205  1  0.33930217  0.66754943  0.50507694  1
  Te  Te206  1  0.33280961  0.66215599  0.82755149  1
  Te  Te207  1  0.65977077  0.00497820  0.16788610  1
  Te  Te208  1  0.66207561  0.00608914  0.50482481  1
  Te  Te209  1  0.66952376  0.00601222  0.82581739  1
  Te  Te210  1  0.66368026  0.32828378  0.16548391  1
  Te  Te211  1  0.66655277  0.32885994  0.50283837  1
  Te  Te212  1  0.66554554  0.33031675  0.83318805  1
  Te  Te213  1  0.65773306  0.66591064  0.16694547  1
  Te  Te214  1  0.66039595  0.66686217  0.50580041  1
  Te  Te215  1  0.66759771  0.66253083  0.82593727  1
