# generated using pymatgen
data_AgSbTe2
_symmetry_space_group_name_H-M   'P 1'
_cell_length_a   18.36384550
_cell_length_b   18.35891751
_cell_length_c   18.36331310
_cell_angle_alpha   90.00272763
_cell_angle_beta   89.99983765
_cell_angle_gamma   89.99870469
_symmetry_Int_Tables_number   1
_chemical_formula_structural   AgSbTe2
_chemical_formula_sum   'Ag54 Sb54 Te108'
_cell_volume   6191.01333233
_cell_formula_units_Z   54
loop_
 _symmetry_equiv_pos_site_id
 _symmetry_equiv_pos_as_xyz
  1  'x, y, z'
loop_
 _atom_site_type_symbol
 _atom_site_label
 _atom_site_symmetry_multiplicity
 _atom_site_fract_x
 _atom_site_fract_y
 _atom_site_fract_z
 _atom_site_occupancy
  Ag  Ag0  1  0.00097001  0.83803514  0.49674113  1
  Ag  Ag1  1  0.49689512  0.31488895  0.16805625  1
  Ag  Ag2  1  0.16875788  0.67416108  0.83279037  1
  Ag  Ag3  1  0.33270505  0.31892755  0.00107241  1
  Ag  Ag4  1  0.65816425  0.00184512  0.32669029  1
  Ag  Ag5  1  0.83269888  0.15622699  0.34115222  1
  Ag  Ag6  1  0.83408140  0.83857082  0.00350905  1
  Ag  Ag7  1  0.17405604  -0.00410898  0.15609868  1
  Ag  Ag8  1  0.00904603  0.67967071  0.67111015  1
  Ag  Ag9  1  0.16964311  0.16326617  0.67409305  1
  Ag  Ag10  1  0.33293228  0.68015365  0.32979918  1
  Ag  Ag11  1  0.49110927  -0.00274314  0.84356707  1
  Ag  Ag12  1  0.66033932  0.67832129  0.67345947  1
  Ag  Ag13  1  0.01243997  0.15568638  0.83068645  1
  Ag  Ag14  1  0.64788342  -0.00296120  -0.00478739  1
  Ag  Ag15  1  0.84245270  0.32257178  0.49799359  1
  Ag  Ag16  1  0.48825269  0.84678632  0.32268368  1
  Ag  Ag17  1  0.00680262  0.50589700  0.83151119  1
  Ag  Ag18  1  0.33501049  0.16336621  0.50842894  1
  Ag  Ag19  1  0.49592254  0.68316050  0.15738126  1
  Ag  Ag20  1  0.83869560  0.84036344  0.32925148  1
  Ag  Ag21  1  0.49461006  -0.00076777  0.15849333  1
  Ag  Ag22  1  0.16728552  0.31674478  0.83106087  1
  Ag  Ag23  1  0.33074403  0.67641461  0.67024228  1
  Ag  Ag24  1  0.49016496  0.16189701  0.66662778  1
  Ag  Ag25  1  0.49849127  0.84053405  0.00355306  1
  Ag  Ag26  1  0.16611925  0.32819739  0.50669326  1
  Ag  Ag27  1  -0.00007301  -0.00198764  0.33189250  1
  Ag  Ag28  1  0.49473084  0.32400779  0.49345986  1
  Ag  Ag29  1  0.66775452  0.83697786  0.83867187  1
  Ag  Ag30  1  0.16704453  0.83745304  0.32412623  1
  Ag  Ag31  1  0.33269150  0.00032907  -0.00325752  1
  Ag  Ag32  1  0.17937673  0.15277014  -0.01201369  1
  Ag  Ag33  1  0.33219721  -0.00022086  0.67111629  1
  Ag  Ag34  1  0.32851465  0.16090170  0.83238457  1
  Ag  Ag35  1  0.49453476  0.15633793  0.00392030  1
  Ag  Ag36  1  0.32752311  0.83673869  0.16823075  1
  Ag  Ag37  1  0.66127851  -0.00030162  0.67087195  1
  Ag  Ag38  1  0.01095106  0.83726608  0.16487373  1
  Ag  Ag39  1  0.66007769  0.68157770  -0.00504853  1
  Ag  Ag40  1  0.00511093  -0.00134269  0.67456791  1
  Ag  Ag41  1  0.16587483  0.49350719  0.67088814  1
  Ag  Ag42  1  0.16978661  0.00044285  0.84001863  1
  Ag  Ag43  1  0.00274315  0.31903466  0.33525439  1
  Ag  Ag44  1  0.83642584  0.16045912  0.66098383  1
  Ag  Ag45  1  0.01769733  -0.00318607  -0.00848206  1
  Ag  Ag46  1  0.49195116  0.67808757  0.83619178  1
  Ag  Ag47  1  0.49954656  0.16032206  0.32352725  1
  Ag  Ag48  1  0.34018080  -0.00117711  0.32440508  1
  Ag  Ag49  1  0.65980399  0.15996856  0.16757952  1
  Ag  Ag50  1  0.16607329  0.83911238  0.00798127  1
  Ag  Ag51  1  0.00535551  0.83684891  0.83611912  1
  Ag  Ag52  1  0.83640525  0.00173930  0.49570682  1
  Ag  Ag53  1  0.17356317  0.68188387  0.15658484  1
  Sb  Sb54  1  0.33714575  0.15573423  0.16244738  1
  Sb  Sb55  1  0.83073706  0.67470314  0.16663591  1
  Sb  Sb56  1  0.00531113  0.67746025  0.33559784  1
  Sb  Sb57  1  0.16819676  0.66705438  0.50391466  1
  Sb  Sb58  1  0.16686497  0.50287034  -0.00681155  1
  Sb  Sb59  1  0.66907992  0.51249205  0.83290183  1
  Sb  Sb60  1  0.83967021  0.49725272  0.66718318  1
  Sb  Sb61  1  0.66326323  0.15659396  0.83548458  1
  Sb  Sb62  1  0.83198956  0.15629184  -0.00027517  1
  Sb  Sb63  1  0.33136428  0.49482101  0.50194361  1
  Sb  Sb64  1  0.49409454  0.50021320  0.66817682  1
  Sb  Sb65  1  0.66636491  0.32519413  0.66675300  1
  Sb  Sb66  1  0.32822771  0.49815791  0.83204481  1
  Sb  Sb67  1  0.66606607  0.49950138  0.50235578  1
  Sb  Sb68  1  0.66049253  0.32357729  -0.00023753  1
  Sb  Sb69  1  0.50021964  0.83938303  0.66922300  1
  Sb  Sb70  1  0.33049149  0.32513223  0.66869079  1
  Sb  Sb71  1  0.66839696  0.83805275  0.50229038  1
  Sb  Sb72  1  0.16771563  0.50416383  0.33777169  1
  Sb  Sb73  1  0.83174122  0.32771052  0.17020744  1
  Sb  Sb74  1  0.66879995  0.32406649  0.33379195  1
  Sb  Sb75  1  0.33531644  0.67392606  -0.00218122  1
  Sb  Sb76  1  0.00376511  0.32668963  0.66431337  1
  Sb  Sb77  1  0.66380104  0.49809480  0.16623517  1
  Sb  Sb78  1  0.00509237  0.32257164  0.00146825  1
  Sb  Sb79  1  0.83482311  0.51027525  -0.00282522  1
  Sb  Sb80  1  0.33080770  0.84165153  0.83774723  1
  Sb  Sb81  1  0.49864252  0.50243013  -0.00102793  1
  Sb  Sb82  1  0.84113611  0.32856902  0.82991020  1
  Sb  Sb83  1  0.16277126  0.00230129  0.50288973  1
  Sb  Sb84  1  0.83119316  -0.00226751  0.17173204  1
  Sb  Sb85  1  0.33125726  0.32368148  0.33124162  1
  Sb  Sb86  1  0.00087581  0.16021735  0.50299195  1
  Sb  Sb87  1  0.50072901  0.00475495  0.49771291  1
  Sb  Sb88  1  0.66435517  0.16271277  0.49830426  1
  Sb  Sb89  1  0.49841846  0.49728702  0.33262347  1
  Sb  Sb90  1  -0.00201498  0.15594385  0.16514571  1
  Sb  Sb91  1  0.00337181  0.50668865  0.16255724  1
  Sb  Sb92  1  0.83570345  0.84057854  0.66728750  1
  Sb  Sb93  1  0.83524326  0.67214893  0.50131678  1
  Sb  Sb94  1  0.49710822  0.66591546  0.50122661  1
  Sb  Sb95  1  0.83538754  0.49669660  0.33505749  1
  Sb  Sb96  1  0.16841789  0.15780084  0.33328981  1
  Sb  Sb97  1  0.83807618  -0.00105406  0.83196931  1
  Sb  Sb98  1  0.32892638  0.84091550  0.49345452  1
  Sb  Sb99  1  0.33304471  0.50751475  0.16554342  1
  Sb  Sb100  1  0.00220335  0.50051458  0.50540974  1
  Sb  Sb101  1  0.00012949  0.67964535  -0.00462610  1
  Sb  Sb102  1  0.16580426  0.83946899  0.67003629  1
  Sb  Sb103  1  0.17150306  0.32616812  0.16448624  1
  Sb  Sb104  1  0.65876719  0.68143416  0.33137244  1
  Sb  Sb105  1  0.83646025  0.67243444  0.83185571  1
  Sb  Sb106  1  0.49313755  0.32270626  0.83571944  1
  Sb  Sb107  1  0.66056011  0.84110685  0.15890192  1
  Te  Te108  1  0.16435270  0.15888411  0.16195838  1
  Te  Te109  1  0.16945974  0.17040644  0.49851915  1
  Te  Te110  1  0.16760079  0.16201221  0.83371958  1
  Te  Te111  1  0.16569187  0.50589836  0.16731759  1
  Te  Te112  1  0.16596291  0.49177478  0.50804492  1
  Te  Te113  1  0.16356155  0.51330180  0.82845944  1
  Te  Te114  1  0.16776549  0.83585045  0.16712108  1
  Te  Te115  1  0.16093565  0.83240130  0.49279370  1
  Te  Te116  1  0.16571435  0.83546244  0.83521276  1
  Te  Te117  1  0.49934775  0.15999670  0.16491356  1
  Te  Te118  1  0.49869236  0.16804493  0.50666483  1
  Te  Te119  1  0.49729183  0.16002457  0.83210198  1
  Te  Te120  1  0.50037563  0.50048597  0.16637781  1
  Te  Te121  1  0.49980105  0.48727052  0.50092882  1
  Te  Te122  1  0.50164598  0.50693573  0.83161789  1
  Te  Te123  1  0.50141885  0.83773197  0.16658876  1
  Te  Te124  1  0.49967122  0.83050721  0.48887863  1
  Te  Te125  1  0.49845451  0.83606751  0.83472941  1
  Te  Te126  1  0.82665337  0.16742463  0.17197137  1
  Te  Te127  1  0.83425497  0.16482583  0.49931439  1
  Te  Te128  1  0.83372696  0.16771273  0.82816432  1
  Te  Te129  1  0.83321772  0.50032121  0.16584987  1
  Te  Te130  1  0.83346554  0.49151609  0.50033597  1
  Te  Te131  1  0.84296411  0.49826601  0.83306225  1
  Te  Te132  1  0.84271966  0.83212741  0.16593561  1
  Te  Te133  1  0.83777687  0.83776532  0.49699257  1
  Te  Te134  1  0.83171004  0.83394974  0.83826964  1
  Te  Te135  1  0.17135902  -0.00237431  -0.00140611  1
  Te  Te136  1  0.16447196  -0.00305783  0.33664567  1
  Te  Te137  1  0.16635447  0.00389811  0.66854983  1
  Te  Te138  1  0.16976527  0.33459664  -0.00292597  1
  Te  Te139  1  0.16345638  0.33567423  0.33271199  1
  Te  Te140  1  0.16664996  0.32986802  0.66844687  1
  Te  Te141  1  0.16748450  0.67028050  -0.00115909  1
  Te  Te142  1  0.17236321  0.67117296  0.33490155  1
  Te  Te143  1  0.16730604  0.67361601  0.66958647  1
  Te  Te144  1  0.49406464  -0.00041219  -0.00100522  1
  Te  Te145  1  0.50051016  0.00228698  0.33837676  1
  Te  Te146  1  0.49997501  0.00283233  0.66360160  1
  Te  Te147  1  0.49650828  0.33188140  0.00329470  1
  Te  Te148  1  0.49978140  0.32930514  0.33186896  1
  Te  Te149  1  0.49895172  0.32861421  0.66615073  1
  Te  Te150  1  0.50052069  0.66778334  -0.00206563  1
  Te  Te151  1  0.49468418  0.66506563  0.33229456  1
  Te  Te152  1  0.49984859  0.66751981  0.67086626  1
  Te  Te153  1  0.83118789  -0.00397507  0.00072485  1
  Te  Te154  1  0.83673901  -0.00051279  0.33221328  1
  Te  Te155  1  0.83665693  0.00209968  0.66519136  1
  Te  Te156  1  0.83238701  0.33400466  0.00074096  1
  Te  Te157  1  0.83697653  0.33041789  0.33761276  1
  Te  Te158  1  0.83437821  0.32741209  0.66202018  1
  Te  Te159  1  0.82651485  0.67635247  -0.00003346  1
  Te  Te160  1  0.83079829  0.66896152  0.33449953  1
  Te  Te161  1  0.83015394  0.66528477  0.66456224  1
  Te  Te162  1  -0.00058783  0.15852862  -0.00358899  1
  Te  Te163  1  -0.00171353  0.16290252  0.33308935  1
  Te  Te164  1  0.00214591  0.16195787  0.66871435  1
  Te  Te165  1  -0.00129113  0.49834544  -0.00598722  1
  Te  Te166  1  0.00046608  0.50223742  0.33256683  1
  Te  Te167  1  0.00526173  0.50218373  0.67188272  1
  Te  Te168  1  0.00273865  0.83734596  -0.00095955  1
  Te  Te169  1  0.00025595  0.83576232  0.33331181  1
  Te  Te170  1  -0.00038518  0.83692472  0.67008199  1
  Te  Te171  1  0.33484411  0.16307746  0.00049593  1
  Te  Te172  1  0.33732740  0.16054468  0.33748473  1
  Te  Te173  1  0.33090879  0.16494363  0.66928533  1
  Te  Te174  1  0.33295460  0.48967076  -0.00066442  1
  Te  Te175  1  0.33277813  0.50884096  0.33405323  1
  Te  Te176  1  0.32683912  0.50888988  0.66608080  1
  Te  Te177  1  0.33477116  0.83531347  0.00447547  1
  Te  Te178  1  0.33280616  0.83735589  0.33287037  1
  Te  Te179  1  0.33430454  0.83674701  0.66192718  1
  Te  Te180  1  0.66291478  0.15874581  0.00399225  1
  Te  Te181  1  0.66386705  0.16133033  0.33091632  1
  Te  Te182  1  0.66994857  0.16012964  0.66747513  1
  Te  Te183  1  0.66819364  0.50234632  -0.00067352  1
  Te  Te184  1  0.66751797  0.50373343  0.33424819  1
  Te  Te185  1  0.66689336  0.50274891  0.66761156  1
  Te  Te186  1  0.66325290  0.83786606  -0.00003654  1
  Te  Te187  1  0.67546201  0.84021177  0.33478179  1
  Te  Te188  1  0.66678791  0.83602070  0.67105413  1
  Te  Te189  1  0.00118019  -0.00342610  0.16997007  1
  Te  Te190  1  -0.00300822  -0.00247471  0.49756161  1
  Te  Te191  1  0.00102825  -0.00097883  0.83448352  1
  Te  Te192  1  0.00133897  0.33584930  0.17202396  1
  Te  Te193  1  0.00151362  0.33470978  0.49658287  1
  Te  Te194  1  0.00805468  0.32937261  0.83404268  1
  Te  Te195  1  0.00351844  0.67313016  0.16705029  1
  Te  Te196  1  -0.00033143  0.67121484  0.50747719  1
  Te  Te197  1  0.00218620  0.67345249  0.83065549  1
  Te  Te198  1  0.33251572  -0.00348863  0.16805780  1
  Te  Te199  1  0.33156426  0.00560187  0.51011062  1
  Te  Te200  1  0.33212014  0.00041503  0.83160588  1
  Te  Te201  1  0.33641718  0.33871891  0.16513676  1
  Te  Te202  1  0.33206555  0.32679901  0.49883236  1
  Te  Te203  1  0.32846625  0.33038895  0.83677452  1
  Te  Te204  1  0.33461498  0.67290604  0.16572241  1
  Te  Te205  1  0.33412057  0.66406477  0.50347840  1
  Te  Te206  1  0.33424770  0.66477011  0.83061663  1
  Te  Te207  1  0.66273731  0.00173311  0.16848049  1
  Te  Te208  1  0.67646991  -0.00013037  0.50791403  1
  Te  Te209  1  0.66547786  -0.00347171  0.83332756  1
  Te  Te210  1  0.65964341  0.32876930  0.16650643  1
  Te  Te211  1  0.66531510  0.33390458  0.50058978  1
  Te  Te212  1  0.66667686  0.33835275  0.83399370  1
  Te  Te213  1  0.66041444  0.66552233  0.16275753  1
  Te  Te214  1  0.66650676  0.66685273  0.50651120  1
  Te  Te215  1  0.66735884  0.67456799  0.83339278  1
