# generated using pymatgen
data_AgSbTe2
_symmetry_space_group_name_H-M   'P 1'
_cell_length_a   18.32801602
_cell_length_b   18.33804841
_cell_length_c   18.33507534
_cell_angle_alpha   89.99976767
_cell_angle_beta   89.99713707
_cell_angle_gamma   90.00247739
_symmetry_Int_Tables_number   1
_chemical_formula_structural   AgSbTe2
_chemical_formula_sum   'Ag54 Sb54 Te108'
_cell_volume   6162.41963571
_cell_formula_units_Z   54
loop_
 _symmetry_equiv_pos_site_id
 _symmetry_equiv_pos_as_xyz
  1  'x, y, z'
loop_
 _atom_site_type_symbol
 _atom_site_label
 _atom_site_symmetry_multiplicity
 _atom_site_fract_x
 _atom_site_fract_y
 _atom_site_fract_z
 _atom_site_occupancy
  Ag  Ag0  1  0.66650431  0.82539396  0.16692849  1
  Ag  Ag1  1  0.00049357  0.82602423  0.15916243  1
  Ag  Ag2  1  0.66364275  0.50960876  0.49659426  1
  Ag  Ag3  1  0.33421314  0.32403980  -0.00602440  1
  Ag  Ag4  1  0.66976062  0.16256585  0.82612465  1
  Ag  Ag5  1  0.16635799  0.83451972  0.66932015  1
  Ag  Ag6  1  -0.00381727  0.67002339  0.00517774  1
  Ag  Ag7  1  0.83262140  0.66463877  0.82776692  1
  Ag  Ag8  1  0.33300317  0.32876178  0.67126040  1
  Ag  Ag9  1  0.82382166  0.17013618  0.34362996  1
  Ag  Ag10  1  0.33304171  0.00370219  0.67159111  1
  Ag  Ag11  1  0.82769180  0.16985036  0.66756095  1
  Ag  Ag12  1  0.15468280  0.66793362  0.16533963  1
  Ag  Ag13  1  0.66729358  0.16647346  0.50443342  1
  Ag  Ag14  1  0.83335320  0.33498823  0.83291075  1
  Ag  Ag15  1  0.67142067  0.83049198  0.83019496  1
  Ag  Ag16  1  0.16443638  0.50224744  0.66768464  1
  Ag  Ag17  1  -0.00847492  0.66942702  0.32403402  1
  Ag  Ag18  1  0.82247541  0.67031656  0.50456618  1
  Ag  Ag19  1  -0.00411367  0.50767857  0.16072358  1
  Ag  Ag20  1  0.16304254  0.83736651  -0.00148660  1
  Ag  Ag21  1  0.16445353  0.00200676  0.83434265  1
  Ag  Ag22  1  0.50588977  0.50748452  0.33659206  1
  Ag  Ag23  1  0.50199158  0.50784894  0.00154328  1
  Ag  Ag24  1  0.00648837  -0.01251424  -0.00307850  1
  Ag  Ag25  1  0.66793667  0.66881043  0.65306462  1
  Ag  Ag26  1  0.66709792  0.66484689  0.33773405  1
  Ag  Ag27  1  0.82931586  0.49954994  0.66969044  1
  Ag  Ag28  1  -0.00301826  0.50436936  0.83623735  1
  Ag  Ag29  1  0.16271716  0.34006279  0.16466718  1
  Ag  Ag30  1  0.83406806  0.33540664  0.16342853  1
  Ag  Ag31  1  0.49494195  0.16681496  -0.00018080  1
  Ag  Ag32  1  0.32803300  0.00331250  -0.00780195  1
  Ag  Ag33  1  0.66834443  0.66954736  0.00432358  1
  Ag  Ag34  1  0.33955274  0.83375303  0.50185341  1
  Ag  Ag35  1  0.50974412  0.66457177  0.49056585  1
  Ag  Ag36  1  0.50541452  0.82471347  0.33255439  1
  Ag  Ag37  1  0.00290001  0.16211053  0.83433869  1
  Ag  Ag38  1  0.66438873  0.34267762  0.33516864  1
  Ag  Ag39  1  0.16649408  0.16317824  0.67430106  1
  Ag  Ag40  1  0.66662635  0.50644477  0.17486971  1
  Ag  Ag41  1  -0.00167217  0.83107893  0.50055594  1
  Ag  Ag42  1  0.82957397  -0.01073971  0.50259682  1
  Ag  Ag43  1  0.32688282  0.16519093  0.83381074  1
  Ag  Ag44  1  0.50071993  0.82745320  0.00529560  1
  Ag  Ag45  1  -0.00103899  0.83225589  0.84008593  1
  Ag  Ag46  1  0.17173584  0.15806509  -0.00868573  1
  Ag  Ag47  1  0.50983453  0.50101403  0.66078340  1
  Ag  Ag48  1  0.51347108  0.66635476  0.17060764  1
  Ag  Ag49  1  0.66511497  -0.00657671  0.66484445  1
  Ag  Ag50  1  0.50704981  0.16898858  0.33315001  1
  Ag  Ag51  1  0.16471673  0.83038035  0.33060957  1
  Ag  Ag52  1  0.66587884  0.82174490  0.50044501  1
  Ag  Ag53  1  0.50435786  0.34239450  0.49841877  1
  Sb  Sb54  1  0.16653217  0.16303152  0.33278068  1
  Sb  Sb55  1  0.00427744  0.33605196  -0.00138004  1
  Sb  Sb56  1  0.16296898  0.32789483  0.83660444  1
  Sb  Sb57  1  -0.00699624  0.33958013  0.33014348  1
  Sb  Sb58  1  0.83647191  0.00013792  0.82814181  1
  Sb  Sb59  1  0.50118720  0.82888537  0.66546903  1
  Sb  Sb60  1  0.50423125  0.33296450  0.83147812  1
  Sb  Sb61  1  -0.00001102  0.16644822  0.16060346  1
  Sb  Sb62  1  0.33255678  0.83197427  0.16777753  1
  Sb  Sb63  1  0.16614315  0.67015577  0.49802775  1
  Sb  Sb64  1  0.83252224  0.00281987  0.17123668  1
  Sb  Sb65  1  0.50953308  0.66736514  0.83566083  1
  Sb  Sb66  1  0.33519158  0.66981078  0.00015879  1
  Sb  Sb67  1  0.66583840  -0.00598143  -0.00686508  1
  Sb  Sb68  1  0.83247966  0.16775941  -0.00587394  1
  Sb  Sb69  1  -0.00733728  0.50773703  0.50020673  1
  Sb  Sb70  1  0.83013930  0.50195896  -0.00326440  1
  Sb  Sb71  1  0.34001784  0.66838734  0.33342195  1
  Sb  Sb72  1  0.34099863  0.33162338  0.33343617  1
  Sb  Sb73  1  0.16933482  0.50169403  -0.00203091  1
  Sb  Sb74  1  0.66611417  0.16813443  0.16765510  1
  Sb  Sb75  1  -0.00079882  -0.00209564  0.67242027  1
  Sb  Sb76  1  0.17489686  0.33382389  0.49980947  1
  Sb  Sb77  1  0.16553690  -0.00504456  0.15757366  1
  Sb  Sb78  1  0.33169615  0.83914057  0.83134944  1
  Sb  Sb79  1  0.67112266  0.50263055  0.83132244  1
  Sb  Sb80  1  0.33478426  -0.00340438  0.33645699  1
  Sb  Sb81  1  0.15852119  0.67188289  0.83663873  1
  Sb  Sb82  1  0.50216266  0.17096737  0.66783718  1
  Sb  Sb83  1  0.50616065  -0.00412404  0.50085899  1
  Sb  Sb84  1  -0.00874325  0.15935895  0.50574465  1
  Sb  Sb85  1  0.33376721  0.16839646  0.15695298  1
  Sb  Sb86  1  0.33745033  0.66755766  0.66613523  1
  Sb  Sb87  1  0.83158583  0.66295777  0.16812565  1
  Sb  Sb88  1  0.33644963  0.50067030  0.16486656  1
  Sb  Sb89  1  0.50164596  -0.00646967  0.16535649  1
  Sb  Sb90  1  0.50157976  0.33964589  0.16890935  1
  Sb  Sb91  1  -0.00585068  0.66848680  0.66842929  1
  Sb  Sb92  1  0.34252210  0.50414190  0.50324015  1
  Sb  Sb93  1  0.32915488  0.49324893  0.83131882  1
  Sb  Sb94  1  0.83377315  0.83242069  0.66547523  1
  Sb  Sb95  1  0.00221086  0.33350118  0.66728034  1
  Sb  Sb96  1  0.82651102  0.33623435  0.50209839  1
  Sb  Sb97  1  0.16304664  -0.00401290  0.50816441  1
  Sb  Sb98  1  -0.00052672  -0.00827089  0.33002457  1
  Sb  Sb99  1  0.16881612  0.50681343  0.33477593  1
  Sb  Sb100  1  0.49696371  0.00117352  0.83348189  1
  Sb  Sb101  1  0.83132132  0.83174686  0.33588872  1
  Sb  Sb102  1  0.66754311  -0.00376175  0.34019600  1
  Sb  Sb103  1  0.83557414  0.83169746  -0.00075174  1
  Sb  Sb104  1  0.82546347  0.49892705  0.33534240  1
  Sb  Sb105  1  0.34009106  0.16186697  0.50760924  1
  Sb  Sb106  1  0.66451808  0.33608896  0.66233550  1
  Sb  Sb107  1  0.66236930  0.33645349  0.00263708  1
  Te  Te108  1  0.16589589  0.17059319  0.16533161  1
  Te  Te109  1  0.16578288  0.16557692  0.50339131  1
  Te  Te110  1  0.16390410  0.16672922  0.83287589  1
  Te  Te111  1  0.16356038  0.50333895  0.16725149  1
  Te  Te112  1  0.16671917  0.50079455  0.50616086  1
  Te  Te113  1  0.15986244  0.49962229  0.82906008  1
  Te  Te114  1  0.16490805  0.82996950  0.16558768  1
  Te  Te115  1  0.16221282  0.83347851  0.50078622  1
  Te  Te116  1  0.16505077  0.83671886  0.83401022  1
  Te  Te117  1  0.50049155  0.16737310  0.16706036  1
  Te  Te118  1  0.50469385  0.16558867  0.49768449  1
  Te  Te119  1  0.50655619  0.16730685  0.83748920  1
  Te  Te120  1  0.50368308  0.50458443  0.16483568  1
  Te  Te121  1  0.50359040  0.50245846  0.49996999  1
  Te  Te122  1  0.49878432  0.49950681  0.83469695  1
  Te  Te123  1  0.50082712  0.82783250  0.16754020  1
  Te  Te124  1  0.50477702  0.83040925  0.49870816  1
  Te  Te125  1  0.50371494  0.83392348  0.83852849  1
  Te  Te126  1  0.83399492  0.17291436  0.16853713  1
  Te  Te127  1  0.82949726  0.17001769  0.50412620  1
  Te  Te128  1  0.83219828  0.16693518  0.82967512  1
  Te  Te129  1  0.83250692  0.49588143  0.16700267  1
  Te  Te130  1  0.82710644  0.50381849  0.50641427  1
  Te  Te131  1  0.83656009  0.49904398  0.83049023  1
  Te  Te132  1  0.83326622  0.83445103  0.16818669  1
  Te  Te133  1  0.82952097  0.83119620  0.50016333  1
  Te  Te134  1  0.83334879  0.83144895  0.83225084  1
  Te  Te135  1  0.16656452  -0.00066640  -0.00324456  1
  Te  Te136  1  0.16731016  -0.00711952  0.33236647  1
  Te  Te137  1  0.16718132  0.00036794  0.67199715  1
  Te  Te138  1  0.17207347  0.33355630  0.00398115  1
  Te  Te139  1  0.16816904  0.33344983  0.32755886  1
  Te  Te140  1  0.17196822  0.33085594  0.66583112  1
  Te  Te141  1  0.16470870  0.66963953  0.00384368  1
  Te  Te142  1  0.16615252  0.67135609  0.32937671  1
  Te  Te143  1  0.16828388  0.66805293  0.66747727  1
  Te  Te144  1  0.49681898  0.00123833  0.00028599  1
  Te  Te145  1  0.49975920  0.00367016  0.33279099  1
  Te  Te146  1  0.50083024  -0.00021153  0.66662072  1
  Te  Te147  1  0.49546435  0.32965649  0.00100173  1
  Te  Te148  1  0.50443129  0.33047458  0.33563912  1
  Te  Te149  1  0.49642175  0.33888494  0.66364598  1
  Te  Te150  1  0.50128701  0.66822279  0.00258833  1
  Te  Te151  1  0.50319368  0.66762409  0.33102617  1
  Te  Te152  1  0.50539091  0.66125833  0.66631825  1
  Te  Te153  1  0.83997532  0.00185104  0.00116380  1
  Te  Te154  1  0.83450142  0.01059415  0.33960660  1
  Te  Te155  1  0.82998494  0.00534764  0.66234859  1
  Te  Te156  1  0.83192938  0.33415926  0.00053974  1
  Te  Te157  1  0.82708767  0.33027942  0.33163318  1
  Te  Te158  1  0.83424233  0.33332083  0.66963611  1
  Te  Te159  1  0.83293955  0.66604215  -0.00635482  1
  Te  Te160  1  0.83031389  0.66540288  0.33946143  1
  Te  Te161  1  0.82859690  0.66560981  0.66650835  1
  Te  Te162  1  0.00382360  0.16878175  -0.00566338  1
  Te  Te163  1  -0.00121754  0.16684708  0.33330918  1
  Te  Te164  1  0.00244024  0.16604938  0.67227782  1
  Te  Te165  1  0.00110916  0.50477543  0.00007951  1
  Te  Te166  1  0.00001620  0.50765309  0.32976502  1
  Te  Te167  1  -0.00073065  0.50101468  0.66854824  1
  Te  Te168  1  0.00027629  0.82951042  -0.00066148  1
  Te  Te169  1  -0.00049936  0.82875409  0.33336904  1
  Te  Te170  1  0.00530427  0.83343903  0.66643909  1
  Te  Te171  1  0.33270290  0.16456746  -0.00492244  1
  Te  Te172  1  0.33699912  0.16462758  0.33503391  1
  Te  Te173  1  0.33360592  0.16554421  0.67142788  1
  Te  Te174  1  0.34026873  0.49675001  -0.00166451  1
  Te  Te175  1  0.34239076  0.49888469  0.33441813  1
  Te  Te176  1  0.32852311  0.49581133  0.66667618  1
  Te  Te177  1  0.33415741  0.83744053  -0.00093504  1
  Te  Te178  1  0.33455447  0.83424824  0.33989388  1
  Te  Te179  1  0.33029992  0.83613898  0.66452496  1
  Te  Te180  1  0.66251940  0.16403913  -0.00124690  1
  Te  Te181  1  0.66641874  0.16257687  0.33152447  1
  Te  Te182  1  0.66720253  0.16952484  0.66739574  1
  Te  Te183  1  0.66126214  0.50313639  0.00088072  1
  Te  Te184  1  0.66460460  0.50153350  0.33396809  1
  Te  Te185  1  0.66801773  0.50213490  0.66609508  1
  Te  Te186  1  0.66401091  0.83165241  -0.00187025  1
  Te  Te187  1  0.66529653  0.83091103  0.33536929  1
  Te  Te188  1  0.66636416  0.83189276  0.66707833  1
  Te  Te189  1  -0.00133487  -0.00576000  0.15953155  1
  Te  Te190  1  -0.00689959  -0.00798287  0.49868662  1
  Te  Te191  1  0.00241523  -0.00245243  0.83699916  1
  Te  Te192  1  -0.00049418  0.33733511  0.16584110  1
  Te  Te193  1  0.00295205  0.33429038  0.49743947  1
  Te  Te194  1  -0.00592203  0.33566898  0.83353475  1
  Te  Te195  1  -0.00471128  0.66732160  0.16637509  1
  Te  Te196  1  -0.00168248  0.67194892  0.49768642  1
  Te  Te197  1  -0.00535424  0.66831658  0.83466907  1
  Te  Te198  1  0.33355994  0.00062414  0.15976010  1
  Te  Te199  1  0.33257189  -0.00601599  0.50688263  1
  Te  Te200  1  0.32981835  0.00449366  0.83164933  1
  Te  Te201  1  0.32798639  0.33464713  0.16324733  1
  Te  Te202  1  0.34193347  0.33193590  0.50411142  1
  Te  Te203  1  0.33269857  0.32676176  0.83312200  1
  Te  Te204  1  0.32805033  0.66646992  0.16608078  1
  Te  Te205  1  0.33808099  0.67466919  0.50057350  1
  Te  Te206  1  0.33300633  0.66547045  0.83336779  1
  Te  Te207  1  0.66847859  -0.01128226  0.16475065  1
  Te  Te208  1  0.67058283  0.00739311  0.50578125  1
  Te  Te209  1  0.66820813  -0.00136449  0.82648496  1
  Te  Te210  1  0.66955248  0.33641063  0.17111756  1
  Te  Te211  1  0.66284988  0.32687666  0.49600859  1
  Te  Te212  1  0.67221424  0.32965455  0.83421082  1
  Te  Te213  1  0.67018727  0.66693184  0.16503651  1
  Te  Te214  1  0.66537076  0.66588474  0.49782445  1
  Te  Te215  1  0.67259383  0.66920930  0.84113502  1
