# generated using pymatgen
data_AgSbTe2
_symmetry_space_group_name_H-M   'P 1'
_cell_length_a   18.34864149
_cell_length_b   18.34324198
_cell_length_c   18.35353878
_cell_angle_alpha   89.99828518
_cell_angle_beta   90.00192214
_cell_angle_gamma   89.99915163
_symmetry_Int_Tables_number   1
_chemical_formula_structural   AgSbTe2
_chemical_formula_sum   'Ag54 Sb54 Te108'
_cell_volume   6177.31608056
_cell_formula_units_Z   54
loop_
 _symmetry_equiv_pos_site_id
 _symmetry_equiv_pos_as_xyz
  1  'x, y, z'
loop_
 _atom_site_type_symbol
 _atom_site_label
 _atom_site_symmetry_multiplicity
 _atom_site_fract_x
 _atom_site_fract_y
 _atom_site_fract_z
 _atom_site_occupancy
  Ag  Ag0  1  0.15474289  0.00253530  0.83654258  1
  Ag  Ag1  1  -0.00573388  0.33278296  -0.00352092  1
  Ag  Ag2  1  0.50797104  0.33478009  0.83971586  1
  Ag  Ag3  1  0.67560998  0.50449767  0.83602323  1
  Ag  Ag4  1  0.83316269  -0.00053380  0.83426546  1
  Ag  Ag5  1  0.15726515  0.49448136  -0.00690255  1
  Ag  Ag6  1  0.67111863  0.83126126  0.15846557  1
  Ag  Ag7  1  0.33290536  0.67054484  0.66901815  1
  Ag  Ag8  1  -0.00639935  0.83197938  0.51598114  1
  Ag  Ag9  1  0.16674400  0.33058046  0.15781882  1
  Ag  Ag10  1  0.50679726  0.00326160  0.51227096  1
  Ag  Ag11  1  0.67176672  -0.00255065  -0.00426856  1
  Ag  Ag12  1  -0.00231653  -0.00711595  0.67931212  1
  Ag  Ag13  1  0.33517033  0.32533149  0.32706376  1
  Ag  Ag14  1  0.67460858  0.83634507  0.83638041  1
  Ag  Ag15  1  -0.01240546  0.50570587  0.83431124  1
  Ag  Ag16  1  0.67802275  0.66372251  0.67297291  1
  Ag  Ag17  1  0.83175889  0.50672834  0.33265682  1
  Ag  Ag18  1  -0.00583105  -0.00057174  -0.00454954  1
  Ag  Ag19  1  0.66540077  0.16092411  0.51192459  1
  Ag  Ag20  1  -0.00593438  0.67475908  0.66929321  1
  Ag  Ag21  1  0.51055095  0.66597797  0.83410377  1
  Ag  Ag22  1  0.82932316  -0.00840704  0.50936322  1
  Ag  Ag23  1  0.83254394  0.34446167  0.83787571  1
  Ag  Ag24  1  0.82898758  0.65894779  0.83020742  1
  Ag  Ag25  1  0.50856323  0.00148743  0.83586810  1
  Ag  Ag26  1  0.83188255  0.16485402  -0.00557711  1
  Ag  Ag27  1  0.33788370  0.00323305  0.32218095  1
  Ag  Ag28  1  -0.00749058  0.83567810  0.83267295  1
  Ag  Ag29  1  0.15792328  0.33600563  0.83883097  1
  Ag  Ag30  1  0.49934277  0.16336643  0.32735786  1
  Ag  Ag31  1  0.33833931  0.16422586  0.16650404  1
  Ag  Ag32  1  0.15914949  0.83225932  0.67005451  1
  Ag  Ag33  1  -0.00890814  0.83433879  0.16134618  1
  Ag  Ag34  1  0.83338284  0.83949115  -0.00427188  1
  Ag  Ag35  1  0.83569692  0.82986759  0.32807542  1
  Ag  Ag36  1  0.50838343  0.16228852  0.67001801  1
  Ag  Ag37  1  0.83140135  0.33750599  0.15493732  1
  Ag  Ag38  1  -0.00747561  0.66988242  0.33673446  1
  Ag  Ag39  1  0.66852753  0.50338149  0.15563508  1
  Ag  Ag40  1  0.33959533  0.00134379  -0.00281829  1
  Ag  Ag41  1  0.50287884  0.66754527  0.16086727  1
  Ag  Ag42  1  0.66951781  0.16031474  0.83112095  1
  Ag  Ag43  1  0.83430823  0.67319961  0.51483550  1
  Ag  Ag44  1  0.50937007  0.49775334  -0.00163330  1
  Ag  Ag45  1  0.33196657  -0.00039107  0.67259572  1
  Ag  Ag46  1  0.50043517  0.33121810  0.15877826  1
  Ag  Ag47  1  0.82787742  0.16506503  0.67847541  1
  Ag  Ag48  1  0.17465422  0.00290566  0.15505373  1
  Ag  Ag49  1  0.67168731  0.49918819  0.51147370  1
  Ag  Ag50  1  0.83443429  0.50985776  0.67836905  1
  Ag  Ag51  1  0.83102432  0.49756861  -0.00811875  1
  Ag  Ag52  1  0.15731727  0.50573174  0.67591074  1
  Ag  Ag53  1  0.49648962  0.00378382  0.16021647  1
  Sb  Sb54  1  0.82711059  0.66564561  0.16148375  1
  Sb  Sb55  1  0.33196471  0.66931799  0.33570225  1
  Sb  Sb56  1  0.50922740  0.67221197  0.50584953  1
  Sb  Sb57  1  0.66364748  0.16633640  0.16154921  1
  Sb  Sb58  1  0.67603570  0.83527943  0.50506460  1
  Sb  Sb59  1  0.50296110  0.32743652  0.50018231  1
  Sb  Sb60  1  0.50720122  0.83552291  -0.00155469  1
  Sb  Sb61  1  0.17400602  0.16543901  0.33021119  1
  Sb  Sb62  1  0.00170606  0.16272003  0.16523185  1
  Sb  Sb63  1  -0.00899881  0.50597439  0.50881680  1
  Sb  Sb64  1  0.67075203  -0.00267626  0.67471121  1
  Sb  Sb65  1  0.66370746  -0.00065446  0.32945525  1
  Sb  Sb66  1  0.16021556  0.49844295  0.33024170  1
  Sb  Sb67  1  0.32936038  0.83568509  0.50257256  1
  Sb  Sb68  1  0.16203709  0.16747248  -0.00209705  1
  Sb  Sb69  1  -0.00309959  0.66774625  -0.00490598  1
  Sb  Sb70  1  0.66813642  0.33394512  0.67235209  1
  Sb  Sb71  1  0.49791029  0.83859037  0.66959589  1
  Sb  Sb72  1  0.16586379  0.33575226  0.50329368  1
  Sb  Sb73  1  0.83228954  0.33528484  0.50401392  1
  Sb  Sb74  1  0.16792146  0.66762250  0.16384225  1
  Sb  Sb75  1  0.83775319  0.83265818  0.67624241  1
  Sb  Sb76  1  0.00048287  0.33922190  0.32392773  1
  Sb  Sb77  1  0.67405197  0.33340469  -0.00213415  1
  Sb  Sb78  1  0.83152448  -0.00049705  0.16113301  1
  Sb  Sb79  1  -0.01152402  0.16350455  0.83505560  1
  Sb  Sb80  1  0.50700489  0.83955759  0.33009040  1
  Sb  Sb81  1  0.34154864  0.50026852  0.50252243  1
  Sb  Sb82  1  0.33390091  0.33020612  0.66728837  1
  Sb  Sb83  1  0.33071830  0.32841539  0.00246794  1
  Sb  Sb84  1  0.16492975  -0.00017014  0.50478019  1
  Sb  Sb85  1  0.50590184  0.49842468  0.67476900  1
  Sb  Sb86  1  0.33237622  0.83661558  0.83242793  1
  Sb  Sb87  1  0.50606616  0.16827592  -0.00222270  1
  Sb  Sb88  1  0.16253376  0.66635211  0.83092570  1
  Sb  Sb89  1  0.16478605  0.16362900  0.67122063  1
  Sb  Sb90  1  -0.00187654  0.33491175  0.67563122  1
  Sb  Sb91  1  0.66476977  0.33398982  0.32971273  1
  Sb  Sb92  1  0.33451386  0.50005410  0.83386773  1
  Sb  Sb93  1  0.33668162  0.67034075  -0.00507527  1
  Sb  Sb94  1  -0.00703821  0.50469811  0.15842598  1
  Sb  Sb95  1  0.33826835  0.49351427  0.16576662  1
  Sb  Sb96  1  0.67264034  0.66620785  0.33557324  1
  Sb  Sb97  1  0.15781009  0.66756916  0.50587862  1
  Sb  Sb98  1  0.50703297  0.49486239  0.32648228  1
  Sb  Sb99  1  0.66814328  0.66850376  -0.00769463  1
  Sb  Sb100  1  0.34063429  0.16293725  0.83758000  1
  Sb  Sb101  1  0.15853136  0.83576591  -0.00494450  1
  Sb  Sb102  1  0.82650570  0.16606419  0.33156966  1
  Sb  Sb103  1  0.15901652  0.83571605  0.33444974  1
  Sb  Sb104  1  -0.01184533  0.15727979  0.50334201  1
  Sb  Sb105  1  0.33594695  0.84107774  0.16631361  1
  Sb  Sb106  1  0.34157205  0.16250276  0.49659093  1
  Sb  Sb107  1  0.00127929  -0.00619997  0.33062484  1
  Te  Te108  1  0.17100908  0.16648332  0.16527989  1
  Te  Te109  1  0.16516960  0.16796784  0.50037059  1
  Te  Te110  1  0.16953249  0.16567831  0.83293681  1
  Te  Te111  1  0.16572435  0.49591014  0.16204261  1
  Te  Te112  1  0.16746781  0.49980748  0.50502769  1
  Te  Te113  1  0.16894316  0.49931286  0.83383571  1
  Te  Te114  1  0.16419591  0.83734721  0.16557816  1
  Te  Te115  1  0.15708790  0.83421411  0.50551065  1
  Te  Te116  1  0.16305021  0.83687070  0.83014171  1
  Te  Te117  1  0.49969211  0.16716404  0.16521518  1
  Te  Te118  1  0.50641539  0.16222831  0.50529072  1
  Te  Te119  1  0.50547817  0.16543614  0.83201815  1
  Te  Te120  1  0.50509847  0.49657885  0.16268544  1
  Te  Te121  1  0.50975384  0.50140676  0.49981943  1
  Te  Te122  1  0.50162364  0.49820618  0.83733725  1
  Te  Te123  1  0.50526054  0.83435300  0.16538793  1
  Te  Te124  1  0.50199522  0.84185430  0.49842310  1
  Te  Te125  1  0.50403061  0.83346941  0.83449150  1
  Te  Te126  1  0.83241788  0.17480639  0.16453766  1
  Te  Te127  1  0.82430711  0.16497231  0.49960301  1
  Te  Te128  1  0.82896182  0.15804873  0.83499342  1
  Te  Te129  1  0.82980611  0.49863697  0.16672803  1
  Te  Te130  1  0.82896602  0.50165081  0.49665433  1
  Te  Te131  1  0.83261519  0.49959804  0.83216552  1
  Te  Te132  1  0.83110419  0.83285082  0.16276147  1
  Te  Te133  1  0.83451361  0.83250230  0.49561131  1
  Te  Te134  1  0.83363118  0.83965607  0.83608141  1
  Te  Te135  1  0.16071509  0.00024090  -0.00297285  1
  Te  Te136  1  0.17366962  0.00022249  0.33094903  1
  Te  Te137  1  0.16557911  -0.00142031  0.67031083  1
  Te  Te138  1  0.16489302  0.33388683  -0.00169051  1
  Te  Te139  1  0.17121508  0.33322920  0.32692162  1
  Te  Te140  1  0.16672424  0.33791956  0.67246958  1
  Te  Te141  1  0.16863138  0.65710678  -0.00065202  1
  Te  Te142  1  0.16166938  0.66647086  0.33412813  1
  Te  Te143  1  0.16918473  0.66579929  0.66756474  1
  Te  Te144  1  0.50001004  0.00060453  -0.00200211  1
  Te  Te145  1  0.49728997  0.00296503  0.32543494  1
  Te  Te146  1  0.50087054  0.00211754  0.67050538  1
  Te  Te147  1  0.49773579  0.33487788  -0.00047270  1
  Te  Te148  1  0.49550090  0.32825689  0.33175576  1
  Te  Te149  1  0.49839430  0.32714640  0.67089367  1
  Te  Te150  1  0.49869873  0.66270351  -0.00067700  1
  Te  Te151  1  0.49829237  0.66686932  0.33228625  1
  Te  Te152  1  0.49457358  0.66635866  0.67084257  1
  Te  Te153  1  0.83312178  -0.00089169  0.00058417  1
  Te  Te154  1  0.83329795  -0.00276532  0.33494476  1
  Te  Te155  1  0.83459692  0.00101499  0.66659006  1
  Te  Te156  1  0.83476666  0.33620474  -0.00249504  1
  Te  Te157  1  0.83435254  0.33620480  0.33044310  1
  Te  Te158  1  0.83467897  0.32728585  0.67207324  1
  Te  Te159  1  0.83415974  0.66171552  -0.00726102  1
  Te  Te160  1  0.83578978  0.66784743  0.32742870  1
  Te  Te161  1  0.83553176  0.66744770  0.67011590  1
  Te  Te162  1  -0.00728855  0.16628267  0.00135283  1
  Te  Te163  1  -0.00081585  0.16790498  0.33437151  1
  Te  Te164  1  -0.00541088  0.15937598  0.66599699  1
  Te  Te165  1  -0.00229882  0.49983419  -0.00467622  1
  Te  Te166  1  -0.00575972  0.50668452  0.33555786  1
  Te  Te167  1  -0.00246259  0.50115246  0.67225014  1
  Te  Te168  1  -0.00464682  0.83458081  -0.00252235  1
  Te  Te169  1  -0.00475987  0.82960611  0.32562469  1
  Te  Te170  1  0.00107208  0.83375126  0.67164824  1
  Te  Te171  1  0.33299851  0.15968621  0.00570252  1
  Te  Te172  1  0.33952465  0.16346442  0.33018017  1
  Te  Te173  1  0.33460168  0.16158354  0.66518960  1
  Te  Te174  1  0.33453475  0.50094327  0.00121985  1
  Te  Te175  1  0.33223572  0.49891761  0.33489804  1
  Te  Te176  1  0.33087353  0.50035350  0.66541265  1
  Te  Te177  1  0.33041555  0.84165601  0.00022206  1
  Te  Te178  1  0.33202238  0.83944226  0.33482521  1
  Te  Te179  1  0.32603333  0.83542958  0.66614628  1
  Te  Te180  1  0.67218920  0.15941956  -0.00473094  1
  Te  Te181  1  0.65890840  0.16693541  0.33553228  1
  Te  Te182  1  0.66794077  0.16578352  0.66965465  1
  Te  Te183  1  0.66821599  0.50025054  -0.00224662  1
  Te  Te184  1  0.67274908  0.50029914  0.32977482  1
  Te  Te185  1  0.67049269  0.50169651  0.67153849  1
  Te  Te186  1  0.67117857  0.83578874  -0.00169691  1
  Te  Te187  1  0.67461184  0.83218169  0.32786092  1
  Te  Te188  1  0.66327424  0.82467902  0.67159033  1
  Te  Te189  1  0.00245117  -0.00412138  0.16286555  1
  Te  Te190  1  -0.00406074  -0.00767277  0.49846469  1
  Te  Te191  1  -0.00150721  0.00062936  0.83519631  1
  Te  Te192  1  0.00112661  0.33377051  0.15925479  1
  Te  Te193  1  0.00029649  0.33202829  0.49751827  1
  Te  Te194  1  -0.00093413  0.33551257  0.83748623  1
  Te  Te195  1  0.00173762  0.67262159  0.16899310  1
  Te  Te196  1  -0.00731499  0.67132189  0.50244000  1
  Te  Te197  1  -0.00212308  0.66741854  0.82982885  1
  Te  Te198  1  0.33381119  0.00240310  0.16315327  1
  Te  Te199  1  0.33732363  -0.00069668  0.50794277  1
  Te  Te200  1  0.33746728  -0.00003693  0.83303143  1
  Te  Te201  1  0.33482209  0.32849991  0.16793558  1
  Te  Te202  1  0.33403738  0.33233632  0.49082298  1
  Te  Te203  1  0.33524608  0.33124291  0.83402949  1
  Te  Te204  1  0.34058091  0.66773565  0.16804846  1
  Te  Te205  1  0.33530855  0.66760945  0.50537721  1
  Te  Te206  1  0.34054933  0.66889033  0.82867197  1
  Te  Te207  1  0.66348500  -0.00182032  0.16143475  1
  Te  Te208  1  0.66720680  0.00026826  0.49931136  1
  Te  Te209  1  0.66819887  -0.00194437  0.83487302  1
  Te  Te210  1  0.66486801  0.33626749  0.16508046  1
  Te  Te211  1  0.66713636  0.33781045  0.49898527  1
  Te  Te212  1  0.66767324  0.33493804  0.83386854  1
  Te  Te213  1  0.66158575  0.66568261  0.16828353  1
  Te  Te214  1  0.67272316  0.66396200  0.50600193  1
  Te  Te215  1  0.66749334  0.66509069  0.83185495  1
