# generated using pymatgen
data_AgSbTe2
_symmetry_space_group_name_H-M   'P 1'
_cell_length_a   18.32206312
_cell_length_b   18.32300183
_cell_length_c   18.32408833
_cell_angle_alpha   89.99934356
_cell_angle_beta   90.00095044
_cell_angle_gamma   90.00194470
_symmetry_Int_Tables_number   1
_chemical_formula_structural   AgSbTe2
_chemical_formula_sum   'Ag54 Sb54 Te108'
_cell_volume   6151.67490102
_cell_formula_units_Z   54
loop_
 _symmetry_equiv_pos_site_id
 _symmetry_equiv_pos_as_xyz
  1  'x, y, z'
loop_
 _atom_site_type_symbol
 _atom_site_label
 _atom_site_symmetry_multiplicity
 _atom_site_fract_x
 _atom_site_fract_y
 _atom_site_fract_z
 _atom_site_occupancy
  Ag  Ag0  1  0.00108706  0.66888989  0.66429084  1
  Ag  Ag1  1  0.50189356  0.50137954  0.66636097  1
  Ag  Ag2  1  0.67259998  0.83905600  0.49391689  1
  Ag  Ag3  1  0.66191135  0.32524501  -0.00491689  1
  Ag  Ag4  1  0.33488136  0.33226364  -0.00306376  1
  Ag  Ag5  1  0.00030812  0.84307809  0.50060899  1
  Ag  Ag6  1  0.49806639  0.33098575  0.83305322  1
  Ag  Ag7  1  0.32728029  0.00217691  0.66066666  1
  Ag  Ag8  1  0.49883200  0.16843089  0.33356729  1
  Ag  Ag9  1  0.66515356  0.33460372  0.66906058  1
  Ag  Ag10  1  0.33626643  0.16764150  0.83280695  1
  Ag  Ag11  1  0.16534310  0.83342758  0.66367117  1
  Ag  Ag12  1  0.16929315  0.66624986  0.82539708  1
  Ag  Ag13  1  0.67255259  0.00701401  0.01219395  1
  Ag  Ag14  1  0.00638060  0.16206669  0.49226842  1
  Ag  Ag15  1  0.66746794  0.16079998  0.17423912  1
  Ag  Ag16  1  0.66721191  0.67084097  0.33488281  1
  Ag  Ag17  1  0.00384071  0.49973415  0.83196636  1
  Ag  Ag18  1  -0.00069237  0.66120836  0.33624575  1
  Ag  Ag19  1  0.00155530  0.32529202  0.00031370  1
  Ag  Ag20  1  0.49372308  0.66111072  0.83335481  1
  Ag  Ag21  1  0.49676552  0.01231100  0.83257251  1
  Ag  Ag22  1  -0.00295888  0.00709588  -0.00071294  1
  Ag  Ag23  1  0.66772855  0.84223098  0.17515683  1
  Ag  Ag24  1  0.84053688  0.00347241  0.49445034  1
  Ag  Ag25  1  0.15952437  0.00438122  0.17604094  1
  Ag  Ag26  1  0.16675383  0.31978200  0.49842624  1
  Ag  Ag27  1  0.16546659  0.16432631  0.33576257  1
  Ag  Ag28  1  0.16359772  0.67057029  0.50187086  1
  Ag  Ag29  1  0.66919550  0.66318054  0.65980522  1
  Ag  Ag30  1  0.32669313  0.16485876  0.49219342  1
  Ag  Ag31  1  0.83187313  0.00202039  0.17374515  1
  Ag  Ag32  1  0.65941959  0.16711600  0.83467916  1
  Ag  Ag33  1  -0.00051157  0.16267818  0.17565608  1
  Ag  Ag34  1  0.66525216  0.00583487  0.33073907  1
  Ag  Ag35  1  0.83515330  0.16465829  0.33407467  1
  Ag  Ag36  1  0.16123844  0.00266766  0.49685730  1
  Ag  Ag37  1  0.00212251  0.16767290  0.83524986  1
  Ag  Ag38  1  0.66838121  0.16203727  0.48958145  1
  Ag  Ag39  1  0.83058551  0.66903044  0.17392212  1
  Ag  Ag40  1  0.33533549  0.66399670  0.33409285  1
  Ag  Ag41  1  -0.00058209  0.32481090  0.33206729  1
  Ag  Ag42  1  0.33258910  0.16626825  0.17749284  1
  Ag  Ag43  1  0.00009434  0.66723005  -0.00193987  1
  Ag  Ag44  1  0.83123313  0.50152917  0.33654342  1
  Ag  Ag45  1  0.33340098  0.83224268  0.83066581  1
  Ag  Ag46  1  0.49867405  0.49983108  0.33682040  1
  Ag  Ag47  1  0.00447606  -0.00158295  0.65723620  1
  Ag  Ag48  1  0.33443496  0.01160517  0.33754409  1
  Ag  Ag49  1  0.33487358  0.50014768  0.83018032  1
  Ag  Ag50  1  0.33254763  0.49629289  0.49788702  1
  Ag  Ag51  1  0.33603143  0.49702614  0.17734610  1
  Ag  Ag52  1  0.82967900  0.50251490  0.65992724  1
  Ag  Ag53  1  0.50413827  0.66336693  0.17340734  1
  Sb  Sb54  1  0.00555723  0.83354530  0.82756257  1
  Sb  Sb55  1  0.16653513  0.16188218  0.66003174  1
  Sb  Sb56  1  0.50359524  0.00030663  0.16555899  1
  Sb  Sb57  1  0.83245307  0.83671096  0.33420121  1
  Sb  Sb58  1  0.16604080  0.67169184  0.17049064  1
  Sb  Sb59  1  0.82970951  0.33214764  0.83275303  1
  Sb  Sb60  1  0.16841199  0.49708387  0.33582645  1
  Sb  Sb61  1  0.83572064  0.66382806  0.83290890  1
  Sb  Sb62  1  0.00342876  0.49780805  0.16538395  1
  Sb  Sb63  1  0.33004986  0.83657797  0.50216510  1
  Sb  Sb64  1  0.16979947  0.33460324  0.82933931  1
  Sb  Sb65  1  0.33716977  0.83574662  0.16557177  1
  Sb  Sb66  1  0.17007418  -0.00098333  0.82923882  1
  Sb  Sb67  1  0.83315257  0.16626100  0.00737680  1
  Sb  Sb68  1  0.50187701  0.16702031  0.00214749  1
  Sb  Sb69  1  0.50207530  0.83287754  0.33315433  1
  Sb  Sb70  1  0.50059645  0.83430496  0.00009429  1
  Sb  Sb71  1  -0.00394023  0.83825126  0.17302423  1
  Sb  Sb72  1  0.83333355  0.16816840  0.65976747  1
  Sb  Sb73  1  0.49900455  0.49919911  -0.00176767  1
  Sb  Sb74  1  0.32953866  0.66122030  0.00054099  1
  Sb  Sb75  1  0.16478583  0.16574474  0.00518184  1
  Sb  Sb76  1  0.49656079  0.82974139  0.66704637  1
  Sb  Sb77  1  0.16502447  0.83913411  0.33926672  1
  Sb  Sb78  1  0.49722068  0.66545141  0.49825752  1
  Sb  Sb79  1  0.66398223  0.49570668  0.83012211  1
  Sb  Sb80  1  0.50054754  0.16917162  0.66628041  1
  Sb  Sb81  1  0.33248044  0.00701985  0.00078716  1
  Sb  Sb82  1  0.66408816  0.49866282  0.50009449  1
  Sb  Sb83  1  0.16671688  0.49951349  -0.00102559  1
  Sb  Sb84  1  -0.00348356  0.33302579  0.66680894  1
  Sb  Sb85  1  0.33741297  0.33005322  0.66936582  1
  Sb  Sb86  1  0.66941674  0.66775576  0.00362350  1
  Sb  Sb87  1  0.16694994  0.32685927  0.17124395  1
  Sb  Sb88  1  -0.00173310  0.00491183  0.33570623  1
  Sb  Sb89  1  0.66355834  0.49780009  0.16928297  1
  Sb  Sb90  1  0.83345179  0.33051323  0.16822326  1
  Sb  Sb91  1  0.33024780  0.33087133  0.33227075  1
  Sb  Sb92  1  0.66695310  0.00029949  0.66219917  1
  Sb  Sb93  1  0.00418711  0.49878583  0.50254406  1
  Sb  Sb94  1  0.49847839  0.00223953  0.50153166  1
  Sb  Sb95  1  0.83221028  0.00337547  0.83239740  1
  Sb  Sb96  1  0.16568886  0.83481162  -0.00476438  1
  Sb  Sb97  1  0.49860997  0.33501074  0.16442572  1
  Sb  Sb98  1  0.83739692  0.82947839  0.66365495  1
  Sb  Sb99  1  0.83463003  0.83458348  0.00214786  1
  Sb  Sb100  1  0.65912089  0.83777036  0.83220635  1
  Sb  Sb101  1  0.83503341  0.49989531  0.00211015  1
  Sb  Sb102  1  0.16818148  0.50484881  0.66592017  1
  Sb  Sb103  1  0.83761908  0.67010654  0.49372977  1
  Sb  Sb104  1  0.66988989  0.32839662  0.33387216  1
  Sb  Sb105  1  0.49673192  0.33244218  0.50284815  1
  Sb  Sb106  1  0.83703874  0.32848964  0.49869677  1
  Sb  Sb107  1  0.33172495  0.66826315  0.66552835  1
  Te  Te108  1  0.16712997  0.16224511  0.17171751  1
  Te  Te109  1  0.16689511  0.16309665  0.49746848  1
  Te  Te110  1  0.16576567  0.16736180  0.83248051  1
  Te  Te111  1  0.17640978  0.50127914  0.16746272  1
  Te  Te112  1  0.17359146  0.50879884  0.50039536  1
  Te  Te113  1  0.16653993  0.50406994  0.83220652  1
  Te  Te114  1  0.16733533  0.84319664  0.16646861  1
  Te  Te115  1  0.16378517  0.83279529  0.50390314  1
  Te  Te116  1  0.17226396  0.82891654  0.82766235  1
  Te  Te117  1  0.49853332  0.16722595  0.17188642  1
  Te  Te118  1  0.49876691  0.16755448  0.49554682  1
  Te  Te119  1  0.49956146  0.16982176  0.83231706  1
  Te  Te120  1  0.49504751  0.50330996  0.17040377  1
  Te  Te121  1  0.49364404  0.49929721  0.49994763  1
  Te  Te122  1  0.49823553  0.50009628  0.83157847  1
  Te  Te123  1  0.50587265  0.82451522  0.16625756  1
  Te  Te124  1  0.51082710  0.83332624  0.50071578  1
  Te  Te125  1  0.49282924  0.82573530  0.83370115  1
  Te  Te126  1  0.83410082  0.16414084  0.17341045  1
  Te  Te127  1  0.83301268  0.16293653  0.49473899  1
  Te  Te128  1  0.83856631  0.16701172  0.83073973  1
  Te  Te129  1  0.83431068  0.50442452  0.17374527  1
  Te  Te130  1  0.83366124  0.49940046  0.49815509  1
  Te  Te131  1  0.83955571  0.49945581  0.82977453  1
  Te  Te132  1  0.82779486  0.83468061  0.16776639  1
  Te  Te133  1  0.83378985  0.84151324  0.50038721  1
  Te  Te134  1  0.83142034  0.83348977  0.83286066  1
  Te  Te135  1  0.16016987  -0.00023229  0.00456860  1
  Te  Te136  1  0.16955083  0.00339153  0.33518052  1
  Te  Te137  1  0.16547499  -0.00369041  0.66326677  1
  Te  Te138  1  0.16150554  0.33294466  -0.00042466  1
  Te  Te139  1  0.16067601  0.32853363  0.33796624  1
  Te  Te140  1  0.16573627  0.33494665  0.65764140  1
  Te  Te141  1  0.15997300  0.66745971  -0.00238761  1
  Te  Te142  1  0.16811508  0.66752287  0.33591826  1
  Te  Te143  1  0.16469160  0.67006758  0.66611467  1
  Te  Te144  1  0.50526722  0.00018340  -0.00733210  1
  Te  Te145  1  0.49991630  0.00384649  0.33301207  1
  Te  Te146  1  0.49636741  -0.00075697  0.67346035  1
  Te  Te147  1  0.50027470  0.33321460  -0.00557844  1
  Te  Te148  1  0.50132885  0.33591346  0.33309572  1
  Te  Te149  1  0.50494984  0.33865244  0.67169128  1
  Te  Te150  1  0.49951240  0.66624871  -0.00319243  1
  Te  Te151  1  0.49968419  0.66443318  0.33264877  1
  Te  Te152  1  0.50169936  0.66253248  0.66929750  1
  Te  Te153  1  0.83403082  0.00015329  0.00357088  1
  Te  Te154  1  0.82970947  0.00326817  0.33363020  1
  Te  Te155  1  0.83996280  -0.00071010  0.66243241  1
  Te  Te156  1  0.83962192  0.33431350  0.00045192  1
  Te  Te157  1  0.83870986  0.33730246  0.33334525  1
  Te  Te158  1  0.82614193  0.34138531  0.66545951  1
  Te  Te159  1  0.83901486  0.66605344  0.00715324  1
  Te  Te160  1  0.82954992  0.66414110  0.33208390  1
  Te  Te161  1  0.83278700  0.66213398  0.66509319  1
  Te  Te162  1  -0.00076122  0.16536907  -0.00233616  1
  Te  Te163  1  -0.00055714  0.16555619  0.33328934  1
  Te  Te164  1  -0.00061132  0.16403096  0.66943135  1
  Te  Te165  1  -0.00015961  0.50112642  -0.00433841  1
  Te  Te166  1  -0.00195522  0.50198571  0.33281358  1
  Te  Te167  1  -0.00233803  0.50187651  0.67056034  1
  Te  Te168  1  0.00003676  0.83221943  0.00044706  1
  Te  Te169  1  -0.00033446  0.82064089  0.34019741  1
  Te  Te170  1  0.00326696  0.83273185  0.66220845  1
  Te  Te171  1  0.33309944  0.17193866  -0.00427064  1
  Te  Te172  1  0.33454485  0.16887184  0.33380593  1
  Te  Te173  1  0.33389415  0.16196651  0.66921307  1
  Te  Te174  1  0.33287872  0.49336177  -0.00597287  1
  Te  Te175  1  0.33503765  0.49859709  0.33510149  1
  Te  Te176  1  0.33727828  0.49976528  0.66689751  1
  Te  Te177  1  0.33277611  0.83444505  -0.00789595  1
  Te  Te178  1  0.33390492  0.82900466  0.33275004  1
  Te  Te179  1  0.32967322  0.83939765  0.66974962  1
  Te  Te180  1  0.66764161  0.16619705  -0.00358289  1
  Te  Te181  1  0.66655764  0.16720595  0.33280815  1
  Te  Te182  1  0.66689490  0.16921216  0.67174315  1
  Te  Te183  1  0.66780667  0.49153529  -0.00033293  1
  Te  Te184  1  0.66474355  0.50171781  0.33376959  1
  Te  Te185  1  0.66535915  0.50259596  0.66559088  1
  Te  Te186  1  0.66769499  0.83957603  0.00342510  1
  Te  Te187  1  0.66645921  0.83106470  0.33397941  1
  Te  Te188  1  0.66696889  0.82775920  0.66328596  1
  Te  Te189  1  -0.00328642  0.00226604  0.16748056  1
  Te  Te190  1  0.00070183  0.00165023  0.49862713  1
  Te  Te191  1  0.00094816  0.00195812  0.83703086  1
  Te  Te192  1  0.00098143  0.32869615  0.16602843  1
  Te  Te193  1  0.00447737  0.32872863  0.49781365  1
  Te  Te194  1  0.00199940  0.33225734  0.83519818  1
  Te  Te195  1  -0.00172087  0.66713253  0.16825012  1
  Te  Te196  1  0.00190126  0.66409716  0.50221176  1
  Te  Te197  1  0.00119137  0.66681949  0.83044489  1
  Te  Te198  1  0.33546657  0.00431209  0.16982102  1
  Te  Te199  1  0.33157812  0.00169435  0.49871070  1
  Te  Te200  1  0.33507499  0.00596232  0.83511267  1
  Te  Te201  1  0.33236945  0.33076943  0.16065940  1
  Te  Te202  1  0.32906345  0.33051925  0.50103495  1
  Te  Te203  1  0.33498760  0.33241465  0.83508918  1
  Te  Te204  1  0.33442941  0.66659525  0.16906257  1
  Te  Te205  1  0.32971557  0.66863245  0.49641792  1
  Te  Te206  1  0.33186339  0.66197182  0.83359754  1
  Te  Te207  1  0.66616367  0.00146770  0.16902588  1
  Te  Te208  1  0.66512261  0.00235619  0.49728730  1
  Te  Te209  1  0.66372464  0.00458362  0.83153510  1
  Te  Te210  1  0.66657405  0.32528466  0.16100840  1
  Te  Te211  1  0.66650593  0.32652728  0.50437687  1
  Te  Te212  1  0.66357241  0.32952974  0.83382536  1
  Te  Te213  1  0.66676380  0.66511317  0.16682791  1
  Te  Te214  1  0.66797347  0.66649158  0.49868705  1
  Te  Te215  1  0.66478202  0.66778440  0.83344949  1
