# generated using pymatgen
data_AgSbTe2
_symmetry_space_group_name_H-M   'P 1'
_cell_length_a   18.31214003
_cell_length_b   18.31426668
_cell_length_c   18.30541628
_cell_angle_alpha   90.00055636
_cell_angle_beta   89.99907871
_cell_angle_gamma   90.00067479
_symmetry_Int_Tables_number   1
_chemical_formula_structural   AgSbTe2
_chemical_formula_sum   'Ag54 Sb54 Te108'
_cell_volume   6139.14998930
_cell_formula_units_Z   54
loop_
 _symmetry_equiv_pos_site_id
 _symmetry_equiv_pos_as_xyz
  1  'x, y, z'
loop_
 _atom_site_type_symbol
 _atom_site_label
 _atom_site_symmetry_multiplicity
 _atom_site_fract_x
 _atom_site_fract_y
 _atom_site_fract_z
 _atom_site_occupancy
  Ag  Ag0  1  0.49418526  0.16290380  0.66633832  1
  Ag  Ag1  1  0.49620692  0.83675136  0.33780308  1
  Ag  Ag2  1  0.16801885  0.83616705  -0.00042790  1
  Ag  Ag3  1  0.16550969  0.50053758  0.01106030  1
  Ag  Ag4  1  0.00251759  -0.00083241  0.00850379  1
  Ag  Ag5  1  0.00582364  0.00506498  0.33066161  1
  Ag  Ag6  1  0.16205213  0.33072967  0.16732805  1
  Ag  Ag7  1  0.16337401  0.16619899  0.32942402  1
  Ag  Ag8  1  0.00697277  0.66076086  0.33349052  1
  Ag  Ag9  1  0.17170869  0.16955233  0.66099716  1
  Ag  Ag10  1  0.00124141  0.49471418  0.17293553  1
  Ag  Ag11  1  0.33088488  -0.00354552  0.32911854  1
  Ag  Ag12  1  0.16533094  0.00611618  0.16694621  1
  Ag  Ag13  1  0.33014195  0.66924886  0.66399370  1
  Ag  Ag14  1  0.83229943  0.00622430  0.49828053  1
  Ag  Ag15  1  0.66180697  0.83131513  0.83449993  1
  Ag  Ag16  1  0.00231530  0.33289390  0.33098638  1
  Ag  Ag17  1  0.66502153  0.66179658  0.66956223  1
  Ag  Ag18  1  0.00346322  0.83500396  0.49963015  1
  Ag  Ag19  1  0.00697220  0.66393811  0.65939995  1
  Ag  Ag20  1  0.82909228  0.33312743  0.83529812  1
  Ag  Ag21  1  0.67635600  0.49604376  0.16260351  1
  Ag  Ag22  1  0.00034138  0.49909221  0.49143917  1
  Ag  Ag23  1  0.32580138  0.67471066  0.33515591  1
  Ag  Ag24  1  0.67515148  0.16393169  0.50057804  1
  Ag  Ag25  1  0.50040504  -0.00407751  0.83193215  1
  Ag  Ag26  1  0.66616779  0.00079135  0.00337602  1
  Ag  Ag27  1  0.49668269  0.83618218  0.66941031  1
  Ag  Ag28  1  0.33388971  0.16668341  0.83699587  1
  Ag  Ag29  1  0.50249415  -0.00124271  0.50181848  1
  Ag  Ag30  1  0.32514969  0.16727824  0.16298734  1
  Ag  Ag31  1  -0.00389820  0.16588052  0.49239992  1
  Ag  Ag32  1  0.33416474  0.32954867  0.66980624  1
  Ag  Ag33  1  0.83284441  0.16563220  0.00115626  1
  Ag  Ag34  1  0.16119577  0.49846238  0.32663705  1
  Ag  Ag35  1  0.17439271  0.82951144  0.66847248  1
  Ag  Ag36  1  0.16240805  0.66116399  0.16903749  1
  Ag  Ag37  1  0.66815677  0.33054245  -0.00057503  1
  Ag  Ag38  1  0.33275689  0.00402666  0.00606232  1
  Ag  Ag39  1  0.33102492  0.83542509  0.50105636  1
  Ag  Ag40  1  0.84244427  0.65763424  0.16591159  1
  Ag  Ag41  1  0.66742207  0.49913783  0.83438156  1
  Ag  Ag42  1  0.50191001  0.67673484  0.82995500  1
  Ag  Ag43  1  0.83814979  0.33646296  0.16563760  1
  Ag  Ag44  1  0.00605764  0.17170147  0.17460260  1
  Ag  Ag45  1  0.33527317  0.32432003  0.00176361  1
  Ag  Ag46  1  0.83314578  0.84144966  0.00038269  1
  Ag  Ag47  1  0.16220006  0.50227091  0.66577059  1
  Ag  Ag48  1  0.83694319  0.32704315  0.50005892  1
  Ag  Ag49  1  0.66706981  0.33745634  0.67348983  1
  Ag  Ag50  1  0.83672304  0.49817839  0.66669986  1
  Ag  Ag51  1  0.49709726  0.33238876  0.16493912  1
  Ag  Ag52  1  0.49925583  0.83826454  -0.00711027  1
  Ag  Ag53  1  0.66454239  0.00045402  0.33190389  1
  Sb  Sb54  1  -0.00169656  0.32839021  0.00892302  1
  Sb  Sb55  1  -0.00304803  0.49916670  0.83395470  1
  Sb  Sb56  1  0.50298636  0.33114557  0.83539073  1
  Sb  Sb57  1  0.16865840  0.83357311  0.33253709  1
  Sb  Sb58  1  0.33658771  0.49641707  0.83224318  1
  Sb  Sb59  1  0.32751970  0.33082356  0.33163236  1
  Sb  Sb60  1  0.50105455  0.50148321  0.66676122  1
  Sb  Sb61  1  0.00464655  0.16681980  0.83375289  1
  Sb  Sb62  1  0.67545175  0.49396613  0.50223030  1
  Sb  Sb63  1  0.49899906  0.67499825  0.50613604  1
  Sb  Sb64  1  0.49480396  0.16064009  0.33618698  1
  Sb  Sb65  1  0.00069250  0.67078882  0.00304039  1
  Sb  Sb66  1  0.17125761  0.66679375  0.83248226  1
  Sb  Sb67  1  0.16630232  0.16578499  0.00691441  1
  Sb  Sb68  1  0.32595767  0.50410753  0.50164434  1
  Sb  Sb69  1  0.16184637  0.33266613  0.49671193  1
  Sb  Sb70  1  0.32512671  0.49444976  0.16628773  1
  Sb  Sb71  1  0.33155028  0.66965184  0.00027061  1
  Sb  Sb72  1  0.83870370  0.00330482  0.16664527  1
  Sb  Sb73  1  0.00182001  -0.00247092  0.66102643  1
  Sb  Sb74  1  0.67217914  0.32887999  0.33072242  1
  Sb  Sb75  1  0.82867798  0.66299412  0.83571051  1
  Sb  Sb76  1  0.49599701  0.00400660  0.16639426  1
  Sb  Sb77  1  0.66225785  0.16732346  0.83122847  1
  Sb  Sb78  1  0.49311937  0.50428088  0.33063999  1
  Sb  Sb79  1  0.66683596  0.67032360  0.33581526  1
  Sb  Sb80  1  0.83696012  0.66652220  0.49855891  1
  Sb  Sb81  1  -0.00287835  0.83370469  0.83082743  1
  Sb  Sb82  1  0.34021227  0.83803104  0.83017036  1
  Sb  Sb83  1  0.16466348  0.33279847  0.83664651  1
  Sb  Sb84  1  0.66657324  0.66719327  -0.00411471  1
  Sb  Sb85  1  0.50489707  0.32631654  0.49920336  1
  Sb  Sb86  1  0.33177869  0.83823626  0.16979841  1
  Sb  Sb87  1  0.83153711  0.82898686  0.66939977  1
  Sb  Sb88  1  0.50001966  0.16202764  -0.00312897  1
  Sb  Sb89  1  0.66638008  0.83978133  0.50412406  1
  Sb  Sb90  1  0.16401983  0.66794162  0.49656757  1
  Sb  Sb91  1  0.16622308  -0.00091390  0.49399207  1
  Sb  Sb92  1  0.33075233  0.16214645  0.49985589  1
  Sb  Sb93  1  0.66849400  0.17015823  0.16882729  1
  Sb  Sb94  1  0.66361289  0.00197295  0.66667544  1
  Sb  Sb95  1  0.66692659  0.83178227  0.16127336  1
  Sb  Sb96  1  0.33421543  -0.00009580  0.66506510  1
  Sb  Sb97  1  0.84196790  0.16619497  0.33099960  1
  Sb  Sb98  1  0.84176413  0.49936475  0.33404585  1
  Sb  Sb99  1  0.82848388  0.00377552  0.83411910  1
  Sb  Sb100  1  0.83344731  0.17295017  0.66632646  1
  Sb  Sb101  1  0.49812933  0.50070937  0.00053204  1
  Sb  Sb102  1  0.83568692  0.49642948  0.00051325  1
  Sb  Sb103  1  0.83263380  0.83566934  0.33041907  1
  Sb  Sb104  1  0.00183508  0.83357127  0.17119456  1
  Sb  Sb105  1  0.17256122  0.00111895  0.83939498  1
  Sb  Sb106  1  0.00017347  0.33763882  0.65966968  1
  Sb  Sb107  1  0.49775585  0.66399430  0.16406652  1
  Te  Te108  1  0.16567901  0.16722750  0.16725302  1
  Te  Te109  1  0.16179925  0.16565596  0.50041553  1
  Te  Te110  1  0.17287956  0.16717365  0.82419703  1
  Te  Te111  1  0.16360306  0.49961953  0.16746370  1
  Te  Te112  1  0.15892886  0.49936246  0.50441993  1
  Te  Te113  1  0.16708031  0.49977034  0.82782309  1
  Te  Te114  1  0.16722990  0.83314696  0.16085513  1
  Te  Te115  1  0.16632761  0.83432001  0.50651399  1
  Te  Te116  1  0.16603574  0.83333449  0.83345238  1
  Te  Te117  1  0.49664825  0.17317466  0.16729867  1
  Te  Te118  1  0.50157303  0.16024365  0.50460725  1
  Te  Te119  1  0.49469493  0.16322050  0.82746144  1
  Te  Te120  1  0.50456955  0.49467264  0.16628522  1
  Te  Te121  1  0.50122766  0.49853195  0.49742694  1
  Te  Te122  1  0.50757990  0.50333810  0.83399649  1
  Te  Te123  1  0.49986981  0.83159283  0.16463229  1
  Te  Te124  1  0.49939919  0.83903441  0.50207852  1
  Te  Te125  1  0.50131456  0.83540043  0.83142059  1
  Te  Te126  1  0.83728584  0.17091932  0.16165558  1
  Te  Te127  1  0.83572677  0.16619152  0.50045952  1
  Te  Te128  1  0.83408825  0.17164669  0.83829497  1
  Te  Te129  1  0.83658576  0.49851235  0.16624188  1
  Te  Te130  1  0.84069479  0.49622933  0.50496587  1
  Te  Te131  1  0.82814774  0.49579526  0.83074394  1
  Te  Te132  1  0.83355804  0.83047190  0.16013273  1
  Te  Te133  1  0.83755688  0.83828314  0.49993385  1
  Te  Te134  1  0.82645370  0.83393930  0.83924566  1
  Te  Te135  1  0.16867073  -0.00114721  0.00456809  1
  Te  Te136  1  0.16696155  -0.00002029  0.32809694  1
  Te  Te137  1  0.16706858  -0.00262433  0.66936473  1
  Te  Te138  1  0.16980592  0.33537605  0.00356090  1
  Te  Te139  1  0.16309594  0.33356155  0.32991017  1
  Te  Te140  1  0.16909645  0.33350489  0.66795892  1
  Te  Te141  1  0.16730041  0.66697769  0.00329992  1
  Te  Te142  1  0.16668609  0.66757864  0.32987280  1
  Te  Te143  1  0.16824901  0.66794784  0.66716554  1
  Te  Te144  1  0.50111021  -0.00234925  0.00000874  1
  Te  Te145  1  0.49810743  -0.00374914  0.33380441  1
  Te  Te146  1  0.49932628  -0.00118136  0.66623939  1
  Te  Te147  1  0.49992082  0.33281532  0.00341378  1
  Te  Te148  1  0.49846698  0.33429663  0.32763739  1
  Te  Te149  1  0.49956745  0.33091832  0.66645060  1
  Te  Te150  1  0.49824232  0.67321358  -0.00477868  1
  Te  Te151  1  0.49588168  0.67343406  0.33350907  1
  Te  Te152  1  0.49888960  0.66826128  0.66982729  1
  Te  Te153  1  0.82896502  0.00104509  -0.00050413  1
  Te  Te154  1  0.83195870  0.00010912  0.33711941  1
  Te  Te155  1  0.83342495  -0.00028452  0.66117181  1
  Te  Te156  1  0.83143994  0.33170764  0.00276131  1
  Te  Te157  1  0.83918927  0.33302059  0.33239655  1
  Te  Te158  1  0.83193635  0.33699107  0.66484180  1
  Te  Te159  1  0.83401128  0.67087688  0.00575319  1
  Te  Te160  1  0.83571409  0.66758721  0.32647866  1
  Te  Te161  1  0.83122112  0.66124238  0.66678070  1
  Te  Te162  1  -0.00264303  0.16020937  0.00083583  1
  Te  Te163  1  0.00302811  0.16471927  0.33288190  1
  Te  Te164  1  0.00458299  0.16688965  0.66395559  1
  Te  Te165  1  0.00597554  0.50152990  0.00281464  1
  Te  Te166  1  0.00335551  0.50205708  0.33259306  1
  Te  Te167  1  0.00055734  0.50339074  0.66741079  1
  Te  Te168  1  0.00196637  0.83814374  -0.00095412  1
  Te  Te169  1  0.00062604  0.83494269  0.34025896  1
  Te  Te170  1  0.00016562  0.82891969  0.66260638  1
  Te  Te171  1  0.33310625  0.16612639  0.00110160  1
  Te  Te172  1  0.32642192  0.16273320  0.33090868  1
  Te  Te173  1  0.33283167  0.16693864  0.66534033  1
  Te  Te174  1  0.32737309  0.49596545  -0.00127537  1
  Te  Te175  1  0.32446766  0.50477557  0.33461678  1
  Te  Te176  1  0.32911973  0.50082684  0.66617373  1
  Te  Te177  1  0.33248319  0.83793142  -0.00083288  1
  Te  Te178  1  0.33464457  0.83453450  0.33624785  1
  Te  Te179  1  0.33442512  0.83271971  0.66441042  1
  Te  Te180  1  0.66873751  0.16841875  0.00059711  1
  Te  Te181  1  0.66394855  0.16076688  0.33803060  1
  Te  Te182  1  0.66553844  0.17092432  0.66329574  1
  Te  Te183  1  0.66673815  0.49603969  0.00040532  1
  Te  Te184  1  0.66475606  0.50014432  0.33035401  1
  Te  Te185  1  0.66809259  0.49743810  0.66692063  1
  Te  Te186  1  0.66402159  0.83448040  -0.00361922  1
  Te  Te187  1  0.66081280  0.83915239  0.33386242  1
  Te  Te188  1  0.66321676  0.83031694  0.67129526  1
  Te  Te189  1  0.00294239  0.00024190  0.16840083  1
  Te  Te190  1  -0.00039474  0.00160771  0.49606193  1
  Te  Te191  1  -0.00130928  0.00004868  0.84159440  1
  Te  Te192  1  0.00109253  0.33267824  0.16931822  1
  Te  Te193  1  -0.00336261  0.33185660  0.49408681  1
  Te  Te194  1  -0.00891389  0.33267661  0.83467131  1
  Te  Te195  1  0.00171313  0.66693980  0.16929747  1
  Te  Te196  1  -0.00179837  0.66654027  0.49874268  1
  Te  Te197  1  -0.00103071  0.66698114  0.82482035  1
  Te  Te198  1  0.33021252  0.00446318  0.16702792  1
  Te  Te199  1  0.33577284  -0.00451049  0.49462283  1
  Te  Te200  1  0.33919891  0.00489119  0.83931790  1
  Te  Te201  1  0.33046696  0.32928219  0.16574218  1
  Te  Te202  1  0.33496746  0.33441375  0.50651137  1
  Te  Te203  1  0.33380466  0.32882861  0.83277214  1
  Te  Te204  1  0.32923174  0.66515058  0.17008437  1
  Te  Te205  1  0.33375284  0.67170574  0.50041714  1
  Te  Te206  1  0.33957556  0.66547691  0.82868231  1
  Te  Te207  1  0.66803125  0.00102853  0.16547669  1
  Te  Te208  1  0.66658414  0.00372028  0.49864254  1
  Te  Te209  1  0.66165605  -0.00164300  0.83834995  1
  Te  Te210  1  0.67182096  0.33577027  0.16530436  1
  Te  Te211  1  0.67288802  0.32632812  0.50091360  1
  Te  Te212  1  0.66823811  0.33453632  0.83455885  1
  Te  Te213  1  0.66760474  0.65923626  0.16790422  1
  Te  Te214  1  0.66830017  0.66546505  0.50620714  1
  Te  Te215  1  0.66398468  0.66526401  0.82937750  1
