# generated using pymatgen
data_AgSbTe2
_symmetry_space_group_name_H-M   'P 1'
_cell_length_a   18.33220361
_cell_length_b   18.34017012
_cell_length_c   18.33712949
_cell_angle_alpha   90.00046679
_cell_angle_beta   90.00233365
_cell_angle_gamma   90.00184275
_symmetry_Int_Tables_number   1
_chemical_formula_structural   AgSbTe2
_chemical_formula_sum   'Ag54 Sb54 Te108'
_cell_volume   6165.23142372
_cell_formula_units_Z   54
loop_
 _symmetry_equiv_pos_site_id
 _symmetry_equiv_pos_as_xyz
  1  'x, y, z'
loop_
 _atom_site_type_symbol
 _atom_site_label
 _atom_site_symmetry_multiplicity
 _atom_site_fract_x
 _atom_site_fract_y
 _atom_site_fract_z
 _atom_site_occupancy
  Ag  Ag0  1  0.66973748  0.50071591  0.83323977  1
  Ag  Ag1  1  0.33049207  0.66966925  0.32420522  1
  Ag  Ag2  1  0.66353567  0.16452356  0.17024827  1
  Ag  Ag3  1  0.16335342  0.16361611  0.33090578  1
  Ag  Ag4  1  0.83823451  0.16139527  0.66363227  1
  Ag  Ag5  1  0.33146638  -0.00338376  0.32398227  1
  Ag  Ag6  1  0.49792272  0.15332727  0.00516211  1
  Ag  Ag7  1  0.33518751  0.83139899  0.16656776  1
  Ag  Ag8  1  0.33459190  0.50336137  0.50113737  1
  Ag  Ag9  1  -0.00123957  -0.00399475  0.33406331  1
  Ag  Ag10  1  0.83286444  0.83310632  0.66035423  1
  Ag  Ag11  1  -0.00322375  0.15798875  0.17367440  1
  Ag  Ag12  1  0.33231118  0.33347590  0.66633940  1
  Ag  Ag13  1  0.65468992  -0.00028537  0.00318537  1
  Ag  Ag14  1  0.49428753  0.66959933  0.16908556  1
  Ag  Ag15  1  0.16210959  0.83572866  0.66507244  1
  Ag  Ag16  1  0.34324888  -0.00398834  0.00966703  1
  Ag  Ag17  1  0.66900367  0.33263679  0.33253576  1
  Ag  Ag18  1  0.50030697  0.50402958  0.66701988  1
  Ag  Ag19  1  0.49995941  0.32974718  0.16728648  1
  Ag  Ag20  1  0.33694139  0.49979786  0.82661435  1
  Ag  Ag21  1  -0.00630150  0.00139911  0.66146284  1
  Ag  Ag22  1  0.83453233  0.50284503  0.66172046  1
  Ag  Ag23  1  -0.00750306  0.16140978  0.50461109  1
  Ag  Ag24  1  -0.00673410  0.67700609  0.33206715  1
  Ag  Ag25  1  0.67597960  0.83450098  0.50113996  1
  Ag  Ag26  1  -0.01082868  0.83832098  0.17389910  1
  Ag  Ag27  1  0.67335849  0.16384984  0.49533642  1
  Ag  Ag28  1  0.49633487  -0.00099589  0.15906090  1
  Ag  Ag29  1  0.34315508  0.15923631  0.16340480  1
  Ag  Ag30  1  0.83475213  0.50872895  0.34313421  1
  Ag  Ag31  1  0.34317353  0.51612646  0.16853045  1
  Ag  Ag32  1  0.83489095  0.67048769  0.82791129  1
  Ag  Ag33  1  0.83266202  -0.00554092  0.16243934  1
  Ag  Ag34  1  0.83442512  0.33895824  0.50120589  1
  Ag  Ag35  1  0.83172713  -0.00538458  0.83457124  1
  Ag  Ag36  1  0.83014615  0.83508104  0.01098215  1
  Ag  Ag37  1  -0.00196509  0.16446574  0.82417513  1
  Ag  Ag38  1  -0.01173050  0.50252781  0.50390064  1
  Ag  Ag39  1  0.50040819  -0.00062224  0.84602717  1
  Ag  Ag40  1  0.83285978  0.66928838  0.49616566  1
  Ag  Ag41  1  0.83742244  0.82956343  0.33422839  1
  Ag  Ag42  1  0.50062978  0.83305935  0.66702767  1
  Ag  Ag43  1  0.50194731  0.84018117  0.00465219  1
  Ag  Ag44  1  0.66291461  0.49883499  0.16631308  1
  Ag  Ag45  1  -0.01097065  0.49892264  0.82243772  1
  Ag  Ag46  1  0.33476747  0.00034486  0.66823731  1
  Ag  Ag47  1  0.18119132  0.66817344  0.16904625  1
  Ag  Ag48  1  0.33674311  0.67343938  0.01126231  1
  Ag  Ag49  1  0.33263323  0.15997888  0.83599038  1
  Ag  Ag50  1  -0.00709235  0.83314963  0.49460823  1
  Ag  Ag51  1  -0.00377701  0.32666771  0.66351950  1
  Ag  Ag52  1  0.83125846  0.67548177  0.17643285  1
  Ag  Ag53  1  0.50268885  0.66722355  0.49597205  1
  Sb  Sb54  1  0.33469063  0.66710644  0.66561346  1
  Sb  Sb55  1  0.16911671  0.50245836  0.00114748  1
  Sb  Sb56  1  0.67036992  0.00149745  0.32782925  1
  Sb  Sb57  1  0.49956661  0.33122862  0.83593648  1
  Sb  Sb58  1  0.16758751  0.00003822  0.83129759  1
  Sb  Sb59  1  0.83121424  0.50925549  -0.00275634  1
  Sb  Sb60  1  0.15985407  0.33331879  0.50082653  1
  Sb  Sb61  1  0.50479605  0.33854101  0.49797501  1
  Sb  Sb62  1  0.16883490  -0.00471123  0.16862555  1
  Sb  Sb63  1  0.16327728  -0.00124565  0.49927321  1
  Sb  Sb64  1  0.16404977  0.66767700  0.49464547  1
  Sb  Sb65  1  0.83671613  0.16121269  0.33752372  1
  Sb  Sb66  1  -0.00535153  0.83494078  0.82971067  1
  Sb  Sb67  1  0.83494118  -0.00497026  0.50151918  1
  Sb  Sb68  1  0.33600372  0.83594478  0.83593928  1
  Sb  Sb69  1  0.33651189  0.33194581  -0.00163144  1
  Sb  Sb70  1  0.50363048  0.50329863  0.33328077  1
  Sb  Sb71  1  0.50105126  -0.00499033  0.49821005  1
  Sb  Sb72  1  0.16152814  0.83506221  0.33439382  1
  Sb  Sb73  1  0.66921680  -0.00044253  0.66993646  1
  Sb  Sb74  1  0.82842647  0.33132871  0.17555528  1
  Sb  Sb75  1  0.17169290  0.16371960  0.00509612  1
  Sb  Sb76  1  0.50288942  0.66940259  0.83423174  1
  Sb  Sb77  1  0.66921009  0.33470113  0.66152753  1
  Sb  Sb78  1  0.49960315  0.50377784  -0.00016068  1
  Sb  Sb79  1  -0.00028573  0.66832506  0.00709329  1
  Sb  Sb80  1  0.66865434  0.66645077  0.66512326  1
  Sb  Sb81  1  -0.00400779  0.67035567  0.65937050  1
  Sb  Sb82  1  0.66351604  0.67336488  0.00330019  1
  Sb  Sb83  1  0.66737158  0.83503544  0.16937639  1
  Sb  Sb84  1  0.16818314  0.83334308  0.00143714  1
  Sb  Sb85  1  0.50152096  0.16523223  0.66951714  1
  Sb  Sb86  1  -0.00359952  0.33088369  -0.00467634  1
  Sb  Sb87  1  0.16749730  0.33308362  0.83060332  1
  Sb  Sb88  1  0.50319332  0.83139763  0.33134515  1
  Sb  Sb89  1  0.66475237  0.32829120  0.00659304  1
  Sb  Sb90  1  0.66721755  0.16755624  0.83443422  1
  Sb  Sb91  1  0.16135745  0.16199182  0.66327763  1
  Sb  Sb92  1  0.67088340  0.66473470  0.33215747  1
  Sb  Sb93  1  -0.00341705  0.50223170  0.17018911  1
  Sb  Sb94  1  0.00017533  -0.00122947  0.00113679  1
  Sb  Sb95  1  0.33295552  0.83003347  0.49684627  1
  Sb  Sb96  1  0.16392966  0.49952131  0.33340418  1
  Sb  Sb97  1  -0.00644591  0.33096759  0.33977833  1
  Sb  Sb98  1  0.66959269  0.50209590  0.49871263  1
  Sb  Sb99  1  0.33831251  0.33437380  0.33503643  1
  Sb  Sb100  1  0.66880944  0.83106108  0.83088292  1
  Sb  Sb101  1  0.49843719  0.16474965  0.32664522  1
  Sb  Sb102  1  0.16327646  0.66669553  0.83642486  1
  Sb  Sb103  1  0.83365605  0.33445154  0.82494694  1
  Sb  Sb104  1  0.16503790  0.50457615  0.66543601  1
  Sb  Sb105  1  0.82980665  0.15794389  -0.00160842  1
  Sb  Sb106  1  0.33339552  0.16890516  0.49986050  1
  Sb  Sb107  1  0.17208619  0.33441599  0.16951472  1
  Te  Te108  1  0.16041873  0.16756743  0.16998339  1
  Te  Te109  1  0.16105919  0.16760299  0.49384941  1
  Te  Te110  1  0.16776734  0.16656195  0.83347093  1
  Te  Te111  1  0.17023753  0.50479120  0.16803071  1
  Te  Te112  1  0.17214121  0.50038921  0.49926090  1
  Te  Te113  1  0.17336032  0.50106753  0.83329698  1
  Te  Te114  1  0.17011375  0.82760691  0.16755071  1
  Te  Te115  1  0.15911527  0.83204973  0.50593193  1
  Te  Te116  1  0.16474671  0.83188536  0.82616347  1
  Te  Te117  1  0.50200092  0.16175536  0.16591108  1
  Te  Te118  1  0.50606447  0.16809494  0.49986838  1
  Te  Te119  1  0.49727242  0.16188223  0.83658806  1
  Te  Te120  1  0.50067487  0.50556984  0.16647762  1
  Te  Te121  1  0.50024649  0.50482108  0.50435567  1
  Te  Te122  1  0.49788599  0.50055493  0.83016637  1
  Te  Te123  1  0.50101186  0.83306618  0.16589186  1
  Te  Te124  1  0.50060254  0.82761569  0.50233705  1
  Te  Te125  1  0.50205324  0.83758536  0.82950681  1
  Te  Te126  1  0.83354270  0.16408319  0.16683397  1
  Te  Te127  1  0.83407614  0.16346115  0.50219202  1
  Te  Te128  1  0.83611832  0.16420163  0.83009253  1
  Te  Te129  1  0.82930517  0.49921881  0.16498436  1
  Te  Te130  1  0.83099545  0.50500438  0.50164385  1
  Te  Te131  1  0.83228556  0.50104330  0.83126150  1
  Te  Te132  1  0.83000935  0.83508352  0.16870057  1
  Te  Te133  1  0.83551793  0.83173712  0.50031977  1
  Te  Te134  1  0.83244930  0.83357312  0.82697149  1
  Te  Te135  1  0.18140880  -0.00187577  -0.00183764  1
  Te  Te136  1  0.16630118  0.00358906  0.33373038  1
  Te  Te137  1  0.16769752  -0.00512894  0.66579105  1
  Te  Te138  1  0.16573649  0.33317722  0.00054290  1
  Te  Te139  1  0.16688046  0.32593861  0.33376153  1
  Te  Te140  1  0.16866248  0.33306475  0.66524977  1
  Te  Te141  1  0.17427432  0.66828274  0.00697864  1
  Te  Te142  1  0.16859969  0.66655159  0.32859709  1
  Te  Te143  1  0.16593187  0.67585003  0.66725044  1
  Te  Te144  1  0.49830701  -0.00308351  0.00171517  1
  Te  Te145  1  0.49328687  -0.00208441  0.33010141  1
  Te  Te146  1  0.49905366  -0.00245566  0.66535317  1
  Te  Te147  1  0.50033212  0.32870151  0.00797237  1
  Te  Te148  1  0.50649524  0.33484327  0.32770201  1
  Te  Te149  1  0.49585868  0.33742351  0.66650840  1
  Te  Te150  1  0.49683219  0.67292945  0.00272905  1
  Te  Te151  1  0.49459023  0.66693350  0.33261740  1
  Te  Te152  1  0.50109247  0.66583787  0.66557317  1
  Te  Te153  1  0.83519446  -0.00570793  -0.00007389  1
  Te  Te154  1  0.83751495  -0.00504568  0.32544132  1
  Te  Te155  1  0.83440829  0.00012228  0.67049160  1
  Te  Te156  1  0.83176004  0.33294005  0.00022175  1
  Te  Te157  1  0.82920525  0.33938168  0.34035275  1
  Te  Te158  1  0.83631109  0.33642814  0.66084370  1
  Te  Te159  1  0.83216431  0.67562638  -0.00237216  1
  Te  Te160  1  0.83373010  0.66799420  0.33542121  1
  Te  Te161  1  0.83407049  0.66531453  0.66767556  1
  Te  Te162  1  0.00102122  0.16581311  -0.00056051  1
  Te  Te163  1  0.00013031  0.16439067  0.33267961  1
  Te  Te164  1  -0.00050891  0.16465989  0.66496657  1
  Te  Te165  1  0.00055044  0.49939923  -0.00850711  1
  Te  Te166  1  -0.00400213  0.49952535  0.33743564  1
  Te  Te167  1  -0.00091880  0.50168300  0.66496036  1
  Te  Te168  1  -0.00263869  0.83324757  0.00841863  1
  Te  Te169  1  -0.00046062  0.83547425  0.33334621  1
  Te  Te170  1  -0.00584048  0.83705343  0.66494748  1
  Te  Te171  1  0.33675389  0.16529350  -0.00130068  1
  Te  Te172  1  0.32996460  0.16435945  0.33209054  1
  Te  Te173  1  0.33238756  0.16580634  0.66817215  1
  Te  Te174  1  0.33481554  0.50068802  0.00487199  1
  Te  Te175  1  0.33264203  0.50245582  0.33199922  1
  Te  Te176  1  0.33233381  0.50048569  0.66617479  1
  Te  Te177  1  0.33468817  0.83400512  0.00237014  1
  Te  Te178  1  0.33192562  0.83476606  0.33039919  1
  Te  Te179  1  0.33999514  0.83641471  0.66557635  1
  Te  Te180  1  0.66225819  0.16128232  0.00352271  1
  Te  Te181  1  0.66846217  0.16854366  0.33193726  1
  Te  Te182  1  0.67334829  0.16786699  0.66416022  1
  Te  Te183  1  0.66546872  0.49885561  0.00259180  1
  Te  Te184  1  0.67180660  0.49737002  0.32930635  1
  Te  Te185  1  0.66662024  0.49878677  0.66952208  1
  Te  Te186  1  0.66667228  0.83941656  -0.00122591  1
  Te  Te187  1  0.67336387  0.83425206  0.34058654  1
  Te  Te188  1  0.66676242  0.83363302  0.66159246  1
  Te  Te189  1  0.00130203  -0.00131856  0.16714741  1
  Te  Te190  1  -0.00113279  0.00122328  0.49964374  1
  Te  Te191  1  -0.00334969  0.00274882  0.83233588  1
  Te  Te192  1  0.00127426  0.33057147  0.16574642  1
  Te  Te193  1  -0.00561699  0.33619896  0.50496454  1
  Te  Te194  1  0.00067434  0.33262803  0.82631783  1
  Te  Te195  1  -0.01071994  0.66655786  0.17218798  1
  Te  Te196  1  -0.00240131  0.66512870  0.49374143  1
  Te  Te197  1  -0.00411328  0.66193965  0.83697728  1
  Te  Te198  1  0.33253096  0.00071527  0.16796294  1
  Te  Te199  1  0.33350076  0.00018381  0.50481620  1
  Te  Te200  1  0.33468944  0.00093211  0.82677845  1
  Te  Te201  1  0.33912771  0.32367317  0.16717462  1
  Te  Te202  1  0.33535919  0.33828417  0.50396948  1
  Te  Te203  1  0.33431256  0.33479510  0.82831094  1
  Te  Te204  1  0.33786626  0.67052204  0.16766037  1
  Te  Te205  1  0.33463914  0.66322159  0.49734062  1
  Te  Te206  1  0.33301499  0.66248107  0.83585153  1
  Te  Te207  1  0.66637149  0.00169198  0.16448240  1
  Te  Te208  1  0.66626385  0.00264687  0.49840866  1
  Te  Te209  1  0.66749313  0.00073071  0.83905430  1
  Te  Te210  1  0.66240187  0.33188121  0.17100454  1
  Te  Te211  1  0.67162642  0.32962010  0.49525177  1
  Te  Te212  1  0.66565706  0.34039696  0.83404075  1
  Te  Te213  1  0.67169653  0.66278406  0.16662171  1
  Te  Te214  1  0.66581319  0.67053948  0.49886721  1
  Te  Te215  1  0.67257366  0.66016033  0.83616947  1
