# generated using pymatgen
data_AgSbTe2
_symmetry_space_group_name_H-M   'P 1'
_cell_length_a   18.32249058
_cell_length_b   18.32394287
_cell_length_c   18.32510019
_cell_angle_alpha   89.99863428
_cell_angle_beta   90.00209262
_cell_angle_gamma   90.00043262
_symmetry_Int_Tables_number   1
_chemical_formula_structural   AgSbTe2
_chemical_formula_sum   'Ag54 Sb54 Te108'
_cell_volume   6152.47409255
_cell_formula_units_Z   54
loop_
 _symmetry_equiv_pos_site_id
 _symmetry_equiv_pos_as_xyz
  1  'x, y, z'
loop_
 _atom_site_type_symbol
 _atom_site_label
 _atom_site_symmetry_multiplicity
 _atom_site_fract_x
 _atom_site_fract_y
 _atom_site_fract_z
 _atom_site_occupancy
  Ag  Ag0  1  0.66610021  0.16412678  0.49504101  1
  Ag  Ag1  1  0.50060061  -0.00442588  0.16308185  1
  Ag  Ag2  1  0.49173315  0.50724878  0.33229065  1
  Ag  Ag3  1  0.83883588  0.83512526  0.00336814  1
  Ag  Ag4  1  0.49817898  0.16296685  0.32597589  1
  Ag  Ag5  1  0.16250027  0.83387879  0.00562726  1
  Ag  Ag6  1  0.49550216  0.66011220  0.82658192  1
  Ag  Ag7  1  0.16842150  0.16891743  0.33125208  1
  Ag  Ag8  1  0.66572840  0.16305655  0.16850822  1
  Ag  Ag9  1  0.34089933  -0.00993066  0.67070754  1
  Ag  Ag10  1  0.17043859  0.34123769  0.82686022  1
  Ag  Ag11  1  -0.00258090  0.15379802  0.16707804  1
  Ag  Ag12  1  0.16633325  0.83078154  0.33251262  1
  Ag  Ag13  1  0.01043598  0.50676959  0.49735509  1
  Ag  Ag14  1  0.83365970  0.67313822  0.16536305  1
  Ag  Ag15  1  0.17108843  0.50085941  0.33792979  1
  Ag  Ag16  1  0.49370690  0.50882456  0.67597179  1
  Ag  Ag17  1  0.66023970  -0.00315490  0.66655056  1
  Ag  Ag18  1  0.83831945  -0.00579153  0.16367327  1
  Ag  Ag19  1  0.00336623  0.83660144  0.16905960  1
  Ag  Ag20  1  0.83059618  0.50696102  0.67168563  1
  Ag  Ag21  1  0.34041766  0.50024982  0.82546992  1
  Ag  Ag22  1  0.83166546  0.33999168  0.83280746  1
  Ag  Ag23  1  0.83246950  0.50243161  -0.00505990  1
  Ag  Ag24  1  0.00107944  -0.00205645  0.32465656  1
  Ag  Ag25  1  0.00659248  0.50208335  0.17081859  1
  Ag  Ag26  1  0.16636168  0.34490448  0.50154655  1
  Ag  Ag27  1  0.01085845  0.33735987  0.66681528  1
  Ag  Ag28  1  -0.00267495  -0.00325633  0.00733777  1
  Ag  Ag29  1  0.33540553  0.66500534  0.66749495  1
  Ag  Ag30  1  0.32928373  0.34696313  0.66953908  1
  Ag  Ag31  1  0.33146596  0.82957933  0.16543461  1
  Ag  Ag32  1  0.32818136  0.50305857  0.50717414  1
  Ag  Ag33  1  0.17478309  0.66275288  0.82412449  1
  Ag  Ag34  1  0.83311606  0.82874426  0.66705289  1
  Ag  Ag35  1  0.49891681  0.50029462  -0.01092578  1
  Ag  Ag36  1  0.83021152  0.15777695  0.00301701  1
  Ag  Ag37  1  0.33461266  0.50610564  0.16719582  1
  Ag  Ag38  1  0.50359092  0.16313777  0.00482137  1
  Ag  Ag39  1  0.49371885  0.66477286  0.50848445  1
  Ag  Ag40  1  0.16582297  0.33856833  0.17156918  1
  Ag  Ag41  1  0.49801852  0.66922727  0.16761632  1
  Ag  Ag42  1  0.66299754  0.82996803  0.83043029  1
  Ag  Ag43  1  0.00143005  0.82786125  0.49721094  1
  Ag  Ag44  1  0.49911611  -0.00361768  0.83594087  1
  Ag  Ag45  1  0.83712339  0.67072907  0.50382443  1
  Ag  Ag46  1  0.83495415  -0.00714698  0.49941237  1
  Ag  Ag47  1  0.49339131  0.83068118  0.33090248  1
  Ag  Ag48  1  0.17074106  0.82965784  0.66555165  1
  Ag  Ag49  1  0.49791431  0.34729558  0.83252081  1
  Ag  Ag50  1  0.65252187  0.50352287  0.83149651  1
  Ag  Ag51  1  0.16787550  0.66325758  0.50343590  1
  Ag  Ag52  1  0.49488364  0.82752240  0.66862573  1
  Ag  Ag53  1  0.33630873  -0.00296191  -0.00142596  1
  Sb  Sb54  1  0.66354475  0.49754060  0.16227191  1
  Sb  Sb55  1  -0.00001378  -0.00127991  0.66729001  1
  Sb  Sb56  1  0.83237713  0.16516807  0.66973724  1
  Sb  Sb57  1  0.50287098  -0.00532741  0.49932858  1
  Sb  Sb58  1  0.83562079  0.83421242  0.33298194  1
  Sb  Sb59  1  0.00215440  0.67191658  0.33434275  1
  Sb  Sb60  1  0.17017621  0.50425968  0.66212470  1
  Sb  Sb61  1  -0.00091345  0.83259751  0.83430708  1
  Sb  Sb62  1  0.49430297  0.33512546  0.16268919  1
  Sb  Sb63  1  0.50010572  0.16526530  0.66690250  1
  Sb  Sb64  1  0.16697859  0.16725060  0.66191123  1
  Sb  Sb65  1  0.16756902  0.50525594  0.00259265  1
  Sb  Sb66  1  -0.00187836  0.16520243  0.49405110  1
  Sb  Sb67  1  0.33116454  0.33728767  0.33610824  1
  Sb  Sb68  1  0.00381286  0.66275211  0.66400781  1
  Sb  Sb69  1  0.83052599  0.66409927  0.83208816  1
  Sb  Sb70  1  0.33251023  0.16521537  0.16564569  1
  Sb  Sb71  1  0.33392386  0.66492149  0.33928552  1
  Sb  Sb72  1  0.67013969  0.83560192  0.50510485  1
  Sb  Sb73  1  0.83373074  0.16424822  0.32725142  1
  Sb  Sb74  1  0.66371621  0.33243936  0.33420756  1
  Sb  Sb75  1  -0.00118269  0.16772799  0.83951211  1
  Sb  Sb76  1  0.32980702  0.82794898  0.50011493  1
  Sb  Sb77  1  0.49901240  0.83241426  -0.00185128  1
  Sb  Sb78  1  0.16656415  0.16268628  0.00536615  1
  Sb  Sb79  1  0.33120438  -0.00254158  0.33261590  1
  Sb  Sb80  1  0.16245593  -0.00474454  0.49928698  1
  Sb  Sb81  1  0.33579132  0.17100954  0.49955700  1
  Sb  Sb82  1  0.83959198  0.33303134  0.15963489  1
  Sb  Sb83  1  0.66813906  -0.00059381  0.33525105  1
  Sb  Sb84  1  -0.00030466  0.67071840  0.00269494  1
  Sb  Sb85  1  0.66632535  0.33308475  -0.00118719  1
  Sb  Sb86  1  0.33663562  0.82840251  0.83386023  1
  Sb  Sb87  1  0.00333563  0.49917546  0.83069006  1
  Sb  Sb88  1  0.49445555  0.34031065  0.50468775  1
  Sb  Sb89  1  0.66275679  0.66741164  0.33402969  1
  Sb  Sb90  1  0.33570941  0.17187337  0.83366298  1
  Sb  Sb91  1  0.66695340  0.83721669  0.16247565  1
  Sb  Sb92  1  0.82819680  -0.00061157  0.83588347  1
  Sb  Sb93  1  0.66414547  0.49848415  0.50583336  1
  Sb  Sb94  1  0.16498945  -0.00175168  0.16690623  1
  Sb  Sb95  1  0.65984065  0.67161274  0.66716458  1
  Sb  Sb96  1  0.00031934  0.33175788  -0.00174238  1
  Sb  Sb97  1  0.66415999  0.16680266  0.83509749  1
  Sb  Sb98  1  0.33312400  0.33314372  -0.00384570  1
  Sb  Sb99  1  0.66560938  0.66716660  -0.00109001  1
  Sb  Sb100  1  0.66318918  0.33172134  0.66895426  1
  Sb  Sb101  1  0.83684153  0.50239866  0.33324597  1
  Sb  Sb102  1  0.00412335  0.33115589  0.33415352  1
  Sb  Sb103  1  0.66495104  -0.00057253  -0.00218521  1
  Sb  Sb104  1  0.16958540  0.66649356  0.16988984  1
  Sb  Sb105  1  0.33410136  0.66953249  -0.00386344  1
  Sb  Sb106  1  0.17311805  -0.00213154  0.83424774  1
  Sb  Sb107  1  0.83976045  0.33661563  0.50894455  1
  Te  Te108  1  0.16381342  0.17079537  0.17064683  1
  Te  Te109  1  0.16629842  0.16857035  0.49238005  1
  Te  Te110  1  0.16694957  0.17357703  0.83412516  1
  Te  Te111  1  0.16691040  0.50172727  0.16874461  1
  Te  Te112  1  0.16727935  0.50227355  0.49877544  1
  Te  Te113  1  0.17022556  0.50102751  0.83468328  1
  Te  Te114  1  0.16589209  0.83101722  0.16884402  1
  Te  Te115  1  0.16327263  0.83001064  0.49840614  1
  Te  Te116  1  0.16764101  0.83057004  0.82890512  1
  Te  Te117  1  0.49864236  0.16784756  0.16562932  1
  Te  Te118  1  0.50392648  0.16757694  0.49677744  1
  Te  Te119  1  0.50151109  0.15742451  0.83848178  1
  Te  Te120  1  0.49887827  0.50049569  0.17140999  1
  Te  Te121  1  0.49905484  0.50457178  0.49639132  1
  Te  Te122  1  0.49699769  0.50352608  0.83270655  1
  Te  Te123  1  0.50055260  0.83308001  0.16550072  1
  Te  Te124  1  0.49933823  0.82716766  0.50220814  1
  Te  Te125  1  0.50211217  0.83581532  0.83144123  1
  Te  Te126  1  0.83643218  0.16607001  0.16209335  1
  Te  Te127  1  0.82969822  0.16385245  0.49975840  1
  Te  Te128  1  0.83142399  0.17142168  0.84136044  1
  Te  Te129  1  0.83218687  0.50173640  0.16398315  1
  Te  Te130  1  0.83282741  0.50440685  0.50271777  1
  Te  Te131  1  0.83765406  0.50040746  0.83344459  1
  Te  Te132  1  0.83409599  0.83363722  0.16641900  1
  Te  Te133  1  0.83636464  0.83289664  0.49999533  1
  Te  Te134  1  0.82996949  0.83155343  0.82983141  1
  Te  Te135  1  0.16898637  -0.00555220  -0.00038738  1
  Te  Te136  1  0.16294548  -0.00308982  0.33352565  1
  Te  Te137  1  0.16985819  -0.00521884  0.66736819  1
  Te  Te138  1  0.16643732  0.33237726  -0.00232914  1
  Te  Te139  1  0.16670831  0.33618433  0.33384327  1
  Te  Te140  1  0.16898727  0.33236965  0.66670526  1
  Te  Te141  1  0.16649527  0.67462496  -0.00363533  1
  Te  Te142  1  0.16790933  0.66755035  0.33941339  1
  Te  Te143  1  0.16968707  0.67001274  0.66395077  1
  Te  Te144  1  0.49915649  -0.00059060  0.00318246  1
  Te  Te145  1  0.49927305  -0.00020895  0.33046443  1
  Te  Te146  1  0.49984879  -0.00168087  0.66603961  1
  Te  Te147  1  0.49903329  0.33471600  -0.00602741  1
  Te  Te148  1  0.49775575  0.32966777  0.33421002  1
  Te  Te149  1  0.49465978  0.33387104  0.67193910  1
  Te  Te150  1  0.49961199  0.66245744  0.00348456  1
  Te  Te151  1  0.49881424  0.66813844  0.32800066  1
  Te  Te152  1  0.49833192  0.66710835  0.66664251  1
  Te  Te153  1  0.83359609  -0.00129731  0.00209406  1
  Te  Te154  1  0.83797309  0.00012949  0.33101081  1
  Te  Te155  1  0.83274048  -0.00393381  0.66658528  1
  Te  Te156  1  0.83404643  0.33954481  -0.00706301  1
  Te  Te157  1  0.83290642  0.33337715  0.33528178  1
  Te  Te158  1  0.83298081  0.33499953  0.67324693  1
  Te  Te159  1  0.83337418  0.66639898  0.00134113  1
  Te  Te160  1  0.83187610  0.66666156  0.33110184  1
  Te  Te161  1  0.83403310  0.66803315  0.66573201  1
  Te  Te162  1  -0.00233127  0.16186535  0.00674211  1
  Te  Te163  1  0.00371298  0.16204666  0.32756887  1
  Te  Te164  1  -0.00022597  0.17300235  0.66547193  1
  Te  Te165  1  -0.00284716  0.50037581  0.00612036  1
  Te  Te166  1  0.00421325  0.49866128  0.33350073  1
  Te  Te167  1  -0.00502266  0.49668570  0.66338979  1
  Te  Te168  1  -0.00077738  0.83631366  0.00190714  1
  Te  Te169  1  0.00211224  0.83747801  0.33229369  1
  Te  Te170  1  -0.00063282  0.83413556  0.66310264  1
  Te  Te171  1  0.33822271  0.15846255  0.00028975  1
  Te  Te172  1  0.33334361  0.16619726  0.33329287  1
  Te  Te173  1  0.33288152  0.16094844  0.66602479  1
  Te  Te174  1  0.33613913  0.50004891  0.00420518  1
  Te  Te175  1  0.33176183  0.49987363  0.32935045  1
  Te  Te176  1  0.33472019  0.50296165  0.66563579  1
  Te  Te177  1  0.33061369  0.83744309  0.00393081  1
  Te  Te178  1  0.33283640  0.83342764  0.32792409  1
  Te  Te179  1  0.33396806  0.83116882  0.66622013  1
  Te  Te180  1  0.66611481  0.16632393  0.00398020  1
  Te  Te181  1  0.66172124  0.16619085  0.33152309  1
  Te  Te182  1  0.66696579  0.15928423  0.66356263  1
  Te  Te183  1  0.66659270  0.49980990  -0.00556906  1
  Te  Te184  1  0.65849417  0.49881740  0.33359828  1
  Te  Te185  1  0.66928374  0.49875441  0.67151118  1
  Te  Te186  1  0.67706944  0.83414438  -0.00674467  1
  Te  Te187  1  0.65420741  0.83417472  0.33345415  1
  Te  Te188  1  0.66759370  0.83713392  0.66962742  1
  Te  Te189  1  0.00090524  -0.00372798  0.16508500  1
  Te  Te190  1  -0.00556994  -0.00338122  0.49965239  1
  Te  Te191  1  0.00132236  0.00109043  0.84063011  1
  Te  Te192  1  0.00579326  0.34116186  0.16687240  1
  Te  Te193  1  0.00559006  0.33584412  0.50380995  1
  Te  Te194  1  0.00238870  0.33264733  0.82821921  1
  Te  Te195  1  -0.00394804  0.66632107  0.16809094  1
  Te  Te196  1  -0.00127453  0.66630497  0.49971007  1
  Te  Te197  1  0.01102954  0.66678520  0.83323471  1
  Te  Te198  1  0.33753489  -0.00391568  0.16516519  1
  Te  Te199  1  0.33332142  0.00010807  0.50691490  1
  Te  Te200  1  0.33824600  0.00035337  0.83309489  1
  Te  Te201  1  0.32604620  0.33905297  0.16518122  1
  Te  Te202  1  0.32720298  0.33869181  0.50669638  1
  Te  Te203  1  0.33428634  0.33787271  0.83019141  1
  Te  Te204  1  0.33638906  0.66750455  0.16461137  1
  Te  Te205  1  0.33460266  0.66301019  0.50564150  1
  Te  Te206  1  0.33482156  0.66261960  0.83007384  1
  Te  Te207  1  0.66596810  0.00415149  0.16753808  1
  Te  Te208  1  0.67201030  0.00263957  0.50332428  1
  Te  Te209  1  0.66153111  -0.00211658  0.82820794  1
  Te  Te210  1  0.66749326  0.32389048  0.16689624  1
  Te  Te211  1  0.66699976  0.32531733  0.50177384  1
  Te  Te212  1  0.66438359  0.33775967  0.83248619  1
  Te  Te213  1  0.66796863  0.66624743  0.16681540  1
  Te  Te214  1  0.67222956  0.66656374  0.50029762  1
  Te  Te215  1  0.66103643  0.66549814  0.83287135  1
