# generated using pymatgen
data_AgSbTe2
_symmetry_space_group_name_H-M   'P 1'
_cell_length_a   18.36075088
_cell_length_b   18.34793556
_cell_length_c   18.35825941
_cell_angle_alpha   89.99646582
_cell_angle_beta   90.00017319
_cell_angle_gamma   89.99673199
_symmetry_Int_Tables_number   1
_chemical_formula_structural   AgSbTe2
_chemical_formula_sum   'Ag54 Sb54 Te108'
_cell_volume   6184.56480992
_cell_formula_units_Z   54
loop_
 _symmetry_equiv_pos_site_id
 _symmetry_equiv_pos_as_xyz
  1  'x, y, z'
loop_
 _atom_site_type_symbol
 _atom_site_label
 _atom_site_symmetry_multiplicity
 _atom_site_fract_x
 _atom_site_fract_y
 _atom_site_fract_z
 _atom_site_occupancy
  Ag  Ag0  1  0.16182913  0.83670824  0.66294316  1
  Ag  Ag1  1  0.00176738  0.00232419  0.66283527  1
  Ag  Ag2  1  0.15500601  0.00537553  0.82121634  1
  Ag  Ag3  1  0.67435333  0.16532022  0.83025947  1
  Ag  Ag4  1  0.16348408  0.50132946  0.34691349  1
  Ag  Ag5  1  0.67378410  0.32277820  0.33652709  1
  Ag  Ag6  1  0.83612622  0.00783423  0.84007587  1
  Ag  Ag7  1  0.50429706  0.16386737  0.34197738  1
  Ag  Ag8  1  0.33090108  0.49735844  0.50352873  1
  Ag  Ag9  1  0.83198362  0.16570443  -0.00714859  1
  Ag  Ag10  1  0.66689592  0.16327566  0.17940468  1
  Ag  Ag11  1  0.67918811  0.66161750  0.66317104  1
  Ag  Ag12  1  0.33686616  0.16796831  0.50306062  1
  Ag  Ag13  1  0.83270216  0.00952746  0.16354656  1
  Ag  Ag14  1  0.16429539  0.16172342  0.66579625  1
  Ag  Ag15  1  -0.00284400  0.16109756  0.50386587  1
  Ag  Ag16  1  0.67006485  0.00489693  0.33478320  1
  Ag  Ag17  1  0.32381154  0.66502585  0.33652616  1
  Ag  Ag18  1  0.15362069  0.33176870  0.17226828  1
  Ag  Ag19  1  -0.01007613  0.00279102  -0.01630589  1
  Ag  Ag20  1  0.83949186  0.50638737  0.67163772  1
  Ag  Ag21  1  0.15600826  0.00107321  0.50281788  1
  Ag  Ag22  1  0.00025287  0.66827655  0.66374608  1
  Ag  Ag23  1  0.83839866  0.66156781  0.50066159  1
  Ag  Ag24  1  0.15674930  0.50153988  0.66565017  1
  Ag  Ag25  1  -0.00167319  0.66499627  0.34656393  1
  Ag  Ag26  1  0.67743978  0.49357032  0.82564331  1
  Ag  Ag27  1  0.51359768  0.50169437  -0.00622038  1
  Ag  Ag28  1  0.33166676  0.49456323  0.82706108  1
  Ag  Ag29  1  0.50367159  0.00443040  0.49677365  1
  Ag  Ag30  1  -0.00956445  0.49540641  0.83013105  1
  Ag  Ag31  1  0.33371439  0.16762253  0.82768955  1
  Ag  Ag32  1  -0.00643502  0.00212181  0.34217792  1
  Ag  Ag33  1  0.15676687  0.66729784  0.50393496  1
  Ag  Ag34  1  0.83786959  0.65440485  0.81835313  1
  Ag  Ag35  1  0.67263553  0.50087727  0.50362260  1
  Ag  Ag36  1  0.67023064  0.00395768  0.00633197  1
  Ag  Ag37  1  0.49834274  0.16253644  0.66003075  1
  Ag  Ag38  1  0.51392273  0.00390357  0.17905349  1
  Ag  Ag39  1  0.51128235  0.84526745  0.33705754  1
  Ag  Ag40  1  0.67697926  0.84283448  0.49782575  1
  Ag  Ag41  1  0.83213845  0.83761574  0.33610419  1
  Ag  Ag42  1  0.34287531  0.16639590  0.17759406  1
  Ag  Ag43  1  0.83244036  0.33600127  0.49538532  1
  Ag  Ag44  1  0.66734946  0.16518645  0.49638742  1
  Ag  Ag45  1  0.50886640  0.00600394  0.83061693  1
  Ag  Ag46  1  -0.00489764  0.83798806  0.50025331  1
  Ag  Ag47  1  0.15627600  0.66203916  0.82195657  1
  Ag  Ag48  1  0.83174573  0.49417134  -0.01232600  1
  Ag  Ag49  1  0.83409734  0.33022474  0.17321987  1
  Ag  Ag50  1  0.83458716  0.66343825  0.17098144  1
  Ag  Ag51  1  0.83426848  0.33899509  0.83158525  1
  Ag  Ag52  1  -0.00536031  0.33168140  0.33524396  1
  Ag  Ag53  1  -0.00669913  0.16269357  0.82659305  1
  Sb  Sb54  1  0.50503398  0.32672753  0.16714776  1
  Sb  Sb55  1  0.33587569  0.00364496  -0.00179801  1
  Sb  Sb56  1  0.67113978  0.33442401  0.66224177  1
  Sb  Sb57  1  0.16158544  0.33168346  0.83384883  1
  Sb  Sb58  1  0.33330864  0.33114253  -0.00068983  1
  Sb  Sb59  1  0.49871407  0.84081315  0.66167672  1
  Sb  Sb60  1  0.33693327  -0.00076990  0.33622208  1
  Sb  Sb61  1  0.33215750  0.66217619  0.00166617  1
  Sb  Sb62  1  -0.00261068  0.83689857  0.82451847  1
  Sb  Sb63  1  0.66986918  0.83490118  0.82696202  1
  Sb  Sb64  1  0.16167080  0.00498789  0.17064527  1
  Sb  Sb65  1  0.50330538  0.49716507  0.66827960  1
  Sb  Sb66  1  -0.00211418  0.33275982  0.66233946  1
  Sb  Sb67  1  0.50394923  0.83522324  0.00291044  1
  Sb  Sb68  1  0.16076636  0.49941078  -0.00697598  1
  Sb  Sb69  1  0.83384583  0.83883739  0.00438522  1
  Sb  Sb70  1  -0.00150080  0.50175276  0.50436418  1
  Sb  Sb71  1  0.33487012  0.83953301  0.17142798  1
  Sb  Sb72  1  0.50611283  0.67121794  0.17017070  1
  Sb  Sb73  1  0.49835211  0.49757687  0.33405017  1
  Sb  Sb74  1  0.50638395  0.32689148  0.49909471  1
  Sb  Sb75  1  0.50690401  0.16711911  -0.00175650  1
  Sb  Sb76  1  0.32469807  0.00256491  0.66561899  1
  Sb  Sb77  1  0.83777261  0.50040058  0.33683114  1
  Sb  Sb78  1  0.67311882  0.66863324  0.34039626  1
  Sb  Sb79  1  0.16111573  0.16572199  -0.00512076  1
  Sb  Sb80  1  0.16231813  0.83630667  -0.01029686  1
  Sb  Sb81  1  0.82914651  0.16467174  0.33247590  1
  Sb  Sb82  1  -0.00449912  0.32915829  0.00158261  1
  Sb  Sb83  1  0.16156731  0.66223513  0.17346434  1
  Sb  Sb84  1  0.33233822  0.83592801  0.83188072  1
  Sb  Sb85  1  0.50275944  0.66677892  0.83165846  1
  Sb  Sb86  1  0.16228048  0.83043857  0.34049097  1
  Sb  Sb87  1  0.83572627  0.00012450  0.49865354  1
  Sb  Sb88  1  0.50079934  0.67063412  0.49956521  1
  Sb  Sb89  1  0.67095600  0.32752927  0.00193007  1
  Sb  Sb90  1  0.16778048  0.16853561  0.33877700  1
  Sb  Sb91  1  -0.00372223  0.16615962  0.16878548  1
  Sb  Sb92  1  0.33185992  0.49525016  0.16870572  1
  Sb  Sb93  1  0.67036931  0.84164248  0.17546252  1
  Sb  Sb94  1  -0.00390747  0.67015155  -0.00580685  1
  Sb  Sb95  1  0.67234137  -0.00074751  0.66290707  1
  Sb  Sb96  1  -0.00323397  0.83440456  0.17616062  1
  Sb  Sb97  1  0.50589811  0.32933160  0.83380236  1
  Sb  Sb98  1  0.66904997  0.49531644  0.16820311  1
  Sb  Sb99  1  0.33197404  0.33069307  0.66562414  1
  Sb  Sb100  1  -0.00222270  0.49899157  0.16493075  1
  Sb  Sb101  1  0.67165772  0.66826413  -0.00539102  1
  Sb  Sb102  1  0.33139097  0.83477192  0.49898755  1
  Sb  Sb103  1  0.16020646  0.33320927  0.49770893  1
  Sb  Sb104  1  0.83543409  0.16872634  0.66978935  1
  Sb  Sb105  1  0.32625818  0.66345806  0.66151679  1
  Sb  Sb106  1  0.33207953  0.33453181  0.33515814  1
  Sb  Sb107  1  0.83822147  0.82940634  0.66103584  1
  Te  Te108  1  0.16713709  0.17023704  0.16601000  1
  Te  Te109  1  0.16676574  0.16667541  0.50476903  1
  Te  Te110  1  0.16804728  0.16501541  0.82895981  1
  Te  Te111  1  0.16653001  0.49389762  0.16398378  1
  Te  Te112  1  0.16645447  0.49927967  0.50379492  1
  Te  Te113  1  0.17114329  0.50068875  0.82969940  1
  Te  Te114  1  0.16713782  0.83257520  0.16495375  1
  Te  Te115  1  0.16465646  0.83392830  0.50288680  1
  Te  Te116  1  0.16645908  0.83414771  0.82448753  1
  Te  Te117  1  0.50246608  0.16224984  0.16496396  1
  Te  Te118  1  0.50157454  0.16536298  0.50092000  1
  Te  Te119  1  0.49695531  0.16492478  0.83338478  1
  Te  Te120  1  0.50010004  0.50238178  0.16147742  1
  Te  Te121  1  0.49565385  0.49867119  0.50044095  1
  Te  Te122  1  0.49331971  0.50027913  0.83574805  1
  Te  Te123  1  0.50108796  0.84056746  0.17398587  1
  Te  Te124  1  0.49856180  0.83969190  0.49538523  1
  Te  Te125  1  0.50066324  0.84107080  0.83357287  1
  Te  Te126  1  0.83117947  0.16849196  0.16507175  1
  Te  Te127  1  0.83223229  0.17096523  0.50227439  1
  Te  Te128  1  0.83432871  0.16618804  0.83126191  1
  Te  Te129  1  0.83273177  0.49716928  0.16527043  1
  Te  Te130  1  0.83214913  0.49966847  0.50180662  1
  Te  Te131  1  0.83212196  0.50076051  0.83237799  1
  Te  Te132  1  0.83319694  0.82804801  0.17400284  1
  Te  Te133  1  0.83435680  0.83316912  0.49646230  1
  Te  Te134  1  0.83151565  0.82989239  0.83670162  1
  Te  Te135  1  0.16365770  -0.00024138  -0.00119265  1
  Te  Te136  1  0.16231209  -0.00089563  0.33971679  1
  Te  Te137  1  0.16299965  0.00226646  0.66433207  1
  Te  Te138  1  0.16565798  0.33327147  0.01112472  1
  Te  Te139  1  0.16516539  0.33754811  0.33048203  1
  Te  Te140  1  0.16515055  0.33862697  0.66746789  1
  Te  Te141  1  0.16543715  0.66809374  -0.00404204  1
  Te  Te142  1  0.16296821  0.66342373  0.33645816  1
  Te  Te143  1  0.16628036  0.66243302  0.66476007  1
  Te  Te144  1  0.50469475  -0.00065169  -0.00443430  1
  Te  Te145  1  0.49857253  0.00234311  0.33532581  1
  Te  Te146  1  0.50238386  0.00394033  0.66589381  1
  Te  Te147  1  0.50030513  0.34388169  0.00013757  1
  Te  Te148  1  0.50558128  0.32827191  0.33161042  1
  Te  Te149  1  0.50103406  0.32316798  0.66843761  1
  Te  Te150  1  0.50046786  0.66177628  0.00140530  1
  Te  Te151  1  0.49860575  0.66760570  0.33168257  1
  Te  Te152  1  0.50096591  0.66971470  0.66745212  1
  Te  Te153  1  0.83084989  0.00116638  0.00140554  1
  Te  Te154  1  0.83222597  -0.00197149  0.33417986  1
  Te  Te155  1  0.83983048  -0.00247834  0.67409103  1
  Te  Te156  1  0.83309394  0.33223782  -0.00136249  1
  Te  Te157  1  0.83368113  0.33402749  0.33464393  1
  Te  Te158  1  0.83270520  0.34323861  0.66952771  1
  Te  Te159  1  0.83323106  0.66505090  0.00646247  1
  Te  Te160  1  0.83756199  0.66630834  0.33675649  1
  Te  Te161  1  0.83573355  0.66766668  0.66278682  1
  Te  Te162  1  -0.00603288  0.16201867  -0.00393789  1
  Te  Te163  1  0.00271418  0.16646237  0.33836800  1
  Te  Te164  1  0.00121627  0.16631145  0.66566662  1
  Te  Te165  1  -0.00727512  0.50249150  -0.00876231  1
  Te  Te166  1  0.00525230  0.49981511  0.33077652  1
  Te  Te167  1  -0.00113704  0.49913174  0.67045342  1
  Te  Te168  1  -0.00009884  0.84350392  0.00465370  1
  Te  Te169  1  -0.00334690  0.83282685  0.34048640  1
  Te  Te170  1  0.00315219  0.83034894  0.65964363  1
  Te  Te171  1  0.33216114  0.16684975  -0.00902385  1
  Te  Te172  1  0.33738970  0.16720432  0.33539568  1
  Te  Te173  1  0.33231602  0.16566058  0.66506006  1
  Te  Te174  1  0.33009946  0.49866292  -0.00380298  1
  Te  Te175  1  0.33012366  0.50250217  0.33605527  1
  Te  Te176  1  0.33658562  0.49826997  0.66469130  1
  Te  Te177  1  0.33426182  0.83175085  0.00192063  1
  Te  Te178  1  0.33465028  0.82614251  0.33282098  1
  Te  Te179  1  0.32589092  0.83178929  0.66680572  1
  Te  Te180  1  0.67049690  0.16242232  -0.01012246  1
  Te  Te181  1  0.66592486  0.16511038  0.33540056  1
  Te  Te182  1  0.66497479  0.16665744  0.66851300  1
  Te  Te183  1  0.67148990  0.50083175  -0.00226006  1
  Te  Te184  1  0.66574233  0.49878365  0.33790987  1
  Te  Te185  1  0.66574072  0.50068856  0.66719032  1
  Te  Te186  1  0.66578732  0.84139254  -0.00046380  1
  Te  Te187  1  0.66851271  0.83389998  0.34061692  1
  Te  Te188  1  0.66513410  0.82698105  0.65723042  1
  Te  Te189  1  -0.00533828  0.00109339  0.17577222  1
  Te  Te190  1  -0.00210539  0.00052157  0.50137381  1
  Te  Te191  1  -0.00143405  0.00033131  0.82932735  1
  Te  Te192  1  -0.00434713  0.33281042  0.17081196  1
  Te  Te193  1  -0.00543488  0.32769806  0.49524749  1
  Te  Te194  1  -0.00382343  0.33029152  0.83478662  1
  Te  Te195  1  -0.00460384  0.66697871  0.16692851  1
  Te  Te196  1  0.00006949  0.66235199  0.50317859  1
  Te  Te197  1  -0.00129026  0.66939973  0.82899666  1
  Te  Te198  1  0.32985699  0.00751920  0.16582155  1
  Te  Te199  1  0.33541970  0.00529132  0.49941159  1
  Te  Te200  1  0.33456239  0.00325956  0.83376633  1
  Te  Te201  1  0.33669508  0.32581355  0.16699651  1
  Te  Te202  1  0.33349916  0.33262854  0.49935768  1
  Te  Te203  1  0.33144695  0.33207153  0.83317034  1
  Te  Te204  1  0.33270461  0.66609640  0.17317202  1
  Te  Te205  1  0.33334751  0.66415497  0.49557852  1
  Te  Te206  1  0.33250337  0.66568403  0.83494954  1
  Te  Te207  1  0.67026867  0.00326102  0.16991783  1
  Te  Te208  1  0.66671736  0.00149481  0.49705709  1
  Te  Te209  1  0.66934271  0.00164991  0.82932768  1
  Te  Te210  1  0.67182095  0.32711633  0.17059128  1
  Te  Te211  1  0.67179575  0.33125106  0.49708472  1
  Te  Te212  1  0.67235618  0.33409598  0.83539705  1
  Te  Te213  1  0.67384683  0.66744659  0.16464564  1
  Te  Te214  1  0.66665777  0.65904270  0.50376585  1
  Te  Te215  1  0.67088143  0.66391697  0.82691315  1
