# generated using pymatgen
data_AgSbTe2
_symmetry_space_group_name_H-M   'P 1'
_cell_length_a   18.32274521
_cell_length_b   18.32477554
_cell_length_c   18.32698693
_cell_angle_alpha   89.99721686
_cell_angle_beta   90.00441174
_cell_angle_gamma   89.99958639
_symmetry_Int_Tables_number   1
_chemical_formula_structural   AgSbTe2
_chemical_formula_sum   'Ag54 Sb54 Te108'
_cell_volume   6153.47264716
_cell_formula_units_Z   54
loop_
 _symmetry_equiv_pos_site_id
 _symmetry_equiv_pos_as_xyz
  1  'x, y, z'
loop_
 _atom_site_type_symbol
 _atom_site_label
 _atom_site_symmetry_multiplicity
 _atom_site_fract_x
 _atom_site_fract_y
 _atom_site_fract_z
 _atom_site_occupancy
  Ag  Ag0  1  0.66285961  0.49762109  0.17099953  1
  Ag  Ag1  1  0.83031361  0.50335499  0.33484312  1
  Ag  Ag2  1  0.66283533  0.16399021  0.16787044  1
  Ag  Ag3  1  0.00661226  0.67499388  0.00110592  1
  Ag  Ag4  1  0.67119880  0.83997351  0.50256538  1
  Ag  Ag5  1  0.83401933  0.33406354  0.82561574  1
  Ag  Ag6  1  0.84350917  0.33866356  0.50047576  1
  Ag  Ag7  1  0.00127623  0.00360303  0.65968480  1
  Ag  Ag8  1  0.32898758  0.16059379  0.50361059  1
  Ag  Ag9  1  0.49445605  0.67267911  0.16786668  1
  Ag  Ag10  1  0.17483066  0.67273105  0.16253365  1
  Ag  Ag11  1  0.00397525  0.17004426  0.50578694  1
  Ag  Ag12  1  0.66694193  0.16050546  0.83045451  1
  Ag  Ag13  1  0.49539743  -0.00060878  0.50906286  1
  Ag  Ag14  1  0.00231483  0.00113216  0.34302311  1
  Ag  Ag15  1  0.83262005  0.82972816  0.33626300  1
  Ag  Ag16  1  0.49892183  -0.00207161  0.16855624  1
  Ag  Ag17  1  0.33372911  0.67523627  0.66555106  1
  Ag  Ag18  1  0.50544960  -0.00069060  0.82084878  1
  Ag  Ag19  1  0.33523107  0.67306570  0.32693220  1
  Ag  Ag20  1  -0.00086445  0.48466908  0.50002837  1
  Ag  Ag21  1  0.50153527  0.84462166  0.66945833  1
  Ag  Ag22  1  0.50044234  0.15694074  0.66800808  1
  Ag  Ag23  1  0.65980176  0.00153359  0.33496795  1
  Ag  Ag24  1  0.33790162  -0.00021120  0.33882023  1
  Ag  Ag25  1  -0.00578906  0.84143691  0.83173274  1
  Ag  Ag26  1  0.33898726  0.33214253  0.33248341  1
  Ag  Ag27  1  0.17034894  0.83079183  0.00230798  1
  Ag  Ag28  1  0.65514046  0.00307265  0.67006114  1
  Ag  Ag29  1  0.83226732  0.66745291  0.17085571  1
  Ag  Ag30  1  0.83469892  0.66761472  0.83402182  1
  Ag  Ag31  1  0.66853783  0.84264329  0.82901431  1
  Ag  Ag32  1  0.17292181  -0.00588940  0.17159622  1
  Ag  Ag33  1  0.16715327  0.51058892  0.00068756  1
  Ag  Ag34  1  0.16566722  0.50020344  0.66547011  1
  Ag  Ag35  1  0.83678531  0.66653569  0.49411900  1
  Ag  Ag36  1  0.49587786  0.83648285  0.00074609  1
  Ag  Ag37  1  0.34387501  -0.00024727  0.65836544  1
  Ag  Ag38  1  0.16434425  0.00233229  0.49674500  1
  Ag  Ag39  1  0.32724627  0.66948492  0.00678072  1
  Ag  Ag40  1  0.33371889  0.33538765  0.00784667  1
  Ag  Ag41  1  0.00111672  -0.00613096  -0.00561306  1
  Ag  Ag42  1  -0.00323276  0.15987568  0.82484025  1
  Ag  Ag43  1  0.50038822  0.33222500  0.17002227  1
  Ag  Ag44  1  0.33497266  0.83269638  0.16563422  1
  Ag  Ag45  1  -0.00381858  0.32405783  0.65473019  1
  Ag  Ag46  1  0.66053006  -0.00164859  -0.00599910  1
  Ag  Ag47  1  0.66659501  0.33126458  0.33629245  1
  Ag  Ag48  1  -0.00396181  0.83989057  0.50305455  1
  Ag  Ag49  1  0.67063831  0.32628406  0.65951998  1
  Ag  Ag50  1  0.50382309  0.49724399  0.33028985  1
  Ag  Ag51  1  0.33960996  0.16326502  0.82696322  1
  Ag  Ag52  1  0.15638154  0.32573993  0.49939402  1
  Ag  Ag53  1  -0.00349148  0.32956762  0.34272300  1
  Sb  Sb54  1  -0.00092278  0.49997419  0.82946943  1
  Sb  Sb55  1  0.66576075  0.66738255  0.33193895  1
  Sb  Sb56  1  0.50271808  0.32488717  0.83632995  1
  Sb  Sb57  1  0.67133107  0.50022862  0.49443621  1
  Sb  Sb58  1  0.16357787  0.66993769  0.49580230  1
  Sb  Sb59  1  0.82672703  0.33790453  0.17255627  1
  Sb  Sb60  1  0.66572948  0.67307082  0.00205557  1
  Sb  Sb61  1  0.66204379  0.32660864  0.00264567  1
  Sb  Sb62  1  0.49624072  0.49857842  0.65920375  1
  Sb  Sb63  1  0.16697373  -0.00067920  0.83129192  1
  Sb  Sb64  1  0.16560758  0.50009810  0.33298595  1
  Sb  Sb65  1  0.17307636  0.33338723  0.17120638  1
  Sb  Sb66  1  0.16390786  0.83603688  0.32925917  1
  Sb  Sb67  1  0.82972957  -0.00115143  0.83307907  1
  Sb  Sb68  1  0.33351580  0.49738175  0.83435784  1
  Sb  Sb69  1  0.83741941  0.50285702  0.00553548  1
  Sb  Sb70  1  0.16752414  0.16429826  0.33555279  1
  Sb  Sb71  1  0.16379061  0.66843701  0.83962641  1
  Sb  Sb72  1  0.16895608  0.83189432  0.66975452  1
  Sb  Sb73  1  0.83297219  0.16664428  -0.00206253  1
  Sb  Sb74  1  -0.00216264  0.50149725  0.17162529  1
  Sb  Sb75  1  0.66838347  0.49725331  0.83695298  1
  Sb  Sb76  1  0.50286137  0.83510075  0.33255254  1
  Sb  Sb77  1  0.83800123  0.49745889  0.66011520  1
  Sb  Sb78  1  0.16794778  0.16621973  0.66387617  1
  Sb  Sb79  1  0.66292122  0.67040313  0.66608698  1
  Sb  Sb80  1  0.33739523  0.50843685  0.16908066  1
  Sb  Sb81  1  0.50042802  0.32644294  0.49518596  1
  Sb  Sb82  1  -0.00009962  0.66907960  0.33120822  1
  Sb  Sb83  1  0.50036023  0.16613117  0.33747157  1
  Sb  Sb84  1  0.66169087  0.83656534  0.16707519  1
  Sb  Sb85  1  0.49980771  0.15758297  -0.00337020  1
  Sb  Sb86  1  0.50177930  0.67446943  0.49565547  1
  Sb  Sb87  1  0.50288504  0.67630915  0.83782248  1
  Sb  Sb88  1  0.33913762  0.16138719  0.16846509  1
  Sb  Sb89  1  0.00507363  0.33214498  -0.00127938  1
  Sb  Sb90  1  0.82961756  0.83329318  0.66264868  1
  Sb  Sb91  1  0.33277424  0.83981030  0.49681196  1
  Sb  Sb92  1  0.16337566  0.33200255  0.82773417  1
  Sb  Sb93  1  0.83031384  -0.00521196  0.16975830  1
  Sb  Sb94  1  0.33421999  -0.00224032  0.00085744  1
  Sb  Sb95  1  0.83054345  0.16746409  0.66581829  1
  Sb  Sb96  1  0.83372951  0.83251586  0.00197949  1
  Sb  Sb97  1  0.33228474  0.32704666  0.66351176  1
  Sb  Sb98  1  0.32792685  0.49575328  0.49797109  1
  Sb  Sb99  1  0.49626797  0.50494546  0.00762551  1
  Sb  Sb100  1  -0.00423276  0.16243748  0.16913957  1
  Sb  Sb101  1  0.83620815  -0.00101170  0.49845596  1
  Sb  Sb102  1  0.83259617  0.16746528  0.33601457  1
  Sb  Sb103  1  0.66792763  0.16153034  0.50248526  1
  Sb  Sb104  1  0.00371062  0.83385871  0.16543858  1
  Sb  Sb105  1  0.33563033  0.83769002  0.83647432  1
  Sb  Sb106  1  0.16844021  0.16222502  -0.00066243  1
  Sb  Sb107  1  0.00291767  0.66827766  0.66832450  1
  Te  Te108  1  0.16626121  0.15884987  0.16550444  1
  Te  Te109  1  0.16669549  0.16428129  0.50000795  1
  Te  Te110  1  0.16222530  0.16701712  0.83304565  1
  Te  Te111  1  0.16605961  0.50308808  0.16197474  1
  Te  Te112  1  0.16055470  0.50128121  0.50125326  1
  Te  Te113  1  0.16679127  0.49991769  0.83353304  1
  Te  Te114  1  0.16959809  0.83381820  0.16303994  1
  Te  Te115  1  0.16087404  0.83846935  0.50117073  1
  Te  Te116  1  0.15850307  0.83356796  0.84048374  1
  Te  Te117  1  0.50450002  0.16574469  0.16402169  1
  Te  Te118  1  0.49746275  0.15968651  0.50626152  1
  Te  Te119  1  0.50149637  0.16098572  0.83001437  1
  Te  Te120  1  0.50310221  0.49919606  0.17078435  1
  Te  Te121  1  0.50032664  0.50231593  0.49160345  1
  Te  Te122  1  0.50148452  0.50088603  0.83187976  1
  Te  Te123  1  0.49725271  0.83321588  0.16586551  1
  Te  Te124  1  0.50364777  0.83923165  0.50379162  1
  Te  Te125  1  0.50282931  0.83914670  0.83402596  1
  Te  Te126  1  0.82309893  0.16844441  0.16609216  1
  Te  Te127  1  0.84039978  0.17737749  0.49967059  1
  Te  Te128  1  0.83338951  0.17241968  0.83246839  1
  Te  Te129  1  0.82863901  0.50545276  0.17269539  1
  Te  Te130  1  0.83720095  0.50123173  0.49488996  1
  Te  Te131  1  0.83252764  0.50156366  0.83396713  1
  Te  Te132  1  0.83211797  0.82678641  0.17237082  1
  Te  Te133  1  0.83314915  0.83133504  0.49772380  1
  Te  Te134  1  0.83347711  0.82910163  0.83406074  1
  Te  Te135  1  0.16428079  -0.00449224  0.00276278  1
  Te  Te136  1  0.16679375  -0.00136107  0.33419818  1
  Te  Te137  1  0.16058066  -0.00179619  0.66168455  1
  Te  Te138  1  0.17296728  0.33574578  0.00124615  1
  Te  Te139  1  0.16578407  0.33472672  0.33843166  1
  Te  Te140  1  0.16385253  0.33846188  0.66058224  1
  Te  Te141  1  0.16667379  0.66877297  0.00245438  1
  Te  Te142  1  0.17320769  0.66748922  0.32644889  1
  Te  Te143  1  0.17272548  0.66296772  0.66546352  1
  Te  Te144  1  0.50111996  -0.00522016  0.00875171  1
  Te  Te145  1  0.49987023  -0.00019890  0.32848267  1
  Te  Te146  1  0.50007695  0.00028132  0.66494116  1
  Te  Te147  1  0.49398905  0.33618572  0.00483101  1
  Te  Te148  1  0.50267707  0.33301015  0.33081706  1
  Te  Te149  1  0.50466676  0.33177230  0.66693105  1
  Te  Te150  1  0.49611691  0.67258068  0.00501030  1
  Te  Te151  1  0.49607056  0.66452017  0.32891111  1
  Te  Te152  1  0.49392195  0.66721895  0.66651192  1
  Te  Te153  1  0.83758532  -0.00053355  0.00144080  1
  Te  Te154  1  0.83386586  -0.00398432  0.33300608  1
  Te  Te155  1  0.84226907  -0.00053714  0.66625603  1
  Te  Te156  1  0.83382420  0.33539480  -0.00328639  1
  Te  Te157  1  0.83154465  0.33607590  0.33536794  1
  Te  Te158  1  0.83286215  0.33422005  0.66518041  1
  Te  Te159  1  0.83676323  0.66610472  0.00083053  1
  Te  Te160  1  0.83362775  0.66666665  0.33379319  1
  Te  Te161  1  0.83281362  0.66500419  0.66781873  1
  Te  Te162  1  0.00043941  0.16204144  -0.00387696  1
  Te  Te163  1  -0.00124382  0.16458403  0.33699669  1
  Te  Te164  1  0.00112932  0.16744491  0.66693747  1
  Te  Te165  1  0.00574247  0.50172046  -0.00018651  1
  Te  Te166  1  -0.00315996  0.49817480  0.33849746  1
  Te  Te167  1  0.00484265  0.49917214  0.66186270  1
  Te  Te168  1  -0.00040283  0.83389823  -0.00094680  1
  Te  Te169  1  -0.00452861  0.83709447  0.33564283  1
  Te  Te170  1  0.00067538  0.83564275  0.66910358  1
  Te  Te171  1  0.33361048  0.17200637  -0.00442289  1
  Te  Te172  1  0.33434162  0.16402162  0.33744056  1
  Te  Te173  1  0.33527022  0.16258517  0.66614319  1
  Te  Te174  1  0.32888755  0.50149927  0.00024234  1
  Te  Te175  1  0.33644796  0.49488306  0.33385682  1
  Te  Te176  1  0.32847209  0.50095371  0.66638900  1
  Te  Te177  1  0.33325084  0.83117131  0.00161780  1
  Te  Te178  1  0.33400673  0.83558356  0.32893653  1
  Te  Te179  1  0.33662709  0.83647478  0.66766342  1
  Te  Te180  1  0.66664196  0.15867469  -0.00447482  1
  Te  Te181  1  0.66667490  0.16486384  0.33213390  1
  Te  Te182  1  0.66377293  0.16500525  0.66826499  1
  Te  Te183  1  0.66617861  0.49907373  0.00737296  1
  Te  Te184  1  0.66691709  0.49862376  0.33081377  1
  Te  Te185  1  0.66538215  0.49340757  0.66679666  1
  Te  Te186  1  0.66370162  0.83920485  -0.00392223  1
  Te  Te187  1  0.66971679  0.83712813  0.33672364  1
  Te  Te188  1  0.66288508  0.83584822  0.66717216  1
  Te  Te189  1  0.00241611  0.00074585  0.16803023  1
  Te  Te190  1  -0.00139084  -0.00039900  0.49980258  1
  Te  Te191  1  -0.00063317  0.00059129  0.83505946  1
  Te  Te192  1  0.00131430  0.33147472  0.17157891  1
  Te  Te193  1  0.00048493  0.32947514  0.49887606  1
  Te  Te194  1  -0.00439599  0.33106024  0.83223466  1
  Te  Te195  1  -0.00221678  0.66667087  0.16275027  1
  Te  Te196  1  -0.00355434  0.67764670  0.49981849  1
  Te  Te197  1  -0.00394111  0.66768779  0.83671669  1
  Te  Te198  1  0.33333186  -0.00280075  0.16846413  1
  Te  Te199  1  0.33344330  0.00018908  0.49871351  1
  Te  Te200  1  0.33524678  0.00383449  0.83093768  1
  Te  Te201  1  0.33756929  0.32986035  0.17074428  1
  Te  Te202  1  0.33260216  0.32764136  0.49477990  1
  Te  Te203  1  0.33312060  0.32655492  0.83335647  1
  Te  Te204  1  0.33426412  0.66945367  0.16724176  1
  Te  Te205  1  0.33271274  0.66741528  0.49846912  1
  Te  Te206  1  0.33437798  0.66679800  0.83226076  1
  Te  Te207  1  0.66472387  0.00155352  0.17070541  1
  Te  Te208  1  0.66871259  -0.00102140  0.49914659  1
  Te  Te209  1  0.66741369  -0.00028187  0.83118208  1
  Te  Te210  1  0.66202868  0.33177171  0.16965046  1
  Te  Te211  1  0.66737798  0.33179727  0.49841561  1
  Te  Te212  1  0.67090105  0.32929444  0.83351351  1
  Te  Te213  1  0.66624202  0.66439391  0.16576373  1
  Te  Te214  1  0.67224486  0.67227066  0.50062261  1
  Te  Te215  1  0.67215680  0.66941144  0.83376295  1
