# generated using pymatgen
data_AgSbTe2
_symmetry_space_group_name_H-M   'P 1'
_cell_length_a   18.32295272
_cell_length_b   18.32007195
_cell_length_c   18.32118091
_cell_angle_alpha   90.00115814
_cell_angle_beta   90.00067055
_cell_angle_gamma   89.99738440
_symmetry_Int_Tables_number   1
_chemical_formula_structural   AgSbTe2
_chemical_formula_sum   'Ag54 Sb54 Te108'
_cell_volume   6150.01391796
_cell_formula_units_Z   54
loop_
 _symmetry_equiv_pos_site_id
 _symmetry_equiv_pos_as_xyz
  1  'x, y, z'
loop_
 _atom_site_type_symbol
 _atom_site_label
 _atom_site_symmetry_multiplicity
 _atom_site_fract_x
 _atom_site_fract_y
 _atom_site_fract_z
 _atom_site_occupancy
  Ag  Ag0  1  0.34406722  0.33405374  -0.00599318  1
  Ag  Ag1  1  0.33639739  0.66492626  0.34698142  1
  Ag  Ag2  1  0.66039736  0.66107454  -0.00199838  1
  Ag  Ag3  1  0.49920866  0.16732984  0.67007174  1
  Ag  Ag4  1  0.65679500  0.49369954  0.49782661  1
  Ag  Ag5  1  0.50219109  0.33129561  0.50283142  1
  Ag  Ag6  1  0.17119755  0.00152797  0.50164261  1
  Ag  Ag7  1  0.49921851  0.49003002  0.00337287  1
  Ag  Ag8  1  0.83527057  0.16681046  0.34441632  1
  Ag  Ag9  1  0.16569933  0.83252425  -0.00702928  1
  Ag  Ag10  1  0.00145826  0.50329340  0.49792940  1
  Ag  Ag11  1  0.16226081  0.82894116  0.66664379  1
  Ag  Ag12  1  0.49846269  0.32464292  0.83069359  1
  Ag  Ag13  1  0.66536097  0.66133837  0.34124664  1
  Ag  Ag14  1  0.33065119  0.66708108  0.66336214  1
  Ag  Ag15  1  0.50477663  0.17290529  -0.01405207  1
  Ag  Ag16  1  -0.00105657  0.32944676  0.00441379  1
  Ag  Ag17  1  0.33905812  0.50384985  0.50147665  1
  Ag  Ag18  1  0.84115515  0.83740911  0.66107592  1
  Ag  Ag19  1  0.16356308  0.33323931  0.16579748  1
  Ag  Ag20  1  0.49634733  0.65991216  0.50053969  1
  Ag  Ag21  1  0.50233472  0.01056762  0.83124738  1
  Ag  Ag22  1  0.83069202  0.00118770  0.16400355  1
  Ag  Ag23  1  0.66215195  0.66723276  0.65824825  1
  Ag  Ag24  1  0.82593228  0.16266942  0.66083895  1
  Ag  Ag25  1  0.50281730  0.50076078  0.34090696  1
  Ag  Ag26  1  0.33576273  0.32514512  0.66356019  1
  Ag  Ag27  1  0.65905077  0.33187051  0.00307650  1
  Ag  Ag28  1  0.82870460  0.16539601  -0.00234292  1
  Ag  Ag29  1  0.16855676  0.67024940  0.82788771  1
  Ag  Ag30  1  0.83407443  0.83690113  0.34071112  1
  Ag  Ag31  1  0.67001568  0.33566042  0.34109857  1
  Ag  Ag32  1  0.33551484  0.00738610  0.66310616  1
  Ag  Ag33  1  0.33044050  0.82870263  0.50386196  1
  Ag  Ag34  1  -0.00301668  0.00560235  -0.00098392  1
  Ag  Ag35  1  0.16971727  0.50919009  0.66298774  1
  Ag  Ag36  1  0.00189003  0.83366034  0.82300793  1
  Ag  Ag37  1  0.49456931  0.01109455  0.50470204  1
  Ag  Ag38  1  0.50419105  0.00138628  0.16557528  1
  Ag  Ag39  1  0.33864099  0.66186667  -0.00454424  1
  Ag  Ag40  1  0.34216315  0.16594124  0.50469594  1
  Ag  Ag41  1  -0.00021249  0.66072286  0.34320909  1
  Ag  Ag42  1  0.83107965  0.00327494  0.83402833  1
  Ag  Ag43  1  0.65497307  0.16707592  0.82703262  1
  Ag  Ag44  1  0.16158344  0.17003206  0.33984331  1
  Ag  Ag45  1  -0.00435530  0.33612632  0.33777483  1
  Ag  Ag46  1  -0.00370093  0.16764851  0.49899261  1
  Ag  Ag47  1  0.82718544  0.32721788  0.49880297  1
  Ag  Ag48  1  0.34272689  0.16799792  0.82237572  1
  Ag  Ag49  1  0.00697437  0.67109131  0.66048772  1
  Ag  Ag50  1  0.66799392  0.83254807  0.16731721  1
  Ag  Ag51  1  0.66446230  0.17340915  0.50429569  1
  Ag  Ag52  1  0.00289609  0.82909505  0.50442117  1
  Ag  Ag53  1  0.00104533  0.49678819  0.17810210  1
  Sb  Sb54  1  0.66727650  0.16480414  0.16743218  1
  Sb  Sb55  1  0.82961135  0.49223432  0.00122025  1
  Sb  Sb56  1  0.33496201  -0.00295666  0.34347142  1
  Sb  Sb57  1  -0.00179021  0.00259091  0.33307997  1
  Sb  Sb58  1  -0.00024211  0.16319274  0.82952083  1
  Sb  Sb59  1  0.83202322  0.67215277  0.16906794  1
  Sb  Sb60  1  0.67096900  0.83726325  0.83495784  1
  Sb  Sb61  1  0.66313290  0.00112774  0.66603465  1
  Sb  Sb62  1  0.17172641  0.33583131  0.83600210  1
  Sb  Sb63  1  -0.00164566  0.17063860  0.17156691  1
  Sb  Sb64  1  0.49691796  0.66638950  0.82886816  1
  Sb  Sb65  1  0.00253184  -0.00486774  0.66696613  1
  Sb  Sb66  1  0.33484964  0.16758602  0.16956690  1
  Sb  Sb67  1  0.00183807  0.50384950  0.82972967  1
  Sb  Sb68  1  0.50267944  0.17129690  0.34007380  1
  Sb  Sb69  1  0.50122121  0.66852594  0.17072888  1
  Sb  Sb70  1  0.82716177  0.32389244  0.83007936  1
  Sb  Sb71  1  0.17128890  0.50185564  -0.00332507  1
  Sb  Sb72  1  0.33236469  0.00151693  -0.00665286  1
  Sb  Sb73  1  0.83212098  0.49761422  0.33632352  1
  Sb  Sb74  1  0.17114154  0.67058857  0.50625195  1
  Sb  Sb75  1  0.83599651  0.83912156  -0.00109937  1
  Sb  Sb76  1  0.16613956  0.00299057  0.16961364  1
  Sb  Sb77  1  0.16901693  0.32900721  0.49755992  1
  Sb  Sb78  1  -0.00339200  0.83060523  0.17008781  1
  Sb  Sb79  1  0.49531679  0.49556206  0.66142759  1
  Sb  Sb80  1  0.66206446  0.33312245  0.66204854  1
  Sb  Sb81  1  0.33637705  0.83226229  0.17175379  1
  Sb  Sb82  1  0.33457399  0.33645425  0.33839559  1
  Sb  Sb83  1  0.66879506  0.00415034  0.00011884  1
  Sb  Sb84  1  0.33131904  0.49894913  0.17066099  1
  Sb  Sb85  1  0.17029789  0.16441814  0.66054043  1
  Sb  Sb86  1  0.16282039  0.83492160  0.33910174  1
  Sb  Sb87  1  0.32925289  0.83526112  0.82604461  1
  Sb  Sb88  1  0.66782249  0.83312359  0.49843688  1
  Sb  Sb89  1  0.83319711  0.00503868  0.50207176  1
  Sb  Sb90  1  0.83597645  0.32725281  0.17159304  1
  Sb  Sb91  1  0.66290767  0.49513179  0.82863249  1
  Sb  Sb92  1  0.16654808  0.16550977  0.00211814  1
  Sb  Sb93  1  0.66918848  0.50222046  0.17131436  1
  Sb  Sb94  1  0.50488432  0.82892598  0.33666373  1
  Sb  Sb95  1  0.16646060  0.49786475  0.34068045  1
  Sb  Sb96  1  0.16541846  0.66315960  0.16372088  1
  Sb  Sb97  1  0.83541048  0.49901965  0.66240827  1
  Sb  Sb98  1  0.49815118  0.32930433  0.16659503  1
  Sb  Sb99  1  0.83548914  0.67396659  0.83043508  1
  Sb  Sb100  1  -0.00069680  0.66574841  -0.00130627  1
  Sb  Sb101  1  0.83254870  0.66462337  0.49990143  1
  Sb  Sb102  1  0.66717232  0.00193623  0.33379938  1
  Sb  Sb103  1  0.33551162  0.49620169  0.82628425  1
  Sb  Sb104  1  0.00461194  0.33532117  0.66250044  1
  Sb  Sb105  1  0.49796412  0.83748482  0.66381579  1
  Sb  Sb106  1  0.16694494  -0.00356867  0.82800370  1
  Sb  Sb107  1  0.49753731  0.83492833  -0.00079124  1
  Te  Te108  1  0.16659649  0.17062110  0.17402956  1
  Te  Te109  1  0.16402168  0.16302388  0.49768995  1
  Te  Te110  1  0.17241745  0.16578165  0.83301360  1
  Te  Te111  1  0.16152633  0.49532374  0.16566362  1
  Te  Te112  1  0.16454726  0.49770741  0.50375283  1
  Te  Te113  1  0.16771005  0.50743023  0.82609790  1
  Te  Te114  1  0.16682339  0.83377465  0.16370737  1
  Te  Te115  1  0.16555143  0.83794026  0.50246226  1
  Te  Te116  1  0.16327381  0.83107988  0.83130089  1
  Te  Te117  1  0.50034913  0.16077590  0.16550718  1
  Te  Te118  1  0.50134071  0.17010215  0.50093747  1
  Te  Te119  1  0.49899307  0.16787630  0.83050140  1
  Te  Te120  1  0.50023535  0.50000826  0.16477860  1
  Te  Te121  1  0.49921983  0.50008194  0.50071832  1
  Te  Te122  1  0.50026557  0.49546909  0.84204234  1
  Te  Te123  1  0.50497107  0.83986468  0.16749693  1
  Te  Te124  1  0.49654125  0.83166755  0.49985634  1
  Te  Te125  1  0.50122605  0.84082161  0.83262326  1
  Te  Te126  1  0.83321533  0.16021060  0.16071781  1
  Te  Te127  1  0.83171235  0.16621846  0.50106420  1
  Te  Te128  1  0.83428805  0.16124891  0.83365318  1
  Te  Te129  1  0.84133182  0.49930807  0.16652433  1
  Te  Te130  1  0.83823837  0.49076396  0.50007308  1
  Te  Te131  1  0.83246988  0.49865591  0.83185800  1
  Te  Te132  1  0.82974385  0.83969380  0.16890654  1
  Te  Te133  1  0.83551237  0.83633713  0.50067984  1
  Te  Te134  1  0.83868634  0.84091776  0.82989655  1
  Te  Te135  1  0.16220861  -0.00394220  0.00077139  1
  Te  Te136  1  0.16652880  0.00573483  0.33783604  1
  Te  Te137  1  0.17206837  -0.00553738  0.66196391  1
  Te  Te138  1  0.16138925  0.33385037  0.00269930  1
  Te  Te139  1  0.16457520  0.33090576  0.32931216  1
  Te  Te140  1  0.17362421  0.33660662  0.66821262  1
  Te  Te141  1  0.16839799  0.66967541  -0.00451482  1
  Te  Te142  1  0.16433995  0.66655497  0.33143557  1
  Te  Te143  1  0.16698726  0.66883753  0.66671328  1
  Te  Te144  1  0.49965837  0.00391055  -0.00251988  1
  Te  Te145  1  0.50020889  0.00003999  0.33279145  1
  Te  Te146  1  0.49732342  0.00374324  0.66554756  1
  Te  Te147  1  0.50036368  0.33095402  0.00399297  1
  Te  Te148  1  0.50284420  0.33880875  0.33515010  1
  Te  Te149  1  0.49666462  0.33009094  0.66546539  1
  Te  Te150  1  0.49991311  0.66749192  -0.00162128  1
  Te  Te151  1  0.50072724  0.66253367  0.33686675  1
  Te  Te152  1  0.49928009  0.66660131  0.66313513  1
  Te  Te153  1  0.83498710  0.00356665  -0.00120548  1
  Te  Te154  1  0.83294981  0.00211438  0.33008852  1
  Te  Te155  1  0.83285997  0.00151099  0.66945100  1
  Te  Te156  1  0.83467488  0.32633449  -0.00071940  1
  Te  Te157  1  0.83334481  0.32978245  0.33698678  1
  Te  Te158  1  0.83464880  0.32715833  0.66189372  1
  Te  Te159  1  0.82721538  0.66559804  -0.00081198  1
  Te  Te160  1  0.83309038  0.67096891  0.33322889  1
  Te  Te161  1  0.83466570  0.67037818  0.66700503  1
  Te  Te162  1  -0.00093632  0.16757077  -0.00166818  1
  Te  Te163  1  -0.00298592  0.16954702  0.33719216  1
  Te  Te164  1  -0.00150638  0.16629681  0.66102849  1
  Te  Te165  1  -0.00034250  0.49466278  -0.00179996  1
  Te  Te166  1  -0.00021886  0.49842074  0.33718814  1
  Te  Te167  1  0.00332253  0.50469399  0.66170968  1
  Te  Te168  1  0.00354445  0.83249676  0.00178464  1
  Te  Te169  1  -0.00461611  0.83070568  0.33767979  1
  Te  Te170  1  0.00033628  0.83341219  0.66484703  1
  Te  Te171  1  0.33545924  0.16978129  0.00056134  1
  Te  Te172  1  0.33106161  0.16737931  0.33999751  1
  Te  Te173  1  0.33302205  0.16704821  0.66396636  1
  Te  Te174  1  0.33652182  0.49897020  0.00051387  1
  Te  Te175  1  0.33655248  0.50477206  0.33821439  1
  Te  Te176  1  0.33109570  0.50531926  0.66178457  1
  Te  Te177  1  0.32880537  0.83174662  0.00013205  1
  Te  Te178  1  0.33184099  0.82513397  0.33949879  1
  Te  Te179  1  0.33140354  0.82773387  0.66239590  1
  Te  Te180  1  0.66586686  0.16985085  0.00075152  1
  Te  Te181  1  0.67067546  0.17245310  0.33685113  1
  Te  Te182  1  0.66574039  0.16709238  0.66597628  1
  Te  Te183  1  0.66243604  0.49860730  0.00066660  1
  Te  Te184  1  0.66542037  0.50005551  0.33682447  1
  Te  Te185  1  0.66685230  0.50629201  0.66003973  1
  Te  Te186  1  0.66717275  0.82764408  0.00296365  1
  Te  Te187  1  0.67218006  0.82944408  0.33090620  1
  Te  Te188  1  0.67156598  0.82707256  0.66746073  1
  Te  Te189  1  -0.00211713  -0.00069977  0.16065067  1
  Te  Te190  1  0.00183748  0.00111482  0.49958882  1
  Te  Te191  1  -0.00083614  -0.00417895  0.83745815  1
  Te  Te192  1  0.00096367  0.33590188  0.16811806  1
  Te  Te193  1  0.00206345  0.33090706  0.49829238  1
  Te  Te194  1  -0.00016182  0.33374501  0.83613478  1
  Te  Te195  1  -0.00073007  0.66011192  0.17119102  1
  Te  Te196  1  -0.00219958  0.66705571  0.50063679  1
  Te  Te197  1  0.00315316  0.67180137  0.82945801  1
  Te  Te198  1  0.33715916  -0.00132125  0.16714902  1
  Te  Te199  1  0.33524305  0.00189410  0.50306926  1
  Te  Te200  1  0.33657997  0.00405918  0.82703051  1
  Te  Te201  1  0.32728441  0.33387045  0.16142822  1
  Te  Te202  1  0.33583125  0.33371460  0.50186366  1
  Te  Te203  1  0.33668251  0.33019458  0.83418381  1
  Te  Te204  1  0.33316035  0.66665606  0.15795397  1
  Te  Te205  1  0.33453319  0.66592872  0.50237490  1
  Te  Te206  1  0.33119324  0.66711362  0.83449358  1
  Te  Te207  1  0.66611521  -0.00460907  0.16674760  1
  Te  Te208  1  0.65827060  0.00437271  0.49981518  1
  Te  Te209  1  0.66636559  0.00533663  0.83325394  1
  Te  Te210  1  0.66779785  0.33491618  0.16543604  1
  Te  Te211  1  0.66473096  0.33396252  0.50066390  1
  Te  Te212  1  0.66074554  0.32823623  0.83665332  1
  Te  Te213  1  0.66610198  0.66988603  0.16662353  1
  Te  Te214  1  0.66620034  0.66704873  0.49975297  1
  Te  Te215  1  0.66631081  0.66582267  0.83412906  1
