# generated using pymatgen
data_AgSbTe2
_symmetry_space_group_name_H-M   'P 1'
_cell_length_a   18.34274616
_cell_length_b   18.33992739
_cell_length_c   18.33566976
_cell_angle_alpha   90.00186452
_cell_angle_beta   89.99725189
_cell_angle_gamma   89.99734937
_symmetry_Int_Tables_number   1
_chemical_formula_structural   AgSbTe2
_chemical_formula_sum   'Ag54 Sb54 Te108'
_cell_volume   6168.20423524
_cell_formula_units_Z   54
loop_
 _symmetry_equiv_pos_site_id
 _symmetry_equiv_pos_as_xyz
  1  'x, y, z'
loop_
 _atom_site_type_symbol
 _atom_site_label
 _atom_site_symmetry_multiplicity
 _atom_site_fract_x
 _atom_site_fract_y
 _atom_site_fract_z
 _atom_site_occupancy
  Ag  Ag0  1  0.66924826  0.16540762  0.16443200  1
  Ag  Ag1  1  0.32474796  -0.00136353  0.67906112  1
  Ag  Ag2  1  0.49942838  0.33455221  0.50523787  1
  Ag  Ag3  1  0.00688139  -0.00454264  -0.00175106  1
  Ag  Ag4  1  0.16810133  0.32638300  0.83313963  1
  Ag  Ag5  1  0.82587915  0.50381396  0.32308363  1
  Ag  Ag6  1  -0.00064621  0.50497767  0.83774504  1
  Ag  Ag7  1  0.16796259  -0.00075441  0.52028372  1
  Ag  Ag8  1  0.00416420  0.67649751  -0.00285186  1
  Ag  Ag9  1  0.16585897  0.15826929  0.67979204  1
  Ag  Ag10  1  0.16656874  0.84141704  -0.00190436  1
  Ag  Ag11  1  0.32577001  0.84082596  0.83532714  1
  Ag  Ag12  1  -0.00516290  0.49757222  0.15678825  1
  Ag  Ag13  1  0.33453640  0.33573762  0.33154413  1
  Ag  Ag14  1  0.15893859  0.00474344  0.14917794  1
  Ag  Ag15  1  0.49150982  0.33136941  0.83074622  1
  Ag  Ag16  1  0.17079162  0.00209682  0.83478423  1
  Ag  Ag17  1  0.67620359  0.49584420  0.16645982  1
  Ag  Ag18  1  0.67640267  0.84587775  0.16607287  1
  Ag  Ag19  1  0.48904387  -0.00507428  0.83544514  1
  Ag  Ag20  1  0.84393517  -0.00041507  0.84367677  1
  Ag  Ag21  1  0.00108396  0.16085535  0.16279591  1
  Ag  Ag22  1  0.33244311  0.15626786  0.83970114  1
  Ag  Ag23  1  0.83821667  0.33207442  0.16527668  1
  Ag  Ag24  1  0.49030197  0.84284445  -0.00416800  1
  Ag  Ag25  1  0.00252025  0.67620997  0.67743576  1
  Ag  Ag26  1  0.66633770  -0.00119879  0.32839363  1
  Ag  Ag27  1  0.00825811  0.83696670  0.83668554  1
  Ag  Ag28  1  0.33359982  0.66387259  0.32617568  1
  Ag  Ag29  1  0.32334407  -0.00141603  -0.00562153  1
  Ag  Ag30  1  0.32779655  0.67616477  0.00050572  1
  Ag  Ag31  1  0.00468918  0.33229859  0.67180490  1
  Ag  Ag32  1  0.66072779  0.49627379  0.49419395  1
  Ag  Ag33  1  0.84052410  0.16501375  0.00373142  1
  Ag  Ag34  1  0.33691203  0.49807789  0.49806405  1
  Ag  Ag35  1  0.00922044  -0.00519657  0.67986484  1
  Ag  Ag36  1  0.17076250  0.15934576  -0.00101104  1
  Ag  Ag37  1  0.48928829  0.16083464  0.00214121  1
  Ag  Ag38  1  -0.00055112  0.84068425  0.15673849  1
  Ag  Ag39  1  0.49357577  0.83601418  0.67767600  1
  Ag  Ag40  1  0.50266749  0.49424146  0.33332524  1
  Ag  Ag41  1  0.32783866  0.16591390  0.15856871  1
  Ag  Ag42  1  0.84001762  0.00441405  0.16094569  1
  Ag  Ag43  1  0.83947599  0.83257797  0.32511475  1
  Ag  Ag44  1  0.16312445  0.49791041  0.67045559  1
  Ag  Ag45  1  0.67048676  0.33444623  0.67015413  1
  Ag  Ag46  1  0.15949052  0.32520478  0.15743772  1
  Ag  Ag47  1  0.49786530  0.67879445  0.83562298  1
  Ag  Ag48  1  0.49740768  0.17146107  0.32182903  1
  Ag  Ag49  1  0.84407284  0.83677813  0.67440066  1
  Ag  Ag50  1  0.16380313  0.83816877  0.32423321  1
  Ag  Ag51  1  0.16339134  0.84158322  0.67788597  1
  Ag  Ag52  1  0.67073106  0.49700241  0.83492547  1
  Ag  Ag53  1  0.83764218  0.49453165  0.00402026  1
  Sb  Sb54  1  0.84036708  0.16252849  0.67795477  1
  Sb  Sb55  1  0.49879838  0.50059243  0.66690551  1
  Sb  Sb56  1  0.49594998  0.16507120  0.67293877  1
  Sb  Sb57  1  0.00048430  0.49936690  0.50316826  1
  Sb  Sb58  1  0.82856968  0.16481263  0.32298496  1
  Sb  Sb59  1  0.16291421  0.49988135  -0.00281744  1
  Sb  Sb60  1  0.66826528  0.66728334  -0.00028380  1
  Sb  Sb61  1  0.32973233  0.50120411  0.83145847  1
  Sb  Sb62  1  0.66490196  0.83326341  0.83731963  1
  Sb  Sb63  1  0.83366512  0.66659088  0.50058332  1
  Sb  Sb64  1  0.16595181  0.67069307  0.16498163  1
  Sb  Sb65  1  0.33362788  0.00058116  0.32984676  1
  Sb  Sb66  1  0.50199619  0.49925316  0.00063909  1
  Sb  Sb67  1  0.00294802  0.16312086  0.49837445  1
  Sb  Sb68  1  0.66715378  0.83084450  0.49710218  1
  Sb  Sb69  1  0.16720586  0.67030293  0.50100295  1
  Sb  Sb70  1  0.50031224  0.00191608  0.16130457  1
  Sb  Sb71  1  0.33158534  0.16865740  0.50057207  1
  Sb  Sb72  1  0.16714084  0.67318650  0.83366876  1
  Sb  Sb73  1  0.33012348  0.33055523  0.66700843  1
  Sb  Sb74  1  0.66745022  0.33324538  -0.00111346  1
  Sb  Sb75  1  0.83527566  0.66897387  0.83434796  1
  Sb  Sb76  1  0.49816190  0.66720297  0.16174516  1
  Sb  Sb77  1  0.83512389  0.66706221  0.16476272  1
  Sb  Sb78  1  0.83690830  0.33040582  0.83739464  1
  Sb  Sb79  1  0.33065204  0.83131282  0.50451047  1
  Sb  Sb80  1  0.83871130  0.83536590  0.00090766  1
  Sb  Sb81  1  0.66734294  0.00014304  0.00311557  1
  Sb  Sb82  1  0.66212453  0.33337284  0.33242936  1
  Sb  Sb83  1  0.66863516  0.66479571  0.67000096  1
  Sb  Sb84  1  0.82953931  0.33585135  0.49616183  1
  Sb  Sb85  1  0.50025969  0.33043561  0.16457145  1
  Sb  Sb86  1  0.00242908  0.83611329  0.50662653  1
  Sb  Sb87  1  0.66764880  0.00282883  0.66629416  1
  Sb  Sb88  1  0.00132825  0.33007625  -0.00134594  1
  Sb  Sb89  1  0.00344981  0.33497225  0.32993015  1
  Sb  Sb90  1  0.00284089  0.66962052  0.32932528  1
  Sb  Sb91  1  0.66439887  0.16990391  0.49597544  1
  Sb  Sb92  1  0.00901087  0.16253855  0.84002802  1
  Sb  Sb93  1  0.66354065  0.66653986  0.33112939  1
  Sb  Sb94  1  0.49794663  0.66286195  0.50335791  1
  Sb  Sb95  1  0.83758923  -0.00086745  0.49770373  1
  Sb  Sb96  1  0.33196674  0.49497583  0.16849465  1
  Sb  Sb97  1  0.49829945  0.83346727  0.32929230  1
  Sb  Sb98  1  0.83674386  0.50039172  0.66958582  1
  Sb  Sb99  1  -0.00052174  -0.00193699  0.32433119  1
  Sb  Sb100  1  0.33234932  0.32805003  0.00205844  1
  Sb  Sb101  1  0.32999602  0.67094269  0.67068023  1
  Sb  Sb102  1  0.17097949  0.16235513  0.32373479  1
  Sb  Sb103  1  0.49655500  0.00415427  0.50388467  1
  Sb  Sb104  1  0.32922157  0.83900534  0.15884821  1
  Sb  Sb105  1  0.16813032  0.50142154  0.33310326  1
  Sb  Sb106  1  0.17051534  0.33046850  0.50352906  1
  Sb  Sb107  1  0.66040901  0.16910839  0.83764367  1
  Te  Te108  1  0.16539156  0.16553231  0.16346803  1
  Te  Te109  1  0.16636745  0.16071441  0.50364334  1
  Te  Te110  1  0.16849054  0.16736951  0.83670226  1
  Te  Te111  1  0.16199815  0.49390833  0.16681260  1
  Te  Te112  1  0.16958094  0.50027416  0.50207406  1
  Te  Te113  1  0.16272920  0.49478844  0.83127600  1
  Te  Te114  1  0.16337795  0.83621722  0.16337723  1
  Te  Te115  1  0.16667395  0.83917597  0.49798427  1
  Te  Te116  1  0.16710195  0.83363183  0.83519608  1
  Te  Te117  1  0.50155856  0.16637269  0.16347598  1
  Te  Te118  1  0.49950717  0.17316793  0.49740908  1
  Te  Te119  1  0.49477910  0.16891243  0.83779613  1
  Te  Te120  1  0.50059250  0.49958109  0.17019623  1
  Te  Te121  1  0.49921632  0.49703529  0.49942506  1
  Te  Te122  1  0.50006021  0.49054271  0.83409382  1
  Te  Te123  1  0.50216176  0.83283051  0.16066094  1
  Te  Te124  1  0.50062174  0.83421270  0.50586311  1
  Te  Te125  1  0.50413357  0.83449134  0.83497699  1
  Te  Te126  1  0.83346666  0.16477690  0.16438307  1
  Te  Te127  1  0.83363937  0.16748929  0.49918943  1
  Te  Te128  1  0.82995592  0.16135361  0.84208257  1
  Te  Te129  1  0.83592269  0.50237344  0.16548223  1
  Te  Te130  1  0.82970393  0.50019625  0.49475156  1
  Te  Te131  1  0.83439500  0.49988732  0.83730447  1
  Te  Te132  1  0.83562367  0.83503305  0.16667972  1
  Te  Te133  1  0.83252772  0.83351108  0.49445587  1
  Te  Te134  1  0.83291334  0.83813166  0.83193304  1
  Te  Te135  1  0.16555082  0.00080911  -0.00520079  1
  Te  Te136  1  0.16670702  -0.00419681  0.32960913  1
  Te  Te137  1  0.16658369  -0.00026624  0.67530872  1
  Te  Te138  1  0.16730319  0.33073408  -0.00107197  1
  Te  Te139  1  0.17222058  0.33125680  0.33379221  1
  Te  Te140  1  0.16484185  0.33733172  0.66848349  1
  Te  Te141  1  0.16610251  0.66900606  0.00010358  1
  Te  Te142  1  0.17086514  0.67279314  0.33362427  1
  Te  Te143  1  0.16182509  0.66176030  0.66733184  1
  Te  Te144  1  0.50182521  0.00084122  -0.00476760  1
  Te  Te145  1  0.50373649  0.00226154  0.33594095  1
  Te  Te146  1  0.50088253  -0.00348848  0.67141100  1
  Te  Te147  1  0.49973946  0.33007529  -0.00676030  1
  Te  Te148  1  0.49706936  0.33435519  0.33033368  1
  Te  Te149  1  0.50025874  0.33309056  0.66772133  1
  Te  Te150  1  0.49820787  0.66597852  -0.00596030  1
  Te  Te151  1  0.49326708  0.66309801  0.33536489  1
  Te  Te152  1  0.49948041  0.67180281  0.67360925  1
  Te  Te153  1  0.83293134  0.00198993  0.00246029  1
  Te  Te154  1  0.83080333  -0.00295931  0.33027096  1
  Te  Te155  1  0.83469927  -0.00413247  0.66521288  1
  Te  Te156  1  0.83351158  0.33216686  0.00520778  1
  Te  Te157  1  0.83500224  0.33623808  0.32734385  1
  Te  Te158  1  0.83356125  0.33111455  0.66537808  1
  Te  Te159  1  0.84003574  0.65969919  -0.00193064  1
  Te  Te160  1  0.83349463  0.66928756  0.33429090  1
  Te  Te161  1  0.83906375  0.67378163  0.66699863  1
  Te  Te162  1  0.00094106  0.16311981  0.00455805  1
  Te  Te163  1  0.00088833  0.16682144  0.32567034  1
  Te  Te164  1  0.00441591  0.16841782  0.66664574  1
  Te  Te165  1  -0.00112981  0.49792135  -0.00222902  1
  Te  Te166  1  -0.00238505  0.50213582  0.33240484  1
  Te  Te167  1  0.00084464  0.49654299  0.66764858  1
  Te  Te168  1  0.00029604  0.83380772  -0.00230042  1
  Te  Te169  1  0.00046653  0.83285601  0.33088547  1
  Te  Te170  1  0.00141623  0.83491767  0.66952125  1
  Te  Te171  1  0.33186723  0.16591280  -0.00003613  1
  Te  Te172  1  0.33804178  0.16944437  0.33190523  1
  Te  Te173  1  0.32917580  0.16156566  0.66917476  1
  Te  Te174  1  0.33312001  0.50793728  0.00103161  1
  Te  Te175  1  0.33401897  0.49864300  0.33386677  1
  Te  Te176  1  0.32811670  0.50177290  0.66278154  1
  Te  Te177  1  0.33160053  0.83603633  -0.00163815  1
  Te  Te178  1  0.32977887  0.83017169  0.33234681  1
  Te  Te179  1  0.33089946  0.83597298  0.67086487  1
  Te  Te180  1  0.66576100  0.16698732  0.00564107  1
  Te  Te181  1  0.66110655  0.16481594  0.32875866  1
  Te  Te182  1  0.66756197  0.17310147  0.66538830  1
  Te  Te183  1  0.67039272  0.50026700  0.00081716  1
  Te  Te184  1  0.66585278  0.49941979  0.33162748  1
  Te  Te185  1  0.66803734  0.49637556  0.67169113  1
  Te  Te186  1  0.66289646  0.83144733  0.00601228  1
  Te  Te187  1  0.66699159  0.83496420  0.32927242  1
  Te  Te188  1  0.66881557  0.83369956  0.66522360  1
  Te  Te189  1  -0.00009690  -0.00034038  0.16391349  1
  Te  Te190  1  0.00606795  -0.00017009  0.50686910  1
  Te  Te191  1  -0.00016041  0.00001768  0.83612804  1
  Te  Te192  1  0.00001949  0.33633184  0.16704589  1
  Te  Te193  1  -0.00103798  0.33174810  0.50587433  1
  Te  Te194  1  0.00307382  0.33614510  0.82991896  1
  Te  Te195  1  0.00202166  0.66332199  0.16229415  1
  Te  Te196  1  0.00025393  0.66700991  0.50750887  1
  Te  Te197  1  0.00019993  0.66566762  0.83536329  1
  Te  Te198  1  0.33065322  0.00617488  0.16249896  1
  Te  Te199  1  0.32837846  -0.00058794  0.50017603  1
  Te  Te200  1  0.33406959  -0.00149496  0.83602977  1
  Te  Te201  1  0.33058610  0.32761828  0.16951056  1
  Te  Te202  1  0.33765709  0.33626827  0.49642298  1
  Te  Te203  1  0.33070045  0.33269833  0.83352239  1
  Te  Te204  1  0.33224643  0.66676815  0.16450103  1
  Te  Te205  1  0.33355826  0.66096992  0.49576871  1
  Te  Te206  1  0.33736286  0.66850715  0.83881660  1
  Te  Te207  1  0.66525475  0.00149594  0.16918937  1
  Te  Te208  1  0.66621938  -0.00031592  0.49200551  1
  Te  Te209  1  0.67017778  0.00144268  0.83024684  1
  Te  Te210  1  0.67130615  0.33326078  0.16681761  1
  Te  Te211  1  0.66287701  0.33699551  0.50362684  1
  Te  Te212  1  0.66954225  0.33586102  0.82919436  1
  Te  Te213  1  0.66554923  0.65972366  0.16680701  1
  Te  Te214  1  0.66597905  0.65763495  0.50095912  1
  Te  Te215  1  0.66175419  0.65911485  0.83330397  1
