# generated using pymatgen
data_AgSbTe2
_symmetry_space_group_name_H-M   'P 1'
_cell_length_a   18.34001102
_cell_length_b   18.34804573
_cell_length_c   18.34645075
_cell_angle_alpha   90.00195101
_cell_angle_beta   89.99994944
_cell_angle_gamma   90.00109685
_symmetry_Int_Tables_number   1
_chemical_formula_structural   AgSbTe2
_chemical_formula_sum   'Ag54 Sb54 Te108'
_cell_volume   6173.64233422
_cell_formula_units_Z   54
loop_
 _symmetry_equiv_pos_site_id
 _symmetry_equiv_pos_as_xyz
  1  'x, y, z'
loop_
 _atom_site_type_symbol
 _atom_site_label
 _atom_site_symmetry_multiplicity
 _atom_site_fract_x
 _atom_site_fract_y
 _atom_site_fract_z
 _atom_site_occupancy
  Ag  Ag0  1  0.33072588  0.17937723  0.50426748  1
  Ag  Ag1  1  0.83954495  0.65952846  0.16179621  1
  Ag  Ag2  1  0.16309897  0.66014113  0.50250081  1
  Ag  Ag3  1  0.32810304  0.65563693  0.67736192  1
  Ag  Ag4  1  0.84190750  0.01008222  0.83912307  1
  Ag  Ag5  1  0.83975125  0.65703193  0.49145854  1
  Ag  Ag6  1  0.17239439  0.50097659  0.66888564  1
  Ag  Ag7  1  0.17052118  0.66522763  0.83888424  1
  Ag  Ag8  1  0.67470535  0.49734177  0.16177122  1
  Ag  Ag9  1  0.49565611  0.33310885  0.84359231  1
  Ag  Ag10  1  0.16345086  0.82127257  -0.00210686  1
  Ag  Ag11  1  0.00458589  0.49681952  0.83472124  1
  Ag  Ag12  1  0.82490337  0.34046271  0.16123202  1
  Ag  Ag13  1  0.83335053  0.49182980  0.32083789  1
  Ag  Ag14  1  -0.00809511  0.82791188  0.16334181  1
  Ag  Ag15  1  0.67444028  0.65409336  0.00268873  1
  Ag  Ag16  1  0.83382174  0.33856402  0.49768029  1
  Ag  Ag17  1  0.82984607  0.33382406  0.84463190  1
  Ag  Ag18  1  0.15840856  0.66175752  0.15556153  1
  Ag  Ag19  1  0.49891053  0.83339752  0.67041024  1
  Ag  Ag20  1  0.66653761  0.33596325  0.67202711  1
  Ag  Ag21  1  0.67153516  0.82899328  0.16179530  1
  Ag  Ag22  1  0.83426406  0.82261096  0.00227930  1
  Ag  Ag23  1  0.50557563  0.00998710  0.16449639  1
  Ag  Ag24  1  0.50650994  0.16890454  0.32149695  1
  Ag  Ag25  1  0.67293164  0.00866768  0.32225901  1
  Ag  Ag26  1  0.16525923  0.00370031  0.50792136  1
  Ag  Ag27  1  0.00297013  0.66737098  0.00286937  1
  Ag  Ag28  1  0.00331116  0.16964260  0.83665290  1
  Ag  Ag29  1  0.33481333  0.33795851  0.67825288  1
  Ag  Ag30  1  0.32795838  0.49683200  0.83666575  1
  Ag  Ag31  1  0.34480237  0.33946106  -0.00588592  1
  Ag  Ag32  1  0.32359009  0.65662511  -0.00436369  1
  Ag  Ag33  1  0.16302051  0.00077464  0.83455034  1
  Ag  Ag34  1  -0.00235937  0.66702275  0.31983632  1
  Ag  Ag35  1  0.33070587  0.82256208  0.83474225  1
  Ag  Ag36  1  0.50062141  0.49323814  0.00156724  1
  Ag  Ag37  1  0.67160081  0.32931184  0.31921788  1
  Ag  Ag38  1  -0.00440830  -0.00081255  0.33227587  1
  Ag  Ag39  1  0.50863104  0.33204477  0.15495710  1
  Ag  Ag40  1  0.82788592  0.49444390  0.00310853  1
  Ag  Ag41  1  0.83725880  0.49687449  0.67047783  1
  Ag  Ag42  1  0.32767119  0.17672236  0.83619879  1
  Ag  Ag43  1  0.65884295  0.33475276  0.00168456  1
  Ag  Ag44  1  0.66921883  0.00317200  0.00497753  1
  Ag  Ag45  1  0.16704386  0.16824626  -0.00316851  1
  Ag  Ag46  1  0.83210054  0.17481640  0.00048739  1
  Ag  Ag47  1  0.32768739  0.49600721  0.51137912  1
  Ag  Ag48  1  0.00107974  -0.00028376  0.67571177  1
  Ag  Ag49  1  0.82990418  0.17531055  0.32515654  1
  Ag  Ag50  1  0.16931959  0.34285225  0.16277979  1
  Ag  Ag51  1  0.33483927  0.49696754  0.15407506  1
  Ag  Ag52  1  0.50077336  0.18010748  0.00292554  1
  Ag  Ag53  1  0.17033940  0.33628385  0.49895904  1
  Sb  Sb54  1  0.83818833  0.00253877  0.49983630  1
  Sb  Sb55  1  0.66866385  0.83230217  0.49318697  1
  Sb  Sb56  1  0.16733638  0.17253342  0.67134007  1
  Sb  Sb57  1  0.16867585  0.33484154  0.83592184  1
  Sb  Sb58  1  -0.00202987  0.16396234  0.16157281  1
  Sb  Sb59  1  0.82746210  0.00092858  0.16000606  1
  Sb  Sb60  1  0.66418359  0.16978271  0.49553845  1
  Sb  Sb61  1  0.16389094  0.16840252  0.33036225  1
  Sb  Sb62  1  -0.00442983  -0.00343449  0.00081124  1
  Sb  Sb63  1  0.32633916  0.66287600  0.33003213  1
  Sb  Sb64  1  0.50270596  0.83959769  0.33154369  1
  Sb  Sb65  1  0.00312214  0.16669788  0.50266140  1
  Sb  Sb66  1  0.49831935  0.00573844  0.83960872  1
  Sb  Sb67  1  0.00473990  0.66833004  0.67007322  1
  Sb  Sb68  1  0.50078103  0.83195552  -0.00236506  1
  Sb  Sb69  1  0.66842658  0.49776037  0.49533912  1
  Sb  Sb70  1  0.49375982  0.00322553  0.49601284  1
  Sb  Sb71  1  0.00074103  0.50038126  0.50423054  1
  Sb  Sb72  1  0.67507901  0.66236931  0.32470462  1
  Sb  Sb73  1  0.00125118  0.83244781  0.49532685  1
  Sb  Sb74  1  0.83128700  0.82762670  0.67563005  1
  Sb  Sb75  1  0.00180586  0.33352468  0.66923958  1
  Sb  Sb76  1  0.33171024  0.00381691  0.33322256  1
  Sb  Sb77  1  0.66336974  0.83373718  0.84171667  1
  Sb  Sb78  1  0.83450103  0.83362853  0.32544583  1
  Sb  Sb79  1  0.66787199  0.49704592  0.84173770  1
  Sb  Sb80  1  0.83504514  0.17583670  0.67043681  1
  Sb  Sb81  1  -0.00196059  0.33892334  -0.00060075  1
  Sb  Sb82  1  0.50497699  0.49262905  0.32511341  1
  Sb  Sb83  1  0.15993783  0.49975689  0.33548694  1
  Sb  Sb84  1  0.67208017  0.00355415  0.67015603  1
  Sb  Sb85  1  0.33036149  0.82874598  0.50854328  1
  Sb  Sb86  1  0.33768245  0.33440111  0.33061420  1
  Sb  Sb87  1  0.49610788  0.66404424  0.50240203  1
  Sb  Sb88  1  -0.00159293  0.50444754  0.15988143  1
  Sb  Sb89  1  0.66843693  0.17090118  0.83795131  1
  Sb  Sb90  1  0.16828396  -0.00271029  0.16127665  1
  Sb  Sb91  1  0.84083450  0.65936567  0.84157208  1
  Sb  Sb92  1  0.33395695  0.82594934  0.15713887  1
  Sb  Sb93  1  0.33527120  0.17515676  0.16109240  1
  Sb  Sb94  1  0.16918900  0.82953091  0.67351251  1
  Sb  Sb95  1  0.66702565  0.17204397  0.16406777  1
  Sb  Sb96  1  0.16532035  0.83253720  0.32681265  1
  Sb  Sb97  1  0.00411915  0.83276460  0.83988539  1
  Sb  Sb98  1  0.66494997  0.65975177  0.67234632  1
  Sb  Sb99  1  0.50168226  0.66130800  0.16418004  1
  Sb  Sb100  1  0.49166939  0.65948004  0.83727350  1
  Sb  Sb101  1  0.16816341  0.49968883  -0.00419739  1
  Sb  Sb102  1  0.49618353  0.49914769  0.67406870  1
  Sb  Sb103  1  -0.00761924  0.33470982  0.33158347  1
  Sb  Sb104  1  0.33551256  0.00378051  -0.00129878  1
  Sb  Sb105  1  0.49912230  0.33377471  0.49999190  1
  Sb  Sb106  1  0.32876878  0.00230875  0.66970526  1
  Sb  Sb107  1  0.49757817  0.16663486  0.67168735  1
  Te  Te108  1  0.16697887  0.16660135  0.16137905  1
  Te  Te109  1  0.17022537  0.16782181  0.49940350  1
  Te  Te110  1  0.16560974  0.16745762  0.83532312  1
  Te  Te111  1  0.16772821  0.50215630  0.16921220  1
  Te  Te112  1  0.16691071  0.49882996  0.50224225  1
  Te  Te113  1  0.16568469  0.50045806  0.82956004  1
  Te  Te114  1  0.16624188  0.82853054  0.15914205  1
  Te  Te115  1  0.16691997  0.83304736  0.50035381  1
  Te  Te116  1  0.17006296  0.83304184  0.83822848  1
  Te  Te117  1  0.49872948  0.17055013  0.16387851  1
  Te  Te118  1  0.49111806  0.16635568  0.49977517  1
  Te  Te119  1  0.49401250  0.17161540  0.83883775  1
  Te  Te120  1  0.49706456  0.49454005  0.16244947  1
  Te  Te121  1  0.49272831  0.50044493  0.49781163  1
  Te  Te122  1  0.49459371  0.49326965  0.83978863  1
  Te  Te123  1  0.50358200  0.83462377  0.16591463  1
  Te  Te124  1  0.49964726  0.83367495  0.50544549  1
  Te  Te125  1  0.49392887  0.83654370  0.83082286  1
  Te  Te126  1  0.83483531  0.17255422  0.16532124  1
  Te  Te127  1  0.83382976  0.17168216  0.49788397  1
  Te  Te128  1  0.83599537  0.16941901  0.83517373  1
  Te  Te129  1  0.83491507  0.49998562  0.16437876  1
  Te  Te130  1  0.83318929  0.49889661  0.50525732  1
  Te  Te131  1  0.83323065  0.49609331  0.83299491  1
  Te  Te132  1  0.83217824  0.83426290  0.16074960  1
  Te  Te133  1  0.83358318  0.82809948  0.50329684  1
  Te  Te134  1  0.83259909  0.83466280  0.84116145  1
  Te  Te135  1  0.16738387  0.00576233  -0.00399934  1
  Te  Te136  1  0.16191791  0.00026162  0.33378602  1
  Te  Te137  1  0.16273836  -0.00098622  0.66906312  1
  Te  Te138  1  0.16485740  0.32941467  0.00212885  1
  Te  Te139  1  0.16526209  0.33287391  0.33673906  1
  Te  Te140  1  0.17080457  0.33855373  0.66184979  1
  Te  Te141  1  0.16646895  0.66370590  -0.00101104  1
  Te  Te142  1  0.15889054  0.66726828  0.34014040  1
  Te  Te143  1  0.16954313  0.66328659  0.66328731  1
  Te  Te144  1  0.50575022  0.00058660  0.00410425  1
  Te  Te145  1  0.50406208  0.00713809  0.32865662  1
  Te  Te146  1  0.50224344  -0.00339563  0.66719698  1
  Te  Te147  1  0.50024189  0.33525177  -0.00032686  1
  Te  Te148  1  0.50796860  0.32736508  0.33261394  1
  Te  Te149  1  0.49924941  0.33271041  0.66926689  1
  Te  Te150  1  0.50284091  0.66308117  0.00084894  1
  Te  Te151  1  0.50274626  0.66819571  0.33449962  1
  Te  Te152  1  0.49505320  0.67041848  0.66824460  1
  Te  Te153  1  0.82970208  0.00813215  -0.00237463  1
  Te  Te154  1  0.83284950  0.00201260  0.33470833  1
  Te  Te155  1  0.83745980  -0.00171671  0.67073589  1
  Te  Te156  1  0.83666502  0.33406121  0.00160307  1
  Te  Te157  1  0.83138462  0.33311097  0.33266342  1
  Te  Te158  1  0.83455252  0.33801048  0.66213255  1
  Te  Te159  1  0.83295645  0.66591571  0.00164151  1
  Te  Te160  1  0.83709512  0.66675414  0.33225524  1
  Te  Te161  1  0.83266432  0.66001487  0.66743469  1
  Te  Te162  1  -0.00145958  0.16414476  -0.00407954  1
  Te  Te163  1  -0.00448111  0.16246766  0.33372704  1
  Te  Te164  1  0.00077746  0.15880692  0.67305666  1
  Te  Te165  1  -0.00722377  0.50567462  -0.00585963  1
  Te  Te166  1  -0.00766976  0.50523004  0.33519874  1
  Te  Te167  1  0.00026629  0.50072443  0.67376969  1
  Te  Te168  1  -0.00005522  0.83060074  0.00389420  1
  Te  Te169  1  -0.00021218  0.83201245  0.32621278  1
  Te  Te170  1  -0.00107288  0.83975809  0.66714816  1
  Te  Te171  1  0.33384795  0.17001222  -0.00274047  1
  Te  Te172  1  0.33504285  0.16687862  0.33895199  1
  Te  Te173  1  0.33327642  0.17237841  0.66801511  1
  Te  Te174  1  0.33041693  0.49869926  -0.00227174  1
  Te  Te175  1  0.33546632  0.50082108  0.33276966  1
  Te  Te176  1  0.33415551  0.49825967  0.66868976  1
  Te  Te177  1  0.32994613  0.83147783  -0.00558385  1
  Te  Te178  1  0.33492862  0.83346099  0.33366769  1
  Te  Te179  1  0.33635805  0.83213066  0.67358037  1
  Te  Te180  1  0.66733483  0.16975101  -0.00095758  1
  Te  Te181  1  0.66829333  0.16801099  0.33353822  1
  Te  Te182  1  0.66609172  0.17339963  0.66571653  1
  Te  Te183  1  0.66674296  0.49595452  0.00261069  1
  Te  Te184  1  0.67274073  0.49497870  0.32703151  1
  Te  Te185  1  0.66663810  0.49604509  0.66532808  1
  Te  Te186  1  0.66803526  0.83918839  0.00373476  1
  Te  Te187  1  0.66681771  0.83891410  0.32551005  1
  Te  Te188  1  0.66267910  0.83260382  0.66648835  1
  Te  Te189  1  0.00034329  -0.00625430  0.17115066  1
  Te  Te190  1  0.00580371  -0.00061716  0.49499338  1
  Te  Te191  1  0.00176340  -0.00076597  0.83527709  1
  Te  Te192  1  0.00946075  0.33278306  0.16789768  1
  Te  Te193  1  0.00075135  0.33236009  0.50026983  1
  Te  Te194  1  -0.00549699  0.33236433  0.83270721  1
  Te  Te195  1  -0.00040119  0.66728579  0.16355074  1
  Te  Te196  1  -0.00075210  0.66757639  0.50311202  1
  Te  Te197  1  0.00756587  0.66447239  0.83736536  1
  Te  Te198  1  0.34003830  -0.00251102  0.16745064  1
  Te  Te199  1  0.32543198  0.00007122  0.50144780  1
  Te  Te200  1  0.32872753  0.00529853  0.83293388  1
  Te  Te201  1  0.32829873  0.33755730  0.16454366  1
  Te  Te202  1  0.33224359  0.33623196  0.49673311  1
  Te  Te203  1  0.33027177  0.33489536  0.83499702  1
  Te  Te204  1  0.33065026  0.66055101  0.16226226  1
  Te  Te205  1  0.32819952  0.66129060  0.50054541  1
  Te  Te206  1  0.33018715  0.66375729  0.83516443  1
  Te  Te207  1  0.66552532  -0.00138140  0.16573024  1
  Te  Te208  1  0.66653596  -0.00003356  0.49740433  1
  Te  Te209  1  0.67102252  0.00145666  0.83666560  1
  Te  Te210  1  0.66783923  0.33561229  0.16309773  1
  Te  Te211  1  0.67089703  0.33396366  0.50657470  1
  Te  Te212  1  0.66973959  0.33416180  0.83358209  1
  Te  Te213  1  0.66916925  0.66465121  0.16199525  1
  Te  Te214  1  0.67277913  0.66618697  0.49983858  1
  Te  Te215  1  0.66554117  0.66704503  0.84145968  1
