# generated using pymatgen
data_AgSbTe2
_symmetry_space_group_name_H-M   'P 1'
_cell_length_a   18.33754172
_cell_length_b   18.33895721
_cell_length_c   18.33428195
_cell_angle_alpha   90.00293332
_cell_angle_beta   90.00248663
_cell_angle_gamma   89.99858786
_symmetry_Int_Tables_number   1
_chemical_formula_structural   AgSbTe2
_chemical_formula_sum   'Ag54 Sb54 Te108'
_cell_volume   6165.66119886
_cell_formula_units_Z   54
loop_
 _symmetry_equiv_pos_site_id
 _symmetry_equiv_pos_as_xyz
  1  'x, y, z'
loop_
 _atom_site_type_symbol
 _atom_site_label
 _atom_site_symmetry_multiplicity
 _atom_site_fract_x
 _atom_site_fract_y
 _atom_site_fract_z
 _atom_site_occupancy
  Ag  Ag0  1  0.16345195  0.65800564  0.16841399  1
  Ag  Ag1  1  0.16666721  0.01151045  0.83469788  1
  Ag  Ag2  1  0.50216383  0.01368390  0.16541626  1
  Ag  Ag3  1  0.82729068  0.83112980  -0.00027893  1
  Ag  Ag4  1  0.66060289  0.16935636  0.84022401  1
  Ag  Ag5  1  0.65477246  0.17037865  0.49904219  1
  Ag  Ag6  1  0.49794278  0.32834455  0.49931310  1
  Ag  Ag7  1  0.32893659  0.48364229  0.83851852  1
  Ag  Ag8  1  0.83267336  0.16686794  0.32485100  1
  Ag  Ag9  1  0.00218651  0.17125322  0.83656109  1
  Ag  Ag10  1  0.16465753  0.49691911  0.33342763  1
  Ag  Ag11  1  0.67103122  0.48935932  0.49679403  1
  Ag  Ag12  1  0.16663786  0.01130108  0.50118219  1
  Ag  Ag13  1  0.50356363  0.32619327  0.15830445  1
  Ag  Ag14  1  0.49526907  0.16884280  0.00624385  1
  Ag  Ag15  1  0.84126578  0.66350645  0.49524444  1
  Ag  Ag16  1  0.16973819  0.33162053  0.49768668  1
  Ag  Ag17  1  0.17517072  0.32837743  0.84045845  1
  Ag  Ag18  1  0.33382409  0.84280589  0.15842446  1
  Ag  Ag19  1  0.67021035  0.49023711  0.15869626  1
  Ag  Ag20  1  0.83021452  0.01246640  0.16198013  1
  Ag  Ag21  1  0.66375735  0.33431875  0.00210788  1
  Ag  Ag22  1  0.15817353  0.65396817  0.49294442  1
  Ag  Ag23  1  -0.00154785  0.66482591  0.65730438  1
  Ag  Ag24  1  0.82250307  0.32802862  0.16157833  1
  Ag  Ag25  1  -0.00393688  0.16834713  0.16713853  1
  Ag  Ag26  1  0.66714116  0.00625238  0.66811596  1
  Ag  Ag27  1  0.33630722  0.00304148  0.00034699  1
  Ag  Ag28  1  0.82511794  0.50046152  0.00333957  1
  Ag  Ag29  1  0.33500484  0.33057592  0.67417130  1
  Ag  Ag30  1  0.50210149  0.16883565  0.66755824  1
  Ag  Ag31  1  0.50357230  0.17073935  0.32169331  1
  Ag  Ag32  1  0.83699397  0.66493158  0.16531608  1
  Ag  Ag33  1  0.33234361  0.33039317  0.33280607  1
  Ag  Ag34  1  0.17027231  0.33042490  0.16478076  1
  Ag  Ag35  1  0.50513632  0.48691163  0.00103645  1
  Ag  Ag36  1  0.83259650  0.32632920  0.83998925  1
  Ag  Ag37  1  0.66377157  0.65748829  0.00141502  1
  Ag  Ag38  1  0.49841256  0.01209717  0.49592580  1
  Ag  Ag39  1  0.34616319  0.16748069  0.15953310  1
  Ag  Ag40  1  -0.00059986  0.17034780  0.49711558  1
  Ag  Ag41  1  0.83702369  0.00867914  0.84140393  1
  Ag  Ag42  1  0.33584523  0.16732597  0.84057767  1
  Ag  Ag43  1  0.00088824  0.66536620  0.33681539  1
  Ag  Ag44  1  0.49655692  0.83718808  0.00039797  1
  Ag  Ag45  1  0.00208837  0.49088418  0.83287384  1
  Ag  Ag46  1  0.17490684  0.16883449  -0.00153366  1
  Ag  Ag47  1  0.49409634  0.32892858  0.84125365  1
  Ag  Ag48  1  0.00051103  0.00795158  0.33362626  1
  Ag  Ag49  1  0.33808962  0.67306856  0.00057575  1
  Ag  Ag50  1  0.33387582  0.84142848  0.84081664  1
  Ag  Ag51  1  0.83350077  0.83447811  0.67585096  1
  Ag  Ag52  1  0.65954377  0.17155888  0.16230243  1
  Ag  Ag53  1  -0.00040574  0.50117707  0.50022402  1
  Sb  Sb54  1  0.00149521  0.83581656  0.83426802  1
  Sb  Sb55  1  0.00429342  0.33189252  0.33343168  1
  Sb  Sb56  1  -0.00248520  0.49500736  0.16675266  1
  Sb  Sb57  1  0.33981333  0.32783371  -0.00098484  1
  Sb  Sb58  1  0.50092465  0.66050860  0.49937740  1
  Sb  Sb59  1  -0.00027412  0.83104299  0.50088188  1
  Sb  Sb60  1  0.32710926  0.65965474  0.32561526  1
  Sb  Sb61  1  0.17129025  0.83755965  0.00065753  1
  Sb  Sb62  1  0.32959567  0.00791354  0.32781223  1
  Sb  Sb63  1  0.00010590  0.66444781  0.00276548  1
  Sb  Sb64  1  0.32800411  0.66232218  0.67182782  1
  Sb  Sb65  1  0.82896946  0.16363917  0.66874732  1
  Sb  Sb66  1  0.66219626  0.32741585  0.67022937  1
  Sb  Sb67  1  -0.00599713  0.33144247  -0.00073841  1
  Sb  Sb68  1  0.66200938  0.33047574  0.32653871  1
  Sb  Sb69  1  0.16365216  0.83388715  0.66854673  1
  Sb  Sb70  1  0.50106400  0.66397643  0.16358222  1
  Sb  Sb71  1  0.33295935  0.83588326  0.50092483  1
  Sb  Sb72  1  0.50059994  0.49144793  0.67177398  1
  Sb  Sb73  1  0.83265109  0.33411601  0.49906866  1
  Sb  Sb74  1  0.16919392  0.49334019  0.00205366  1
  Sb  Sb75  1  0.67318514  0.66246926  0.32691422  1
  Sb  Sb76  1  0.50361856  0.84389419  0.67428237  1
  Sb  Sb77  1  0.83419331  0.83661687  0.32968031  1
  Sb  Sb78  1  0.67045238  0.00556270  0.33426986  1
  Sb  Sb79  1  0.17100086  0.16803100  0.67207010  1
  Sb  Sb80  1  0.83553225  0.66486648  0.83835556  1
  Sb  Sb81  1  0.33582567  0.16953848  0.49928732  1
  Sb  Sb82  1  0.66768077  0.83749933  0.50238471  1
  Sb  Sb83  1  0.49778573  0.84435579  0.32515210  1
  Sb  Sb84  1  0.67205978  0.66928165  0.66976353  1
  Sb  Sb85  1  0.33072650  0.49502848  0.50265211  1
  Sb  Sb86  1  0.16622391  0.17210851  0.33043347  1
  Sb  Sb87  1  0.66806222  0.49143838  0.83833852  1
  Sb  Sb88  1  0.33671188  0.49302926  0.15804691  1
  Sb  Sb89  1  0.83407170  0.00066500  0.49907006  1
  Sb  Sb90  1  -0.00280797  -0.00035622  0.66418192  1
  Sb  Sb91  1  0.66433320  0.84088433  0.83814498  1
  Sb  Sb92  1  0.33744435  0.00719561  0.67271501  1
  Sb  Sb93  1  0.16622133  0.66264925  0.83682376  1
  Sb  Sb94  1  0.00272455  0.83614445  0.16545554  1
  Sb  Sb95  1  0.49575886  0.49065043  0.32801689  1
  Sb  Sb96  1  0.82902116  0.16907367  0.00338713  1
  Sb  Sb97  1  0.49868489  0.01141230  0.83944116  1
  Sb  Sb98  1  0.16504823  0.49822539  0.66362393  1
  Sb  Sb99  1  0.16700865  0.00747550  0.16493498  1
  Sb  Sb100  1  0.49850071  0.65994822  0.83808224  1
  Sb  Sb101  1  0.83360439  0.50207115  0.67067739  1
  Sb  Sb102  1  0.00078848  0.00439983  0.00251592  1
  Sb  Sb103  1  0.16665348  0.83061142  0.33212940  1
  Sb  Sb104  1  0.66512838  0.83618413  0.16206371  1
  Sb  Sb105  1  0.00383220  0.33439300  0.66853335  1
  Sb  Sb106  1  0.66355313  0.00638595  -0.00159720  1
  Sb  Sb107  1  0.83744035  0.49455162  0.32883078  1
  Te  Te108  1  0.15892372  0.16931306  0.16397198  1
  Te  Te109  1  0.16664135  0.16977578  0.49987355  1
  Te  Te110  1  0.16439152  0.16867167  0.83253189  1
  Te  Te111  1  0.16584875  0.49688228  0.16922655  1
  Te  Te112  1  0.16421970  0.49691789  0.49743154  1
  Te  Te113  1  0.16484742  0.49480447  0.83405748  1
  Te  Te114  1  0.17169068  0.82936994  0.16594596  1
  Te  Te115  1  0.16819733  0.83674727  0.50053501  1
  Te  Te116  1  0.17079093  0.83690354  0.83392792  1
  Te  Te117  1  0.50220597  0.16905753  0.16689257  1
  Te  Te118  1  0.49736714  0.16801911  0.50261448  1
  Te  Te119  1  0.50193459  0.16888225  0.83284113  1
  Te  Te120  1  0.50639849  0.49539430  0.16193242  1
  Te  Te121  1  0.50285874  0.49393610  0.49941294  1
  Te  Te122  1  0.49769412  0.49286051  0.83889589  1
  Te  Te123  1  0.49546437  0.83370256  0.16051536  1
  Te  Te124  1  0.49941303  0.83622191  0.50039055  1
  Te  Te125  1  0.49584517  0.83319142  0.83927850  1
  Te  Te126  1  0.83706305  0.16869367  0.16464151  1
  Te  Te127  1  0.83850102  0.16646776  0.49769448  1
  Te  Te128  1  0.83587261  0.16639022  0.83498902  1
  Te  Te129  1  0.83101586  0.49943190  0.16427011  1
  Te  Te130  1  0.83593100  0.50159092  0.49907208  1
  Te  Te131  1  0.83644470  0.49717022  0.83801344  1
  Te  Te132  1  0.83381460  0.82809994  0.16271964  1
  Te  Te133  1  0.83218250  0.82793820  0.49955401  1
  Te  Te134  1  0.83307246  0.83611468  0.83626644  1
  Te  Te135  1  0.17081887  0.00444270  -0.00361033  1
  Te  Te136  1  0.16205483  0.00008421  0.33721501  1
  Te  Te137  1  0.16713783  -0.00062270  0.66474445  1
  Te  Te138  1  0.16522095  0.32960894  -0.00023477  1
  Te  Te139  1  0.16976886  0.33583427  0.33449659  1
  Te  Te140  1  0.17254985  0.33356938  0.66382941  1
  Te  Te141  1  0.16890854  0.66609579  0.00520532  1
  Te  Te142  1  0.16325685  0.66329032  0.33250510  1
  Te  Te143  1  0.16104015  0.66716747  0.66121028  1
  Te  Te144  1  0.49821905  0.00133148  0.00442040  1
  Te  Te145  1  0.49928368  0.00830029  0.33226393  1
  Te  Te146  1  0.50420517  0.00597240  0.66160666  1
  Te  Te147  1  0.50261677  0.33066787  0.00042891  1
  Te  Te148  1  0.49501694  0.32904102  0.33791220  1
  Te  Te149  1  0.49621290  0.32891667  0.66302923  1
  Te  Te150  1  0.49991460  0.67108268  0.00021917  1
  Te  Te151  1  0.49807844  0.66729944  0.33349024  1
  Te  Te152  1  0.50002003  0.66904025  0.66624837  1
  Te  Te153  1  0.83240854  -0.00241360  0.00092189  1
  Te  Te154  1  0.83878340  0.00415403  0.32862244  1
  Te  Te155  1  0.82993198  -0.00453924  0.66794143  1
  Te  Te156  1  0.82800354  0.33540106  0.00108300  1
  Te  Te157  1  0.83408156  0.32678287  0.32731715  1
  Te  Te158  1  0.83311340  0.33334797  0.67555336  1
  Te  Te159  1  0.83292175  0.66408804  0.00346029  1
  Te  Te160  1  0.83879064  0.66649740  0.33166860  1
  Te  Te161  1  0.83591267  0.67073099  0.66468867  1
  Te  Te162  1  0.00779508  0.16619441  -0.00288470  1
  Te  Te163  1  0.00017824  0.16672776  0.33543514  1
  Te  Te164  1  -0.00141454  0.16640655  0.66342859  1
  Te  Te165  1  -0.00313323  0.50027570  -0.00558309  1
  Te  Te166  1  0.00328484  0.50318462  0.33662332  1
  Te  Te167  1  -0.00122839  0.50403137  0.66516458  1
  Te  Te168  1  -0.00978749  0.83316135  -0.00045511  1
  Te  Te169  1  -0.00082578  0.83244781  0.33289502  1
  Te  Te170  1  -0.00714967  0.82766875  0.66816321  1
  Te  Te171  1  0.33439082  0.16512789  0.00031750  1
  Te  Te172  1  0.33610973  0.17140283  0.32768391  1
  Te  Te173  1  0.33958255  0.17126223  0.67259439  1
  Te  Te174  1  0.33502920  0.50783366  -0.00478093  1
  Te  Te175  1  0.32741872  0.49229775  0.33239745  1
  Te  Te176  1  0.33397713  0.49502300  0.67760264  1
  Te  Te177  1  0.33285439  0.83490565  0.00077683  1
  Te  Te178  1  0.33439678  0.83211128  0.32514624  1
  Te  Te179  1  0.33421193  0.83240469  0.67462357  1
  Te  Te180  1  0.66321975  0.16977936  0.00096999  1
  Te  Te181  1  0.66781092  0.16655038  0.33597366  1
  Te  Te182  1  0.66326065  0.16431516  0.66216046  1
  Te  Te183  1  0.66532284  0.49765012  -0.00038455  1
  Te  Te184  1  0.66581436  0.49954981  0.33787491  1
  Te  Te185  1  0.66602412  0.50196321  0.65692156  1
  Te  Te186  1  0.66607209  0.82768559  0.00020720  1
  Te  Te187  1  0.66534374  0.83282267  0.33265882  1
  Te  Te188  1  0.67247028  0.83968335  0.66967777  1
  Te  Te189  1  -0.00268021  0.00354286  0.17066194  1
  Te  Te190  1  0.00292335  0.00332778  0.49703498  1
  Te  Te191  1  0.00029555  0.00361428  0.83210495  1
  Te  Te192  1  0.00649443  0.32912716  0.16684864  1
  Te  Te193  1  0.00163016  0.33395320  0.50136693  1
  Te  Te194  1  -0.00033679  0.33169596  0.83258508  1
  Te  Te195  1  0.00096261  0.66523601  0.17020232  1
  Te  Te196  1  0.00133087  0.66662034  0.49784850  1
  Te  Te197  1  0.00161283  0.66363683  0.82971974  1
  Te  Te198  1  0.33405925  0.00319225  0.16345822  1
  Te  Te199  1  0.33234697  0.00006121  0.49991843  1
  Te  Te200  1  0.33210004  0.00409110  0.83669888  1
  Te  Te201  1  0.33247827  0.32963775  0.16740526  1
  Te  Te202  1  0.33142939  0.33435734  0.49974367  1
  Te  Te203  1  0.33380989  0.32773166  0.83537844  1
  Te  Te204  1  0.33108590  0.66353103  0.16190636  1
  Te  Te205  1  0.32830606  0.66555861  0.50081903  1
  Te  Te206  1  0.33145587  0.67195647  0.83744645  1
  Te  Te207  1  0.66791428  0.00494946  0.16660672  1
  Te  Te208  1  0.66366162  0.00518032  0.50260648  1
  Te  Te209  1  0.67070627  0.00767185  0.83100272  1
  Te  Te210  1  0.66494239  0.33205253  0.16555585  1
  Te  Te211  1  0.66579814  0.33018909  0.50138740  1
  Te  Te212  1  0.66697719  0.32876767  0.83641860  1
  Te  Te213  1  0.67097273  0.66425174  0.16118971  1
  Te  Te214  1  0.66962730  0.66605590  0.49960733  1
  Te  Te215  1  0.66684755  0.66544149  0.83913775  1
