# generated using pymatgen
data_AgSbTe2
_symmetry_space_group_name_H-M   'P 1'
_cell_length_a   18.31848754
_cell_length_b   18.31102372
_cell_length_c   18.31780565
_cell_angle_alpha   89.99873281
_cell_angle_beta   90.00113727
_cell_angle_gamma   90.00387747
_symmetry_Int_Tables_number   1
_chemical_formula_structural   AgSbTe2
_chemical_formula_sum   'Ag54 Sb54 Te108'
_cell_volume   6144.34629399
_cell_formula_units_Z   54
loop_
 _symmetry_equiv_pos_site_id
 _symmetry_equiv_pos_as_xyz
  1  'x, y, z'
loop_
 _atom_site_type_symbol
 _atom_site_label
 _atom_site_symmetry_multiplicity
 _atom_site_fract_x
 _atom_site_fract_y
 _atom_site_fract_z
 _atom_site_occupancy
  Ag  Ag0  1  0.49446937  0.82638401  0.33666477  1
  Ag  Ag1  1  0.16661642  -0.00467052  0.82951996  1
  Ag  Ag2  1  0.83398318  0.83402690  0.66572551  1
  Ag  Ag3  1  0.16425783  0.51068184  0.34105941  1
  Ag  Ag4  1  0.49342931  0.66361824  0.83249702  1
  Ag  Ag5  1  0.83451711  0.66445442  0.16572901  1
  Ag  Ag6  1  0.83381436  0.50719731  0.00285851  1
  Ag  Ag7  1  0.50233611  0.34469204  0.50639794  1
  Ag  Ag8  1  0.66885552  0.66836699  0.33334121  1
  Ag  Ag9  1  0.83972828  0.50612485  0.66025154  1
  Ag  Ag10  1  0.82968550  0.34052951  0.50411601  1
  Ag  Ag11  1  0.17004472  0.66723918  0.83334494  1
  Ag  Ag12  1  0.17051240  0.50959158  -0.00376416  1
  Ag  Ag13  1  0.66371965  0.33541669  0.66448782  1
  Ag  Ag14  1  0.16740893  0.16427926  0.67020238  1
  Ag  Ag15  1  0.32858134  0.50836800  0.50348638  1
  Ag  Ag16  1  -0.00310127  -0.00590284  0.66780026  1
  Ag  Ag17  1  0.83662153  0.50546888  0.33495703  1
  Ag  Ag18  1  0.67501114  0.50425526  0.16822998  1
  Ag  Ag19  1  0.17203217  0.82853571  0.33345971  1
  Ag  Ag20  1  0.83186767  -0.00697270  0.50743249  1
  Ag  Ag21  1  0.49548945  0.50498178  -0.00039918  1
  Ag  Ag22  1  0.33199350  0.82731854  0.49500091  1
  Ag  Ag23  1  0.32790505  0.15801823  0.15933014  1
  Ag  Ag24  1  0.33129322  0.66840949  -0.00426041  1
  Ag  Ag25  1  0.83764703  -0.00374529  0.82701170  1
  Ag  Ag26  1  0.00087329  0.66873430  0.65925616  1
  Ag  Ag27  1  0.32645096  0.00075560  0.66835271  1
  Ag  Ag28  1  0.16724286  0.82782912  0.00194898  1
  Ag  Ag29  1  0.00240031  0.16343769  0.16238361  1
  Ag  Ag30  1  -0.00076538  0.66643131  0.33980508  1
  Ag  Ag31  1  0.32861213  0.16449753  0.83307520  1
  Ag  Ag32  1  0.83746157  0.82924780  -0.00429547  1
  Ag  Ag33  1  0.66608138  0.66557943  0.00261748  1
  Ag  Ag34  1  0.16477340  0.50332835  0.66388477  1
  Ag  Ag35  1  0.83592800  0.16017565  -0.00133352  1
  Ag  Ag36  1  -0.00083788  0.82574680  0.49966370  1
  Ag  Ag37  1  0.67610397  -0.00437051  0.66347562  1
  Ag  Ag38  1  0.33238381  0.50134505  0.82861503  1
  Ag  Ag39  1  0.32646265  0.83515609  0.17355770  1
  Ag  Ag40  1  0.00395818  0.82740837  0.17175593  1
  Ag  Ag41  1  0.49997130  0.50816197  0.33681692  1
  Ag  Ag42  1  0.66605034  -0.01222491  0.33999833  1
  Ag  Ag43  1  0.66945466  0.83169012  0.82506691  1
  Ag  Ag44  1  0.49399893  0.66485523  0.49855527  1
  Ag  Ag45  1  0.33663343  0.33662586  0.66766925  1
  Ag  Ag46  1  0.16547340  0.66696035  0.50175610  1
  Ag  Ag47  1  -0.00407073  0.51070176  0.17253117  1
  Ag  Ag48  1  0.00556433  0.16121152  0.83361372  1
  Ag  Ag49  1  0.49679092  0.34379749  0.82612817  1
  Ag  Ag50  1  0.33462474  -0.00884945  0.33523435  1
  Ag  Ag51  1  0.67155601  0.83292288  0.50086893  1
  Ag  Ag52  1  0.00329695  0.50867573  0.49691685  1
  Ag  Ag53  1  0.33112050  -0.00808338  -0.00230962  1
  Sb  Sb54  1  0.33031945  0.50457914  0.16668714  1
  Sb  Sb55  1  -0.00095923  0.34567469  0.33446520  1
  Sb  Sb56  1  -0.00117605  0.33428070  -0.00052337  1
  Sb  Sb57  1  0.49692068  -0.00275502  0.16763408  1
  Sb  Sb58  1  0.66742048  0.16115098  0.50138861  1
  Sb  Sb59  1  0.16532804  -0.00959310  0.50661067  1
  Sb  Sb60  1  0.83501954  0.67037649  0.83655751  1
  Sb  Sb61  1  0.49871059  0.33733664  0.16751209  1
  Sb  Sb62  1  0.33510193  0.33420542  0.33963638  1
  Sb  Sb63  1  0.66629372  0.34109097  0.34100382  1
  Sb  Sb64  1  0.67186053  0.66820196  0.66422642  1
  Sb  Sb65  1  0.33413712  0.83122389  0.83189665  1
  Sb  Sb66  1  0.83394239  0.34264659  0.16924207  1
  Sb  Sb67  1  0.83712268  0.66730564  0.49699070  1
  Sb  Sb68  1  0.17132990  0.33597605  0.83065281  1
  Sb  Sb69  1  0.00045097  -0.00954996  0.33810482  1
  Sb  Sb70  1  0.49679980  0.49992193  0.66521240  1
  Sb  Sb71  1  0.16730187  0.34568958  0.50295895  1
  Sb  Sb72  1  0.66622612  0.16193482  0.83158688  1
  Sb  Sb73  1  -0.00247548  0.83480644  0.83000048  1
  Sb  Sb74  1  0.16665543  0.33575518  0.16648906  1
  Sb  Sb75  1  0.49464839  0.16877478  0.66736726  1
  Sb  Sb76  1  0.00442779  0.49953914  0.83214773  1
  Sb  Sb77  1  0.00155142  0.66755133  0.00124725  1
  Sb  Sb78  1  0.32758215  0.66659127  0.66793210  1
  Sb  Sb79  1  0.82882352  0.33178086  0.82844967  1
  Sb  Sb80  1  0.16780647  -0.00405920  0.16197896  1
  Sb  Sb81  1  0.66892245  0.82623169  0.17023507  1
  Sb  Sb82  1  0.16722435  0.16189240  0.33580283  1
  Sb  Sb83  1  0.49822739  0.16521850  0.33434586  1
  Sb  Sb84  1  0.66238384  0.50655620  0.83453735  1
  Sb  Sb85  1  0.66665319  0.34228503  -0.00594996  1
  Sb  Sb86  1  0.50043536  0.17136633  -0.00239328  1
  Sb  Sb87  1  0.00017332  0.33560339  0.66513849  1
  Sb  Sb88  1  0.66941469  0.17013666  0.16628041  1
  Sb  Sb89  1  0.66603897  -0.00913522  -0.00190329  1
  Sb  Sb90  1  0.33303536  0.67175417  0.33276319  1
  Sb  Sb91  1  0.49670310  0.82492030  0.00345810  1
  Sb  Sb92  1  0.50188364  -0.00597758  0.49988078  1
  Sb  Sb93  1  0.16191766  0.82997202  0.66655545  1
  Sb  Sb94  1  0.33418100  0.33689634  -0.00640234  1
  Sb  Sb95  1  0.83863433  0.16171551  0.67038225  1
  Sb  Sb96  1  0.66734979  0.50775191  0.49812710  1
  Sb  Sb97  1  0.83587812  0.16907325  0.32947747  1
  Sb  Sb98  1  0.83400454  0.82682996  0.33587930  1
  Sb  Sb99  1  0.50337872  0.83215713  0.66170757  1
  Sb  Sb100  1  0.16243961  0.66806778  0.16802868  1
  Sb  Sb101  1  -0.00018101  0.16435568  0.50191667  1
  Sb  Sb102  1  0.50313999  0.66568004  0.16958185  1
  Sb  Sb103  1  0.49708781  -0.00455988  0.83145333  1
  Sb  Sb104  1  0.83526002  -0.00633773  0.16642189  1
  Sb  Sb105  1  0.00322940  -0.00242349  -0.00613965  1
  Sb  Sb106  1  0.16509190  0.16462559  -0.00583751  1
  Sb  Sb107  1  0.33183766  0.16498963  0.50458113  1
  Te  Te108  1  0.16660004  0.16645768  0.16601650  1
  Te  Te109  1  0.16569092  0.16825170  0.50609182  1
  Te  Te110  1  0.16795145  0.16579827  0.83092691  1
  Te  Te111  1  0.16106606  0.50008475  0.16640733  1
  Te  Te112  1  0.16650252  0.50548967  0.50051126  1
  Te  Te113  1  0.17025896  0.50266856  0.83306282  1
  Te  Te114  1  0.16608074  0.83375677  0.16532579  1
  Te  Te115  1  0.16584746  0.82741098  0.49917592  1
  Te  Te116  1  0.16608770  0.83204060  0.83747863  1
  Te  Te117  1  0.49308313  0.16862776  0.16603050  1
  Te  Te118  1  0.49942206  0.17741269  0.49915366  1
  Te  Te119  1  0.49329207  0.16903986  0.83456640  1
  Te  Te120  1  0.50044654  0.49945389  0.16657744  1
  Te  Te121  1  0.49996470  0.50360979  0.49874514  1
  Te  Te122  1  0.49626039  0.50336395  0.83338001  1
  Te  Te123  1  0.49390883  0.83269180  0.17460438  1
  Te  Te124  1  0.49757803  0.82970123  0.49565771  1
  Te  Te125  1  0.50681936  0.82712518  0.83517011  1
  Te  Te126  1  0.83761610  0.16759441  0.16076713  1
  Te  Te127  1  0.83447671  0.16643194  0.49891239  1
  Te  Te128  1  0.83410033  0.16263587  0.83826418  1
  Te  Te129  1  0.83559723  0.50237062  0.16627144  1
  Te  Te130  1  0.83384653  0.50094459  0.50088037  1
  Te  Te131  1  0.83422999  0.49986718  0.83623312  1
  Te  Te132  1  0.83693418  0.82779305  0.16287377  1
  Te  Te133  1  0.83449388  0.83408352  0.50252593  1
  Te  Te134  1  0.83155638  0.83612677  0.83384285  1
  Te  Te135  1  0.17193464  -0.00251547  -0.00719467  1
  Te  Te136  1  0.17041541  -0.00679590  0.33534578  1
  Te  Te137  1  0.16674443  -0.00134030  0.67035685  1
  Te  Te138  1  0.16677167  0.34471911  -0.00105501  1
  Te  Te139  1  0.16751692  0.33907836  0.33472089  1
  Te  Te140  1  0.17143883  0.33720399  0.66681571  1
  Te  Te141  1  0.16671167  0.66760088  -0.00197722  1
  Te  Te142  1  0.16565980  0.66802382  0.33485499  1
  Te  Te143  1  0.16267758  0.66361224  0.66668389  1
  Te  Te144  1  0.49305602  0.00060033  -0.00055987  1
  Te  Te145  1  0.49969542  -0.00307802  0.33463008  1
  Te  Te146  1  0.50044682  0.00112809  0.66616325  1
  Te  Te147  1  0.50141504  0.34218676  -0.00576610  1
  Te  Te148  1  0.50092173  0.33859442  0.33942731  1
  Te  Te149  1  0.49940947  0.33421087  0.66643772  1
  Te  Te150  1  0.50134887  0.66249519  -0.00165891  1
  Te  Te151  1  0.50017269  0.66634816  0.33563719  1
  Te  Te152  1  0.50202721  0.66643865  0.66869230  1
  Te  Te153  1  0.83180841  -0.00442357  -0.00255799  1
  Te  Te154  1  0.83069407  0.00057681  0.33696763  1
  Te  Te155  1  0.83433553  -0.00068481  0.66716447  1
  Te  Te156  1  0.83128308  0.33758129  -0.00122493  1
  Te  Te157  1  0.83177665  0.33933134  0.34060016  1
  Te  Te158  1  0.83100267  0.33444810  0.66340155  1
  Te  Te159  1  0.83363985  0.66836120  0.00194159  1
  Te  Te160  1  0.83195760  0.66321199  0.33039942  1
  Te  Te161  1  0.83928900  0.66726876  0.66826822  1
  Te  Te162  1  -0.00277723  0.16573056  -0.00015302  1
  Te  Te163  1  0.00186749  0.16600638  0.32755080  1
  Te  Te164  1  0.00591906  0.16352056  0.66942251  1
  Te  Te165  1  -0.00172855  0.50052333  0.00222089  1
  Te  Te166  1  0.00048116  0.50544593  0.33426284  1
  Te  Te167  1  -0.00003258  0.50095497  0.66540076  1
  Te  Te168  1  0.00057026  0.83404654  0.00496166  1
  Te  Te169  1  0.00182891  0.82757375  0.33375058  1
  Te  Te170  1  -0.00383913  0.83368402  0.66348609  1
  Te  Te171  1  0.33327633  0.16557915  -0.00168167  1
  Te  Te172  1  0.33210796  0.16004785  0.33024438  1
  Te  Te173  1  0.32868946  0.16316798  0.67007786  1
  Te  Te174  1  0.33278939  0.50307858  0.00047487  1
  Te  Te175  1  0.33301810  0.49967943  0.33597742  1
  Te  Te176  1  0.33084572  0.50045259  0.66595990  1
  Te  Te177  1  0.33117132  0.83208827  -0.00132510  1
  Te  Te178  1  0.33216361  0.83353973  0.33442277  1
  Te  Te179  1  0.33375913  0.83801899  0.66059057  1
  Te  Te180  1  0.67273710  0.16564766  0.00081976  1
  Te  Te181  1  0.66657007  0.15926985  0.33192428  1
  Te  Te182  1  0.66719580  0.16344123  0.66743499  1
  Te  Te183  1  0.66933793  0.50563453  0.00187410  1
  Te  Te184  1  0.66595392  0.50431438  0.33076864  1
  Te  Te185  1  0.67599945  0.49794259  0.66659577  1
  Te  Te186  1  0.66878607  0.82702585  0.00198980  1
  Te  Te187  1  0.66690715  0.83057679  0.33503699  1
  Te  Te188  1  0.67041835  0.83524537  0.66442044  1
  Te  Te189  1  0.00048741  -0.00101828  0.16852898  1
  Te  Te190  1  -0.00427039  -0.00346519  0.50546098  1
  Te  Te191  1  0.00024084  0.00156208  0.82891326  1
  Te  Te192  1  -0.00038185  0.32785931  0.16741289  1
  Te  Te193  1  -0.00576345  0.33718057  0.50007008  1
  Te  Te194  1  -0.00145360  0.32277280  0.83239710  1
  Te  Te195  1  -0.00353890  0.66774446  0.16819429  1
  Te  Te196  1  0.00051389  0.66604392  0.49935653  1
  Te  Te197  1  0.00789194  0.66658870  0.82632447  1
  Te  Te198  1  0.33217581  -0.00283836  0.16612188  1
  Te  Te199  1  0.33356929  -0.00338012  0.50124685  1
  Te  Te200  1  0.33179891  0.00007541  0.83110239  1
  Te  Te201  1  0.33368152  0.32641741  0.16769696  1
  Te  Te202  1  0.33618899  0.33640655  0.50647747  1
  Te  Te203  1  0.33731269  0.33622806  0.82871485  1
  Te  Te204  1  0.33419519  0.67209748  0.15657866  1
  Te  Te205  1  0.33314232  0.66663183  0.50059451  1
  Te  Te206  1  0.33160445  0.66416218  0.83442802  1
  Te  Te207  1  0.66704335  0.00131599  0.17257762  1
  Te  Te208  1  0.66848476  -0.00510235  0.50061550  1
  Te  Te209  1  0.66875116  -0.00600530  0.83009643  1
  Te  Te210  1  0.66575071  0.34049484  0.16763024  1
  Te  Te211  1  0.66660812  0.33184298  0.50560916  1
  Te  Te212  1  0.65994525  0.33204554  0.82576042  1
  Te  Te213  1  0.67005275  0.66230549  0.16754385  1
  Te  Te214  1  0.66135783  0.67414418  0.49682942  1
  Te  Te215  1  0.66490238  0.67213967  0.83576520  1
