# generated using pymatgen
data_AgSbTe2
_symmetry_space_group_name_H-M   'P 1'
_cell_length_a   18.33800274
_cell_length_b   18.35205839
_cell_length_c   18.34455396
_cell_angle_alpha   90.00210139
_cell_angle_beta   89.99742128
_cell_angle_gamma   90.00190765
_symmetry_Int_Tables_number   1
_chemical_formula_structural   AgSbTe2
_chemical_formula_sum   'Ag54 Sb54 Te108'
_cell_volume   6173.67795470
_cell_formula_units_Z   54
loop_
 _symmetry_equiv_pos_site_id
 _symmetry_equiv_pos_as_xyz
  1  'x, y, z'
loop_
 _atom_site_type_symbol
 _atom_site_label
 _atom_site_symmetry_multiplicity
 _atom_site_fract_x
 _atom_site_fract_y
 _atom_site_fract_z
 _atom_site_occupancy
  Ag  Ag0  1  0.82343288  0.17349708  0.33708437  1
  Ag  Ag1  1  -0.00220512  0.66323125  0.33496309  1
  Ag  Ag2  1  0.82836325  0.66247363  0.50314953  1
  Ag  Ag3  1  0.83900585  0.50063597  -0.01092342  1
  Ag  Ag4  1  0.35054895  0.17088863  0.83314668  1
  Ag  Ag5  1  0.34195929  0.50412977  0.16114525  1
  Ag  Ag6  1  0.82246320  0.34198826  0.83289799  1
  Ag  Ag7  1  0.50426542  0.16593871  0.33620850  1
  Ag  Ag8  1  0.66547266  0.17012373  0.50227336  1
  Ag  Ag9  1  -0.00336562  -0.00014922  -0.00489113  1
  Ag  Ag10  1  0.33958073  0.00567330  0.33247472  1
  Ag  Ag11  1  0.50498065  0.16725208  0.67039980  1
  Ag  Ag12  1  0.50261702  0.00188255  0.16603543  1
  Ag  Ag13  1  0.66751723  0.81870371  0.49976498  1
  Ag  Ag14  1  0.50116924  0.66339856  0.16904389  1
  Ag  Ag15  1  0.66807876  0.65766081  0.66261383  1
  Ag  Ag16  1  -0.00570617  0.34646269  -0.01059159  1
  Ag  Ag17  1  0.67011099  0.34016130  0.67532122  1
  Ag  Ag18  1  0.33652653  0.33389623  0.33361779  1
  Ag  Ag19  1  0.51007138  0.33017859  0.83663936  1
  Ag  Ag20  1  0.50155718  0.01141243  0.83358497  1
  Ag  Ag21  1  -0.00085778  0.65706512  0.00039226  1
  Ag  Ag22  1  0.66801909  0.50285486  0.50613128  1
  Ag  Ag23  1  0.16466022  0.83084124  0.66806820  1
  Ag  Ag24  1  0.66509857  0.49940872  0.15514761  1
  Ag  Ag25  1  0.66838427  0.65732228  -0.00153314  1
  Ag  Ag26  1  0.16004536  0.66372621  0.50221404  1
  Ag  Ag27  1  0.34180504  0.82331825  0.16108766  1
  Ag  Ag28  1  0.16749344  0.82235890  -0.00312234  1
  Ag  Ag29  1  0.15363773  0.50372738  -0.00172697  1
  Ag  Ag30  1  0.00068750  0.01033279  0.67134087  1
  Ag  Ag31  1  0.83071503  0.49999033  0.67801510  1
  Ag  Ag32  1  0.33435464  0.66279125  0.00043527  1
  Ag  Ag33  1  -0.00189280  0.82934312  0.50287195  1
  Ag  Ag34  1  -0.00613034  0.17908506  0.82864934  1
  Ag  Ag35  1  0.66785002  0.00097104  0.00067859  1
  Ag  Ag36  1  0.50294322  0.33531995  0.16261261  1
  Ag  Ag37  1  0.82972047  0.65582643  0.83183830  1
  Ag  Ag38  1  0.83223690  0.49764151  0.33342100  1
  Ag  Ag39  1  0.66055898  0.82487672  0.16254167  1
  Ag  Ag40  1  -0.00689378  0.33121862  0.67465257  1
  Ag  Ag41  1  0.66997778  0.34061118  -0.01250711  1
  Ag  Ag42  1  0.51027294  0.66675119  0.49633628  1
  Ag  Ag43  1  0.33675195  0.49878144  0.84316009  1
  Ag  Ag44  1  0.50278271  0.00186507  0.49907097  1
  Ag  Ag45  1  0.33732216  0.50113184  0.49875850  1
  Ag  Ag46  1  0.67421312  0.49124617  0.83872703  1
  Ag  Ag47  1  -0.00667686  0.16639700  0.50675264  1
  Ag  Ag48  1  -0.01611203  0.49320479  0.84235348  1
  Ag  Ag49  1  -0.01061800  0.50066794  0.15375203  1
  Ag  Ag50  1  0.66744243  0.17991408  0.83290576  1
  Ag  Ag51  1  0.66205829  0.17239218  0.15839672  1
  Ag  Ag52  1  0.16510724  0.34180493  0.50065763  1
  Ag  Ag53  1  0.33359907  0.82610820  0.84139963  1
  Sb  Sb54  1  -0.00369006  0.50141524  0.50311565  1
  Sb  Sb55  1  0.16897196  -0.00215146  0.50151935  1
  Sb  Sb56  1  0.16453401  0.33652359  0.83010832  1
  Sb  Sb57  1  0.82751057  -0.00124120  0.50055659  1
  Sb  Sb58  1  -0.00575068  0.66295748  0.66855121  1
  Sb  Sb59  1  0.16874927  0.16847514  0.33616058  1
  Sb  Sb60  1  0.50260845  0.16627681  -0.00302610  1
  Sb  Sb61  1  0.83551982  0.82645981  0.66596235  1
  Sb  Sb62  1  0.33242660  -0.00006375  0.66521891  1
  Sb  Sb63  1  -0.00933804  0.17258624  0.16468415  1
  Sb  Sb64  1  0.83063287  0.00282718  0.83372617  1
  Sb  Sb65  1  0.16990680  0.66429409  0.16464668  1
  Sb  Sb66  1  0.83226680  0.83080176  0.33470848  1
  Sb  Sb67  1  -0.00026214  0.82703052  0.16603059  1
  Sb  Sb68  1  0.50328976  0.49535226  0.33230087  1
  Sb  Sb69  1  0.82964721  0.17400871  -0.00059633  1
  Sb  Sb70  1  0.82987960  0.17307634  0.66437644  1
  Sb  Sb71  1  0.00137646  0.33781678  0.33323247  1
  Sb  Sb72  1  0.16478744  0.50152298  0.33158775  1
  Sb  Sb73  1  0.66959945  0.66317187  0.33287510  1
  Sb  Sb74  1  0.17050875  -0.00121603  0.83391389  1
  Sb  Sb75  1  0.16316904  0.66511717  0.83265924  1
  Sb  Sb76  1  0.16302527  0.17128505  -0.00209923  1
  Sb  Sb77  1  0.50663613  0.49982104  0.00095002  1
  Sb  Sb78  1  0.83438260  0.33926446  0.50468844  1
  Sb  Sb79  1  0.66174981  0.00423593  0.32954208  1
  Sb  Sb80  1  0.49827775  0.83694881  0.66644231  1
  Sb  Sb81  1  0.50391946  0.66221343  0.83483267  1
  Sb  Sb82  1  0.83599126  0.82507717  -0.00077895  1
  Sb  Sb83  1  0.33495290  0.82790238  0.49839766  1
  Sb  Sb84  1  0.33591760  0.34043044  0.00108689  1
  Sb  Sb85  1  0.00278526  -0.00174783  0.33421154  1
  Sb  Sb86  1  0.82764788  0.66184401  0.16599987  1
  Sb  Sb87  1  0.16859313  0.83103705  0.33341434  1
  Sb  Sb88  1  0.82491833  0.33818645  0.16047522  1
  Sb  Sb89  1  0.17349094  -0.00271439  0.16369795  1
  Sb  Sb90  1  0.00371101  0.83091367  0.83099400  1
  Sb  Sb91  1  0.33196004  0.66316096  0.33056632  1
  Sb  Sb92  1  0.17057385  0.33711750  0.16840086  1
  Sb  Sb93  1  0.34344136  0.16913939  0.16310136  1
  Sb  Sb94  1  0.50015652  0.83809278  0.33146711  1
  Sb  Sb95  1  0.49797538  0.83268454  0.00162925  1
  Sb  Sb96  1  0.82493836  0.00179458  0.16506127  1
  Sb  Sb97  1  0.33690108  0.17053113  0.50171208  1
  Sb  Sb98  1  0.33875171  0.66499571  0.67008821  1
  Sb  Sb99  1  0.16559966  0.16616025  0.66673648  1
  Sb  Sb100  1  0.33637419  -0.00502781  0.00064278  1
  Sb  Sb101  1  0.66194218  0.83022973  0.83535416  1
  Sb  Sb102  1  0.66351682  0.33265551  0.33333029  1
  Sb  Sb103  1  0.50074416  0.33340209  0.50122212  1
  Sb  Sb104  1  0.16217491  0.50219541  0.66985911  1
  Sb  Sb105  1  0.33572817  0.33495315  0.66622040  1
  Sb  Sb106  1  0.66859034  0.00161520  0.66916983  1
  Sb  Sb107  1  0.50941530  0.49576930  0.66659283  1
  Te  Te108  1  0.16586351  0.16675388  0.16708081  1
  Te  Te109  1  0.16273157  0.16772066  0.50107654  1
  Te  Te110  1  0.15473558  0.16650357  0.83266776  1
  Te  Te111  1  0.17030521  0.50004113  0.16110966  1
  Te  Te112  1  0.16651844  0.50237746  0.50088069  1
  Te  Te113  1  0.17904304  0.50169477  0.83719355  1
  Te  Te114  1  0.17069158  0.83206886  0.16028045  1
  Te  Te115  1  0.16567905  0.82978596  0.50172512  1
  Te  Te116  1  0.17279810  0.83194942  0.83429960  1
  Te  Te117  1  0.50441930  0.16585091  0.16944380  1
  Te  Te118  1  0.50035852  0.16611861  0.49953890  1
  Te  Te119  1  0.50697266  0.16855307  0.83351401  1
  Te  Te120  1  0.50290570  0.50069624  0.16880363  1
  Te  Te121  1  0.50138539  0.50217117  0.49964215  1
  Te  Te122  1  0.49436479  0.49577804  0.83076591  1
  Te  Te123  1  0.50146610  0.83250604  0.16701347  1
  Te  Te124  1  0.50369045  0.83324928  0.49962838  1
  Te  Te125  1  0.49283645  0.83595732  0.83235298  1
  Te  Te126  1  0.82386048  0.16929473  0.17451957  1
  Te  Te127  1  0.83314706  0.16651275  0.49796391  1
  Te  Te128  1  0.83203791  0.16980742  0.83285078  1
  Te  Te129  1  0.83116736  0.49993345  0.17296116  1
  Te  Te130  1  0.83053868  0.50287515  0.49393535  1
  Te  Te131  1  0.82898099  0.50063100  0.83327228  1
  Te  Te132  1  0.82365630  0.83339496  0.16751901  1
  Te  Te133  1  0.83173429  0.82840269  0.49914708  1
  Te  Te134  1  0.83246042  0.82788837  0.83281858  1
  Te  Te135  1  0.16203119  -0.00123930  -0.00054827  1
  Te  Te136  1  0.17637116  0.00001640  0.33257226  1
  Te  Te137  1  0.15981207  -0.00592811  0.66624552  1
  Te  Te138  1  0.16033013  0.33931752  0.00072842  1
  Te  Te139  1  0.17325781  0.33415109  0.33967310  1
  Te  Te140  1  0.16262773  0.33402022  0.66006810  1
  Te  Te141  1  0.16668920  0.66421140  -0.00120923  1
  Te  Te142  1  0.16022631  0.66695291  0.34132541  1
  Te  Te143  1  0.16735413  0.67000446  0.66282954  1
  Te  Te144  1  0.50415523  -0.00055219  0.00019100  1
  Te  Te145  1  0.49761723  0.00473618  0.33379734  1
  Te  Te146  1  0.50015793  0.00474782  0.66665040  1
  Te  Te147  1  0.50440676  0.33228385  0.00043530  1
  Te  Te148  1  0.49646542  0.32811147  0.33071389  1
  Te  Te149  1  0.50368239  0.32803034  0.67056983  1
  Te  Te150  1  0.50148585  0.66739426  0.00316150  1
  Te  Te151  1  0.49868598  0.66661722  0.33389921  1
  Te  Te152  1  0.50655454  0.66784158  0.66172727  1
  Te  Te153  1  0.83293723  -0.00175348  -0.00068242  1
  Te  Te154  1  0.83522195  0.00742600  0.33299122  1
  Te  Te155  1  0.84190251  -0.00153322  0.66693929  1
  Te  Te156  1  0.83286515  0.33897098  -0.00489610  1
  Te  Te157  1  0.83463706  0.33323863  0.33342439  1
  Te  Te158  1  0.83261946  0.33806693  0.67045143  1
  Te  Te159  1  0.83183141  0.66139302  -0.00023780  1
  Te  Te160  1  0.83840799  0.66392663  0.33674680  1
  Te  Te161  1  0.82821936  0.66131361  0.66594014  1
  Te  Te162  1  -0.00346951  0.16060288  -0.00184854  1
  Te  Te163  1  -0.00109222  0.16699614  0.33423999  1
  Te  Te164  1  -0.00062732  0.16914360  0.66664264  1
  Te  Te165  1  -0.00224257  0.50183192  -0.00147145  1
  Te  Te166  1  -0.00291401  0.50383317  0.33334028  1
  Te  Te167  1  -0.00498562  0.49506683  0.67123973  1
  Te  Te168  1  0.00448784  0.83585698  0.00053593  1
  Te  Te169  1  0.00060904  0.82875084  0.33793659  1
  Te  Te170  1  0.00281655  0.83159032  0.66292217  1
  Te  Te171  1  0.32966906  0.16752609  -0.00775734  1
  Te  Te172  1  0.33751229  0.16894382  0.33336134  1
  Te  Te173  1  0.33707498  0.16649075  0.67258110  1
  Te  Te174  1  0.33681470  0.50286459  0.00277310  1
  Te  Te175  1  0.33300743  0.49705613  0.33436457  1
  Te  Te176  1  0.33185351  0.50028341  0.65978495  1
  Te  Te177  1  0.32931247  0.83115504  0.00104119  1
  Te  Te178  1  0.33256079  0.83506122  0.32629344  1
  Te  Te179  1  0.32699834  0.83283067  0.67002081  1
  Te  Te180  1  0.66841415  0.16491923  -0.00096020  1
  Te  Te181  1  0.66440481  0.16748093  0.33945479  1
  Te  Te182  1  0.66491762  0.16606134  0.66803868  1
  Te  Te183  1  0.66877178  0.49973545  -0.00088648  1
  Te  Te184  1  0.67060750  0.49821684  0.33831541  1
  Te  Te185  1  0.66931812  0.49972056  0.66663190  1
  Te  Te186  1  0.66850392  0.83561814  0.00303018  1
  Te  Te187  1  0.66757018  0.83506520  0.33783689  1
  Te  Te188  1  0.66709243  0.83182412  0.66132734  1
  Te  Te189  1  0.00020178  -0.00011462  0.16328599  1
  Te  Te190  1  -0.00005559  0.00048561  0.50047110  1
  Te  Te191  1  -0.00099140  -0.00188296  0.83286545  1
  Te  Te192  1  0.00105596  0.33930465  0.16402272  1
  Te  Te193  1  0.00201218  0.32994314  0.49987166  1
  Te  Te194  1  0.00369876  0.33459121  0.83375125  1
  Te  Te195  1  0.00051478  0.66290027  0.16320601  1
  Te  Te196  1  -0.00047293  0.66751064  0.50270375  1
  Te  Te197  1  -0.00363860  0.66302721  0.83798062  1
  Te  Te198  1  0.34108790  0.00076185  0.16871565  1
  Te  Te199  1  0.33917080  -0.00099837  0.49635756  1
  Te  Te200  1  0.33911017  0.00604218  0.83323955  1
  Te  Te201  1  0.33881133  0.33716624  0.16913681  1
  Te  Te202  1  0.33097712  0.33760557  0.49788984  1
  Te  Te203  1  0.33359289  0.33226480  0.83345374  1
  Te  Te204  1  0.33654769  0.66502454  0.16438120  1
  Te  Te205  1  0.33481886  0.66339817  0.49942071  1
  Te  Te206  1  0.33623488  0.66590549  0.83733424  1
  Te  Te207  1  0.66140066  0.00308413  0.16326503  1
  Te  Te208  1  0.66251611  0.00911813  0.50100287  1
  Te  Te209  1  0.66277805  -0.00246898  0.83734047  1
  Te  Te210  1  0.66151050  0.33523500  0.16692700  1
  Te  Te211  1  0.66677041  0.33178084  0.50364175  1
  Te  Te212  1  0.66615904  0.33518986  0.83180308  1
  Te  Te213  1  0.66285208  0.66424746  0.16629284  1
  Te  Te214  1  0.66768047  0.66278995  0.49705376  1
  Te  Te215  1  0.66763954  0.66573419  0.83752388  1
