# generated using pymatgen
data_AgSbTe2
_symmetry_space_group_name_H-M   'P 1'
_cell_length_a   18.33460038
_cell_length_b   18.33081866
_cell_length_c   18.32894843
_cell_angle_alpha   90.00096354
_cell_angle_beta   90.00222349
_cell_angle_gamma   90.00088426
_symmetry_Int_Tables_number   1
_chemical_formula_structural   AgSbTe2
_chemical_formula_sum   'Ag54 Sb54 Te108'
_cell_volume   6160.14391683
_cell_formula_units_Z   54
loop_
 _symmetry_equiv_pos_site_id
 _symmetry_equiv_pos_as_xyz
  1  'x, y, z'
loop_
 _atom_site_type_symbol
 _atom_site_label
 _atom_site_symmetry_multiplicity
 _atom_site_fract_x
 _atom_site_fract_y
 _atom_site_fract_z
 _atom_site_occupancy
  Ag  Ag0  1  0.67490790  0.16994079  0.16640587  1
  Ag  Ag1  1  0.67818756  0.33362999  0.33388463  1
  Ag  Ag2  1  0.00082142  0.17019340  0.49223954  1
  Ag  Ag3  1  0.16856933  0.66719478  0.17285117  1
  Ag  Ag4  1  0.84111317  0.17504527  0.33184188  1
  Ag  Ag5  1  -0.00947608  0.16615269  0.83049105  1
  Ag  Ag6  1  0.16722127  0.16046983  0.65495864  1
  Ag  Ag7  1  0.50172138  0.15731598  0.66628070  1
  Ag  Ag8  1  0.66766656  0.66647237  -0.00158214  1
  Ag  Ag9  1  0.83978977  0.83541150  0.33336198  1
  Ag  Ag10  1  0.32716807  0.16897252  0.49773049  1
  Ag  Ag11  1  0.15922559  0.66655054  0.50085050  1
  Ag  Ag12  1  0.66504513  0.32543177  0.66444786  1
  Ag  Ag13  1  -0.00187027  0.33075959  0.01195962  1
  Ag  Ag14  1  0.50797107  -0.00464452  0.82001663  1
  Ag  Ag15  1  0.83209686  0.00372409  0.49720653  1
  Ag  Ag16  1  0.32474289  0.00432038  0.33496191  1
  Ag  Ag17  1  0.84255878  0.66654560  0.49707718  1
  Ag  Ag18  1  0.83398297  0.48757868  0.33489258  1
  Ag  Ag19  1  0.16593257  0.50380291  0.00378593  1
  Ag  Ag20  1  0.33142728  0.50088702  0.49431348  1
  Ag  Ag21  1  0.83134678  0.83628066  -0.00047136  1
  Ag  Ag22  1  0.00171198  0.01144271  0.33453694  1
  Ag  Ag23  1  0.33255135  0.33169696  0.33590620  1
  Ag  Ag24  1  0.66338619  0.49719197  0.17078859  1
  Ag  Ag25  1  0.83479922  0.16473237  0.00802824  1
  Ag  Ag26  1  0.33661806  0.50213127  0.17692487  1
  Ag  Ag27  1  0.83137199  0.67317525  0.83050631  1
  Ag  Ag28  1  0.50145170  0.67273356  0.82483315  1
  Ag  Ag29  1  0.34423783  0.83083403  0.82881938  1
  Ag  Ag30  1  0.67138944  0.16024297  0.83226293  1
  Ag  Ag31  1  0.49808153  0.66827608  0.50201922  1
  Ag  Ag32  1  0.82619901  -0.00176341  0.82818231  1
  Ag  Ag33  1  0.16491091  0.66932892  0.82042612  1
  Ag  Ag34  1  -0.00032297  0.66525703  0.33879785  1
  Ag  Ag35  1  0.16907543  -0.00183190  0.17541316  1
  Ag  Ag36  1  0.49732492  0.83637061  0.66993489  1
  Ag  Ag37  1  0.15326182  0.16048034  0.33650198  1
  Ag  Ag38  1  0.83237400  0.32863060  0.17798671  1
  Ag  Ag39  1  0.49839366  0.66524166  0.17160062  1
  Ag  Ag40  1  0.17174968  0.82920234  0.66338939  1
  Ag  Ag41  1  -0.00666786  0.16839628  0.18014447  1
  Ag  Ag42  1  0.50095972  0.50038241  0.33271611  1
  Ag  Ag43  1  0.66511730  0.84012946  0.83129777  1
  Ag  Ag44  1  0.32923248  0.66876427  0.66418475  1
  Ag  Ag45  1  0.66227355  0.00408567  0.67080501  1
  Ag  Ag46  1  0.00040916  0.50515546  0.49593032  1
  Ag  Ag47  1  0.83487580  0.32676454  0.49006722  1
  Ag  Ag48  1  0.49890081  -0.00055766  0.17347013  1
  Ag  Ag49  1  0.50276384  0.32413423  0.82926731  1
  Ag  Ag50  1  0.50226874  -0.00014839  0.50209879  1
  Ag  Ag51  1  -0.01016026  0.32321376  0.33323577  1
  Ag  Ag52  1  0.00671298  0.66783559  0.65705067  1
  Ag  Ag53  1  0.16144363  0.83699185  0.33698971  1
  Sb  Sb54  1  0.66657874  0.83451632  0.16317377  1
  Sb  Sb55  1  0.67122486  0.66241676  0.33103555  1
  Sb  Sb56  1  -0.00464849  0.33288346  0.66013425  1
  Sb  Sb57  1  0.33704113  0.16171855  0.82432366  1
  Sb  Sb58  1  0.15730668  0.16961062  0.00433984  1
  Sb  Sb59  1  0.66663121  0.83398237  0.50432643  1
  Sb  Sb60  1  -0.00434604  0.83601311  0.83218367  1
  Sb  Sb61  1  0.83199964  0.16528376  0.66275300  1
  Sb  Sb62  1  0.33355894  0.82932528  0.16518468  1
  Sb  Sb63  1  -0.00223317  0.66167096  0.00156400  1
  Sb  Sb64  1  0.00037225  0.83165354  0.49825091  1
  Sb  Sb65  1  0.50594564  0.83214429  -0.00762126  1
  Sb  Sb66  1  0.49923045  0.83100739  0.33727218  1
  Sb  Sb67  1  0.83179307  0.00611618  0.17156161  1
  Sb  Sb68  1  0.16680857  -0.00486739  0.83477407  1
  Sb  Sb69  1  0.33631095  0.66692358  -0.00325255  1
  Sb  Sb70  1  0.49783164  0.50169008  0.00564643  1
  Sb  Sb71  1  0.33240221  0.83163016  0.50296072  1
  Sb  Sb72  1  0.33484472  0.50584208  0.83099824  1
  Sb  Sb73  1  0.83562117  0.49845114  0.00577343  1
  Sb  Sb74  1  0.83010939  0.32959377  0.83235545  1
  Sb  Sb75  1  0.50423651  0.33277017  0.50135400  1
  Sb  Sb76  1  0.33850953  -0.00473021  0.65979388  1
  Sb  Sb77  1  0.66843165  0.49955150  0.49351447  1
  Sb  Sb78  1  0.50546959  0.33282743  0.16731419  1
  Sb  Sb79  1  0.16978954  0.33559835  0.83228993  1
  Sb  Sb80  1  -0.00335173  0.00600263  0.00484186  1
  Sb  Sb81  1  0.16534772  0.50229013  0.33267865  1
  Sb  Sb82  1  0.67166059  0.33474568  0.00226970  1
  Sb  Sb83  1  0.16592057  -0.00075764  0.49494917  1
  Sb  Sb84  1  0.32901748  0.66696232  0.33886434  1
  Sb  Sb85  1  0.33253591  0.16951005  0.17587360  1
  Sb  Sb86  1  0.83388577  0.66373068  0.17119268  1
  Sb  Sb87  1  0.16156744  0.33421314  0.49732342  1
  Sb  Sb88  1  0.50749674  0.16548144  -0.00501096  1
  Sb  Sb89  1  0.16078062  0.82842808  0.00008796  1
  Sb  Sb90  1  0.83245920  0.50182131  0.65820164  1
  Sb  Sb91  1  0.50296243  0.16894829  0.33795473  1
  Sb  Sb92  1  0.83242135  0.83299667  0.66571445  1
  Sb  Sb93  1  0.66605211  0.49983322  0.83734863  1
  Sb  Sb94  1  0.50069824  0.50294254  0.66086616  1
  Sb  Sb95  1  0.33646095  0.33534919  0.66071374  1
  Sb  Sb96  1  0.66982494  0.00514308  0.33623195  1
  Sb  Sb97  1  0.00001184  0.83860366  0.17081288  1
  Sb  Sb98  1  0.32979785  0.33515334  0.00585767  1
  Sb  Sb99  1  0.16696748  0.50392164  0.66627455  1
  Sb  Sb100  1  -0.00216655  -0.00215704  0.66055277  1
  Sb  Sb101  1  0.66536973  0.66851508  0.67067213  1
  Sb  Sb102  1  -0.00033784  0.49612581  0.17457066  1
  Sb  Sb103  1  0.66957782  0.16686585  0.50137500  1
  Sb  Sb104  1  0.33417108  0.00116655  0.00457442  1
  Sb  Sb105  1  0.66869617  -0.00196371  -0.00504266  1
  Sb  Sb106  1  0.16153558  0.33364528  0.17154454  1
  Sb  Sb107  1  -0.00113158  0.49794466  0.82973614  1
  Te  Te108  1  0.16484679  0.16335867  0.17157022  1
  Te  Te109  1  0.16584825  0.16663320  0.49737861  1
  Te  Te110  1  0.16804736  0.16574514  0.83425577  1
  Te  Te111  1  0.16877180  0.50272203  0.16609701  1
  Te  Te112  1  0.16700943  0.50443570  0.49958567  1
  Te  Te113  1  0.16698644  0.50723533  0.83749060  1
  Te  Te114  1  0.16708148  0.83179147  0.16982859  1
  Te  Te115  1  0.16736807  0.82845729  0.49938480  1
  Te  Te116  1  0.16581268  0.82840527  0.83202799  1
  Te  Te117  1  0.50146865  0.16372564  0.16414169  1
  Te  Te118  1  0.49972942  0.16476600  0.50535667  1
  Te  Te119  1  0.50265417  0.16088107  0.82888744  1
  Te  Te120  1  0.50006506  0.50070207  0.17117562  1
  Te  Te121  1  0.49729994  0.50206078  0.49403896  1
  Te  Te122  1  0.49953718  0.51089901  0.83436235  1
  Te  Te123  1  0.49971083  0.83169508  0.16653949  1
  Te  Te124  1  0.49963974  0.83347061  0.50470856  1
  Te  Te125  1  0.50306085  0.83389931  0.83101937  1
  Te  Te126  1  0.83401722  0.16702616  0.16802344  1
  Te  Te127  1  0.83549736  0.16522569  0.49688665  1
  Te  Te128  1  0.83064857  0.16519290  0.82954535  1
  Te  Te129  1  0.82989151  0.49550413  0.17258019  1
  Te  Te130  1  0.83522920  0.50628969  0.49359601  1
  Te  Te131  1  0.83337263  0.50836171  0.83402557  1
  Te  Te132  1  0.83248572  0.83415183  0.16612954  1
  Te  Te133  1  0.83296649  0.83309694  0.49655548  1
  Te  Te134  1  0.82964340  0.83388060  0.83240987  1
  Te  Te135  1  0.16578428  -0.00132821  0.00984255  1
  Te  Te136  1  0.16462863  -0.00109314  0.33353717  1
  Te  Te137  1  0.16723333  -0.00044896  0.66657868  1
  Te  Te138  1  0.16048203  0.33857571  0.00057612  1
  Te  Te139  1  0.17196785  0.32631316  0.33430236  1
  Te  Te140  1  0.16718032  0.32460037  0.66745164  1
  Te  Te141  1  0.16612580  0.66421717  0.00749485  1
  Te  Te142  1  0.16473862  0.66855430  0.33434568  1
  Te  Te143  1  0.16690867  0.66676123  0.66389067  1
  Te  Te144  1  0.49987006  -0.00055261  0.00942343  1
  Te  Te145  1  0.50176188  -0.00062293  0.33629255  1
  Te  Te146  1  0.49988538  -0.00183363  0.66380441  1
  Te  Te147  1  0.49915597  0.33372570  -0.00923704  1
  Te  Te148  1  0.49402453  0.33814954  0.33334372  1
  Te  Te149  1  0.50372899  0.33272998  0.66939888  1
  Te  Te150  1  0.50436782  0.66688761  0.00399395  1
  Te  Te151  1  0.49986661  0.66420319  0.33298550  1
  Te  Te152  1  0.50022667  0.66900341  0.66574279  1
  Te  Te153  1  0.83366949  0.00064757  -0.00513322  1
  Te  Te154  1  0.83473803  -0.00411756  0.33646042  1
  Te  Te155  1  0.82938346  -0.00139373  0.66558156  1
  Te  Te156  1  0.83838171  0.33005912  -0.00058427  1
  Te  Te157  1  0.83409562  0.33207096  0.33404731  1
  Te  Te158  1  0.82676381  0.33405062  0.66309364  1
  Te  Te159  1  0.83123140  0.66694144  -0.00078091  1
  Te  Te160  1  0.83659924  0.67485634  0.33542541  1
  Te  Te161  1  0.83532764  0.66789210  0.66451706  1
  Te  Te162  1  -0.00574127  0.17155834  -0.00719468  1
  Te  Te163  1  -0.00200984  0.16730795  0.33569852  1
  Te  Te164  1  0.00443790  0.16560682  0.66874572  1
  Te  Te165  1  0.00335891  0.49306735  -0.00086175  1
  Te  Te166  1  -0.00160435  0.50383784  0.33727551  1
  Te  Te167  1  0.00058699  0.50485253  0.65916598  1
  Te  Te168  1  -0.00891102  0.83311881  0.00094914  1
  Te  Te169  1  0.00175986  0.82710059  0.33293738  1
  Te  Te170  1  0.00808535  0.82858079  0.66729386  1
  Te  Te171  1  0.33200341  0.16888193  -0.00035003  1
  Te  Te172  1  0.33710451  0.16547626  0.33867023  1
  Te  Te173  1  0.33265608  0.16724713  0.65946023  1
  Te  Te174  1  0.32712906  0.49924095  0.00421932  1
  Te  Te175  1  0.33161316  0.50136112  0.33506320  1
  Te  Te176  1  0.33314102  0.50581445  0.65970351  1
  Te  Te177  1  0.33149241  0.83444268  -0.00870233  1
  Te  Te178  1  0.33048335  0.84041415  0.33196201  1
  Te  Te179  1  0.33269094  0.82985425  0.66909694  1
  Te  Te180  1  0.67397643  0.16784765  -0.00056389  1
  Te  Te181  1  0.66978072  0.17222235  0.33002626  1
  Te  Te182  1  0.66489280  0.16487938  0.66835444  1
  Te  Te183  1  0.66712984  0.50340686  0.00842289  1
  Te  Te184  1  0.66712673  0.49596091  0.32903530  1
  Te  Te185  1  0.66574959  0.49031889  0.66754159  1
  Te  Te186  1  0.67273345  0.82842253  -0.00532144  1
  Te  Te187  1  0.67146020  0.83376058  0.33212622  1
  Te  Te188  1  0.66226210  0.83646777  0.67162034  1
  Te  Te189  1  0.00241201  0.00612800  0.17235763  1
  Te  Te190  1  -0.00387137  0.00591282  0.49572065  1
  Te  Te191  1  -0.00264157  0.00500107  0.83298610  1
  Te  Te192  1  -0.00383837  0.32970859  0.17125113  1
  Te  Te193  1  -0.00453892  0.33192860  0.49591717  1
  Te  Te194  1  -0.00023438  0.32918538  0.82897942  1
  Te  Te195  1  0.00461361  0.66535723  0.16987530  1
  Te  Te196  1  -0.00008533  0.66741609  0.49990502  1
  Te  Te197  1  -0.00065758  0.66644802  0.83330431  1
  Te  Te198  1  0.33406446  0.00026424  0.17172969  1
  Te  Te199  1  0.33560320  0.00333520  0.49496380  1
  Te  Te200  1  0.33639919  -0.00656527  0.83518017  1
  Te  Te201  1  0.33406178  0.33927400  0.17272085  1
  Te  Te202  1  0.33382105  0.33479526  0.49613038  1
  Te  Te203  1  0.34048568  0.33474303  0.83313533  1
  Te  Te204  1  0.33505599  0.66297007  0.16661290  1
  Te  Te205  1  0.33828083  0.66563191  0.50242768  1
  Te  Te206  1  0.33419255  0.66933822  0.82945140  1
  Te  Te207  1  0.66117250  0.00410134  0.16617251  1
  Te  Te208  1  0.66537589  0.00038857  0.50586483  1
  Te  Te209  1  0.66674271  0.00059225  0.83232929  1
  Te  Te210  1  0.66968046  0.33160318  0.16892237  1
  Te  Te211  1  0.67247830  0.33331492  0.49757358  1
  Te  Te212  1  0.66317591  0.33137979  0.83344407  1
  Te  Te213  1  0.66362988  0.66594062  0.16369261  1
  Te  Te214  1  0.66079258  0.66633015  0.50178028  1
  Te  Te215  1  0.66772454  0.66632183  0.83454479  1
