# generated using pymatgen
data_AgSbTe2
_symmetry_space_group_name_H-M   'P 1'
_cell_length_a   18.31195360
_cell_length_b   18.31534639
_cell_length_c   18.31355164
_cell_angle_alpha   90.00355089
_cell_angle_beta   89.99826771
_cell_angle_gamma   89.99925678
_symmetry_Int_Tables_number   1
_chemical_formula_structural   AgSbTe2
_chemical_formula_sum   'Ag54 Sb54 Te108'
_cell_volume   6142.17791550
_cell_formula_units_Z   54
loop_
 _symmetry_equiv_pos_site_id
 _symmetry_equiv_pos_as_xyz
  1  'x, y, z'
loop_
 _atom_site_type_symbol
 _atom_site_label
 _atom_site_symmetry_multiplicity
 _atom_site_fract_x
 _atom_site_fract_y
 _atom_site_fract_z
 _atom_site_occupancy
  Ag  Ag0  1  0.15957449  0.83582165  0.00760394  1
  Ag  Ag1  1  0.49467864  0.82869824  0.32952240  1
  Ag  Ag2  1  0.50434623  0.50147966  0.66530116  1
  Ag  Ag3  1  0.82981484  0.17189011  0.66822823  1
  Ag  Ag4  1  0.16771890  0.82427919  0.32885778  1
  Ag  Ag5  1  0.83996510  0.83516510  0.00867846  1
  Ag  Ag6  1  0.83630338  0.82710400  0.32535761  1
  Ag  Ag7  1  0.33306009  0.16551889  0.49983651  1
  Ag  Ag8  1  0.49640039  0.16464909  0.00175273  1
  Ag  Ag9  1  -0.00046197  0.50106267  0.48872459  1
  Ag  Ag10  1  0.00586475  0.65838372  0.33353471  1
  Ag  Ag11  1  0.49838634  0.66498289  0.16999532  1
  Ag  Ag12  1  0.50293876  0.00113219  0.16875743  1
  Ag  Ag13  1  0.83286867  0.66504227  0.83786088  1
  Ag  Ag14  1  0.00047637  0.00381232  0.00306004  1
  Ag  Ag15  1  0.49410417  0.00144883  0.49521118  1
  Ag  Ag16  1  0.84683178  0.50252019  0.33348123  1
  Ag  Ag17  1  0.50004901  0.16782849  0.67132807  1
  Ag  Ag18  1  0.83123524  -0.00065534  0.16664910  1
  Ag  Ag19  1  0.83678450  0.16750482  0.32208705  1
  Ag  Ag20  1  0.16787757  0.33398288  0.83953724  1
  Ag  Ag21  1  0.84180649  0.16190007  0.00795158  1
  Ag  Ag22  1  0.49447687  0.33494681  0.16882310  1
  Ag  Ag23  1  0.33661413  0.50054269  0.83492504  1
  Ag  Ag24  1  0.16277526  0.50146317  0.33350104  1
  Ag  Ag25  1  0.83193292  0.67241753  0.16796094  1
  Ag  Ag26  1  -0.00565857  0.17297380  0.16362267  1
  Ag  Ag27  1  0.16409810  0.33509809  0.16999608  1
  Ag  Ag28  1  0.49425583  0.50569529  0.33283179  1
  Ag  Ag29  1  0.33731829  0.17159123  0.83214726  1
  Ag  Ag30  1  0.00307386  0.49391319  0.17574446  1
  Ag  Ag31  1  0.00022269  0.83015411  0.83784481  1
  Ag  Ag32  1  0.16407149  0.16795667  0.00156616  1
  Ag  Ag33  1  0.33384793  0.00090311  0.33365803  1
  Ag  Ag34  1  0.49726823  -0.00057885  0.83374479  1
  Ag  Ag35  1  0.65929296  0.50038764  0.82451101  1
  Ag  Ag36  1  0.16663468  0.66248934  0.49336497  1
  Ag  Ag37  1  0.67282895  0.16443195  0.16632763  1
  Ag  Ag38  1  0.00358205  0.32734681  0.01071770  1
  Ag  Ag39  1  0.00218649  0.66348553  0.66233995  1
  Ag  Ag40  1  0.67009830  0.83675284  0.16844869  1
  Ag  Ag41  1  0.17234133  0.00201223  0.49486493  1
  Ag  Ag42  1  0.66838594  0.49885582  0.50354931  1
  Ag  Ag43  1  0.82694941  0.50026297  0.66228720  1
  Ag  Ag44  1  0.00753916  0.34578920  0.32690576  1
  Ag  Ag45  1  0.16763201  0.33715171  0.48872217  1
  Ag  Ag46  1  0.33377165  0.66562916  0.00476914  1
  Ag  Ag47  1  0.33248138  0.50003310  0.17421269  1
  Ag  Ag48  1  0.49677826  0.66419420  0.83258995  1
  Ag  Ag49  1  0.32714630  0.34130069  0.33043517  1
  Ag  Ag50  1  0.33548052  0.66250078  0.66610191  1
  Ag  Ag51  1  0.32883940  0.66003140  0.33226421  1
  Ag  Ag52  1  0.66448704  0.33753501  0.66666107  1
  Ag  Ag53  1  0.49963014  0.82911894  0.66575023  1
  Sb  Sb54  1  0.83550037  0.50130233  0.00305160  1
  Sb  Sb55  1  0.66740752  0.82842831  0.83789660  1
  Sb  Sb56  1  0.66296509  0.17092998  0.49725772  1
  Sb  Sb57  1  0.83737596  0.33770541  0.83341962  1
  Sb  Sb58  1  0.16745575  0.49874413  0.00690941  1
  Sb  Sb59  1  0.33334426  0.83670222  0.49565424  1
  Sb  Sb60  1  0.17159119  0.83032528  0.66408847  1
  Sb  Sb61  1  0.66650314  0.33523052  0.33440195  1
  Sb  Sb62  1  -0.00475810  0.83112584  0.16525852  1
  Sb  Sb63  1  0.16770965  0.66215347  0.17285010  1
  Sb  Sb64  1  0.00269123  0.50329948  0.83361835  1
  Sb  Sb65  1  0.33117867  0.49765921  0.49388728  1
  Sb  Sb66  1  0.49980762  0.16640854  0.32992588  1
  Sb  Sb67  1  0.66268225  0.66672837  0.00131972  1
  Sb  Sb68  1  0.33764674  -0.00166774  0.66222894  1
  Sb  Sb69  1  0.00146943  0.82787217  0.49976088  1
  Sb  Sb70  1  0.66172017  0.17106321  0.83636408  1
  Sb  Sb71  1  0.16833411  0.16852978  0.66892043  1
  Sb  Sb72  1  0.33742570  0.82640229  0.16993270  1
  Sb  Sb73  1  0.32860695  0.33532973  0.00460840  1
  Sb  Sb74  1  0.49430284  0.33207878  0.49571470  1
  Sb  Sb75  1  0.66955898  0.00059889  0.00373580  1
  Sb  Sb76  1  0.66389019  0.82768874  0.49502434  1
  Sb  Sb77  1  0.17088851  0.00274570  0.83333174  1
  Sb  Sb78  1  0.49513068  0.33591380  0.83630408  1
  Sb  Sb79  1  0.83909133  0.66273584  0.49554555  1
  Sb  Sb80  1  0.16827502  0.50087581  0.66021558  1
  Sb  Sb81  1  0.33105079  -0.00115054  0.00550487  1
  Sb  Sb82  1  0.66625105  0.66530046  0.33182412  1
  Sb  Sb83  1  -0.00216341  0.33835235  0.66437401  1
  Sb  Sb84  1  0.00335015  0.66703310  0.00419168  1
  Sb  Sb85  1  0.33648577  0.33745761  0.66365539  1
  Sb  Sb86  1  0.16995196  0.66344683  0.83210327  1
  Sb  Sb87  1  0.83018596  -0.00291096  0.84031004  1
  Sb  Sb88  1  0.49988787  0.83608632  0.00426897  1
  Sb  Sb89  1  0.66377748  0.00591298  0.66661186  1
  Sb  Sb90  1  0.00469303  -0.00101479  0.32769031  1
  Sb  Sb91  1  0.66918220  0.33144214  -0.00032448  1
  Sb  Sb92  1  0.83395198  0.00236987  0.49070459  1
  Sb  Sb93  1  0.33445928  0.17261697  0.16775979  1
  Sb  Sb94  1  0.66556739  0.49899024  0.16948583  1
  Sb  Sb95  1  0.00184804  0.16492631  0.84080569  1
  Sb  Sb96  1  0.66305247  0.65980594  0.66813036  1
  Sb  Sb97  1  0.49783210  0.49809151  0.00135656  1
  Sb  Sb98  1  0.49267749  0.66698070  0.49848960  1
  Sb  Sb99  1  0.82913503  0.82780497  0.66710338  1
  Sb  Sb100  1  0.00423087  0.17190917  0.49441873  1
  Sb  Sb101  1  0.83757703  0.33624526  0.49788214  1
  Sb  Sb102  1  0.83712444  0.33147268  0.16778483  1
  Sb  Sb103  1  0.33194744  0.83065582  0.83445767  1
  Sb  Sb104  1  0.16458836  0.17249197  0.32883702  1
  Sb  Sb105  1  -0.00073398  -0.00306653  0.67089857  1
  Sb  Sb106  1  0.16680570  0.00375947  0.17012967  1
  Sb  Sb107  1  0.66072052  -0.00054338  0.33046774  1
  Te  Te108  1  0.16387842  0.17107499  0.16138846  1
  Te  Te109  1  0.17100635  0.16701844  0.50058783  1
  Te  Te110  1  0.17184951  0.16949245  0.83687611  1
  Te  Te111  1  0.16803192  0.49627231  0.17202999  1
  Te  Te112  1  0.16482268  0.49883460  0.49507579  1
  Te  Te113  1  0.17162567  0.49519181  0.83266202  1
  Te  Te114  1  0.16548464  0.83456782  0.16793248  1
  Te  Te115  1  0.16630554  0.83372349  0.49554126  1
  Te  Te116  1  0.16258506  0.83389741  0.83552278  1
  Te  Te117  1  0.50055308  0.16370932  0.16527594  1
  Te  Te118  1  0.49639225  0.16368655  0.50201164  1
  Te  Te119  1  0.49756160  0.16825192  0.83235883  1
  Te  Te120  1  0.50012291  0.50340600  0.16843396  1
  Te  Te121  1  0.50073220  0.49952192  0.50042732  1
  Te  Te122  1  0.49716122  0.50222983  0.83393623  1
  Te  Te123  1  0.50386517  0.83289674  0.16833631  1
  Te  Te124  1  0.50139278  0.83877927  0.49731108  1
  Te  Te125  1  0.50081349  0.83007743  0.83375397  1
  Te  Te126  1  0.83291329  0.16726041  0.16543130  1
  Te  Te127  1  0.83288793  0.16681070  0.50463540  1
  Te  Te128  1  0.83134541  0.16602167  0.83072074  1
  Te  Te129  1  0.83224897  0.50397916  0.17138691  1
  Te  Te130  1  0.83488228  0.49979877  0.49990249  1
  Te  Te131  1  0.83448171  0.50538532  0.83219877  1
  Te  Te132  1  0.83348470  0.83293897  0.16757074  1
  Te  Te133  1  0.83209568  0.83499263  0.49200929  1
  Te  Te134  1  0.83526724  0.82877265  0.83475134  1
  Te  Te135  1  0.16290435  -0.00018352  -0.00032030  1
  Te  Te136  1  0.17175377  -0.00291507  0.33640076  1
  Te  Te137  1  0.16702955  -0.00074249  0.65857452  1
  Te  Te138  1  0.16384686  0.33218603  0.00296946  1
  Te  Te139  1  0.16677834  0.33394000  0.33059464  1
  Te  Te140  1  0.16705519  0.33329580  0.66674073  1
  Te  Te141  1  0.17241688  0.67079895  0.00055635  1
  Te  Te142  1  0.16736130  0.66622043  0.33278821  1
  Te  Te143  1  0.16570288  0.66723242  0.66142673  1
  Te  Te144  1  0.49902871  0.00390725  0.00236230  1
  Te  Te145  1  0.49548964  -0.00108387  0.33123879  1
  Te  Te146  1  0.49924265  0.00254568  0.66864101  1
  Te  Te147  1  0.49976482  0.32619598  0.00651445  1
  Te  Te148  1  0.49566268  0.33518473  0.32860295  1
  Te  Te149  1  0.50266247  0.33515490  0.66687793  1
  Te  Te150  1  0.49465690  0.66807106  0.00040653  1
  Te  Te151  1  0.49767606  0.66783272  0.33257389  1
  Te  Te152  1  0.49722827  0.66341258  0.66561248  1
  Te  Te153  1  0.83747643  0.00062250  0.00392756  1
  Te  Te154  1  0.83460049  0.00028629  0.32695483  1
  Te  Te155  1  0.83246328  0.00227879  0.66652989  1
  Te  Te156  1  0.83968131  0.32780232  -0.00050724  1
  Te  Te157  1  0.83786146  0.33656786  0.33390823  1
  Te  Te158  1  0.83003865  0.33522056  0.66641606  1
  Te  Te159  1  0.83400341  0.66940699  0.00106906  1
  Te  Te160  1  0.83450633  0.66513423  0.33062042  1
  Te  Te161  1  0.83649966  0.66430247  0.66842974  1
  Te  Te162  1  0.00114053  0.16684972  0.00103088  1
  Te  Te163  1  -0.00423354  0.16670874  0.32913712  1
  Te  Te164  1  -0.00600806  0.16699136  0.66691711  1
  Te  Te165  1  0.00054396  0.49450414  0.00526746  1
  Te  Te166  1  0.00290739  0.50167098  0.33271659  1
  Te  Te167  1  -0.00281915  0.50475165  0.66536248  1
  Te  Te168  1  0.00028271  0.83260256  -0.00024087  1
  Te  Te169  1  0.00129468  0.83050965  0.33308497  1
  Te  Te170  1  -0.00123517  0.82789448  0.67120912  1
  Te  Te171  1  0.33297581  0.16650021  -0.00304852  1
  Te  Te172  1  0.33226187  0.16615620  0.33611661  1
  Te  Te173  1  0.33704456  0.16701044  0.66809547  1
  Te  Te174  1  0.33296412  0.50493414  -0.00159798  1
  Te  Te175  1  0.33602340  0.50006047  0.33301290  1
  Te  Te176  1  0.33651571  0.50375506  0.66873341  1
  Te  Te177  1  0.32768790  0.82869179  0.00127676  1
  Te  Te178  1  0.33423162  0.83099055  0.33267423  1
  Te  Te179  1  0.34059568  0.82616412  0.66691728  1
  Te  Te180  1  0.66513193  0.16708243  0.00447033  1
  Te  Te181  1  0.67516190  0.16800395  0.32908450  1
  Te  Te182  1  0.66512863  0.17315577  0.66610120  1
  Te  Te183  1  0.66768940  0.49841658  -0.00909277  1
  Te  Te184  1  0.65898447  0.49835462  0.33806377  1
  Te  Te185  1  0.66623228  0.49832671  0.66591785  1
  Te  Te186  1  0.67501919  0.83354078  0.00676293  1
  Te  Te187  1  0.66645931  0.83274834  0.32792265  1
  Te  Te188  1  0.65882882  0.83343190  0.66607857  1
  Te  Te189  1  -0.00222412  0.00576625  0.16230652  1
  Te  Te190  1  0.00488261  0.00156295  0.50121438  1
  Te  Te191  1  0.00048608  -0.00642313  0.83926309  1
  Te  Te192  1  -0.00024957  0.33352610  0.16805120  1
  Te  Te193  1  0.00669202  0.33872276  0.49632648  1
  Te  Te194  1  0.00728063  0.33358924  0.83363746  1
  Te  Te195  1  -0.00332977  0.66143669  0.17100269  1
  Te  Te196  1  0.00498073  0.66281154  0.49848187  1
  Te  Te197  1  -0.00004097  0.66943597  0.83310777  1
  Te  Te198  1  0.33798289  0.00066650  0.17265858  1
  Te  Te199  1  0.33412081  0.00383935  0.49673933  1
  Te  Te200  1  0.33860545  0.00365591  0.83389454  1
  Te  Te201  1  0.33376989  0.33857974  0.16976672  1
  Te  Te202  1  0.32744544  0.32772674  0.49515058  1
  Te  Te203  1  0.32844736  0.33450994  0.83424774  1
  Te  Te204  1  0.33608831  0.66131599  0.17000270  1
  Te  Te205  1  0.32671627  0.66612555  0.49766984  1
  Te  Te206  1  0.33630690  0.66413878  0.83055732  1
  Te  Te207  1  0.66648444  0.00146934  0.16709046  1
  Te  Te208  1  0.65953291  0.00077284  0.49913686  1
  Te  Te209  1  0.65680869  -0.00103959  0.83395094  1
  Te  Te210  1  0.65825567  0.32902717  0.16657138  1
  Te  Te211  1  0.66563299  0.33857929  0.50448697  1
  Te  Te212  1  0.66780187  0.33968149  0.82951538  1
  Te  Te213  1  0.66532673  0.66820017  0.16565398  1
  Te  Te214  1  0.66716813  0.65860887  0.50038579  1
  Te  Te215  1  0.66479463  0.66132338  0.83452038  1
