# generated using pymatgen
data_AgSbTe2
_symmetry_space_group_name_H-M   'P 1'
_cell_length_a   18.32419605
_cell_length_b   18.31986049
_cell_length_c   18.32203928
_cell_angle_alpha   90.00003621
_cell_angle_beta   90.00080192
_cell_angle_gamma   90.00017908
_symmetry_Int_Tables_number   1
_chemical_formula_structural   AgSbTe2
_chemical_formula_sum   'Ag54 Sb54 Te108'
_cell_volume   6150.64840623
_cell_formula_units_Z   54
loop_
 _symmetry_equiv_pos_site_id
 _symmetry_equiv_pos_as_xyz
  1  'x, y, z'
loop_
 _atom_site_type_symbol
 _atom_site_label
 _atom_site_symmetry_multiplicity
 _atom_site_fract_x
 _atom_site_fract_y
 _atom_site_fract_z
 _atom_site_occupancy
  Ag  Ag0  1  0.00281436  -0.00634456  -0.00389817  1
  Ag  Ag1  1  0.67687621  0.50102806  0.50517020  1
  Ag  Ag2  1  0.49679213  0.16959461  0.67125796  1
  Ag  Ag3  1  0.00761323  0.00550993  0.66751198  1
  Ag  Ag4  1  0.32443473  0.33418891  0.33163171  1
  Ag  Ag5  1  0.49691842  0.16055022  -0.00906580  1
  Ag  Ag6  1  -0.00703222  0.50217681  0.82828329  1
  Ag  Ag7  1  0.16645621  0.83320708  0.33315648  1
  Ag  Ag8  1  0.67178684  0.83183073  0.17322140  1
  Ag  Ag9  1  0.83678938  0.66099303  0.83140238  1
  Ag  Ag10  1  0.17051205  0.16334338  0.66693990  1
  Ag  Ag11  1  0.50857913  0.33711901  0.50075783  1
  Ag  Ag12  1  -0.00349998  0.83141592  0.16591780  1
  Ag  Ag13  1  0.49256526  0.00625336  0.83423659  1
  Ag  Ag14  1  -0.01049232  0.49850075  0.49893007  1
  Ag  Ag15  1  0.33262868  0.32889127  0.00343838  1
  Ag  Ag16  1  0.50007288  0.66650691  0.16734688  1
  Ag  Ag17  1  0.33597034  0.16411043  0.83269533  1
  Ag  Ag18  1  0.83516925  0.50677526  -0.00470184  1
  Ag  Ag19  1  0.82496543  0.50028452  0.65794356  1
  Ag  Ag20  1  0.00632896  0.34369371  0.33996651  1
  Ag  Ag21  1  0.16148039  0.49726037  0.33289000  1
  Ag  Ag22  1  0.83012271  0.65797900  0.50072653  1
  Ag  Ag23  1  0.16654420  0.33190742  0.83303802  1
  Ag  Ag24  1  0.67422470  0.66178734  0.33799195  1
  Ag  Ag25  1  0.15894990  0.66200674  0.83629243  1
  Ag  Ag26  1  0.17079020  0.00486926  0.82616316  1
  Ag  Ag27  1  0.16510130  -0.00149069  0.50218203  1
  Ag  Ag28  1  0.83347300  0.82970026  0.00408717  1
  Ag  Ag29  1  -0.00233804  0.66195739  0.33013708  1
  Ag  Ag30  1  -0.00277806  0.33513988  0.65918076  1
  Ag  Ag31  1  0.82834994  0.34538349  0.49936173  1
  Ag  Ag32  1  0.66614056  -0.00346739  0.33612455  1
  Ag  Ag33  1  0.32781926  0.00349910  0.67064125  1
  Ag  Ag34  1  0.51072145  0.49241572  0.65944298  1
  Ag  Ag35  1  0.66879405  0.65501490  0.65865169  1
  Ag  Ag36  1  0.83400360  -0.00561556  0.17257302  1
  Ag  Ag37  1  0.83520027  -0.00417333  0.49728232  1
  Ag  Ag38  1  -0.00134423  0.66917735  0.00530611  1
  Ag  Ag39  1  0.16821413  0.33982084  0.17681709  1
  Ag  Ag40  1  0.33094868  0.00296707  0.33511396  1
  Ag  Ag41  1  0.66651668  0.82512375  0.49326528  1
  Ag  Ag42  1  0.50339433  0.83771315  0.00202075  1
  Ag  Ag43  1  0.66884744  0.34212390  0.66041359  1
  Ag  Ag44  1  0.50722533  0.49776496  0.33991262  1
  Ag  Ag45  1  0.16484077  0.66242502  0.17047772  1
  Ag  Ag46  1  0.65760457  0.17108713  0.83022594  1
  Ag  Ag47  1  0.33237911  0.00407949  -0.00611413  1
  Ag  Ag48  1  0.16887075  0.16855181  0.33733962  1
  Ag  Ag49  1  0.83280849  0.50124158  0.34255082  1
  Ag  Ag50  1  0.66622915  0.34490965  0.34170623  1
  Ag  Ag51  1  0.33733179  0.83747177  0.49681329  1
  Ag  Ag52  1  0.67538950  0.49840932  0.81924432  1
  Ag  Ag53  1  0.33129049  0.49829818  0.17034169  1
  Sb  Sb54  1  0.33195158  0.16229270  0.50365871  1
  Sb  Sb55  1  0.32907973  0.66758675  0.00058536  1
  Sb  Sb56  1  -0.00454341  0.66236728  0.66580218  1
  Sb  Sb57  1  0.33319449  0.32875283  0.66351216  1
  Sb  Sb58  1  0.83288379  0.82785830  0.66669632  1
  Sb  Sb59  1  0.66774969  0.83117558  0.83325136  1
  Sb  Sb60  1  0.49872687  0.00290100  0.50263083  1
  Sb  Sb61  1  0.33168477  0.66429478  0.33314415  1
  Sb  Sb62  1  0.00076109  -0.00187585  0.33487138  1
  Sb  Sb63  1  0.66619751  0.17365070  0.50300186  1
  Sb  Sb64  1  0.67351712  0.66654982  0.00229834  1
  Sb  Sb65  1  0.83224107  0.17292357  0.66630572  1
  Sb  Sb66  1  0.66526205  0.16332346  0.16612935  1
  Sb  Sb67  1  0.83645772  0.66946937  0.16886483  1
  Sb  Sb68  1  0.16405321  -0.00054719  0.16912194  1
  Sb  Sb69  1  0.50179271  0.83490934  0.66894001  1
  Sb  Sb70  1  0.83540920  -0.00411537  0.83177740  1
  Sb  Sb71  1  0.82962597  0.16465319  -0.00239676  1
  Sb  Sb72  1  0.33273331  0.17090586  0.16309933  1
  Sb  Sb73  1  0.33676348  0.67033512  0.66628780  1
  Sb  Sb74  1  0.66530508  0.50492577  0.17510540  1
  Sb  Sb75  1  -0.00417094  0.83057395  0.49572426  1
  Sb  Sb76  1  0.00036569  0.17126134  0.50047730  1
  Sb  Sb77  1  0.33247192  0.83054767  0.17004036  1
  Sb  Sb78  1  0.00231858  0.16267368  0.16768578  1
  Sb  Sb79  1  0.66754766  0.00226291  0.66153048  1
  Sb  Sb80  1  0.66233628  0.33507241  -0.00217682  1
  Sb  Sb81  1  0.16534936  0.83409942  0.00487597  1
  Sb  Sb82  1  0.49786271  0.32823987  0.82870998  1
  Sb  Sb83  1  0.49595903  0.17179752  0.33591384  1
  Sb  Sb84  1  0.17104404  0.16628860  -0.00311723  1
  Sb  Sb85  1  0.83660090  0.34173249  0.82764356  1
  Sb  Sb86  1  0.50084409  0.82943144  0.33068481  1
  Sb  Sb87  1  0.83357221  0.82910755  0.33092928  1
  Sb  Sb88  1  0.33402482  0.50184919  0.49475348  1
  Sb  Sb89  1  0.16456574  0.49529385  0.66372603  1
  Sb  Sb90  1  0.66582209  -0.00169189  0.00162001  1
  Sb  Sb91  1  0.50189949  -0.00509424  0.16346630  1
  Sb  Sb92  1  0.83543987  0.17009828  0.33571968  1
  Sb  Sb93  1  0.50224211  0.66766336  0.83625509  1
  Sb  Sb94  1  0.50320400  0.50058537  0.00011295  1
  Sb  Sb95  1  0.00406604  0.33681002  0.00030561  1
  Sb  Sb96  1  0.16239748  0.49986939  0.00364637  1
  Sb  Sb97  1  0.00259315  0.50502146  0.17264087  1
  Sb  Sb98  1  0.00062956  0.82876603  0.83796572  1
  Sb  Sb99  1  0.16651465  0.83933925  0.66194744  1
  Sb  Sb100  1  0.83806939  0.33439939  0.17440025  1
  Sb  Sb101  1  0.33197672  0.49361476  0.83643032  1
  Sb  Sb102  1  0.00219143  0.16980323  0.83117099  1
  Sb  Sb103  1  0.33194313  0.84083465  0.83197848  1
  Sb  Sb104  1  0.16052004  0.67018231  0.49692679  1
  Sb  Sb105  1  0.49588670  0.33891016  0.17189511  1
  Sb  Sb106  1  0.16506754  0.32994665  0.49773085  1
  Sb  Sb107  1  0.50843351  0.66142975  0.49506665  1
  Te  Te108  1  0.16715177  0.17255471  0.17306290  1
  Te  Te109  1  0.16623473  0.15965136  0.50093621  1
  Te  Te110  1  0.16819006  0.16590810  0.83094084  1
  Te  Te111  1  0.16823817  0.50053339  0.16986222  1
  Te  Te112  1  0.16585102  0.50173231  0.49470596  1
  Te  Te113  1  0.16550680  0.49863427  0.83254417  1
  Te  Te114  1  0.16410009  0.82939919  0.17236344  1
  Te  Te115  1  0.16628012  0.83705212  0.49419904  1
  Te  Te116  1  0.16657565  0.83340695  0.83340155  1
  Te  Te117  1  0.50070182  0.16698888  0.16077074  1
  Te  Te118  1  0.49902225  0.17403967  0.50599534  1
  Te  Te119  1  0.49867892  0.16653774  0.83174726  1
  Te  Te120  1  0.49656220  0.50567191  0.16856089  1
  Te  Te121  1  0.49926662  0.49714251  0.49951233  1
  Te  Te122  1  0.50194956  0.50038097  0.83051988  1
  Te  Te123  1  0.50267327  0.82770188  0.16314895  1
  Te  Te124  1  0.50352938  0.83334104  0.49958328  1
  Te  Te125  1  0.50039684  0.83742113  0.83962133  1
  Te  Te126  1  0.83313885  0.15716949  0.16648985  1
  Te  Te127  1  0.83299138  0.15414062  0.50086281  1
  Te  Te128  1  0.82612430  0.16710233  0.83307436  1
  Te  Te129  1  0.83314018  0.49945702  0.16067831  1
  Te  Te130  1  0.83366093  0.50143275  0.49892519  1
  Te  Te131  1  0.83354593  0.50173398  0.83454946  1
  Te  Te132  1  0.83297477  0.83521922  0.16460240  1
  Te  Te133  1  0.82784481  0.83710649  0.49980838  1
  Te  Te134  1  0.83277940  0.82528229  0.84008924  1
  Te  Te135  1  0.16698502  0.00032198  -0.00040636  1
  Te  Te136  1  0.16766984  0.00042879  0.33480748  1
  Te  Te137  1  0.16750078  0.00175619  0.66578374  1
  Te  Te138  1  0.17180913  0.33269016  -0.00271194  1
  Te  Te139  1  0.16579732  0.33467425  0.33580566  1
  Te  Te140  1  0.16466978  0.32803331  0.66779042  1
  Te  Te141  1  0.16093087  0.66712041  -0.00125630  1
  Te  Te142  1  0.16452883  0.66576362  0.33301142  1
  Te  Te143  1  0.16664834  0.66672229  0.67147306  1
  Te  Te144  1  0.49827958  -0.00046944  -0.00272243  1
  Te  Te145  1  0.49812241  0.00196170  0.33290853  1
  Te  Te146  1  0.49805847  0.00324180  0.67101427  1
  Te  Te147  1  0.49359393  0.33154433  0.00161593  1
  Te  Te148  1  0.50378393  0.33671041  0.33654370  1
  Te  Te149  1  0.50046449  0.33308712  0.66375078  1
  Te  Te150  1  0.49872827  0.67009661  0.00460428  1
  Te  Te151  1  0.50055609  0.66134695  0.32847851  1
  Te  Te152  1  0.50528458  0.66455570  0.66816914  1
  Te  Te153  1  0.83677000  -0.00315694  0.00008646  1
  Te  Te154  1  0.83306837  0.00181640  0.33365355  1
  Te  Te155  1  0.83679302  0.00004296  0.66368267  1
  Te  Te156  1  0.83336475  0.33433634  0.00362810  1
  Te  Te157  1  0.83314164  0.33716436  0.33801187  1
  Te  Te158  1  0.83542531  0.33801591  0.66158683  1
  Te  Te159  1  0.83835262  0.66794669  0.00079412  1
  Te  Te160  1  0.83451022  0.66293588  0.33493148  1
  Te  Te161  1  0.83039625  0.66184618  0.66616371  1
  Te  Te162  1  -0.00099640  0.15986631  -0.00053205  1
  Te  Te163  1  0.00623307  0.17245788  0.33337008  1
  Te  Te164  1  0.00337684  0.16833147  0.66689613  1
  Te  Te165  1  -0.00385535  0.50283498  -0.00461752  1
  Te  Te166  1  -0.00064076  0.50103520  0.33321021  1
  Te  Te167  1  0.00035984  0.49645160  0.66645674  1
  Te  Te168  1  -0.00143595  0.83292419  0.00376260  1
  Te  Te169  1  0.00315211  0.82984243  0.32927919  1
  Te  Te170  1  -0.00136171  0.84103610  0.66581656  1
  Te  Te171  1  0.33618208  0.16524739  -0.00339976  1
  Te  Te172  1  0.33000748  0.16717627  0.33318990  1
  Te  Te173  1  0.33256116  0.16328188  0.67026871  1
  Te  Te174  1  0.33421635  0.49668505  0.00520177  1
  Te  Te175  1  0.33298459  0.49726654  0.33111819  1
  Te  Te176  1  0.33776867  0.50045690  0.66607457  1
  Te  Te177  1  0.33763656  0.83817076  0.00114728  1
  Te  Te178  1  0.33141353  0.83635905  0.33596866  1
  Te  Te179  1  0.33468245  0.84089490  0.65974561  1
  Te  Te180  1  0.66011696  0.16701302  -0.00539947  1
  Te  Te181  1  0.66541582  0.16227579  0.33356330  1
  Te  Te182  1  0.66344608  0.17049807  0.67018747  1
  Te  Te183  1  0.67168884  0.49946312  -0.00178903  1
  Te  Te184  1  0.66757834  0.50178930  0.33562650  1
  Te  Te185  1  0.66674018  0.49852666  0.66370720  1
  Te  Te186  1  0.66784390  0.83245627  0.00321467  1
  Te  Te187  1  0.66678848  0.83401754  0.33296724  1
  Te  Te188  1  0.66667428  0.83029236  0.66126386  1
  Te  Te189  1  -0.00293621  -0.00497066  0.16396103  1
  Te  Te190  1  0.00127782  -0.00151244  0.50242914  1
  Te  Te191  1  0.00310514  0.00044580  0.83323843  1
  Te  Te192  1  0.00645464  0.33229059  0.16932939  1
  Te  Te193  1  -0.00138463  0.33714620  0.49962985  1
  Te  Te194  1  0.00530966  0.33721965  0.83287929  1
  Te  Te195  1  0.00281599  0.67031769  0.16752472  1
  Te  Te196  1  -0.00664047  0.66272361  0.49727596  1
  Te  Te197  1  -0.00069252  0.66294110  0.83234024  1
  Te  Te198  1  0.33280793  -0.00013650  0.16907271  1
  Te  Te199  1  0.33245345  -0.00280435  0.49577632  1
  Te  Te200  1  0.33202698  0.00239094  0.83365314  1
  Te  Te201  1  0.32965731  0.33665684  0.16966280  1
  Te  Te202  1  0.33549703  0.33348801  0.49345709  1
  Te  Te203  1  0.32811269  0.32787993  0.83472145  1
  Te  Te204  1  0.32763100  0.66250140  0.16598764  1
  Te  Te205  1  0.33303215  0.67644531  0.50130199  1
  Te  Te206  1  0.32681224  0.66632597  0.83353915  1
  Te  Te207  1  0.66992464  -0.00417480  0.17154731  1
  Te  Te208  1  0.66664449  -0.00063321  0.49596746  1
  Te  Te209  1  0.66545830  0.00118266  0.83148276  1
  Te  Te210  1  0.66781953  0.33242258  0.17265477  1
  Te  Te211  1  0.66903053  0.33608967  0.49988362  1
  Te  Te212  1  0.66730639  0.33589279  0.82985959  1
  Te  Te213  1  0.66500329  0.67115343  0.17095765  1
  Te  Te214  1  0.66894878  0.66456293  0.49846052  1
  Te  Te215  1  0.66977137  0.66220249  0.83164011  1
