# generated using pymatgen
data_AgSbTe2
_symmetry_space_group_name_H-M   'P 1'
_cell_length_a   18.34332060
_cell_length_b   18.33855814
_cell_length_c   18.33916324
_cell_angle_alpha   90.00492623
_cell_angle_beta   90.00152705
_cell_angle_gamma   90.00306267
_symmetry_Int_Tables_number   1
_chemical_formula_structural   AgSbTe2
_chemical_formula_sum   'Ag54 Sb54 Te108'
_cell_volume   6169.11202844
_cell_formula_units_Z   54
loop_
 _symmetry_equiv_pos_site_id
 _symmetry_equiv_pos_as_xyz
  1  'x, y, z'
loop_
 _atom_site_type_symbol
 _atom_site_label
 _atom_site_symmetry_multiplicity
 _atom_site_fract_x
 _atom_site_fract_y
 _atom_site_fract_z
 _atom_site_occupancy
  Ag  Ag0  1  0.67501626  0.49820105  0.16726144  1
  Ag  Ag1  1  0.49779109  -0.00408501  0.83068491  1
  Ag  Ag2  1  0.66668273  0.67264528  -0.01062821  1
  Ag  Ag3  1  0.33952316  0.00414460  -0.00969901  1
  Ag  Ag4  1  0.49542090  0.16219091  0.00155943  1
  Ag  Ag5  1  0.66249926  0.82952675  0.82721591  1
  Ag  Ag6  1  0.16800834  0.16359679  0.01322352  1
  Ag  Ag7  1  -0.00263251  0.82211536  0.50455450  1
  Ag  Ag8  1  0.83756975  0.17065907  0.32671303  1
  Ag  Ag9  1  0.66993684  0.83515417  0.16378257  1
  Ag  Ag10  1  0.32050762  0.67490232  0.66008290  1
  Ag  Ag11  1  0.33341356  -0.00872362  0.66839333  1
  Ag  Ag12  1  0.16132901  0.51153733  0.65317992  1
  Ag  Ag13  1  0.66547087  -0.00113677  -0.00003752  1
  Ag  Ag14  1  0.17358021  0.82484130  0.66381125  1
  Ag  Ag15  1  0.31399785  0.16370547  0.16491617  1
  Ag  Ag16  1  0.48762882  0.66858962  0.50822932  1
  Ag  Ag17  1  0.66892437  0.34099328  0.66118808  1
  Ag  Ag18  1  0.66849909  0.51100408  0.82947712  1
  Ag  Ag19  1  0.33284663  0.82752869  0.50707756  1
  Ag  Ag20  1  0.16273914  0.01047994  0.16467637  1
  Ag  Ag21  1  0.49851554  -0.00358379  0.50707752  1
  Ag  Ag22  1  0.68559127  0.16638385  0.16390056  1
  Ag  Ag23  1  0.32971357  0.16130213  0.49917989  1
  Ag  Ag24  1  0.17303436  0.66767407  0.81747080  1
  Ag  Ag25  1  0.50069989  0.33537485  0.50077150  1
  Ag  Ag26  1  0.00199701  0.16639107  0.49635702  1
  Ag  Ag27  1  0.83688595  0.49683404  0.33750539  1
  Ag  Ag28  1  0.33027613  0.15696993  0.84096107  1
  Ag  Ag29  1  0.00373105  0.16382385  0.83894667  1
  Ag  Ag30  1  0.16350048  0.17235492  0.32537195  1
  Ag  Ag31  1  0.82572527  0.00093963  0.83261308  1
  Ag  Ag32  1  0.83268305  0.00976351  0.16550067  1
  Ag  Ag33  1  0.83346086  0.82809160  0.66173877  1
  Ag  Ag34  1  0.00303677  0.50685097  0.49794598  1
  Ag  Ag35  1  -0.00028216  0.16926650  0.16786881  1
  Ag  Ag36  1  0.32492436  0.51465445  0.50045001  1
  Ag  Ag37  1  0.16589330  0.66550369  0.17046732  1
  Ag  Ag38  1  0.50252783  0.67540643  0.82480778  1
  Ag  Ag39  1  0.83339737  0.51109445  0.65570262  1
  Ag  Ag40  1  0.32926996  0.66469157  0.34915322  1
  Ag  Ag41  1  -0.00320492  0.49439108  0.17435313  1
  Ag  Ag42  1  0.83027766  -0.00487339  0.50115595  1
  Ag  Ag43  1  0.33890549  0.83880074  0.82380169  1
  Ag  Ag44  1  0.17293962  0.66358190  0.50360361  1
  Ag  Ag45  1  0.66822488  0.66791434  0.66654012  1
  Ag  Ag46  1  0.66946364  0.33356548  0.33410769  1
  Ag  Ag47  1  0.83454509  0.32223478  0.17005071  1
  Ag  Ag48  1  0.83326911  0.16229216  0.01369853  1
  Ag  Ag49  1  0.83587137  0.67086617  0.50559880  1
  Ag  Ag50  1  0.16053652  0.49969621  0.33558770  1
  Ag  Ag51  1  0.15828699  0.32264953  0.16980059  1
  Ag  Ag52  1  0.66869509  0.83005707  0.50851296  1
  Ag  Ag53  1  0.00852249  0.66763435  0.66291735  1
  Sb  Sb54  1  0.00487977  0.66202504  0.34390988  1
  Sb  Sb55  1  0.83061628  0.32835916  0.83594856  1
  Sb  Sb56  1  0.33552478  0.33580291  0.66287369  1
  Sb  Sb57  1  0.50252147  0.00310239  0.16365692  1
  Sb  Sb58  1  0.33645761  0.50574753  0.82453640  1
  Sb  Sb59  1  0.50283752  0.49720615  -0.00147722  1
  Sb  Sb60  1  0.83514739  0.66611653  0.17305841  1
  Sb  Sb61  1  -0.00057727  0.32995163  0.00349100  1
  Sb  Sb62  1  0.82901013  0.67271162  0.82449971  1
  Sb  Sb63  1  0.33330259  0.32320718  0.00180097  1
  Sb  Sb64  1  0.49974686  0.66764611  0.16637922  1
  Sb  Sb65  1  -0.00444836  0.33837388  0.66390664  1
  Sb  Sb66  1  -0.00396994  0.66612175  -0.00427971  1
  Sb  Sb67  1  0.66863473  0.00352875  0.32941678  1
  Sb  Sb68  1  0.50423416  0.50390520  0.66434048  1
  Sb  Sb69  1  0.50070567  0.83252592  0.33911818  1
  Sb  Sb70  1  -0.00307591  0.83517760  0.17504371  1
  Sb  Sb71  1  0.83189636  0.83298211  0.34113167  1
  Sb  Sb72  1  0.33201990  -0.00094168  0.33705073  1
  Sb  Sb73  1  -0.00418711  0.49935517  0.82869898  1
  Sb  Sb74  1  0.66938508  0.50462823  0.50061078  1
  Sb  Sb75  1  0.16725197  0.49817316  0.00558312  1
  Sb  Sb76  1  0.83065316  0.49697789  0.00346742  1
  Sb  Sb77  1  0.82968842  0.33313274  0.49510051  1
  Sb  Sb78  1  0.32865368  0.49666484  0.17335529  1
  Sb  Sb79  1  0.16793455  0.16652413  0.66424568  1
  Sb  Sb80  1  0.16767646  0.33496024  0.83606504  1
  Sb  Sb81  1  0.82875269  0.83933825  -0.00546960  1
  Sb  Sb82  1  -0.00043257  0.00505590  0.33466979  1
  Sb  Sb83  1  0.66712268  0.16307213  0.49580251  1
  Sb  Sb84  1  -0.00467600  0.33359904  0.33262209  1
  Sb  Sb85  1  0.50418038  0.32988168  0.17120922  1
  Sb  Sb86  1  0.49945774  0.16625164  0.33091555  1
  Sb  Sb87  1  0.00210423  -0.00438270  0.66485023  1
  Sb  Sb88  1  0.16663135  -0.00279521  0.49688465  1
  Sb  Sb89  1  0.66422899  0.66366453  0.33751925  1
  Sb  Sb90  1  0.49665267  0.83034947  0.66628564  1
  Sb  Sb91  1  0.50300276  0.33008755  0.82792983  1
  Sb  Sb92  1  0.33567105  0.33472083  0.33600902  1
  Sb  Sb93  1  0.50254445  0.83916730  -0.00409870  1
  Sb  Sb94  1  0.16806863  0.83701341  -0.00344328  1
  Sb  Sb95  1  0.66738099  0.32917547  0.00253334  1
  Sb  Sb96  1  0.17144912  -0.00232330  0.83567203  1
  Sb  Sb97  1  0.83386150  0.16439137  0.66399003  1
  Sb  Sb98  1  0.49917930  0.16471290  0.66765581  1
  Sb  Sb99  1  0.66612051  0.16088066  0.83849399  1
  Sb  Sb100  1  0.16948207  0.33818888  0.49462628  1
  Sb  Sb101  1  0.33662382  0.67287960  -0.00624270  1
  Sb  Sb102  1  -0.00271033  0.00328902  -0.00096660  1
  Sb  Sb103  1  -0.00046079  0.83630712  0.82527121  1
  Sb  Sb104  1  0.16781399  0.82986895  0.33971384  1
  Sb  Sb105  1  0.33507400  0.83841506  0.16691484  1
  Sb  Sb106  1  0.50142208  0.50028227  0.33658149  1
  Sb  Sb107  1  0.66408285  -0.00504826  0.66922767  1
  Te  Te108  1  0.15867087  0.16644810  0.16895420  1
  Te  Te109  1  0.16611366  0.16719317  0.49767349  1
  Te  Te110  1  0.16715269  0.16724863  0.83238762  1
  Te  Te111  1  0.16463851  0.50328734  0.17062050  1
  Te  Te112  1  0.16482164  0.49986344  0.49629556  1
  Te  Te113  1  0.16639028  0.50485243  0.83618480  1
  Te  Te114  1  0.16606492  0.83066139  0.16757722  1
  Te  Te115  1  0.16875424  0.83068353  0.50362894  1
  Te  Te116  1  0.16760515  0.82883971  0.82900690  1
  Te  Te117  1  0.49902043  0.16670402  0.16230226  1
  Te  Te118  1  0.49874236  0.16132659  0.49901410  1
  Te  Te119  1  0.49604894  0.16282379  0.83714925  1
  Te  Te120  1  0.50675414  0.49850951  0.16715117  1
  Te  Te121  1  0.49455505  0.50323859  0.49974399  1
  Te  Te122  1  0.50548721  0.50301786  0.83303948  1
  Te  Te123  1  0.50810543  0.83455209  0.16758261  1
  Te  Te124  1  0.50048051  0.83199105  0.50100053  1
  Te  Te125  1  0.50066496  0.83455227  0.83313508  1
  Te  Te126  1  0.84064310  0.16567712  0.16987626  1
  Te  Te127  1  0.83508748  0.16341707  0.49602164  1
  Te  Te128  1  0.83584532  0.16152127  0.83190176  1
  Te  Te129  1  0.83457724  0.50114521  0.16953336  1
  Te  Te130  1  0.83564833  0.49783994  0.49890551  1
  Te  Te131  1  0.82932371  0.49774140  0.83379171  1
  Te  Te132  1  0.83026616  0.83567704  0.16776181  1
  Te  Te133  1  0.83194384  0.83461201  0.50131599  1
  Te  Te134  1  0.83106403  0.83981411  0.82784906  1
  Te  Te135  1  0.16989946  0.00390755  0.00350639  1
  Te  Te136  1  0.16727438  0.00572899  0.32589422  1
  Te  Te137  1  0.17256441  -0.00336418  0.66650696  1
  Te  Te138  1  0.16688983  0.32685192  0.00689183  1
  Te  Te139  1  0.16955432  0.33452909  0.32826586  1
  Te  Te140  1  0.16599104  0.34221876  0.66774718  1
  Te  Te141  1  0.16660496  0.66769202  0.00607716  1
  Te  Te142  1  0.16907071  0.66378685  0.33314698  1
  Te  Te143  1  0.16482282  0.66657970  0.66264466  1
  Te  Te144  1  0.50151166  0.00417257  -0.00295533  1
  Te  Te145  1  0.50026908  0.00031645  0.34456295  1
  Te  Te146  1  0.49556247  0.00032590  0.66825968  1
  Te  Te147  1  0.50068839  0.32394350  -0.00137981  1
  Te  Te148  1  0.50742474  0.33294199  0.34089446  1
  Te  Te149  1  0.50650148  0.33434139  0.66022387  1
  Te  Te150  1  0.50540699  0.66585197  -0.00355374  1
  Te  Te151  1  0.49187779  0.66564551  0.33812310  1
  Te  Te152  1  0.50837548  0.66572186  0.66686956  1
  Te  Te153  1  0.83001872  0.00315713  0.00086348  1
  Te  Te154  1  0.83309251  0.00418500  0.33389393  1
  Te  Te155  1  0.83331402  -0.00312350  0.66399899  1
  Te  Te156  1  0.83276164  0.32490408  0.00728426  1
  Te  Te157  1  0.82854771  0.33430944  0.32984916  1
  Te  Te158  1  0.82784099  0.33728781  0.66720838  1
  Te  Te159  1  0.82703933  0.66671849  -0.00086195  1
  Te  Te160  1  0.83315759  0.66076032  0.34084598  1
  Te  Te161  1  0.82736502  0.66708364  0.66549350  1
  Te  Te162  1  0.00059513  0.16559883  0.00007016  1
  Te  Te163  1  0.00044849  0.16825506  0.33348085  1
  Te  Te164  1  0.00072909  0.16792651  0.66327028  1
  Te  Te165  1  -0.00084781  0.50022331  0.00697230  1
  Te  Te166  1  -0.00046010  0.49917921  0.33446417  1
  Te  Te167  1  -0.00272534  0.50434699  0.66469789  1
  Te  Te168  1  -0.00130202  0.83319197  0.00059529  1
  Te  Te169  1  0.00011456  0.83400077  0.34562062  1
  Te  Te170  1  -0.00255717  0.82939204  0.66201827  1
  Te  Te171  1  0.33012547  0.16220953  0.00125132  1
  Te  Te172  1  0.33017964  0.16692532  0.33213980  1
  Te  Te173  1  0.33272526  0.16743720  0.66310683  1
  Te  Te174  1  0.33503142  0.49944150  -0.00105120  1
  Te  Te175  1  0.32892922  0.50317824  0.33839788  1
  Te  Te176  1  0.32795810  0.50321452  0.66160144  1
  Te  Te177  1  0.33384809  0.84213613  -0.00288369  1
  Te  Te178  1  0.33345459  0.82659815  0.33608320  1
  Te  Te179  1  0.33319051  0.83267327  0.66699889  1
  Te  Te180  1  0.67133417  0.16291822  0.00325248  1
  Te  Te181  1  0.66942869  0.17083068  0.32744877  1
  Te  Te182  1  0.66767432  0.17253454  0.66760768  1
  Te  Te183  1  0.66666020  0.50276315  0.00202624  1
  Te  Te184  1  0.67071120  0.49668707  0.33021350  1
  Te  Te185  1  0.67056205  0.50230569  0.66612240  1
  Te  Te186  1  0.66732385  0.83400720  0.00004501  1
  Te  Te187  1  0.66737798  0.83353156  0.32972184  1
  Te  Te188  1  0.67071097  0.83289659  0.66765721  1
  Te  Te189  1  -0.00153313  0.00094267  0.16574558  1
  Te  Te190  1  -0.00360821  0.00630653  0.50075903  1
  Te  Te191  1  -0.00557434  0.00478300  0.83200703  1
  Te  Te192  1  -0.00142286  0.33520612  0.16720020  1
  Te  Te193  1  0.00046205  0.32757635  0.50026179  1
  Te  Te194  1  -0.00055005  0.32527220  0.83250004  1
  Te  Te195  1  0.00343370  0.66654874  0.16520371  1
  Te  Te196  1  -0.00308210  0.66388956  0.50384468  1
  Te  Te197  1  0.00632267  0.66675314  0.82777963  1
  Te  Te198  1  0.33319972  0.00297061  0.16650616  1
  Te  Te199  1  0.33372683  0.00069192  0.50232677  1
  Te  Te200  1  0.33359248  -0.00021088  0.83123187  1
  Te  Te201  1  0.33233294  0.32710974  0.16824476  1
  Te  Te202  1  0.33953360  0.32135703  0.50018753  1
  Te  Te203  1  0.33481636  0.32664118  0.83199871  1
  Te  Te204  1  0.33083314  0.66738593  0.16337473  1
  Te  Te205  1  0.33261305  0.67007278  0.50523935  1
  Te  Te206  1  0.33556767  0.67077770  0.82921738  1
  Te  Te207  1  0.66899290  0.00206532  0.16316493  1
  Te  Te208  1  0.66692050  -0.00464651  0.50105650  1
  Te  Te209  1  0.66453675  -0.00345202  0.83566983  1
  Te  Te210  1  0.66940172  0.33275821  0.16823824  1
  Te  Te211  1  0.66291642  0.33378631  0.49952299  1
  Te  Te212  1  0.66645339  0.33897326  0.82965070  1
  Te  Te213  1  0.66625047  0.66640729  0.16864505  1
  Te  Te214  1  0.67256489  0.67012344  0.50140201  1
  Te  Te215  1  0.66736515  0.66931569  0.83251259  1
