# generated using pymatgen
data_AgSbTe2
_symmetry_space_group_name_H-M   'P 1'
_cell_length_a   18.30751648
_cell_length_b   18.31387189
_cell_length_c   18.31145097
_cell_angle_alpha   89.99865705
_cell_angle_beta   89.99540527
_cell_angle_gamma   89.99992914
_symmetry_Int_Tables_number   1
_chemical_formula_structural   AgSbTe2
_chemical_formula_sum   'Ag54 Sb54 Te108'
_cell_volume   6139.49093624
_cell_formula_units_Z   54
loop_
 _symmetry_equiv_pos_site_id
 _symmetry_equiv_pos_as_xyz
  1  'x, y, z'
loop_
 _atom_site_type_symbol
 _atom_site_label
 _atom_site_symmetry_multiplicity
 _atom_site_fract_x
 _atom_site_fract_y
 _atom_site_fract_z
 _atom_site_occupancy
  Ag  Ag0  1  -0.00150221  0.17016856  0.84049558  1
  Ag  Ag1  1  0.33078298  0.33398032  -0.00220557  1
  Ag  Ag2  1  -0.00383874  0.32947468  -0.00273763  1
  Ag  Ag3  1  0.66317320  0.66914172  0.66772510  1
  Ag  Ag4  1  0.33464802  0.49899059  0.82700714  1
  Ag  Ag5  1  0.17486814  0.49543447  0.66619018  1
  Ag  Ag6  1  0.66372459  -0.00402676  0.66477909  1
  Ag  Ag7  1  -0.00023610  0.00611338  0.67508521  1
  Ag  Ag8  1  0.49424764  0.49850825  0.66769152  1
  Ag  Ag9  1  0.33938632  0.66488461  0.33383993  1
  Ag  Ag10  1  -0.00972958  0.50025205  0.16512525  1
  Ag  Ag11  1  0.17070888  0.00374436  0.83317327  1
  Ag  Ag12  1  0.49933429  0.67125437  0.83568826  1
  Ag  Ag13  1  -0.00190104  0.66325506  0.32456751  1
  Ag  Ag14  1  0.33106862  0.50276275  0.50636708  1
  Ag  Ag15  1  0.83766472  0.49246488  0.00741739  1
  Ag  Ag16  1  0.49951623  0.16653525  0.67287910  1
  Ag  Ag17  1  0.67002013  0.50186749  0.16643338  1
  Ag  Ag18  1  0.16720689  0.33706745  0.51074754  1
  Ag  Ag19  1  0.33629834  0.83206356  0.83150096  1
  Ag  Ag20  1  0.66455321  0.83036179  0.16658576  1
  Ag  Ag21  1  0.66663932  0.00338621  0.32913958  1
  Ag  Ag22  1  0.83227496  0.83535452  0.66666119  1
  Ag  Ag23  1  -0.00782991  0.82896113  0.16242970  1
  Ag  Ag24  1  0.32927874  0.33935144  0.67300726  1
  Ag  Ag25  1  0.16292329  0.33068038  0.83099854  1
  Ag  Ag26  1  0.00632631  0.33153251  0.67614499  1
  Ag  Ag27  1  0.50459728  0.33417396  0.16420729  1
  Ag  Ag28  1  0.50112153  0.66730501  0.49975195  1
  Ag  Ag29  1  0.82854597  0.00747737  0.16510407  1
  Ag  Ag30  1  0.66924478  0.33018096  0.32842315  1
  Ag  Ag31  1  0.50288023  0.16273806  0.00161342  1
  Ag  Ag32  1  0.17197506  0.83374327  -0.00115499  1
  Ag  Ag33  1  0.83053058  0.17375060  0.32269526  1
  Ag  Ag34  1  0.83430272  0.49706955  0.32387893  1
  Ag  Ag35  1  0.00239036  0.49991410  0.49751491  1
  Ag  Ag36  1  0.50500881  -0.00231799  0.15905486  1
  Ag  Ag37  1  0.66625018  0.66661746  0.00385636  1
  Ag  Ag38  1  0.49713084  0.83512440  0.00406432  1
  Ag  Ag39  1  0.50289780  0.66824873  0.16451908  1
  Ag  Ag40  1  0.50080627  0.83003056  0.32401297  1
  Ag  Ag41  1  0.82786922  0.66497695  0.49923868  1
  Ag  Ag42  1  0.33963406  0.00283701  0.67185089  1
  Ag  Ag43  1  0.84224385  0.33284455  0.84501540  1
  Ag  Ag44  1  0.33950524  0.17289417  0.16440553  1
  Ag  Ag45  1  -0.00709897  0.66398746  0.00584387  1
  Ag  Ag46  1  -0.00238468  0.00772013  -0.00123653  1
  Ag  Ag47  1  0.83233550  0.33192781  0.16309301  1
  Ag  Ag48  1  0.83823117  0.17344761  0.00519593  1
  Ag  Ag49  1  0.33867347  0.49657052  0.16550516  1
  Ag  Ag50  1  0.66626765  0.16588003  0.49819328  1
  Ag  Ag51  1  0.33616717  0.82406938  0.50636562  1
  Ag  Ag52  1  -0.00979271  0.16927485  0.15805441  1
  Ag  Ag53  1  0.49528078  -0.00307755  0.83643419  1
  Sb  Sb54  1  0.82898291  0.66309273  0.83264695  1
  Sb  Sb55  1  0.33894665  0.17018530  0.49888567  1
  Sb  Sb56  1  0.66851110  0.16582304  0.83127827  1
  Sb  Sb57  1  0.16288560  0.16531831  -0.00139598  1
  Sb  Sb58  1  0.16697027  0.66610801  0.16448994  1
  Sb  Sb59  1  0.17153816  0.17432913  0.66918857  1
  Sb  Sb60  1  -0.00650833  -0.00369560  0.32592314  1
  Sb  Sb61  1  0.16519293  0.33430617  0.16247294  1
  Sb  Sb62  1  0.50151874  0.50032805  0.00108349  1
  Sb  Sb63  1  0.49723352  0.33795360  0.49800355  1
  Sb  Sb64  1  0.16350064  0.50077813  -0.00298466  1
  Sb  Sb65  1  0.00318204  0.82790900  0.49699474  1
  Sb  Sb66  1  0.34121538  -0.00398468  0.33472692  1
  Sb  Sb67  1  0.82869958  0.83059688  0.33229611  1
  Sb  Sb68  1  0.17050695  0.66137562  0.50104151  1
  Sb  Sb69  1  0.83318191  0.00345196  0.83698479  1
  Sb  Sb70  1  0.83266650  0.83300229  0.00060766  1
  Sb  Sb71  1  -0.00512067  0.33838857  0.32792077  1
  Sb  Sb72  1  0.50180937  0.83283478  0.67031969  1
  Sb  Sb73  1  0.17180666  0.66456002  0.83484274  1
  Sb  Sb74  1  0.00543720  0.83838745  0.84045798  1
  Sb  Sb75  1  0.17122464  0.83237088  0.32706716  1
  Sb  Sb76  1  0.49791280  0.33264550  0.83766169  1
  Sb  Sb77  1  0.83630258  0.33787267  0.49701038  1
  Sb  Sb78  1  0.16761148  0.00374797  0.51040745  1
  Sb  Sb79  1  0.00359701  0.49372727  0.83552736  1
  Sb  Sb80  1  0.34128822  0.66243044  0.66408739  1
  Sb  Sb81  1  0.83181678  0.50136486  0.66751126  1
  Sb  Sb82  1  0.66210042  0.50080499  0.83839607  1
  Sb  Sb83  1  0.66180933  0.83431112  0.49727432  1
  Sb  Sb84  1  0.15990219  0.16781767  0.33053649  1
  Sb  Sb85  1  0.66627081  0.49961760  0.49557548  1
  Sb  Sb86  1  0.66958163  0.33640451  0.00668741  1
  Sb  Sb87  1  0.66864516  0.16700140  0.16968282  1
  Sb  Sb88  1  0.33159543  0.16814513  0.83791164  1
  Sb  Sb89  1  -0.00525251  0.17346780  0.50125283  1
  Sb  Sb90  1  0.66125885  0.83327505  0.83702584  1
  Sb  Sb91  1  0.83036613  0.16402788  0.66851992  1
  Sb  Sb92  1  -0.00518732  0.66435790  0.66792184  1
  Sb  Sb93  1  0.33713175  0.33882858  0.33025854  1
  Sb  Sb94  1  0.16288758  0.50005300  0.33629522  1
  Sb  Sb95  1  0.83250490  -0.00304277  0.49797415  1
  Sb  Sb96  1  0.50110447  -0.00441448  0.50298342  1
  Sb  Sb97  1  0.66567242  0.33382013  0.66329200  1
  Sb  Sb98  1  0.33353919  0.00349519  -0.00398256  1
  Sb  Sb99  1  0.66709210  -0.00284024  0.00292263  1
  Sb  Sb100  1  0.34027313  0.83190650  0.16387423  1
  Sb  Sb101  1  0.33754067  0.66326375  0.00315697  1
  Sb  Sb102  1  0.16603789  -0.00119460  0.15918508  1
  Sb  Sb103  1  0.50245180  0.50453085  0.33176125  1
  Sb  Sb104  1  0.16631312  0.83124197  0.67116382  1
  Sb  Sb105  1  0.50639000  0.16341845  0.32919787  1
  Sb  Sb106  1  0.83031114  0.66176331  0.16874791  1
  Sb  Sb107  1  0.66551530  0.66651636  0.33043176  1
  Te  Te108  1  0.16892406  0.16587364  0.16635903  1
  Te  Te109  1  0.16657770  0.17435667  0.49856790  1
  Te  Te110  1  0.16021302  0.16618265  0.83278141  1
  Te  Te111  1  0.17120492  0.49973781  0.16725418  1
  Te  Te112  1  0.16723713  0.49681226  0.50288995  1
  Te  Te113  1  0.17369384  0.49684827  0.82924589  1
  Te  Te114  1  0.16088773  0.83388924  0.15931429  1
  Te  Te115  1  0.17550471  0.83440303  0.49929352  1
  Te  Te116  1  0.17347621  0.83582502  0.83785439  1
  Te  Te117  1  0.50039896  0.16773902  0.16430889  1
  Te  Te118  1  0.50518173  0.16711078  0.50218651  1
  Te  Te119  1  0.49965011  0.16395496  0.83514717  1
  Te  Te120  1  0.49927871  0.49967309  0.16673069  1
  Te  Te121  1  0.49738376  0.50490704  0.50234099  1
  Te  Te122  1  0.49531554  0.50139351  0.83083418  1
  Te  Te123  1  0.50046292  0.83251649  0.16392259  1
  Te  Te124  1  0.49477813  0.82833079  0.49732958  1
  Te  Te125  1  0.49617122  0.83384387  0.83735370  1
  Te  Te126  1  0.83275271  0.16822526  0.16567504  1
  Te  Te127  1  0.82751091  0.16617044  0.49627297  1
  Te  Te128  1  0.83758299  0.17106417  0.83761084  1
  Te  Te129  1  0.83296179  0.49978551  0.16627295  1
  Te  Te130  1  0.83521769  0.50474354  0.49944749  1
  Te  Te131  1  0.83198375  0.49439941  0.83719215  1
  Te  Te132  1  0.83241699  0.83770885  0.16678065  1
  Te  Te133  1  0.83485694  0.82678110  0.50311296  1
  Te  Te134  1  0.83339103  0.83306622  0.82733326  1
  Te  Te135  1  0.16231065  -0.00393824  -0.00662659  1
  Te  Te136  1  0.16683636  -0.00034116  0.33603449  1
  Te  Te137  1  0.16499049  -0.00077327  0.67468716  1
  Te  Te138  1  0.16778485  0.33299972  -0.00556306  1
  Te  Te139  1  0.16721136  0.33242907  0.33939177  1
  Te  Te140  1  0.16736747  0.33536594  0.67006411  1
  Te  Te141  1  0.15958316  0.67295691  -0.00158340  1
  Te  Te142  1  0.16417613  0.66769365  0.33343692  1
  Te  Te143  1  0.16522480  0.65841768  0.66802230  1
  Te  Te144  1  0.50020917  -0.00006478  -0.00078004  1
  Te  Te145  1  0.50517082  -0.00451903  0.33013319  1
  Te  Te146  1  0.50000999  0.00036211  0.66889576  1
  Te  Te147  1  0.49802692  0.33084824  0.00457352  1
  Te  Te148  1  0.50528098  0.33276605  0.32652301  1
  Te  Te149  1  0.49724000  0.33362309  0.66674349  1
  Te  Te150  1  0.50272908  0.66729125  0.00129227  1
  Te  Te151  1  0.49943548  0.66930760  0.33160912  1
  Te  Te152  1  0.50415489  0.66590665  0.66752921  1
  Te  Te153  1  0.83618683  0.00327831  0.00417942  1
  Te  Te154  1  0.82811571  0.00079760  0.32866685  1
  Te  Te155  1  0.83203986  -0.00272150  0.66685102  1
  Te  Te156  1  0.83369370  0.33302623  0.00255287  1
  Te  Te157  1  0.83032906  0.33516228  0.33023532  1
  Te  Te158  1  0.83594436  0.33198410  0.66765544  1
  Te  Te159  1  0.83201594  0.66389233  -0.00066544  1
  Te  Te160  1  0.83604298  0.66356585  0.33801988  1
  Te  Te161  1  0.82656996  0.66936008  0.66414352  1
  Te  Te162  1  -0.00075954  0.16772207  0.00048775  1
  Te  Te163  1  -0.00824060  0.16592218  0.32964759  1
  Te  Te164  1  -0.00039642  0.16724990  0.66729297  1
  Te  Te165  1  -0.00140896  0.49865979  0.00214373  1
  Te  Te166  1  -0.00330102  0.50292835  0.33171403  1
  Te  Te167  1  0.00005808  0.49626897  0.66451127  1
  Te  Te168  1  -0.00199666  0.83263275  0.00419624  1
  Te  Te169  1  0.00108577  0.82739044  0.32741215  1
  Te  Te170  1  -0.00273653  0.83533354  0.66686140  1
  Te  Te171  1  0.33681889  0.17124464  0.00424594  1
  Te  Te172  1  0.33283957  0.16622845  0.32726761  1
  Te  Te173  1  0.33949760  0.16553713  0.66515300  1
  Te  Te174  1  0.33199884  0.49578616  0.00323655  1
  Te  Te175  1  0.33280841  0.50441086  0.33128046  1
  Te  Te176  1  0.33566051  0.49958833  0.66634134  1
  Te  Te177  1  0.33485304  0.83277617  -0.00419942  1
  Te  Te178  1  0.33814704  0.82841643  0.33546153  1
  Te  Te179  1  0.33309519  0.83520820  0.66891280  1
  Te  Te180  1  0.66307055  0.16614062  -0.00082964  1
  Te  Te181  1  0.67079631  0.16486668  0.33599653  1
  Te  Te182  1  0.66188607  0.16464106  0.66302398  1
  Te  Te183  1  0.67136601  0.50544406  0.00531955  1
  Te  Te184  1  0.67164034  0.49692143  0.32835786  1
  Te  Te185  1  0.66131909  0.50324351  0.66603012  1
  Te  Te186  1  0.66278169  0.82834956  0.00480210  1
  Te  Te187  1  0.66218121  0.83747326  0.32910554  1
  Te  Te188  1  0.66911402  0.83367893  0.66562751  1
  Te  Te189  1  -0.00069527  0.00256683  0.16280887  1
  Te  Te190  1  0.00078513  -0.00057021  0.50553731  1
  Te  Te191  1  -0.00053145  0.00318990  0.83436796  1
  Te  Te192  1  -0.00131812  0.33507248  0.16276981  1
  Te  Te193  1  0.00340342  0.33858063  0.50189013  1
  Te  Te194  1  0.00109453  0.33273306  0.83495559  1
  Te  Te195  1  -0.00090196  0.66343597  0.16545979  1
  Te  Te196  1  -0.00099951  0.66156483  0.49996439  1
  Te  Te197  1  -0.00091907  0.66728046  0.83933274  1
  Te  Te198  1  0.33680592  0.00288918  0.16669580  1
  Te  Te199  1  0.33273066  -0.00134416  0.50604403  1
  Te  Te200  1  0.33498645  0.00157124  0.83080618  1
  Te  Te201  1  0.33249729  0.33440916  0.16452380  1
  Te  Te202  1  0.33049827  0.33837982  0.50231305  1
  Te  Te203  1  0.33241116  0.33516193  0.83375962  1
  Te  Te204  1  0.33792653  0.66386031  0.17019379  1
  Te  Te205  1  0.33661936  0.66418220  0.49738611  1
  Te  Te206  1  0.33895284  0.66574571  0.83440119  1
  Te  Te207  1  0.66498446  -0.00274803  0.16711565  1
  Te  Te208  1  0.66710767  0.00220981  0.50258600  1
  Te  Te209  1  0.66146706  -0.00084333  0.82666601  1
  Te  Te210  1  0.66725460  0.33739820  0.16899212  1
  Te  Te211  1  0.66676080  0.32972851  0.49378883  1
  Te  Te212  1  0.67288333  0.33390657  0.83303778  1
  Te  Te213  1  0.66397764  0.66680908  0.16562935  1
  Te  Te214  1  0.66414376  0.66683131  0.50204824  1
  Te  Te215  1  0.66021225  0.66715626  0.83274736  1
