# generated using pymatgen
data_AgSbTe2
_symmetry_space_group_name_H-M   'P 1'
_cell_length_a   18.34460331
_cell_length_b   18.34254146
_cell_length_c   18.33674828
_cell_angle_alpha   90.00021281
_cell_angle_beta   89.99988418
_cell_angle_gamma   89.99842506
_symmetry_Int_Tables_number   1
_chemical_formula_structural   AgSbTe2
_chemical_formula_sum   'Ag54 Sb54 Te108'
_cell_volume   6170.07093778
_cell_formula_units_Z   54
loop_
 _symmetry_equiv_pos_site_id
 _symmetry_equiv_pos_as_xyz
  1  'x, y, z'
loop_
 _atom_site_type_symbol
 _atom_site_label
 _atom_site_symmetry_multiplicity
 _atom_site_fract_x
 _atom_site_fract_y
 _atom_site_fract_z
 _atom_site_occupancy
  Ag  Ag0  1  0.16788642  0.66445611  0.83700214  1
  Ag  Ag1  1  0.32739120  0.66308155  0.32514053  1
  Ag  Ag2  1  0.33178319  0.33320761  -0.00094662  1
  Ag  Ag3  1  0.32529251  0.33638409  0.31585408  1
  Ag  Ag4  1  0.48921123  0.33715775  0.50215455  1
  Ag  Ag5  1  0.00328423  0.50494160  0.49690991  1
  Ag  Ag6  1  0.48976294  0.65930701  0.16805623  1
  Ag  Ag7  1  0.83739575  0.33719777  0.83880557  1
  Ag  Ag8  1  0.83309331  0.33564582  0.16536370  1
  Ag  Ag9  1  0.65638124  0.17146791  0.49442638  1
  Ag  Ag10  1  0.33623896  0.18119489  0.49504024  1
  Ag  Ag11  1  0.83521386  0.66295377  0.16750951  1
  Ag  Ag12  1  0.32762561  0.82788915  0.83394956  1
  Ag  Ag13  1  0.65337043  0.33538808  0.66603451  1
  Ag  Ag14  1  0.50101472  0.01303904  0.16359998  1
  Ag  Ag15  1  0.49070156  0.33457005  0.83750869  1
  Ag  Ag16  1  0.49685463  0.17764732  0.00447855  1
  Ag  Ag17  1  0.33629831  0.49635067  0.16377344  1
  Ag  Ag18  1  0.00890598  0.17781345  0.83400525  1
  Ag  Ag19  1  0.33747081  0.17917095  0.16800963  1
  Ag  Ag20  1  0.00949902  0.33691185  0.32624167  1
  Ag  Ag21  1  0.49373508  0.82486194  0.00248553  1
  Ag  Ag22  1  0.00688188  0.33881607  0.00485261  1
  Ag  Ag23  1  0.32975348  0.17913907  0.83515397  1
  Ag  Ag24  1  0.17742431  0.33927043  0.17781331  1
  Ag  Ag25  1  0.65626047  0.17376190  0.17231124  1
  Ag  Ag26  1  0.84443676  0.66150317  0.83671732  1
  Ag  Ag27  1  0.00980827  0.66402344  0.32953920  1
  Ag  Ag28  1  0.33372218  0.49540800  0.83671428  1
  Ag  Ag29  1  0.33540200  0.34090216  0.67938661  1
  Ag  Ag30  1  -0.00267904  -0.00357123  0.66804566  1
  Ag  Ag31  1  0.49695832  0.49769867  0.67000459  1
  Ag  Ag32  1  0.84051108  0.16949016  0.32899884  1
  Ag  Ag33  1  0.33545517  0.66012888  0.66201594  1
  Ag  Ag34  1  0.49426865  0.65819600  0.49714617  1
  Ag  Ag35  1  0.16745075  0.49678489  0.33380508  1
  Ag  Ag36  1  0.01088096  0.82724875  0.50022692  1
  Ag  Ag37  1  0.00919507  0.82684700  0.82972707  1
  Ag  Ag38  1  0.65519778  0.49156915  0.16827617  1
  Ag  Ag39  1  0.16523042  0.82552320  0.33656822  1
  Ag  Ag40  1  0.49146459  0.33598951  0.16169775  1
  Ag  Ag41  1  0.82771357  0.00825442  0.16991968  1
  Ag  Ag42  1  0.16814398  0.82961559  0.65984165  1
  Ag  Ag43  1  0.33469324  0.82529245  0.16732464  1
  Ag  Ag44  1  0.49515367  0.49811164  0.00386001  1
  Ag  Ag45  1  0.65567932  0.66164090  0.66749316  1
  Ag  Ag46  1  0.17501719  0.33836306  0.83470725  1
  Ag  Ag47  1  0.33065250  0.82614306  0.49770702  1
  Ag  Ag48  1  0.84323094  0.83001053  0.32919085  1
  Ag  Ag49  1  0.16612458  0.17965897  0.33286405  1
  Ag  Ag50  1  0.17312710  0.66116810  0.17458119  1
  Ag  Ag51  1  0.17651117  0.33296279  0.48973959  1
  Ag  Ag52  1  0.00064068  0.66009630  0.00641864  1
  Ag  Ag53  1  0.66749800  0.00521072  0.66559998  1
  Sb  Sb54  1  0.16949322  0.00133014  0.16927519  1
  Sb  Sb55  1  0.33353967  -0.00037214  0.66709834  1
  Sb  Sb56  1  0.17159099  0.66395182  0.49525973  1
  Sb  Sb57  1  0.49287410  0.82722880  0.66906784  1
  Sb  Sb58  1  0.83301632  0.16806018  0.66477914  1
  Sb  Sb59  1  0.00588643  0.49992338  0.16845116  1
  Sb  Sb60  1  0.83273551  0.66791175  0.49929625  1
  Sb  Sb61  1  0.49871856  0.00309617  0.49774248  1
  Sb  Sb62  1  0.17122487  0.82861724  0.00100986  1
  Sb  Sb63  1  0.17349601  0.50169697  0.66376317  1
  Sb  Sb64  1  0.49211107  0.49817120  0.33050791  1
  Sb  Sb65  1  -0.00120643  0.00066148  -0.00276164  1
  Sb  Sb66  1  0.00711342  0.66896559  0.66549043  1
  Sb  Sb67  1  0.83073505  0.17122465  0.00359088  1
  Sb  Sb68  1  0.16863021  0.16817166  0.66495020  1
  Sb  Sb69  1  0.83028602  0.49825269  0.00152883  1
  Sb  Sb70  1  0.66431270  0.17154701  0.83334339  1
  Sb  Sb71  1  0.66459047  0.66651844  0.33235941  1
  Sb  Sb72  1  0.17155770  0.49819342  0.00434748  1
  Sb  Sb73  1  0.49321572  0.82973479  0.32997715  1
  Sb  Sb74  1  0.33303799  0.00245158  0.33107344  1
  Sb  Sb75  1  0.66519932  0.82953567  0.83107093  1
  Sb  Sb76  1  0.00779460  0.49931786  0.83111906  1
  Sb  Sb77  1  0.00366210  0.16678844  0.50082608  1
  Sb  Sb78  1  0.83510996  0.00018318  0.83584729  1
  Sb  Sb79  1  0.66723055  0.66546730  -0.00032933  1
  Sb  Sb80  1  0.66583308  0.49731885  0.49705833  1
  Sb  Sb81  1  0.49927105  0.17393185  0.66903167  1
  Sb  Sb82  1  0.84099546  0.49883061  0.32903841  1
  Sb  Sb83  1  0.83259042  0.83042774  0.00400866  1
  Sb  Sb84  1  0.17072078  0.17406485  0.00317981  1
  Sb  Sb85  1  0.49468071  0.16973371  0.32874569  1
  Sb  Sb86  1  0.65916059  0.33398026  0.00090449  1
  Sb  Sb87  1  0.00457017  0.33118798  0.66685935  1
  Sb  Sb88  1  0.00284590  0.17158557  0.16456861  1
  Sb  Sb89  1  0.83858864  0.83225570  0.66496288  1
  Sb  Sb90  1  0.16746577  -0.00045805  0.50076320  1
  Sb  Sb91  1  0.82882155  0.49962134  0.66900141  1
  Sb  Sb92  1  0.00356386  0.82867064  0.16680075  1
  Sb  Sb93  1  0.66720693  0.00240490  0.33368229  1
  Sb  Sb94  1  0.83288688  -0.00055998  0.49617279  1
  Sb  Sb95  1  0.49342552  0.66167617  0.83574687  1
  Sb  Sb96  1  0.66372998  0.00147185  -0.00065653  1
  Sb  Sb97  1  0.32947359  0.66189487  0.00262289  1
  Sb  Sb98  1  0.83400467  0.33259642  0.49765912  1
  Sb  Sb99  1  0.49865909  0.00448593  0.83558044  1
  Sb  Sb100  1  -0.00024370  -0.00178824  0.33523909  1
  Sb  Sb101  1  0.66187964  0.83369823  0.16809682  1
  Sb  Sb102  1  0.33233934  0.49713259  0.49731946  1
  Sb  Sb103  1  0.33466576  0.00483443  0.00225738  1
  Sb  Sb104  1  0.66366333  0.33297198  0.33108667  1
  Sb  Sb105  1  0.66077449  0.49898219  0.83516909  1
  Sb  Sb106  1  0.66244143  0.83410855  0.50070263  1
  Sb  Sb107  1  0.16668348  -0.00064110  0.83154985  1
  Te  Te108  1  0.17244110  0.16957907  0.17173765  1
  Te  Te109  1  0.17143625  0.17017560  0.49744266  1
  Te  Te110  1  0.16858174  0.16784616  0.83273941  1
  Te  Te111  1  0.17075536  0.49963111  0.17010358  1
  Te  Te112  1  0.16121935  0.49601328  0.49734997  1
  Te  Te113  1  0.17290941  0.50117225  0.83192629  1
  Te  Te114  1  0.17276575  0.83241815  0.16902451  1
  Te  Te115  1  0.16874308  0.83261044  0.49981696  1
  Te  Te116  1  0.16679886  0.83360055  0.83527192  1
  Te  Te117  1  0.49816657  0.17188368  0.16735314  1
  Te  Te118  1  0.49796138  0.16972435  0.49858499  1
  Te  Te119  1  0.49614834  0.17265545  0.83835650  1
  Te  Te120  1  0.49849483  0.49822092  0.16857436  1
  Te  Te121  1  0.50269564  0.49958365  0.50370527  1
  Te  Te122  1  0.49613481  0.49552721  0.83234284  1
  Te  Te123  1  0.49711918  0.82301677  0.16548905  1
  Te  Te124  1  0.49293840  0.83280688  0.49978656  1
  Te  Te125  1  0.49766107  0.83372969  0.83896093  1
  Te  Te126  1  0.83656350  0.17003865  0.16917747  1
  Te  Te127  1  0.83284535  0.16552539  0.49398057  1
  Te  Te128  1  0.83413642  0.16929617  0.83411090  1
  Te  Te129  1  0.82969737  0.50000451  0.16539824  1
  Te  Te130  1  0.83863720  0.50085667  0.50042874  1
  Te  Te131  1  0.83237024  0.50151917  0.83435965  1
  Te  Te132  1  0.83325199  0.82592312  0.16911052  1
  Te  Te133  1  0.83652337  0.83355373  0.49411578  1
  Te  Te134  1  0.83446467  0.83044497  0.83446845  1
  Te  Te135  1  0.16464726  0.00159261  0.00094787  1
  Te  Te136  1  0.16565581  -0.00622467  0.33359900  1
  Te  Te137  1  0.16390722  -0.00699267  0.66628009  1
  Te  Te138  1  0.16518989  0.33393189  -0.00670582  1
  Te  Te139  1  0.16637095  0.33492669  0.33325406  1
  Te  Te140  1  0.17262472  0.33378320  0.67533165  1
  Te  Te141  1  0.15934182  0.66492072  -0.00166507  1
  Te  Te142  1  0.16704125  0.66718974  0.33305064  1
  Te  Te143  1  0.17330973  0.66942099  0.67103546  1
  Te  Te144  1  0.50072953  -0.00077819  0.00567179  1
  Te  Te145  1  0.50114845  -0.00209618  0.32395974  1
  Te  Te146  1  0.50654601  -0.00172478  0.66649094  1
  Te  Te147  1  0.49975991  0.33536138  0.00061967  1
  Te  Te148  1  0.49534418  0.33284547  0.33784966  1
  Te  Te149  1  0.49693502  0.33387271  0.66574007  1
  Te  Te150  1  0.50054160  0.66432954  0.00411625  1
  Te  Te151  1  0.49744908  0.66618926  0.33364811  1
  Te  Te152  1  0.49652338  0.66276925  0.66950903  1
  Te  Te153  1  0.83126024  -0.00049799  0.00943121  1
  Te  Te154  1  0.83385149  0.00209900  0.32768212  1
  Te  Te155  1  0.83196576  0.00004197  0.66740463  1
  Te  Te156  1  0.83888445  0.33338552  0.00024501  1
  Te  Te157  1  0.83478645  0.33062287  0.33032764  1
  Te  Te158  1  0.83400419  0.33368199  0.66821390  1
  Te  Te159  1  0.83762995  0.66600864  -0.00058235  1
  Te  Te160  1  0.83438606  0.66762815  0.33155502  1
  Te  Te161  1  0.83100641  0.66671060  0.66857056  1
  Te  Te162  1  -0.00080325  0.16866739  -0.00761060  1
  Te  Te163  1  0.00344786  0.16889573  0.33331265  1
  Te  Te164  1  0.00034795  0.16159613  0.67218114  1
  Te  Te165  1  -0.00098507  0.50062786  -0.00209573  1
  Te  Te166  1  0.00502168  0.50033631  0.33402594  1
  Te  Te167  1  -0.00165581  0.49981500  0.65898884  1
  Te  Te168  1  -0.00039993  0.83118260  -0.00554301  1
  Te  Te169  1  0.00197863  0.83204929  0.33354888  1
  Te  Te170  1  0.00358663  0.83455440  0.66738788  1
  Te  Te171  1  0.33610195  0.17033153  0.00055418  1
  Te  Te172  1  0.32817922  0.16844583  0.33259822  1
  Te  Te173  1  0.33281645  0.16747771  0.66829146  1
  Te  Te174  1  0.33614982  0.49570137  -0.00048109  1
  Te  Te175  1  0.32851557  0.50185375  0.32969203  1
  Te  Te176  1  0.33668035  0.50085131  0.66873239  1
  Te  Te177  1  0.33688230  0.83481699  0.00035048  1
  Te  Te178  1  0.32912042  0.83217716  0.33400441  1
  Te  Te179  1  0.32907031  0.83365200  0.66679038  1
  Te  Te180  1  0.65984482  0.16616612  0.00642290  1
  Te  Te181  1  0.67168540  0.16678854  0.33278063  1
  Te  Te182  1  0.66654622  0.17083168  0.66420161  1
  Te  Te183  1  0.65854202  0.50094080  0.00694459  1
  Te  Te184  1  0.66945516  0.50040693  0.32720944  1
  Te  Te185  1  0.66025773  0.49816566  0.66515186  1
  Te  Te186  1  0.65832186  0.83354146  -0.00069434  1
  Te  Te187  1  0.67764238  0.83452511  0.33593983  1
  Te  Te188  1  0.66721731  0.82927960  0.66453127  1
  Te  Te189  1  -0.00500396  -0.00092659  0.16629136  1
  Te  Te190  1  0.00018870  -0.00480777  0.50697233  1
  Te  Te191  1  -0.00134013  -0.00305341  0.82935035  1
  Te  Te192  1  -0.00353911  0.33458783  0.16666595  1
  Te  Te193  1  0.00269751  0.33325647  0.49737003  1
  Te  Te194  1  -0.00418167  0.33333596  0.83379709  1
  Te  Te195  1  -0.00087366  0.66527604  0.16754468  1
  Te  Te196  1  -0.00000674  0.66746470  0.49490941  1
  Te  Te197  1  0.00258422  0.66715246  0.83087737  1
  Te  Te198  1  0.33856839  -0.00515037  0.16607870  1
  Te  Te199  1  0.33485007  -0.00267562  0.49982526  1
  Te  Te200  1  0.33440365  -0.00536886  0.83348540  1
  Te  Te201  1  0.33365882  0.33483371  0.16016093  1
  Te  Te202  1  0.33177391  0.33702497  0.50172072  1
  Te  Te203  1  0.33420539  0.33396944  0.83639995  1
  Te  Te204  1  0.33248447  0.66678641  0.16610907  1
  Te  Te205  1  0.33598702  0.66628919  0.50217891  1
  Te  Te206  1  0.32834507  0.66832428  0.83706849  1
  Te  Te207  1  0.66492612  0.00246605  0.16656235  1
  Te  Te208  1  0.66538582  0.00594975  0.50522585  1
  Te  Te209  1  0.66717947  0.00030854  0.82619123  1
  Te  Te210  1  0.67172353  0.33260064  0.16657806  1
  Te  Te211  1  0.66699791  0.32949610  0.50295857  1
  Te  Te212  1  0.67439979  0.33432743  0.82994305  1
  Te  Te213  1  0.67051153  0.66618978  0.16643401  1
  Te  Te214  1  0.65992328  0.66605358  0.50483302  1
  Te  Te215  1  0.67140603  0.66531048  0.82846528  1
