# generated using pymatgen
data_AgSbTe2
_symmetry_space_group_name_H-M   'P 1'
_cell_length_a   18.32238441
_cell_length_b   18.32027821
_cell_length_c   18.32180509
_cell_angle_alpha   89.99607798
_cell_angle_beta   89.99802602
_cell_angle_gamma   90.00202685
_symmetry_Int_Tables_number   1
_chemical_formula_structural   AgSbTe2
_chemical_formula_sum   'Ag54 Sb54 Te108'
_cell_volume   6150.10190614
_cell_formula_units_Z   54
loop_
 _symmetry_equiv_pos_site_id
 _symmetry_equiv_pos_as_xyz
  1  'x, y, z'
loop_
 _atom_site_type_symbol
 _atom_site_label
 _atom_site_symmetry_multiplicity
 _atom_site_fract_x
 _atom_site_fract_y
 _atom_site_fract_z
 _atom_site_occupancy
  Ag  Ag0  1  0.34240470  0.17142313  0.50092117  1
  Ag  Ag1  1  0.16812571  0.65917785  0.49134318  1
  Ag  Ag2  1  0.66314898  0.66627143  0.32998954  1
  Ag  Ag3  1  -0.00886380  0.00691034  0.33580451  1
  Ag  Ag4  1  0.16558826  0.00418657  0.83443883  1
  Ag  Ag5  1  0.66354749  0.00801578  0.33861416  1
  Ag  Ag6  1  0.17110665  0.82654383  0.00065305  1
  Ag  Ag7  1  0.82952722  0.00695169  0.82956485  1
  Ag  Ag8  1  0.50024902  0.32875924  0.16470079  1
  Ag  Ag9  1  0.50680400  0.83862478  0.32826934  1
  Ag  Ag10  1  0.50240047  0.00241503  0.49983780  1
  Ag  Ag11  1  0.65397625  0.66609683  0.00943132  1
  Ag  Ag12  1  0.82895901  0.33308573  0.49829518  1
  Ag  Ag13  1  0.49944414  0.82589107  0.00215974  1
  Ag  Ag14  1  0.83662391  0.32765057  0.82880174  1
  Ag  Ag15  1  0.66580218  0.32528369  0.66045138  1
  Ag  Ag16  1  0.49975985  0.66915656  0.16116145  1
  Ag  Ag17  1  0.49268485  0.51136420  -0.00052563  1
  Ag  Ag18  1  -0.00037027  0.16654164  0.17039883  1
  Ag  Ag19  1  -0.00865915  0.33231524  0.33211496  1
  Ag  Ag20  1  0.16185933  0.50266820  0.34182005  1
  Ag  Ag21  1  0.16947249  0.66696241  0.16645455  1
  Ag  Ag22  1  0.82602662  0.83301099  0.32950051  1
  Ag  Ag23  1  0.16372978  0.50004734  0.66244108  1
  Ag  Ag24  1  0.66712568  0.16590317  0.82383734  1
  Ag  Ag25  1  0.50160138  0.67291480  0.84738866  1
  Ag  Ag26  1  0.83396728  0.49286544  0.33650099  1
  Ag  Ag27  1  0.66670652  0.49091023  0.49743034  1
  Ag  Ag28  1  0.34529007  0.00738360  0.66607223  1
  Ag  Ag29  1  0.82562077  0.17030248  0.33768962  1
  Ag  Ag30  1  -0.00142796  0.00012302  0.66575467  1
  Ag  Ag31  1  0.50775680  0.15889064  0.33094328  1
  Ag  Ag32  1  0.66478295  0.17032243  0.50013206  1
  Ag  Ag33  1  0.00103338  0.65992556  0.66593383  1
  Ag  Ag34  1  0.16168771  0.33646263  0.83553778  1
  Ag  Ag35  1  0.17196503  0.50283642  -0.00143508  1
  Ag  Ag36  1  0.34202077  0.65984935  0.00717416  1
  Ag  Ag37  1  0.82870157  0.16807664  0.66243945  1
  Ag  Ag38  1  0.50020571  0.83959353  0.67149616  1
  Ag  Ag39  1  0.83051860  0.83173167  0.00484446  1
  Ag  Ag40  1  0.49796552  -0.00030851  0.16936514  1
  Ag  Ag41  1  0.33405216  0.33946179  -0.00510197  1
  Ag  Ag42  1  0.33039552  0.49670644  0.50073724  1
  Ag  Ag43  1  0.00363010  0.33434236  0.00041035  1
  Ag  Ag44  1  0.16940159  -0.00399599  0.16329643  1
  Ag  Ag45  1  0.33773414  0.32933186  0.66652352  1
  Ag  Ag46  1  0.50384959  -0.00201035  0.82880077  1
  Ag  Ag47  1  0.66248754  0.00710504  0.66370201  1
  Ag  Ag48  1  0.33986867  0.66397158  0.32702615  1
  Ag  Ag49  1  0.50080833  0.16492234  0.00633457  1
  Ag  Ag50  1  0.00499709  0.49886876  0.50061855  1
  Ag  Ag51  1  0.67226553  0.32867856  0.34109369  1
  Ag  Ag52  1  0.00226356  0.49664337  0.82921052  1
  Ag  Ag53  1  0.82803233  0.66803050  0.16934147  1
  Sb  Sb54  1  0.83556199  0.65884263  0.49310313  1
  Sb  Sb55  1  0.82980484  0.66670789  0.83778840  1
  Sb  Sb56  1  0.66525886  0.83663073  0.49648267  1
  Sb  Sb57  1  0.82938251  0.84020008  0.66644217  1
  Sb  Sb58  1  0.33612484  -0.00072458  -0.00400929  1
  Sb  Sb59  1  0.83376455  0.50285608  0.00393485  1
  Sb  Sb60  1  0.66440801  0.83939312  0.83354259  1
  Sb  Sb61  1  0.49720011  0.66968251  0.49507959  1
  Sb  Sb62  1  0.83110191  0.33552996  0.16982463  1
  Sb  Sb63  1  0.33530225  0.83231860  0.50006451  1
  Sb  Sb64  1  0.33638907  0.83412226  0.83440939  1
  Sb  Sb65  1  0.17017446  0.83171258  0.67192656  1
  Sb  Sb66  1  0.83077907  -0.00295059  0.16887751  1
  Sb  Sb67  1  0.66838519  0.66623489  0.66288463  1
  Sb  Sb68  1  0.33876567  -0.00273082  0.33737245  1
  Sb  Sb69  1  0.82825865  0.00664118  0.50081548  1
  Sb  Sb70  1  0.66653918  0.16720597  0.17230259  1
  Sb  Sb71  1  -0.00065213  0.82994566  0.49859545  1
  Sb  Sb72  1  -0.00027621  0.83237164  0.83420883  1
  Sb  Sb73  1  0.50738879  0.16153192  0.66375202  1
  Sb  Sb74  1  -0.00123711  0.66310021  0.33515828  1
  Sb  Sb75  1  0.33109150  0.66506316  0.66643409  1
  Sb  Sb76  1  0.16938122  0.33517511  0.16202638  1
  Sb  Sb77  1  0.33992168  0.16640592  0.82862090  1
  Sb  Sb78  1  0.00246605  0.66109346  -0.00179000  1
  Sb  Sb79  1  -0.00296454  0.17117038  0.49714681  1
  Sb  Sb80  1  0.16761581  0.82896165  0.32820506  1
  Sb  Sb81  1  0.50195046  0.50045435  0.33035063  1
  Sb  Sb82  1  0.67024603  0.49496150  0.82903357  1
  Sb  Sb83  1  0.66429813  0.33661509  0.00024433  1
  Sb  Sb84  1  0.66428390  0.83183315  0.16785951  1
  Sb  Sb85  1  0.33374011  0.50188950  0.16811159  1
  Sb  Sb86  1  0.16449144  0.33976281  0.50373514  1
  Sb  Sb87  1  0.00167512  0.49662145  0.16962118  1
  Sb  Sb88  1  0.33620365  0.83153384  0.16594442  1
  Sb  Sb89  1  0.50498172  0.32863952  0.49571859  1
  Sb  Sb90  1  0.33434923  0.16705119  0.17013446  1
  Sb  Sb91  1  0.50135426  0.33079060  0.83739425  1
  Sb  Sb92  1  0.32854400  0.49781585  0.83287258  1
  Sb  Sb93  1  -0.00199648  0.33327286  0.66661827  1
  Sb  Sb94  1  0.16369399  0.17008847  0.66691149  1
  Sb  Sb95  1  0.17167547  0.16869947  -0.00035836  1
  Sb  Sb96  1  -0.00511703  0.17006590  0.83532477  1
  Sb  Sb97  1  0.83736526  0.49409620  0.66133277  1
  Sb  Sb98  1  0.17037461  0.66393661  0.83751462  1
  Sb  Sb99  1  0.00011386  0.83688996  0.16740199  1
  Sb  Sb100  1  0.66264563  -0.00371562  -0.00059853  1
  Sb  Sb101  1  0.33424314  0.33785048  0.33489153  1
  Sb  Sb102  1  0.82913276  0.16393218  0.00124145  1
  Sb  Sb103  1  0.66545063  0.50188097  0.17308565  1
  Sb  Sb104  1  0.17050792  -0.00339096  0.50035566  1
  Sb  Sb105  1  0.00108082  0.00397223  0.00029243  1
  Sb  Sb106  1  0.49658991  0.50219529  0.66968566  1
  Sb  Sb107  1  0.16631471  0.17060614  0.33310167  1
  Te  Te108  1  0.16268299  0.16169509  0.16667458  1
  Te  Te109  1  0.17337813  0.16626188  0.49994619  1
  Te  Te110  1  0.16668147  0.16383666  0.83355772  1
  Te  Te111  1  0.16706010  0.50320793  0.16126526  1
  Te  Te112  1  0.16607618  0.50120349  0.50094175  1
  Te  Te113  1  0.16275984  0.49826479  0.83675152  1
  Te  Te114  1  0.16640301  0.83444714  0.16064758  1
  Te  Te115  1  0.16716574  0.82271785  0.50066257  1
  Te  Te116  1  0.16677389  0.83935655  0.84018081  1
  Te  Te117  1  0.50004618  0.16375950  0.16939235  1
  Te  Te118  1  0.50227839  0.16370106  0.49653844  1
  Te  Te119  1  0.50535317  0.16258949  0.83693929  1
  Te  Te120  1  0.50000713  0.50482666  0.16053251  1
  Te  Te121  1  0.49826609  0.50024692  0.50047669  1
  Te  Te122  1  0.50132696  0.50195957  0.83781958  1
  Te  Te123  1  0.49966537  0.83284277  0.16629588  1
  Te  Te124  1  0.49943579  0.84009874  0.49579797  1
  Te  Te125  1  0.50099879  0.83634238  0.83709830  1
  Te  Te126  1  0.83791024  0.16583602  0.17066370  1
  Te  Te127  1  0.83046040  0.17214712  0.49812033  1
  Te  Te128  1  0.82891948  0.16683668  0.83454878  1
  Te  Te129  1  0.83419057  0.50705659  0.17350604  1
  Te  Te130  1  0.83244043  0.49382073  0.49575925  1
  Te  Te131  1  0.83926466  0.49698335  0.83367411  1
  Te  Te132  1  0.83408802  0.82937588  0.16718937  1
  Te  Te133  1  0.83303817  0.83259947  0.49270816  1
  Te  Te134  1  0.83245650  0.83782461  0.83665925  1
  Te  Te135  1  0.16860837  -0.00075819  0.00006894  1
  Te  Te136  1  0.16656505  -0.00143304  0.32984719  1
  Te  Te137  1  0.16264325  -0.00128299  0.66892676  1
  Te  Te138  1  0.16803401  0.33574529  -0.00267949  1
  Te  Te139  1  0.16489320  0.33987437  0.33141277  1
  Te  Te140  1  0.16822561  0.33738340  0.67171080  1
  Te  Te141  1  0.16795649  0.66532310  0.00246134  1
  Te  Te142  1  0.16597743  0.66401974  0.33021443  1
  Te  Te143  1  0.16341606  0.66363664  0.66942290  1
  Te  Te144  1  0.49889498  0.00025036  0.00283385  1
  Te  Te145  1  0.49973430  -0.00111659  0.33183479  1
  Te  Te146  1  0.50227507  0.00017875  0.66844963  1
  Te  Te147  1  0.49913310  0.33023251  0.00253704  1
  Te  Te148  1  0.50174816  0.33248304  0.32798845  1
  Te  Te149  1  0.49859406  0.33421174  0.66852813  1
  Te  Te150  1  0.49832411  0.66768140  0.00260414  1
  Te  Te151  1  0.50103782  0.66775876  0.33047785  1
  Te  Te152  1  0.50074767  0.67342958  0.66677436  1
  Te  Te153  1  0.83195903  -0.00565820  -0.00296671  1
  Te  Te154  1  0.83221554  0.00091205  0.33352991  1
  Te  Te155  1  0.83118570  0.00319382  0.66829166  1
  Te  Te156  1  0.83486830  0.33334558  -0.00186188  1
  Te  Te157  1  0.83229841  0.33282791  0.33112048  1
  Te  Te158  1  0.83082809  0.32983158  0.66848621  1
  Te  Te159  1  0.83431447  0.67128656  0.00489035  1
  Te  Te160  1  0.83167459  0.66958145  0.32933549  1
  Te  Te161  1  0.83852886  0.66997681  0.66757395  1
  Te  Te162  1  -0.00067497  0.17286157  0.00461027  1
  Te  Te163  1  0.00029456  0.16746032  0.33214105  1
  Te  Te164  1  -0.00727996  0.16120108  0.66610691  1
  Te  Te165  1  0.00138016  0.49408699  -0.00168840  1
  Te  Te166  1  0.00008313  0.49711949  0.33598923  1
  Te  Te167  1  0.00304192  0.49930294  0.66478175  1
  Te  Te168  1  -0.00054708  0.83375991  -0.00001261  1
  Te  Te169  1  -0.00284116  0.84114983  0.33395400  1
  Te  Te170  1  -0.00043414  0.83905479  0.66608703  1
  Te  Te171  1  0.33982473  0.17191899  0.00046737  1
  Te  Te172  1  0.33723604  0.16833511  0.33970528  1
  Te  Te173  1  0.33140436  0.16789200  0.66250918  1
  Te  Te174  1  0.33320770  0.49931176  -0.00157883  1
  Te  Te175  1  0.33000462  0.50392992  0.33889826  1
  Te  Te176  1  0.32905523  0.49697938  0.66298528  1
  Te  Te177  1  0.33440229  0.82850508  -0.00041877  1
  Te  Te178  1  0.33766583  0.82453604  0.33497959  1
  Te  Te179  1  0.33901244  0.83833505  0.66647582  1
  Te  Te180  1  0.66108513  0.16702370  -0.00112817  1
  Te  Te181  1  0.66594452  0.16738331  0.33469527  1
  Te  Te182  1  0.66886792  0.16682450  0.66398718  1
  Te  Te183  1  0.66509494  0.50550335  -0.00242985  1
  Te  Te184  1  0.66868104  0.50013793  0.33805755  1
  Te  Te185  1  0.66628828  0.49638834  0.66003824  1
  Te  Te186  1  0.66558881  0.82697455  -0.00060142  1
  Te  Te187  1  0.66656678  0.83030141  0.33369542  1
  Te  Te188  1  0.66101584  0.83775426  0.66482908  1
  Te  Te189  1  0.00174169  0.00424830  0.16921491  1
  Te  Te190  1  0.00101742  0.00106647  0.49889518  1
  Te  Te191  1  -0.00016276  0.00108516  0.83168465  1
  Te  Te192  1  0.00050419  0.32972992  0.16765667  1
  Te  Te193  1  -0.00399094  0.33737476  0.49605106  1
  Te  Te194  1  0.00007809  0.33508448  0.83364657  1
  Te  Te195  1  0.00516044  0.66627930  0.16644135  1
  Te  Te196  1  0.00357086  0.66161830  0.50417443  1
  Te  Te197  1  -0.00060568  0.66084949  0.82752732  1
  Te  Te198  1  0.33185971  0.00159890  0.16700058  1
  Te  Te199  1  0.33698041  0.00321028  0.50527693  1
  Te  Te200  1  0.33268627  0.00111050  0.82693038  1
  Te  Te201  1  0.33911557  0.33318118  0.16217324  1
  Te  Te202  1  0.33361061  0.33435492  0.50278354  1
  Te  Te203  1  0.32942262  0.33160416  0.83255622  1
  Te  Te204  1  0.33231507  0.66584668  0.16715476  1
  Te  Te205  1  0.32923818  0.66121587  0.49928112  1
  Te  Te206  1  0.34041986  0.66527987  0.83603029  1
  Te  Te207  1  0.66062605  0.00096234  0.17399617  1
  Te  Te208  1  0.66324846  0.00298357  0.49887927  1
  Te  Te209  1  0.66636583  0.00481132  0.83250917  1
  Te  Te210  1  0.66029951  0.33455356  0.17083798  1
  Te  Te211  1  0.66713310  0.33153710  0.50009139  1
  Te  Te212  1  0.67087560  0.32874733  0.82959798  1
  Te  Te213  1  0.66529479  0.66591521  0.16838863  1
  Te  Te214  1  0.66664135  0.66103290  0.49477826  1
  Te  Te215  1  0.66199030  0.66389798  0.83238326  1
