# generated using pymatgen
data_AgSbTe2
_symmetry_space_group_name_H-M   'P 1'
_cell_length_a   18.34637233
_cell_length_b   18.34359432
_cell_length_c   18.34200473
_cell_angle_alpha   89.99897914
_cell_angle_beta   89.99970391
_cell_angle_gamma   90.00508528
_symmetry_Int_Tables_number   1
_chemical_formula_structural   AgSbTe2
_chemical_formula_sum   'Ag54 Sb54 Te108'
_cell_volume   6172.78910505
_cell_formula_units_Z   54
loop_
 _symmetry_equiv_pos_site_id
 _symmetry_equiv_pos_as_xyz
  1  'x, y, z'
loop_
 _atom_site_type_symbol
 _atom_site_label
 _atom_site_symmetry_multiplicity
 _atom_site_fract_x
 _atom_site_fract_y
 _atom_site_fract_z
 _atom_site_occupancy
  Ag  Ag0  1  0.17822835  0.33404302  0.17572260  1
  Ag  Ag1  1  0.65928426  0.67181803  0.33874370  1
  Ag  Ag2  1  0.34174841  0.66557971  -0.00677286  1
  Ag  Ag3  1  0.00677709  0.67145559  0.33686107  1
  Ag  Ag4  1  0.33909874  0.51142568  0.83594657  1
  Ag  Ag5  1  0.01142639  0.15585523  0.49973382  1
  Ag  Ag6  1  0.00424710  -0.00353444  0.67085382  1
  Ag  Ag7  1  0.82107704  0.67028034  0.49765424  1
  Ag  Ag8  1  -0.00133656  0.15282838  0.82935993  1
  Ag  Ag9  1  0.82954535  0.33570136  0.16877023  1
  Ag  Ag10  1  0.50051736  -0.01087810  0.83255276  1
  Ag  Ag11  1  0.33472663  0.33470020  0.33869729  1
  Ag  Ag12  1  0.16764900  0.00047476  0.50188167  1
  Ag  Ag13  1  0.34112626  0.83082055  0.83256055  1
  Ag  Ag14  1  0.16530383  0.67344345  0.49670446  1
  Ag  Ag15  1  0.66501601  -0.00746371  0.67028047  1
  Ag  Ag16  1  0.84361421  -0.00237202  0.83071012  1
  Ag  Ag17  1  0.49998288  0.16809311  -0.00449837  1
  Ag  Ag18  1  0.65984661  0.83529655  0.82434458  1
  Ag  Ag19  1  0.66349029  0.67317082  0.66042314  1
  Ag  Ag20  1  0.65332352  0.66600172  -0.00335811  1
  Ag  Ag21  1  0.16793391  0.15884215  0.33958084  1
  Ag  Ag22  1  0.00188988  0.83283906  0.18016348  1
  Ag  Ag23  1  0.34143585  0.66775701  0.33308909  1
  Ag  Ag24  1  0.17772576  0.32216078  0.49434132  1
  Ag  Ag25  1  0.82858436  0.83626293  0.66710076  1
  Ag  Ag26  1  0.49757731  0.34155192  0.83587092  1
  Ag  Ag27  1  0.33362475  0.00033310  0.66568974  1
  Ag  Ag28  1  0.00256033  0.83847236  0.82937063  1
  Ag  Ag29  1  0.49928063  0.50001876  0.66996708  1
  Ag  Ag30  1  0.65974886  0.15299214  0.83307884  1
  Ag  Ag31  1  0.83625059  0.16527825  0.33484428  1
  Ag  Ag32  1  0.49518221  0.33621274  0.49711552  1
  Ag  Ag33  1  0.49621659  0.82446461  0.33130713  1
  Ag  Ag34  1  0.50158197  0.51096344  0.00748507  1
  Ag  Ag35  1  0.50034733  0.82329119  -0.00797411  1
  Ag  Ag36  1  0.32901300  0.16936985  0.49745743  1
  Ag  Ag37  1  0.66232260  0.51269871  0.49458834  1
  Ag  Ag38  1  0.00031457  -0.00254593  -0.01543187  1
  Ag  Ag39  1  0.65436252  0.50325255  0.16992485  1
  Ag  Ag40  1  0.15635365  -0.00484002  0.82357565  1
  Ag  Ag41  1  0.34359511  0.50167621  0.16585653  1
  Ag  Ag42  1  0.17353205  0.83365425  0.33691702  1
  Ag  Ag43  1  0.49763181  0.34838575  0.16707081  1
  Ag  Ag44  1  0.49970260  0.66054328  0.15464940  1
  Ag  Ag45  1  0.49958987  0.51029678  0.32198351  1
  Ag  Ag46  1  0.00124120  0.83608193  0.50064162  1
  Ag  Ag47  1  0.17817579  0.67923734  0.82906479  1
  Ag  Ag48  1  0.66759016  0.83070038  0.50604728  1
  Ag  Ag49  1  0.33777005  0.33110842  0.65718041  1
  Ag  Ag50  1  0.33449727  -0.00346170  0.33987124  1
  Ag  Ag51  1  0.49598038  0.66868356  0.84168213  1
  Ag  Ag52  1  0.82083385  0.50179691  0.00074726  1
  Ag  Ag53  1  0.65898305  -0.00984835  0.34069674  1
  Sb  Sb54  1  0.33263203  -0.00596458  -0.00469697  1
  Sb  Sb55  1  0.82963158  0.82992156  -0.00593341  1
  Sb  Sb56  1  0.33436202  0.83512347  0.50133248  1
  Sb  Sb57  1  0.33391747  0.17425106  0.17359448  1
  Sb  Sb58  1  0.33201476  0.82805425  0.16712748  1
  Sb  Sb59  1  0.00764741  0.32485146  0.66458593  1
  Sb  Sb60  1  0.00021241  0.50372992  0.16758189  1
  Sb  Sb61  1  0.82587485  0.32773601  0.83607895  1
  Sb  Sb62  1  0.66502734  0.16262449  0.50271160  1
  Sb  Sb63  1  0.17675423  0.50305594  0.33563764  1
  Sb  Sb64  1  0.65900824  0.33551631  0.66803005  1
  Sb  Sb65  1  0.82704058  0.66376822  0.17070181  1
  Sb  Sb66  1  0.00233097  -0.00424484  0.33841827  1
  Sb  Sb67  1  0.16380407  0.83419163  0.66350729  1
  Sb  Sb68  1  0.34203768  0.49681092  0.49873968  1
  Sb  Sb69  1  0.17357823  0.50166495  0.00081542  1
  Sb  Sb70  1  0.00718681  0.33572932  0.33344905  1
  Sb  Sb71  1  0.66173179  0.34042504  -0.00001188  1
  Sb  Sb72  1  0.83367817  0.16035508  0.66344073  1
  Sb  Sb73  1  0.33855293  0.66777113  0.66582799  1
  Sb  Sb74  1  0.66779975  0.82766189  0.16823696  1
  Sb  Sb75  1  -0.00428459  0.50551271  0.49925582  1
  Sb  Sb76  1  0.16799094  0.00090371  0.17101788  1
  Sb  Sb77  1  -0.00459639  0.67488942  0.66160680  1
  Sb  Sb78  1  0.65820523  0.33463450  0.33295113  1
  Sb  Sb79  1  -0.00052865  0.32855504  -0.00000838  1
  Sb  Sb80  1  0.82919966  0.67280610  0.83022616  1
  Sb  Sb81  1  0.00467205  0.50599697  0.83367438  1
  Sb  Sb82  1  0.49577414  0.00199235  0.50369342  1
  Sb  Sb83  1  0.50030661  0.16885921  0.67180496  1
  Sb  Sb84  1  0.17509220  0.50143129  0.66432467  1
  Sb  Sb85  1  0.83208414  0.83491317  0.33816939  1
  Sb  Sb86  1  0.17317481  0.66408955  0.16986738  1
  Sb  Sb87  1  0.16894136  0.16192933  0.65982246  1
  Sb  Sb88  1  0.83678045  -0.00549687  0.50493868  1
  Sb  Sb89  1  0.17050786  0.16535595  0.00225468  1
  Sb  Sb90  1  0.33799774  0.33897443  0.00218908  1
  Sb  Sb91  1  0.49754115  0.16673355  0.33088525  1
  Sb  Sb92  1  0.17522339  0.32914839  0.83065218  1
  Sb  Sb93  1  0.83263364  0.33626109  0.49541293  1
  Sb  Sb94  1  0.49984691  -0.00318482  0.16441461  1
  Sb  Sb95  1  0.66466979  0.17179531  0.16438597  1
  Sb  Sb96  1  0.16985326  0.83280833  -0.00132322  1
  Sb  Sb97  1  0.00065112  0.16303461  0.16965006  1
  Sb  Sb98  1  0.50042864  0.66299905  0.49871322  1
  Sb  Sb99  1  0.82974169  0.16807596  0.00138835  1
  Sb  Sb100  1  0.00112541  0.67325205  0.00270550  1
  Sb  Sb101  1  0.66741766  -0.00609690  -0.00577621  1
  Sb  Sb102  1  0.82414511  0.49881620  0.32955335  1
  Sb  Sb103  1  0.82406393  0.50649418  0.67039199  1
  Sb  Sb104  1  0.83251848  0.00103209  0.16516490  1
  Sb  Sb105  1  0.33487878  0.16139239  0.82833397  1
  Sb  Sb106  1  0.50491920  0.82996154  0.66765285  1
  Sb  Sb107  1  0.65663242  0.50792813  0.83477194  1
  Te  Te108  1  0.16589081  0.17279560  0.17400442  1
  Te  Te109  1  0.16746385  0.16476492  0.49665175  1
  Te  Te110  1  0.16243458  0.16087548  0.83500990  1
  Te  Te111  1  0.16861679  0.49412368  0.16762730  1
  Te  Te112  1  0.16362109  0.50318484  0.50044550  1
  Te  Te113  1  0.17390372  0.49978993  0.83287805  1
  Te  Te114  1  0.16164467  0.83259386  0.17245313  1
  Te  Te115  1  0.16755678  0.83491646  0.49730155  1
  Te  Te116  1  0.16555663  0.83656580  0.83407871  1
  Te  Te117  1  0.50052028  0.16783936  0.15907601  1
  Te  Te118  1  0.49675070  0.17328204  0.49964777  1
  Te  Te119  1  0.49994353  0.16922275  0.83594721  1
  Te  Te120  1  0.49918301  0.50364730  0.16703366  1
  Te  Te121  1  0.50395386  0.49572922  0.50456476  1
  Te  Te122  1  0.49912947  0.50099898  0.83516265  1
  Te  Te123  1  0.50004265  0.82969681  0.17044507  1
  Te  Te124  1  0.50477614  0.83568109  0.49259773  1
  Te  Te125  1  0.50089622  0.82883789  0.83169512  1
  Te  Te126  1  0.83292804  0.17230921  0.17083887  1
  Te  Te127  1  0.83506591  0.16722414  0.49578926  1
  Te  Te128  1  0.83566089  0.16202333  0.83369604  1
  Te  Te129  1  0.83343791  0.49632211  0.16193877  1
  Te  Te130  1  0.82563588  0.50516584  0.50057072  1
  Te  Te131  1  0.83435567  0.49801569  0.83904175  1
  Te  Te132  1  0.84143988  0.83282540  0.16459600  1
  Te  Te133  1  0.83212442  0.82993398  0.50381725  1
  Te  Te134  1  0.83484240  0.83684899  0.82960915  1
  Te  Te135  1  0.16277306  0.00078108  -0.00044481  1
  Te  Te136  1  0.16902301  -0.00216312  0.33624247  1
  Te  Te137  1  0.16960670  -0.00098678  0.66541925  1
  Te  Te138  1  0.16699222  0.33250060  0.00641979  1
  Te  Te139  1  0.17109471  0.33588879  0.33550833  1
  Te  Te140  1  0.17542074  0.33328608  0.66029908  1
  Te  Te141  1  0.17051659  0.66667761  -0.00636302  1
  Te  Te142  1  0.16675833  0.67009273  0.33402015  1
  Te  Te143  1  0.16554786  0.66666057  0.66929097  1
  Te  Te144  1  0.49950332  -0.00069130  -0.00354391  1
  Te  Te145  1  0.49873021  -0.00042457  0.33295793  1
  Te  Te146  1  0.49987351  0.00036896  0.67010073  1
  Te  Te147  1  0.49975799  0.33155424  0.00054463  1
  Te  Te148  1  0.49426056  0.33168790  0.33175862  1
  Te  Te149  1  0.49615537  0.33634272  0.66739878  1
  Te  Te150  1  0.49748682  0.66778040  -0.00056804  1
  Te  Te151  1  0.49978253  0.66676761  0.33940823  1
  Te  Te152  1  0.50374011  0.66303091  0.66907955  1
  Te  Te153  1  0.83731767  -0.00018572  -0.00443457  1
  Te  Te154  1  0.83057148  0.00357964  0.33366290  1
  Te  Te155  1  0.82813640  -0.00376795  0.67053853  1
  Te  Te156  1  0.83211019  0.33765797  0.00514315  1
  Te  Te157  1  0.83492145  0.33024297  0.32924551  1
  Te  Te158  1  0.83452403  0.33518773  0.66634520  1
  Te  Te159  1  0.83232232  0.66208278  0.00109437  1
  Te  Te160  1  0.82931878  0.66648852  0.33740718  1
  Te  Te161  1  0.82657891  0.67252120  0.66150565  1
  Te  Te162  1  -0.00067367  0.16117086  -0.00257516  1
  Te  Te163  1  0.00283805  0.16698249  0.33697820  1
  Te  Te164  1  -0.00001502  0.15865890  0.66517192  1
  Te  Te165  1  -0.00067749  0.50040629  0.00011145  1
  Te  Te166  1  -0.00274631  0.50896041  0.33356716  1
  Te  Te167  1  -0.00173011  0.49840459  0.66728704  1
  Te  Te168  1  -0.00032741  0.83718427  -0.00858570  1
  Te  Te169  1  -0.00175751  0.83135770  0.33923233  1
  Te  Te170  1  -0.00432873  0.83762595  0.66388911  1
  Te  Te171  1  0.33778202  0.16404502  0.00085588  1
  Te  Te172  1  0.33041945  0.16594232  0.33744582  1
  Te  Te173  1  0.33470915  0.16517659  0.66031926  1
  Te  Te174  1  0.33878029  0.50465217  -0.00112114  1
  Te  Te175  1  0.33996760  0.50041595  0.33216800  1
  Te  Te176  1  0.33952756  0.49732443  0.67142820  1
  Te  Te177  1  0.33840358  0.82745959  -0.00164829  1
  Te  Te178  1  0.33323056  0.83309866  0.33391621  1
  Te  Te179  1  0.33444667  0.83862249  0.67090843  1
  Te  Te180  1  0.66334868  0.16443100  -0.00508353  1
  Te  Te181  1  0.66944927  0.16425666  0.33335027  1
  Te  Te182  1  0.66793929  0.16063693  0.67191629  1
  Te  Te183  1  0.66229491  0.50555835  0.00052105  1
  Te  Te184  1  0.66038099  0.50115835  0.33329220  1
  Te  Te185  1  0.66116240  0.50331008  0.66370467  1
  Te  Te186  1  0.66184085  0.82740694  0.00106674  1
  Te  Te187  1  0.66630358  0.83251258  0.33267933  1
  Te  Te188  1  0.66633994  0.83432458  0.66609008  1
  Te  Te189  1  -0.00049301  -0.00565714  0.16682773  1
  Te  Te190  1  0.00306427  -0.00194478  0.50288284  1
  Te  Te191  1  0.00059310  -0.00228246  0.82777760  1
  Te  Te192  1  -0.00297275  0.33300844  0.16652437  1
  Te  Te193  1  0.00254525  0.33102796  0.50037179  1
  Te  Te194  1  0.00158153  0.33109874  0.83243309  1
  Te  Te195  1  0.00147367  0.67201618  0.17150393  1
  Te  Te196  1  0.00584563  0.67088263  0.49716853  1
  Te  Te197  1  0.00144059  0.67214663  0.83266655  1
  Te  Te198  1  0.33314277  0.00034117  0.17428591  1
  Te  Te199  1  0.33064007  0.00204234  0.50046573  1
  Te  Te200  1  0.33968086  -0.00378052  0.83120332  1
  Te  Te201  1  0.33703541  0.33888867  0.16824000  1
  Te  Te202  1  0.33383454  0.33494590  0.49890385  1
  Te  Te203  1  0.33706533  0.33005753  0.83200792  1
  Te  Te204  1  0.33691388  0.66275889  0.17246533  1
  Te  Te205  1  0.32594692  0.66645280  0.49727294  1
  Te  Te206  1  0.33484461  0.66891612  0.82930136  1
  Te  Te207  1  0.66773135  0.00074474  0.17442060  1
  Te  Te208  1  0.66656836  -0.00326682  0.50104815  1
  Te  Te209  1  0.65946882  -0.00418639  0.83400426  1
  Te  Te210  1  0.66346724  0.33956234  0.16665974  1
  Te  Te211  1  0.66306223  0.33198572  0.50144182  1
  Te  Te212  1  0.65997678  0.32658767  0.83287019  1
  Te  Te213  1  0.66265538  0.66281318  0.16903060  1
  Te  Te214  1  0.66383313  0.66966033  0.49894890  1
  Te  Te215  1  0.66539063  0.67211788  0.83516542  1
