# generated using pymatgen
data_AgSbTe2
_symmetry_space_group_name_H-M   'P 1'
_cell_length_a   18.33819416
_cell_length_b   18.33934530
_cell_length_c   18.34372428
_cell_angle_alpha   90.00200775
_cell_angle_beta   89.99845510
_cell_angle_gamma   90.00093057
_symmetry_Int_Tables_number   1
_chemical_formula_structural   AgSbTe2
_chemical_formula_sum   'Ag54 Sb54 Te108'
_cell_volume   6169.18661736
_cell_formula_units_Z   54
loop_
 _symmetry_equiv_pos_site_id
 _symmetry_equiv_pos_as_xyz
  1  'x, y, z'
loop_
 _atom_site_type_symbol
 _atom_site_label
 _atom_site_symmetry_multiplicity
 _atom_site_fract_x
 _atom_site_fract_y
 _atom_site_fract_z
 _atom_site_occupancy
  Ag  Ag0  1  0.65664160  0.66299873  0.33931928  1
  Ag  Ag1  1  0.49822352  0.50095883  0.66390182  1
  Ag  Ag2  1  0.65452280  0.50141337  0.17624247  1
  Ag  Ag3  1  0.17556884  0.66614972  0.16463402  1
  Ag  Ag4  1  0.01078987  0.16076118  0.50994995  1
  Ag  Ag5  1  0.65959379  0.50317137  0.82350720  1
  Ag  Ag6  1  0.65675378  0.34329083  0.33179521  1
  Ag  Ag7  1  0.83904775  0.66727051  0.50239991  1
  Ag  Ag8  1  0.16994077  0.67003127  0.82801284  1
  Ag  Ag9  1  0.00864275  0.66678602  0.67113858  1
  Ag  Ag10  1  0.33621456  0.66613320  0.32586223  1
  Ag  Ag11  1  0.82550647  0.33474369  0.16782131  1
  Ag  Ag12  1  0.49012025  0.83288287  -0.00090986  1
  Ag  Ag13  1  0.83550410  0.83421219  0.00209957  1
  Ag  Ag14  1  0.33212659  0.67196300  0.01045330  1
  Ag  Ag15  1  0.00728303  0.67182626  -0.01056452  1
  Ag  Ag16  1  0.33668318  0.50543116  0.49794641  1
  Ag  Ag17  1  0.32992744  0.83592308  0.83731373  1
  Ag  Ag18  1  0.17104062  -0.01280979  0.83030296  1
  Ag  Ag19  1  0.66794062  0.66462299  0.66278853  1
  Ag  Ag20  1  0.33027456  0.83189929  0.49973481  1
  Ag  Ag21  1  0.49077430  0.65890181  0.16186988  1
  Ag  Ag22  1  0.49485617  0.00088592  0.50374057  1
  Ag  Ag23  1  0.65429404  0.50275864  0.50257464  1
  Ag  Ag24  1  0.33047529  0.15915407  0.50646544  1
  Ag  Ag25  1  0.00960105  0.82559762  0.83456238  1
  Ag  Ag26  1  0.83512906  0.83116940  0.32860653  1
  Ag  Ag27  1  0.49794577  0.34178767  0.83626889  1
  Ag  Ag28  1  0.49722617  0.34140940  0.16554246  1
  Ag  Ag29  1  0.00039262  0.50879979  0.82880612  1
  Ag  Ag30  1  0.49146658  0.16200919  -0.00481410  1
  Ag  Ag31  1  0.33981283  0.51221474  0.17495604  1
  Ag  Ag32  1  0.82391201  0.50385363  0.66638802  1
  Ag  Ag33  1  0.48966993  0.66324336  0.83576457  1
  Ag  Ag34  1  0.49124092  0.16938839  0.67131428  1
  Ag  Ag35  1  0.17284375  0.51090422  0.66468814  1
  Ag  Ag36  1  0.00992281  0.16328609  0.16215643  1
  Ag  Ag37  1  0.17233923  0.16432375  0.66726749  1
  Ag  Ag38  1  0.16806468  0.82901003  0.66766319  1
  Ag  Ag39  1  0.33052323  0.16497768  0.16621259  1
  Ag  Ag40  1  0.33487808  -0.00472489  0.34095323  1
  Ag  Ag41  1  0.49963349  0.50052205  0.33223625  1
  Ag  Ag42  1  0.33779363  0.34087306  0.33254865  1
  Ag  Ag43  1  0.83387265  0.15991547  0.00046812  1
  Ag  Ag44  1  0.33044798  0.15885602  0.82637137  1
  Ag  Ag45  1  0.00794790  0.83121516  0.50620437  1
  Ag  Ag46  1  0.65359203  -0.00881522  0.66603675  1
  Ag  Ag47  1  0.16813527  0.66703597  0.50827971  1
  Ag  Ag48  1  0.33514282  -0.00787420  -0.00639957  1
  Ag  Ag49  1  0.01093677  0.16654009  0.83268442  1
  Ag  Ag50  1  0.00790641  0.82976939  0.16130105  1
  Ag  Ag51  1  0.33401376  0.00203925  0.66616903  1
  Ag  Ag52  1  0.16991566  0.33985794  0.50217981  1
  Ag  Ag53  1  0.32861034  0.82614472  0.15849899  1
  Sb  Sb54  1  0.00419017  0.50479329  0.50506457  1
  Sb  Sb55  1  0.65996234  -0.00322683  0.33840895  1
  Sb  Sb56  1  0.83678204  0.33789952  0.49658779  1
  Sb  Sb57  1  0.33165779  0.67048876  0.66623391  1
  Sb  Sb58  1  0.00723051  -0.00251780  0.33395813  1
  Sb  Sb59  1  0.17097795  0.16649809  -0.00445319  1
  Sb  Sb60  1  0.83921011  0.82712464  0.66809593  1
  Sb  Sb61  1  0.66058670  0.00025010  -0.00543729  1
  Sb  Sb62  1  0.16920202  0.83040831  0.33798225  1
  Sb  Sb63  1  0.83270714  0.66490109  0.17008595  1
  Sb  Sb64  1  0.83530062  0.00109770  0.16579245  1
  Sb  Sb65  1  0.49137427  0.83136605  0.66918186  1
  Sb  Sb66  1  0.00563061  -0.00401398  -0.00145831  1
  Sb  Sb67  1  0.49798481  0.50335881  -0.00012021  1
  Sb  Sb68  1  0.83850116  -0.00067160  0.83338534  1
  Sb  Sb69  1  0.66296081  0.82744340  0.16651548  1
  Sb  Sb70  1  0.00413749  0.50316299  0.16101656  1
  Sb  Sb71  1  0.17183580  0.16781278  0.33922796  1
  Sb  Sb72  1  0.82977226  0.33433340  0.83668712  1
  Sb  Sb73  1  0.17185892  -0.00560268  0.16123790  1
  Sb  Sb74  1  0.33364146  0.33011587  0.66139912  1
  Sb  Sb75  1  0.83000022  -0.00631744  0.50107033  1
  Sb  Sb76  1  0.66312223  0.82623537  0.50185903  1
  Sb  Sb77  1  0.83518177  0.16985241  0.66954950  1
  Sb  Sb78  1  0.00516822  -0.00417381  0.66700846  1
  Sb  Sb79  1  0.49311046  0.33523084  0.49873545  1
  Sb  Sb80  1  0.83375909  0.50214695  -0.00226591  1
  Sb  Sb81  1  -0.00175426  0.33363661  -0.00132541  1
  Sb  Sb82  1  0.66305327  0.34086299  0.66324549  1
  Sb  Sb83  1  0.00313859  0.66811391  0.33579528  1
  Sb  Sb84  1  0.49345378  0.17230592  0.33335943  1
  Sb  Sb85  1  0.33605563  0.33429902  0.00481394  1
  Sb  Sb86  1  0.49369609  0.66538679  0.50073220  1
  Sb  Sb87  1  0.00211435  0.33224533  0.33428083  1
  Sb  Sb88  1  0.66166254  0.17186495  0.50189908  1
  Sb  Sb89  1  0.33413851  0.50255959  0.82987591  1
  Sb  Sb90  1  0.49634954  0.82677892  0.33086765  1
  Sb  Sb91  1  0.49513544  -0.00154705  0.16904349  1
  Sb  Sb92  1  0.66395186  0.33412934  0.00401082  1
  Sb  Sb93  1  0.66280209  0.66615033  -0.00113213  1
  Sb  Sb94  1  0.65897417  0.17028219  0.83167000  1
  Sb  Sb95  1  0.49223930  -0.00182513  0.82909865  1
  Sb  Sb96  1  0.16950435  0.82988885  -0.00699949  1
  Sb  Sb97  1  0.17233323  0.33538621  0.82702413  1
  Sb  Sb98  1  0.82346492  0.50485517  0.33662290  1
  Sb  Sb99  1  0.17318844  0.33614249  0.17331784  1
  Sb  Sb100  1  0.66303831  0.17294286  0.16662858  1
  Sb  Sb101  1  0.66313519  0.82855949  0.83158528  1
  Sb  Sb102  1  0.00246011  0.33872075  0.66696357  1
  Sb  Sb103  1  0.83753255  0.66599961  0.82965020  1
  Sb  Sb104  1  0.17590437  -0.00379886  0.50642846  1
  Sb  Sb105  1  0.16927104  0.50599206  -0.00562011  1
  Sb  Sb106  1  0.83551152  0.16439162  0.33009879  1
  Sb  Sb107  1  0.17620280  0.50319285  0.34101700  1
  Te  Te108  1  0.16740715  0.16694415  0.16731220  1
  Te  Te109  1  0.16809820  0.16153067  0.50427375  1
  Te  Te110  1  0.17038762  0.17221332  0.82933955  1
  Te  Te111  1  0.16989507  0.50456148  0.16832925  1
  Te  Te112  1  0.16994131  0.50347760  0.50543668  1
  Te  Te113  1  0.16479041  0.50266939  0.82518769  1
  Te  Te114  1  0.16761843  0.82896497  0.16991772  1
  Te  Te115  1  0.16810327  0.83091769  0.50338912  1
  Te  Te116  1  0.16827187  0.83063898  0.83013350  1
  Te  Te117  1  0.49613775  0.16690527  0.16339609  1
  Te  Te118  1  0.49524114  0.16636601  0.50456553  1
  Te  Te119  1  0.49576791  0.16555129  0.83216098  1
  Te  Te120  1  0.49904402  0.50020274  0.16355331  1
  Te  Te121  1  0.49642500  0.50023427  0.50356729  1
  Te  Te122  1  0.49985092  0.50131201  0.83331345  1
  Te  Te123  1  0.49529939  0.83024986  0.16230348  1
  Te  Te124  1  0.49408824  0.83664300  0.49986703  1
  Te  Te125  1  0.49584961  0.82773873  0.83858184  1
  Te  Te126  1  0.83169974  0.16895672  0.16321742  1
  Te  Te127  1  0.83672467  0.16675276  0.49996017  1
  Te  Te128  1  0.83486520  0.16736271  0.83873391  1
  Te  Te129  1  0.83550018  0.49446196  0.16599134  1
  Te  Te130  1  0.83707415  0.50462411  0.50494283  1
  Te  Te131  1  0.83572716  0.49826153  0.82958170  1
  Te  Te132  1  0.83266619  0.83305754  0.16634055  1
  Te  Te133  1  0.83531854  0.82808632  0.50013011  1
  Te  Te134  1  0.83904039  0.83423050  0.83809853  1
  Te  Te135  1  0.17489623  0.00094800  -0.00783760  1
  Te  Te136  1  0.17646100  0.00043894  0.32938585  1
  Te  Te137  1  0.16903772  0.00413213  0.67244292  1
  Te  Te138  1  0.16561251  0.33601719  0.00145379  1
  Te  Te139  1  0.17218454  0.33453258  0.34217985  1
  Te  Te140  1  0.16587282  0.32783813  0.65990170  1
  Te  Te141  1  0.16652716  0.66547616  0.00141291  1
  Te  Te142  1  0.17224868  0.66667654  0.33057086  1
  Te  Te143  1  0.16698687  0.66782559  0.66764615  1
  Te  Te144  1  0.49513049  -0.00100248  0.00145972  1
  Te  Te145  1  0.49486727  0.00057750  0.34042640  1
  Te  Te146  1  0.49706185  -0.00256600  0.66365960  1
  Te  Te147  1  0.50023503  0.32556178  0.00062071  1
  Te  Te148  1  0.49860254  0.33805173  0.33142347  1
  Te  Te149  1  0.50110338  0.33330041  0.67093937  1
  Te  Te150  1  0.49848800  0.67048064  -0.00072999  1
  Te  Te151  1  0.49794364  0.66143900  0.33216555  1
  Te  Te152  1  0.50324465  0.66333850  0.67202438  1
  Te  Te153  1  0.83069621  -0.00007792  -0.00044656  1
  Te  Te154  1  0.83053710  -0.00741208  0.33318454  1
  Te  Te155  1  0.82844966  0.00147723  0.66591345  1
  Te  Te156  1  0.83245990  0.32995237  0.00734075  1
  Te  Te157  1  0.83303620  0.33185870  0.32689490  1
  Te  Te158  1  0.83276408  0.34166457  0.66627902  1
  Te  Te159  1  0.83598876  0.67187069  -0.00006738  1
  Te  Te160  1  0.83373859  0.67148409  0.33823042  1
  Te  Te161  1  0.82948798  0.66324413  0.66315952  1
  Te  Te162  1  -0.00085604  0.16443645  0.00058948  1
  Te  Te163  1  0.00070309  0.16507052  0.32786052  1
  Te  Te164  1  0.00063490  0.16636850  0.66736037  1
  Te  Te165  1  0.00048230  0.50510493  -0.00900853  1
  Te  Te166  1  -0.00292596  0.49777612  0.33301983  1
  Te  Te167  1  0.00444100  0.50416576  0.66926703  1
  Te  Te168  1  0.00017812  0.83224692  0.00017843  1
  Te  Te169  1  -0.00361156  0.83441180  0.33147398  1
  Te  Te170  1  0.00441355  0.83028053  0.66704186  1
  Te  Te171  1  0.33503930  0.16754016  0.00116109  1
  Te  Te172  1  0.33369570  0.16383554  0.33204698  1
  Te  Te173  1  0.33402957  0.16691885  0.66612079  1
  Te  Te174  1  0.33314992  0.50637279  0.00665190  1
  Te  Te175  1  0.33691387  0.50267939  0.33499354  1
  Te  Te176  1  0.33628523  0.49654971  0.66279923  1
  Te  Te177  1  0.33268004  0.83171837  -0.00053078  1
  Te  Te178  1  0.33448873  0.83088693  0.33648268  1
  Te  Te179  1  0.32934455  0.83836446  0.66455184  1
  Te  Te180  1  0.66925830  0.16592254  -0.00204253  1
  Te  Te181  1  0.66679855  0.16837296  0.33493648  1
  Te  Te182  1  0.66568523  0.16653827  0.66669737  1
  Te  Te183  1  0.66865748  0.49982071  -0.00402528  1
  Te  Te184  1  0.66315060  0.50274509  0.33461867  1
  Te  Te185  1  0.66157909  0.50229860  0.66438558  1
  Te  Te186  1  0.67312482  0.83548589  -0.00110951  1
  Te  Te187  1  0.67032391  0.82744522  0.33425723  1
  Te  Te188  1  0.66808790  0.82999141  0.66739891  1
  Te  Te189  1  0.00184132  0.00017076  0.16625071  1
  Te  Te190  1  -0.00279119  -0.00040568  0.49843504  1
  Te  Te191  1  0.00674631  0.00497723  0.83360458  1
  Te  Te192  1  0.00315197  0.33044733  0.16576167  1
  Te  Te193  1  0.00581155  0.32627671  0.50010927  1
  Te  Te194  1  -0.00081137  0.32739602  0.83384774  1
  Te  Te195  1  0.00010752  0.67135169  0.16682197  1
  Te  Te196  1  0.00383644  0.67147050  0.50098879  1
  Te  Te197  1  0.00114888  0.66706478  0.83197224  1
  Te  Te198  1  0.33310839  0.00495334  0.16547708  1
  Te  Te199  1  0.33383780  -0.00010614  0.50176490  1
  Te  Te200  1  0.33366575  -0.00168433  0.83137610  1
  Te  Te201  1  0.33625372  0.32681697  0.17136637  1
  Te  Te202  1  0.33051366  0.33510530  0.49456115  1
  Te  Te203  1  0.33957185  0.33163091  0.83701507  1
  Te  Te204  1  0.33372045  0.66954561  0.16670716  1
  Te  Te205  1  0.32922297  0.66767679  0.50013447  1
  Te  Te206  1  0.33107251  0.66823063  0.83166433  1
  Te  Te207  1  0.66660534  -0.00080004  0.16787433  1
  Te  Te208  1  0.66072622  0.00132576  0.50612312  1
  Te  Te209  1  0.66722979  -0.00032456  0.82483317  1
  Te  Te210  1  0.66281228  0.33805541  0.17081845  1
  Te  Te211  1  0.67031866  0.34108645  0.49216542  1
  Te  Te212  1  0.66061640  0.33975386  0.83266063  1
  Te  Te213  1  0.66454339  0.66088506  0.16870972  1
  Te  Te214  1  0.66376105  0.66262803  0.50013078  1
  Te  Te215  1  0.66506097  0.66287646  0.83077225  1
