# generated using pymatgen
data_AgSbTe2
_symmetry_space_group_name_H-M   'P 1'
_cell_length_a   18.37612734
_cell_length_b   18.36320247
_cell_length_c   18.37066284
_cell_angle_alpha   90.00387537
_cell_angle_beta   90.00095498
_cell_angle_gamma   90.00138463
_symmetry_Int_Tables_number   1
_chemical_formula_structural   AgSbTe2
_chemical_formula_sum   'Ag54 Sb54 Te108'
_cell_volume   6199.07998282
_cell_formula_units_Z   54
loop_
 _symmetry_equiv_pos_site_id
 _symmetry_equiv_pos_as_xyz
  1  'x, y, z'
loop_
 _atom_site_type_symbol
 _atom_site_label
 _atom_site_symmetry_multiplicity
 _atom_site_fract_x
 _atom_site_fract_y
 _atom_site_fract_z
 _atom_site_occupancy
  Ag  Ag0  1  0.48468575  0.34651798  0.50052462  1
  Ag  Ag1  1  0.16912718  0.49660444  -0.00585144  1
  Ag  Ag2  1  0.00779176  0.50160616  0.81790612  1
  Ag  Ag3  1  0.66836985  0.83261467  0.50299403  1
  Ag  Ag4  1  0.16805952  0.66111624  0.50153388  1
  Ag  Ag5  1  0.68009445  0.66889180  0.66257591  1
  Ag  Ag6  1  0.16433583  0.33247104  0.16410508  1
  Ag  Ag7  1  0.15974966  -0.00633362  0.82631422  1
  Ag  Ag8  1  0.68288240  -0.00150726  0.34453161  1
  Ag  Ag9  1  -0.00048225  0.65770174  0.66345438  1
  Ag  Ag10  1  0.31918510  0.34288913  0.66408508  1
  Ag  Ag11  1  0.83450853  0.82937412  0.66342743  1
  Ag  Ag12  1  0.32912424  0.82518496  0.82233242  1
  Ag  Ag13  1  0.00194715  -0.00388352  0.33772904  1
  Ag  Ag14  1  0.16246616  0.17830580  0.00490880  1
  Ag  Ag15  1  0.32322157  0.50084088  0.16511853  1
  Ag  Ag16  1  0.32856482  0.16442265  0.50046584  1
  Ag  Ag17  1  0.48475205  0.50163296  0.34085916  1
  Ag  Ag18  1  0.84615535  0.33030954  0.17414327  1
  Ag  Ag19  1  0.32194958  0.66387040  0.34824442  1
  Ag  Ag20  1  0.00197205  0.49929351  0.50437028  1
  Ag  Ag21  1  0.00194136  0.00738941  0.00787008  1
  Ag  Ag22  1  0.00087575  0.34464634  0.66398702  1
  Ag  Ag23  1  0.32864993  0.66104570  -0.00844215  1
  Ag  Ag24  1  0.16286565  0.83052870  0.33767299  1
  Ag  Ag25  1  0.33142720  0.83046562  0.50224107  1
  Ag  Ag26  1  0.32102854  0.33934561  -0.00420972  1
  Ag  Ag27  1  0.16729210  0.50312255  0.34338722  1
  Ag  Ag28  1  0.00428617  0.16508894  0.16422814  1
  Ag  Ag29  1  0.16009892  -0.00091452  0.49855494  1
  Ag  Ag30  1  0.31837409  0.66334497  0.66590588  1
  Ag  Ag31  1  0.84697688  0.67138702  0.82562851  1
  Ag  Ag32  1  0.83729929  -0.00276173  0.50044021  1
  Ag  Ag33  1  0.00414454  0.32825505  0.00083878  1
  Ag  Ag34  1  0.84798673  0.51008591  0.66449394  1
  Ag  Ag35  1  0.32510396  0.50556349  0.83390631  1
  Ag  Ag36  1  0.48522801  0.66082856  0.50179969  1
  Ag  Ag37  1  0.67211868  0.50688134  0.49949803  1
  Ag  Ag38  1  0.84338579  0.33448378  0.49905859  1
  Ag  Ag39  1  0.84667788  0.16377146  0.00152078  1
  Ag  Ag40  1  0.50049672  -0.00177562  0.50173975  1
  Ag  Ag41  1  0.00523006  0.66916030  0.34399876  1
  Ag  Ag42  1  0.66722619  0.49923740  0.18033238  1
  Ag  Ag43  1  0.84178511  -0.00529853  0.81720445  1
  Ag  Ag44  1  0.16011923  0.00851200  0.17727427  1
  Ag  Ag45  1  0.16712765  0.66146457  0.82081617  1
  Ag  Ag46  1  0.16162524  0.50249569  0.66590377  1
  Ag  Ag47  1  0.16501192  0.16174593  0.33500641  1
  Ag  Ag48  1  -0.00014985  0.00097015  0.66330891  1
  Ag  Ag49  1  0.16565765  0.34314093  0.49877434  1
  Ag  Ag50  1  0.49338137  -0.00149298  0.82070292  1
  Ag  Ag51  1  0.68177926  -0.00717079  0.66033603  1
  Ag  Ag52  1  0.84300572  0.83727898  0.34526169  1
  Ag  Ag53  1  0.84333835  0.00301408  0.17464170  1
  Sb  Sb54  1  0.49193613  0.16747733  -0.00075675  1
  Sb  Sb55  1  0.66948932  0.16248751  0.83309798  1
  Sb  Sb56  1  0.00179622  0.83085882  0.50069550  1
  Sb  Sb57  1  0.16577507  0.83114285  0.00154715  1
  Sb  Sb58  1  0.32548707  -0.00560919  0.33813846  1
  Sb  Sb59  1  0.49226001  0.66950715  0.82418431  1
  Sb  Sb60  1  0.32790094  0.34143754  0.33686649  1
  Sb  Sb61  1  0.16570374  0.16933828  0.66588518  1
  Sb  Sb62  1  0.83441081  0.83939993  -0.00398416  1
  Sb  Sb63  1  0.00385511  0.49502156  0.17024423  1
  Sb  Sb64  1  0.00409081  0.33236530  0.33498587  1
  Sb  Sb65  1  0.00471611  0.83165403  0.83044569  1
  Sb  Sb66  1  0.32760773  0.16713976  0.82875128  1
  Sb  Sb67  1  0.83834949  0.66871349  0.50619503  1
  Sb  Sb68  1  0.49559361  0.50170563  0.65959431  1
  Sb  Sb69  1  0.67007074  0.83044077  0.17859216  1
  Sb  Sb70  1  0.49383213  0.33224427  0.82646746  1
  Sb  Sb71  1  0.32978810  0.82791187  0.17038940  1
  Sb  Sb72  1  0.16371945  0.33936489  0.83273081  1
  Sb  Sb73  1  0.32624044  0.50313951  0.50269818  1
  Sb  Sb74  1  0.67191188  0.33576958  0.66126793  1
  Sb  Sb75  1  0.49672204  0.83428229  -0.00533671  1
  Sb  Sb76  1  0.48934158  0.49999865  0.00532424  1
  Sb  Sb77  1  0.49804807  0.16592101  0.66406872  1
  Sb  Sb78  1  0.67340066  0.33534324  0.00316986  1
  Sb  Sb79  1  0.67747566  0.16884857  0.16845997  1
  Sb  Sb80  1  0.32955609  -0.00377946  0.66331013  1
  Sb  Sb81  1  0.49702697  0.82903805  0.33947038  1
  Sb  Sb82  1  0.49246460  0.16950399  0.33773533  1
  Sb  Sb83  1  0.49385404  0.33713468  0.17192157  1
  Sb  Sb84  1  0.50063175  0.00044533  0.17274413  1
  Sb  Sb85  1  0.66389360  0.66397137  -0.00600501  1
  Sb  Sb86  1  0.16146518  0.82817139  0.66124162  1
  Sb  Sb87  1  0.16818433  0.66281674  0.17162088  1
  Sb  Sb88  1  0.32357763  0.17208852  0.17197805  1
  Sb  Sb89  1  0.83564616  0.16400424  0.66778611  1
  Sb  Sb90  1  0.83939915  0.50358760  0.33957285  1
  Sb  Sb91  1  0.00608095  0.66214358  -0.00401237  1
  Sb  Sb92  1  0.00225801  0.84228648  0.17090909  1
  Sb  Sb93  1  0.50222070  0.83191382  0.66198774  1
  Sb  Sb94  1  0.66907024  0.66854102  0.34282851  1
  Sb  Sb95  1  0.32289882  0.00120972  -0.00397342  1
  Sb  Sb96  1  0.67590460  0.00072322  -0.00174086  1
  Sb  Sb97  1  0.83509360  0.66479456  0.16468154  1
  Sb  Sb98  1  0.66721848  0.33151155  0.33620780  1
  Sb  Sb99  1  0.66447045  0.83357567  0.82586750  1
  Sb  Sb100  1  0.00269421  0.16482038  0.83855345  1
  Sb  Sb101  1  0.49755604  0.66288631  0.17405861  1
  Sb  Sb102  1  0.84080950  0.16092284  0.33143555  1
  Sb  Sb103  1  0.66944218  0.50240788  0.82547567  1
  Sb  Sb104  1  0.66468849  0.16227024  0.49918695  1
  Sb  Sb105  1  0.83719960  0.33261079  0.82977284  1
  Sb  Sb106  1  0.00547381  0.16718636  0.49735402  1
  Sb  Sb107  1  0.84072662  0.49516439  -0.00371574  1
  Te  Te108  1  0.16517717  0.16935916  0.16731524  1
  Te  Te109  1  0.16880802  0.16046816  0.49956184  1
  Te  Te110  1  0.16735230  0.15226512  0.83887407  1
  Te  Te111  1  0.16621657  0.49605082  0.16516560  1
  Te  Te112  1  0.16563955  0.50132761  0.50344078  1
  Te  Te113  1  0.16713255  0.50047730  0.83033410  1
  Te  Te114  1  0.16847573  0.84103230  0.17477609  1
  Te  Te115  1  0.16836732  0.83758428  0.49772105  1
  Te  Te116  1  0.17135708  0.83294304  0.83509161  1
  Te  Te117  1  0.50115563  0.16779654  0.16784556  1
  Te  Te118  1  0.49310470  0.16040540  0.49840816  1
  Te  Te119  1  0.49913625  0.15851568  0.83392928  1
  Te  Te120  1  0.50556169  0.49921603  0.17529870  1
  Te  Te121  1  0.50223782  0.50184367  0.49800914  1
  Te  Te122  1  0.49792376  0.50004804  0.83530361  1
  Te  Te123  1  0.50063978  0.83311355  0.16626520  1
  Te  Te124  1  0.49751857  0.83620662  0.49868025  1
  Te  Te125  1  0.49283114  0.84029942  0.83193942  1
  Te  Te126  1  0.83896508  0.16868908  0.16473425  1
  Te  Te127  1  0.83308362  0.17161593  0.49918270  1
  Te  Te128  1  0.83358037  0.15953609  0.84019333  1
  Te  Te129  1  0.83014850  0.49526779  0.16503900  1
  Te  Te130  1  0.83593798  0.49851619  0.50273899  1
  Te  Te131  1  0.83497184  0.50249159  0.82726278  1
  Te  Te132  1  0.83198127  0.83905624  0.16630902  1
  Te  Te133  1  0.83247072  0.83521281  0.50223827  1
  Te  Te134  1  0.83162155  0.83346421  0.82885863  1
  Te  Te135  1  0.16178082  -0.00360762  0.00120873  1
  Te  Te136  1  0.16526095  -0.00070287  0.33574573  1
  Te  Te137  1  0.16481555  -0.00002685  0.66430034  1
  Te  Te138  1  0.16429203  0.33525852  -0.00428469  1
  Te  Te139  1  0.16668548  0.33828393  0.33760855  1
  Te  Te140  1  0.16226933  0.33389305  0.66532691  1
  Te  Te141  1  0.17047849  0.66236307  0.00212833  1
  Te  Te142  1  0.16534293  0.66544687  0.33262971  1
  Te  Te143  1  0.16103581  0.66746788  0.66374984  1
  Te  Te144  1  0.50098618  0.00158767  0.00309177  1
  Te  Te145  1  0.49766255  0.00035177  0.33853265  1
  Te  Te146  1  0.49551695  -0.00095674  0.66292177  1
  Te  Te147  1  0.49817951  0.33268042  -0.00050296  1
  Te  Te148  1  0.49955817  0.33894187  0.34118985  1
  Te  Te149  1  0.50355268  0.33268170  0.65851381  1
  Te  Te150  1  0.49302408  0.66686199  -0.00199933  1
  Te  Te151  1  0.50238371  0.66153422  0.34135363  1
  Te  Te152  1  0.50487170  0.66720986  0.65949213  1
  Te  Te153  1  0.83822535  0.00397884  0.00631737  1
  Te  Te154  1  0.83898440  -0.00077832  0.33482280  1
  Te  Te155  1  0.83602337  0.00241377  0.66300364  1
  Te  Te156  1  0.83933317  0.32790402  0.00167468  1
  Te  Te157  1  0.83474059  0.33251692  0.33353425  1
  Te  Te158  1  0.83870953  0.33293817  0.66204004  1
  Te  Te159  1  0.83197562  0.66632848  -0.00964733  1
  Te  Te160  1  0.83691606  0.67433484  0.32761416  1
  Te  Te161  1  0.83877252  0.66894215  0.66905187  1
  Te  Te162  1  0.00426274  0.16793609  0.00049384  1
  Te  Te163  1  0.00604673  0.16234431  0.32845427  1
  Te  Te164  1  0.00026964  0.16027569  0.66752561  1
  Te  Te165  1  0.00547029  0.49460482  0.00214392  1
  Te  Te166  1  0.00482646  0.50533606  0.33830109  1
  Te  Te167  1  0.00211553  0.50014788  0.66399482  1
  Te  Te168  1  -0.00154574  0.83915795  -0.00036153  1
  Te  Te169  1  0.00020627  0.83179092  0.33397957  1
  Te  Te170  1  -0.00589016  0.84186181  0.66874903  1
  Te  Te171  1  0.32578326  0.17299390  0.00068235  1
  Te  Te172  1  0.32522366  0.16658053  0.33894488  1
  Te  Te173  1  0.33298368  0.17556037  0.66075402  1
  Te  Te174  1  0.33029462  0.49843874  -0.00133165  1
  Te  Te175  1  0.32928491  0.50477361  0.33006003  1
  Te  Te176  1  0.33187372  0.50181393  0.67064858  1
  Te  Te177  1  0.33322470  0.83013670  -0.00009487  1
  Te  Te178  1  0.32963750  0.82393594  0.33697059  1
  Te  Te179  1  0.33202502  0.82872036  0.66440585  1
  Te  Te180  1  0.66584694  0.16783306  0.00136245  1
  Te  Te181  1  0.66326567  0.15755088  0.33176422  1
  Te  Te182  1  0.66508831  0.15875647  0.66741985  1
  Te  Te183  1  0.66661271  0.50007621  -0.00096705  1
  Te  Te184  1  0.67162499  0.49933239  0.33904674  1
  Te  Te185  1  0.66661978  0.50319708  0.65986453  1
  Te  Te186  1  0.66531171  0.83093310  0.00277569  1
  Te  Te187  1  0.66725161  0.83797455  0.34155587  1
  Te  Te188  1  0.66912430  0.83343715  0.66224833  1
  Te  Te189  1  0.00130900  0.00309491  0.16770836  1
  Te  Te190  1  -0.00131864  0.00174195  0.49730032  1
  Te  Te191  1  -0.00005036  -0.00098768  0.82988142  1
  Te  Te192  1  0.00345255  0.33084616  0.16803469  1
  Te  Te193  1  0.00370757  0.33379417  0.50070519  1
  Te  Te194  1  -0.00242543  0.33906817  0.82815536  1
  Te  Te195  1  -0.00080086  0.66837295  0.16488989  1
  Te  Te196  1  0.00410103  0.66475998  0.50151825  1
  Te  Te197  1  0.00531299  0.66323269  0.83321369  1
  Te  Te198  1  0.33156679  0.00079530  0.16547435  1
  Te  Te199  1  0.33395288  -0.00392741  0.50025243  1
  Te  Te200  1  0.33581705  -0.00132606  0.83179782  1
  Te  Te201  1  0.32767746  0.33811173  0.16316689  1
  Te  Te202  1  0.32883579  0.33357367  0.50172174  1
  Te  Te203  1  0.33410716  0.33613394  0.83066070  1
  Te  Te204  1  0.33554039  0.66050922  0.15933288  1
  Te  Te205  1  0.32969090  0.66701032  0.50410256  1
  Te  Te206  1  0.33080167  0.66601370  0.82901527  1
  Te  Te207  1  0.66914605  -0.00025131  0.16885280  1
  Te  Te208  1  0.66957426  0.00072972  0.50146995  1
  Te  Te209  1  0.66791778  -0.00159889  0.82899187  1
  Te  Te210  1  0.66540198  0.33907271  0.16770495  1
  Te  Te211  1  0.67129243  0.33367130  0.49935454  1
  Te  Te212  1  0.66434810  0.33231602  0.83321898  1
  Te  Te213  1  0.66576830  0.65972821  0.16381955  1
  Te  Te214  1  0.67187774  0.66904291  0.50331887  1
  Te  Te215  1  0.66489702  0.66670100  0.82558061  1
