# generated using pymatgen
data_AgSbTe2
_symmetry_space_group_name_H-M   'P 1'
_cell_length_a   18.33590656
_cell_length_b   18.33747916
_cell_length_c   18.33519976
_cell_angle_alpha   89.99993069
_cell_angle_beta   90.00073065
_cell_angle_gamma   89.99811530
_symmetry_Int_Tables_number   1
_chemical_formula_structural   AgSbTe2
_chemical_formula_sum   'Ag54 Sb54 Te108'
_cell_volume   6164.92313141
_cell_formula_units_Z   54
loop_
 _symmetry_equiv_pos_site_id
 _symmetry_equiv_pos_as_xyz
  1  'x, y, z'
loop_
 _atom_site_type_symbol
 _atom_site_label
 _atom_site_symmetry_multiplicity
 _atom_site_fract_x
 _atom_site_fract_y
 _atom_site_fract_z
 _atom_site_occupancy
  Ag  Ag0  1  0.49222254  0.16398215  0.33310302  1
  Ag  Ag1  1  0.65510090  0.16641691  0.83149219  1
  Ag  Ag2  1  0.84162497  0.66061383  0.83648903  1
  Ag  Ag3  1  0.16155994  0.49486372  0.66553346  1
  Ag  Ag4  1  0.49903983  0.49150419  0.00174514  1
  Ag  Ag5  1  0.49057649  0.32754009  0.83382253  1
  Ag  Ag6  1  0.00240233  0.66589479  -0.00793036  1
  Ag  Ag7  1  0.32783065  0.66605454  0.32950112  1
  Ag  Ag8  1  0.32474026  0.33119672  0.66551953  1
  Ag  Ag9  1  0.49842295  0.32649438  0.16535128  1
  Ag  Ag10  1  0.16682401  0.66917083  0.17376811  1
  Ag  Ag11  1  0.50037447  0.00773735  0.17112836  1
  Ag  Ag12  1  0.48844736  0.32571344  0.49819589  1
  Ag  Ag13  1  0.83742078  0.32737523  0.49794350  1
  Ag  Ag14  1  0.33905159  0.17419831  0.83452966  1
  Ag  Ag15  1  0.32124897  0.01271647  0.33335355  1
  Ag  Ag16  1  0.00307840  0.49806561  0.82926198  1
  Ag  Ag17  1  0.50457283  0.84657913  -0.00038842  1
  Ag  Ag18  1  0.49949667  0.01163212  0.84298294  1
  Ag  Ag19  1  0.00402541  0.66096278  0.67228525  1
  Ag  Ag20  1  0.16914481  0.33018207  0.50454685  1
  Ag  Ag21  1  0.16524061  0.67100042  0.49541779  1
  Ag  Ag22  1  0.00565027  0.33602850  0.66895570  1
  Ag  Ag23  1  0.84230436  0.33346600  0.82974919  1
  Ag  Ag24  1  0.01026868  0.00087940  0.33812668  1
  Ag  Ag25  1  0.33316975  0.32195112  0.33945885  1
  Ag  Ag26  1  0.83135597  0.00284504  0.17573893  1
  Ag  Ag27  1  0.00309734  0.00139932  0.66188898  1
  Ag  Ag28  1  0.49973549  0.16494630  0.00052988  1
  Ag  Ag29  1  0.16916674  0.33269818  0.82375882  1
  Ag  Ag30  1  0.83577048  0.49811877  0.32965107  1
  Ag  Ag31  1  0.66203787  0.00034728  0.01018521  1
  Ag  Ag32  1  0.83222169  0.00336236  0.49289184  1
  Ag  Ag33  1  0.65508542  0.16371906  0.49898322  1
  Ag  Ag34  1  0.67237149  0.49671030  0.16696116  1
  Ag  Ag35  1  0.83176969  0.83522788  0.00244750  1
  Ag  Ag36  1  0.50440290  0.00993085  0.49071684  1
  Ag  Ag37  1  0.00367754  0.49539654  0.50616730  1
  Ag  Ag38  1  -0.00053962  0.82852727  0.83074685  1
  Ag  Ag39  1  0.32978194  0.66613539  0.00245162  1
  Ag  Ag40  1  0.16346807  0.00366290  0.48983129  1
  Ag  Ag41  1  0.16278779  0.83132696  0.65745555  1
  Ag  Ag42  1  0.32479389  0.49077393  0.83450982  1
  Ag  Ag43  1  0.33832038  0.16568469  0.17759712  1
  Ag  Ag44  1  0.17976014  0.15571124  0.33521683  1
  Ag  Ag45  1  0.83068633  0.33285255  0.17055098  1
  Ag  Ag46  1  0.00194526  0.17560784  0.83300707  1
  Ag  Ag47  1  0.33871469  0.16944463  0.48927441  1
  Ag  Ag48  1  0.66757999  0.00036864  0.33268663  1
  Ag  Ag49  1  0.16396546  0.84423616  0.33744903  1
  Ag  Ag50  1  -0.00160390  0.49948594  0.16930245  1
  Ag  Ag51  1  0.66774130  0.84641185  0.49741607  1
  Ag  Ag52  1  0.16646614  -0.00229520  0.17612425  1
  Ag  Ag53  1  0.83841476  0.84263367  0.33156519  1
  Sb  Sb54  1  0.49371341  0.66617038  0.16496941  1
  Sb  Sb55  1  0.83654937  0.16717844  0.66635856  1
  Sb  Sb56  1  0.67333188  0.49428197  0.49370933  1
  Sb  Sb57  1  0.32677160  0.49082674  0.50169875  1
  Sb  Sb58  1  0.00062320  0.83497853  0.50276523  1
  Sb  Sb59  1  0.84162667  0.83514233  0.66552498  1
  Sb  Sb60  1  -0.00384992  -0.00368960  -0.00003105  1
  Sb  Sb61  1  0.00418356  0.66977147  0.33458124  1
  Sb  Sb62  1  0.49331419  0.83623092  0.66933589  1
  Sb  Sb63  1  0.16851117  0.33291467  0.17074340  1
  Sb  Sb64  1  0.49727057  0.84555445  0.32987011  1
  Sb  Sb65  1  0.67654387  0.66789800  0.66694112  1
  Sb  Sb66  1  0.50181580  0.66391511  0.83728480  1
  Sb  Sb67  1  0.32313881  0.66038467  0.66715720  1
  Sb  Sb68  1  0.83130557  0.50239009  0.00319566  1
  Sb  Sb69  1  0.49102331  0.66553758  0.49784827  1
  Sb  Sb70  1  0.66708157  0.33257496  0.66663928  1
  Sb  Sb71  1  0.49128780  0.49623488  0.67158830  1
  Sb  Sb72  1  0.34039290  -0.00118557  0.00587314  1
  Sb  Sb73  1  0.66359397  0.67146858  0.33343395  1
  Sb  Sb74  1  0.33246988  0.84216032  0.49689519  1
  Sb  Sb75  1  0.49715012  0.16721224  0.66524823  1
  Sb  Sb76  1  0.32797754  0.00811486  0.66022353  1
  Sb  Sb77  1  0.66998331  0.00124369  0.66111807  1
  Sb  Sb78  1  0.84138499  0.66753021  0.50176715  1
  Sb  Sb79  1  0.66455366  0.32553384  0.33278732  1
  Sb  Sb80  1  0.33667360  0.33515684  -0.00299831  1
  Sb  Sb81  1  0.66741549  0.83515276  0.17016710  1
  Sb  Sb82  1  0.83954813  0.66665674  0.16431116  1
  Sb  Sb83  1  0.66378753  0.32711945  0.00109942  1
  Sb  Sb84  1  0.16294577  0.49934015  0.33828592  1
  Sb  Sb85  1  0.82713358  0.16281107  -0.00039583  1
  Sb  Sb86  1  0.00294531  0.16879278  0.16410692  1
  Sb  Sb87  1  0.66819581  0.49291163  0.83856540  1
  Sb  Sb88  1  -0.00192967  0.33888058  -0.00703835  1
  Sb  Sb89  1  0.66743104  0.67092258  0.00060208  1
  Sb  Sb90  1  0.50217769  0.49143081  0.32891265  1
  Sb  Sb91  1  0.65943957  0.16606701  0.16908735  1
  Sb  Sb92  1  0.16517547  0.83190217  0.00160963  1
  Sb  Sb93  1  0.83303573  0.16248364  0.33387790  1
  Sb  Sb94  1  0.00011538  0.83162810  0.16533024  1
  Sb  Sb95  1  0.32846841  0.83320255  0.83504031  1
  Sb  Sb96  1  0.16817172  0.50137600  -0.00412077  1
  Sb  Sb97  1  0.83220831  0.00330279  0.83219529  1
  Sb  Sb98  1  0.33283593  0.83970420  0.16797334  1
  Sb  Sb99  1  0.67100894  0.83985800  0.83086637  1
  Sb  Sb100  1  0.16692424  0.16987160  0.66025532  1
  Sb  Sb101  1  0.00231227  0.33029160  0.33817514  1
  Sb  Sb102  1  0.33136174  0.49568018  0.16395935  1
  Sb  Sb103  1  0.17370785  0.16541375  0.00273190  1
  Sb  Sb104  1  0.00272197  0.16753915  0.50264445  1
  Sb  Sb105  1  0.16896149  0.00632019  0.83101521  1
  Sb  Sb106  1  0.16075028  0.66228560  0.83113168  1
  Sb  Sb107  1  0.84207159  0.49738148  0.66367468  1
  Te  Te108  1  0.17150275  0.16353326  0.17045136  1
  Te  Te109  1  0.16768235  0.16643037  0.49523685  1
  Te  Te110  1  0.16420216  0.17126665  0.83579162  1
  Te  Te111  1  0.16169360  0.50257556  0.16604376  1
  Te  Te112  1  0.16303003  0.49437838  0.50410705  1
  Te  Te113  1  0.16541617  0.49694804  0.83018451  1
  Te  Te114  1  0.16634317  0.83373723  0.17145414  1
  Te  Te115  1  0.16686898  0.83539534  0.49753545  1
  Te  Te116  1  0.16090735  0.83632645  0.83293896  1
  Te  Te117  1  0.49973588  0.16753741  0.16684663  1
  Te  Te118  1  0.49876081  0.16862912  0.50082808  1
  Te  Te119  1  0.49934950  0.16771907  0.82991092  1
  Te  Te120  1  0.49967284  0.49561347  0.16229415  1
  Te  Te121  1  0.50273843  0.49470949  0.49996160  1
  Te  Te122  1  0.49957195  0.49508640  0.83898598  1
  Te  Te123  1  0.50069655  0.83754817  0.15983812  1
  Te  Te124  1  0.50412741  0.83455580  0.49991313  1
  Te  Te125  1  0.50069197  0.83454788  0.83815930  1
  Te  Te126  1  0.83271766  0.16807541  0.16582253  1
  Te  Te127  1  0.83393863  0.16652618  0.49925846  1
  Te  Te128  1  0.84037277  0.17269833  0.83418469  1
  Te  Te129  1  0.83636632  0.49963327  0.16845767  1
  Te  Te130  1  0.83840335  0.49873975  0.49332657  1
  Te  Te131  1  0.83580929  0.49648195  0.83469599  1
  Te  Te132  1  0.83307009  0.83657699  0.16786983  1
  Te  Te133  1  0.83170939  0.83540707  0.49682367  1
  Te  Te134  1  0.83743659  0.83447476  0.83538912  1
  Te  Te135  1  0.16701527  -0.00196386  0.00908031  1
  Te  Te136  1  0.16646294  -0.00062372  0.33249220  1
  Te  Te137  1  0.16293580  -0.00358493  0.66450870  1
  Te  Te138  1  0.16641931  0.33266136  -0.00367688  1
  Te  Te139  1  0.17106753  0.33182933  0.33746082  1
  Te  Te140  1  0.16545418  0.33303348  0.66544567  1
  Te  Te141  1  0.16641044  0.66767139  0.00397507  1
  Te  Te142  1  0.16803227  0.66523860  0.33455318  1
  Te  Te143  1  0.16158646  0.66739647  0.66368845  1
  Te  Te144  1  0.50120790  0.00348498  0.00082959  1
  Te  Te145  1  0.50380863  0.00240083  0.33259000  1
  Te  Te146  1  0.49721691  -0.00282361  0.66254580  1
  Te  Te147  1  0.50053541  0.33088614  0.00106949  1
  Te  Te148  1  0.49776086  0.32876297  0.33469478  1
  Te  Te149  1  0.49776993  0.33483297  0.66653033  1
  Te  Te150  1  0.49727205  0.66584324  0.00056554  1
  Te  Te151  1  0.49295549  0.66758889  0.33273380  1
  Te  Te152  1  0.49947506  0.66591601  0.66703628  1
  Te  Te153  1  0.82808748  -0.00471405  0.00090576  1
  Te  Te154  1  0.82846690  0.00054110  0.33385157  1
  Te  Te155  1  0.84203762  -0.00044091  0.65982045  1
  Te  Te156  1  0.83083837  0.33300752  0.00312769  1
  Te  Te157  1  0.83329632  0.33391530  0.33232944  1
  Te  Te158  1  0.83760744  0.33391782  0.66612245  1
  Te  Te159  1  0.83576445  0.67237934  -0.00283539  1
  Te  Te160  1  0.83254536  0.67072596  0.33285260  1
  Te  Te161  1  0.84362111  0.66697445  0.67303098  1
  Te  Te162  1  0.00094156  0.16567943  -0.00553794  1
  Te  Te163  1  0.00433174  0.16127359  0.33141821  1
  Te  Te164  1  0.00195278  0.16647191  0.67200672  1
  Te  Te165  1  -0.00071090  0.50554799  -0.00311236  1
  Te  Te166  1  -0.00414688  0.49951324  0.33199503  1
  Te  Te167  1  0.00248773  0.49767804  0.66701379  1
  Te  Te168  1  -0.00352593  0.82859618  -0.00428782  1
  Te  Te169  1  -0.00032347  0.83788972  0.33366009  1
  Te  Te170  1  0.00470449  0.83470643  0.66940631  1
  Te  Te171  1  0.33975245  0.16549903  -0.00691300  1
  Te  Te172  1  0.33637750  0.16648832  0.33356298  1
  Te  Te173  1  0.33137811  0.17360545  0.67676812  1
  Te  Te174  1  0.33720559  0.50444771  -0.00327860  1
  Te  Te175  1  0.33400554  0.50487596  0.33292603  1
  Te  Te176  1  0.32517167  0.49352692  0.67294571  1
  Te  Te177  1  0.33755963  0.82729473  -0.00008617  1
  Te  Te178  1  0.32831351  0.82731417  0.33323091  1
  Te  Te179  1  0.32392267  0.83205133  0.66616409  1
  Te  Te180  1  0.66050149  0.15989006  -0.00419673  1
  Te  Te181  1  0.66229413  0.16078023  0.33795643  1
  Te  Te182  1  0.66873686  0.16697237  0.66883923  1
  Te  Te183  1  0.66112679  0.50204937  0.00576042  1
  Te  Te184  1  0.67195821  0.50179453  0.32702947  1
  Te  Te185  1  0.66660708  0.50170988  0.66618033  1
  Te  Te186  1  0.66725038  0.83800081  -0.00058637  1
  Te  Te187  1  0.66851617  0.83788092  0.33687802  1
  Te  Te188  1  0.66591460  0.83265642  0.65865564  1
  Te  Te189  1  -0.00289137  0.00046414  0.16877615  1
  Te  Te190  1  0.00143123  0.00138568  0.49925790  1
  Te  Te191  1  0.00010043  -0.00035381  0.83135247  1
  Te  Te192  1  -0.00220762  0.33785653  0.16611022  1
  Te  Te193  1  -0.00173938  0.33407438  0.50278513  1
  Te  Te194  1  0.00115767  0.33612734  0.83147240  1
  Te  Te195  1  0.00514922  0.66264120  0.16574300  1
  Te  Te196  1  0.00602749  0.66176463  0.50274253  1
  Te  Te197  1  0.00022521  0.66510415  0.83331301  1
  Te  Te198  1  0.33581711  0.00454211  0.17130153  1
  Te  Te199  1  0.33245997  0.00690123  0.49560276  1
  Te  Te200  1  0.33812102  0.00148260  0.83197768  1
  Te  Te201  1  0.33532755  0.32852763  0.17072818  1
  Te  Te202  1  0.33147419  0.33055030  0.49994578  1
  Te  Te203  1  0.33307954  0.33463786  0.83480872  1
  Te  Te204  1  0.32790378  0.66560879  0.16544169  1
  Te  Te205  1  0.32560142  0.66508144  0.49815913  1
  Te  Te206  1  0.33250032  0.66412042  0.83661875  1
  Te  Te207  1  0.66804780  0.00052504  0.16801826  1
  Te  Te208  1  0.66700315  0.00395897  0.50034724  1
  Te  Te209  1  0.66259004  0.00490441  0.83001885  1
  Te  Te210  1  0.66863936  0.33544485  0.16732078  1
  Te  Te211  1  0.67389269  0.32804705  0.49999556  1
  Te  Te212  1  0.66694140  0.32741781  0.83369030  1
  Te  Te213  1  0.66589492  0.65969386  0.16723875  1
  Te  Te214  1  0.66610841  0.66737277  0.50050197  1
  Te  Te215  1  0.67641442  0.66656738  0.83305251  1
