# generated using pymatgen
data_AgSbTe2
_symmetry_space_group_name_H-M   'P 1'
_cell_length_a   18.33895594
_cell_length_b   18.33666853
_cell_length_c   18.33876789
_cell_angle_alpha   89.99798339
_cell_angle_beta   89.99825810
_cell_angle_gamma   90.00024206
_symmetry_Int_Tables_number   1
_chemical_formula_structural   AgSbTe2
_chemical_formula_sum   'Ag54 Sb54 Te108'
_cell_volume   6166.87569522
_cell_formula_units_Z   54
loop_
 _symmetry_equiv_pos_site_id
 _symmetry_equiv_pos_as_xyz
  1  'x, y, z'
loop_
 _atom_site_type_symbol
 _atom_site_label
 _atom_site_symmetry_multiplicity
 _atom_site_fract_x
 _atom_site_fract_y
 _atom_site_fract_z
 _atom_site_occupancy
  Ag  Ag0  1  0.83410661  0.82683225  0.32561967  1
  Ag  Ag1  1  0.82580477  0.16946473  0.66825108  1
  Ag  Ag2  1  -0.01402485  0.83265464  0.83847806  1
  Ag  Ag3  1  0.67010403  0.15505281  0.83299960  1
  Ag  Ag4  1  0.66605003  0.50535913  0.16347186  1
  Ag  Ag5  1  0.83315281  0.33362445  0.49872098  1
  Ag  Ag6  1  0.66749249  -0.00731578  -0.00583171  1
  Ag  Ag7  1  0.01012064  0.33233809  -0.00228175  1
  Ag  Ag8  1  0.16339216  0.33393515  0.15657176  1
  Ag  Ag9  1  0.66860399  0.83541263  0.50224814  1
  Ag  Ag10  1  0.33253352  0.49581972  0.15820738  1
  Ag  Ag11  1  0.34188115  0.83087313  0.83662333  1
  Ag  Ag12  1  0.33264639  0.49280272  0.49989920  1
  Ag  Ag13  1  0.50335003  -0.00287379  0.15761139  1
  Ag  Ag14  1  0.16473703  0.65902999  0.16727238  1
  Ag  Ag15  1  0.82761243  0.66146354  0.49273682  1
  Ag  Ag16  1  0.83000991  0.16614974  -0.00074191  1
  Ag  Ag17  1  0.33208705  0.17476395  0.16555251  1
  Ag  Ag18  1  0.51124769  0.83358690  -0.00224702  1
  Ag  Ag19  1  0.16424156  0.17542710  -0.00113818  1
  Ag  Ag20  1  0.16252279  0.16792375  0.33046147  1
  Ag  Ag21  1  0.51371060  0.66899213  0.16037374  1
  Ag  Ag22  1  0.66242452  0.50210322  0.83857609  1
  Ag  Ag23  1  -0.00298450  0.33170140  0.66972546  1
  Ag  Ag24  1  0.66773305  0.00692414  0.68142497  1
  Ag  Ag25  1  0.16948291  0.32992573  0.84555237  1
  Ag  Ag26  1  0.66841820  0.67080011  -0.00078726  1
  Ag  Ag27  1  0.66879253  0.16683402  0.50782639  1
  Ag  Ag28  1  0.83030334  0.66613594  0.16994231  1
  Ag  Ag29  1  0.51111254  -0.00270432  0.83656404  1
  Ag  Ag30  1  0.32341504  0.33356473  -0.00115553  1
  Ag  Ag31  1  0.66690603  0.84045660  0.84014636  1
  Ag  Ag32  1  0.16909146  0.48778299  0.00137533  1
  Ag  Ag33  1  0.67364112  0.32638559  0.67037875  1
  Ag  Ag34  1  -0.00997371  0.66933582  0.32883852  1
  Ag  Ag35  1  0.66909309  0.49889864  0.50145829  1
  Ag  Ag36  1  0.16350304  0.17225240  0.67550951  1
  Ag  Ag37  1  -0.01064145  0.49530130  0.49944425  1
  Ag  Ag38  1  0.50661863  0.00119870  0.50405975  1
  Ag  Ag39  1  0.67027192  0.17054383  0.16310142  1
  Ag  Ag40  1  0.67302119  0.66775417  0.31977498  1
  Ag  Ag41  1  0.83331101  0.33129189  0.16553968  1
  Ag  Ag42  1  0.50997479  0.67320605  0.84104735  1
  Ag  Ag43  1  0.83227158  0.16453892  0.33219898  1
  Ag  Ag44  1  0.16786361  0.00799322  0.83473127  1
  Ag  Ag45  1  0.50318906  0.33535762  0.83471960  1
  Ag  Ag46  1  0.82521877  0.67459912  0.84362024  1
  Ag  Ag47  1  0.16114351  0.33168008  0.50057790  1
  Ag  Ag48  1  0.33294095  0.17369019  0.49587789  1
  Ag  Ag49  1  -0.00330092  0.82850101  0.16325684  1
  Ag  Ag50  1  0.82295956  -0.00346948  0.83609934  1
  Ag  Ag51  1  0.15939511  0.83485638  0.33132962  1
  Ag  Ag52  1  0.82902521  0.83392790  -0.00249631  1
  Ag  Ag53  1  0.33928299  0.49784844  0.84084653  1
  Sb  Sb54  1  0.50956985  0.66932917  0.49907208  1
  Sb  Sb55  1  0.33161062  0.83131808  0.16181137  1
  Sb  Sb56  1  0.83039486  0.83806806  0.67213276  1
  Sb  Sb57  1  0.50416287  0.16503532  0.33269690  1
  Sb  Sb58  1  0.16309571  0.83536213  0.00137893  1
  Sb  Sb59  1  0.50226605  0.49847406  0.67042562  1
  Sb  Sb60  1  0.33836581  0.66246459  0.00071973  1
  Sb  Sb61  1  0.33308770  0.00173739  0.33232545  1
  Sb  Sb62  1  0.16572344  0.66509914  0.84061237  1
  Sb  Sb63  1  -0.00819135  0.82613195  0.49902074  1
  Sb  Sb64  1  0.33222397  0.66462615  0.66899122  1
  Sb  Sb65  1  0.16422831  0.84129233  0.66647105  1
  Sb  Sb66  1  -0.00286683  0.16599755  0.83415293  1
  Sb  Sb67  1  0.17075851  0.00540171  0.16204914  1
  Sb  Sb68  1  -0.00367711  0.66156182  0.66437271  1
  Sb  Sb69  1  -0.00166267  0.33667376  0.33255790  1
  Sb  Sb70  1  0.33019148  0.33234330  0.32801909  1
  Sb  Sb71  1  -0.00150558  -0.00507928  0.33275991  1
  Sb  Sb72  1  0.33809179  0.83384014  0.50249257  1
  Sb  Sb73  1  0.83326845  0.50427558  0.33409971  1
  Sb  Sb74  1  0.66851276  -0.00391990  0.32953734  1
  Sb  Sb75  1  0.33095488  0.33055199  0.67050217  1
  Sb  Sb76  1  0.16679533  0.49198690  0.67031861  1
  Sb  Sb77  1  0.33379301  0.66564418  0.33059858  1
  Sb  Sb78  1  -0.00163400  0.50089939  0.83195346  1
  Sb  Sb79  1  0.83073543  0.49323261  0.66536153  1
  Sb  Sb80  1  0.16142829  0.65952094  0.49189797  1
  Sb  Sb81  1  0.82753499  0.00034624  0.16103508  1
  Sb  Sb82  1  0.16622513  0.49681175  0.32857345  1
  Sb  Sb83  1  -0.00569254  0.00712024  0.67073844  1
  Sb  Sb84  1  0.66942383  0.66579708  0.67387646  1
  Sb  Sb85  1  0.33481145  0.16936787  0.83600555  1
  Sb  Sb86  1  0.50507334  0.83511845  0.67734184  1
  Sb  Sb87  1  -0.00569630  0.66455189  0.00480772  1
  Sb  Sb88  1  -0.00545565  0.00309463  -0.00232536  1
  Sb  Sb89  1  0.33863484  0.00463877  -0.00197793  1
  Sb  Sb90  1  0.82659345  0.00263978  0.50487680  1
  Sb  Sb91  1  0.83146953  0.33099144  0.83387334  1
  Sb  Sb92  1  0.17256527  0.00967623  0.50366046  1
  Sb  Sb93  1  0.67131801  0.33554776  0.33582093  1
  Sb  Sb94  1  0.83451501  0.49909167  0.00093449  1
  Sb  Sb95  1  0.50066850  0.33446734  0.15875856  1
  Sb  Sb96  1  0.67208239  0.83064553  0.16125683  1
  Sb  Sb97  1  -0.00381779  0.17270391  0.50072458  1
  Sb  Sb98  1  0.50437778  0.16221557  -0.00058045  1
  Sb  Sb99  1  -0.00056971  0.50206266  0.16922772  1
  Sb  Sb100  1  0.50435171  0.16607449  0.66796937  1
  Sb  Sb101  1  -0.00180489  0.16588826  0.16560811  1
  Sb  Sb102  1  0.49827000  0.50406956  -0.00144679  1
  Sb  Sb103  1  0.50405209  0.33016280  0.50779039  1
  Sb  Sb104  1  0.66687586  0.33283971  -0.00455039  1
  Sb  Sb105  1  0.50214712  0.50153202  0.33164154  1
  Sb  Sb106  1  0.50494548  0.83267936  0.32781523  1
  Sb  Sb107  1  0.33938267  0.00407555  0.66992875  1
  Te  Te108  1  0.16726311  0.16971038  0.16627169  1
  Te  Te109  1  0.16672908  0.17025554  0.49385847  1
  Te  Te110  1  0.16708716  0.16984069  0.83568926  1
  Te  Te111  1  0.16740386  0.49598792  0.16430117  1
  Te  Te112  1  0.17322769  0.49529773  0.49973925  1
  Te  Te113  1  0.16828653  0.49665669  0.83739511  1
  Te  Te114  1  0.16391784  0.83595386  0.16953747  1
  Te  Te115  1  0.16761174  0.83359335  0.49523709  1
  Te  Te116  1  0.17129563  0.83246878  0.83260209  1
  Te  Te117  1  0.49922945  0.16579213  0.16680251  1
  Te  Te118  1  0.50161392  0.16280714  0.49933311  1
  Te  Te119  1  0.50344757  0.16204790  0.83393916  1
  Te  Te120  1  0.50065534  0.50385904  0.16536909  1
  Te  Te121  1  0.50180985  0.50028410  0.49990292  1
  Te  Te122  1  0.49940894  0.49895934  0.83403889  1
  Te  Te123  1  0.49783384  0.83248251  0.16094263  1
  Te  Te124  1  0.50410523  0.83793232  0.49783011  1
  Te  Te125  1  0.50383078  0.83409007  0.83797866  1
  Te  Te126  1  0.83205254  0.16694789  0.16418704  1
  Te  Te127  1  0.82988594  0.16916663  0.50067443  1
  Te  Te128  1  0.83100724  0.16635475  0.83556725  1
  Te  Te129  1  0.82991037  0.49784785  0.16742612  1
  Te  Te130  1  0.82968545  0.49566858  0.49953691  1
  Te  Te131  1  0.82968184  0.50681904  0.83278338  1
  Te  Te132  1  0.83581962  0.83342483  0.16621540  1
  Te  Te133  1  0.82856255  0.83305265  0.49813325  1
  Te  Te134  1  0.82816122  0.83413619  0.83485206  1
  Te  Te135  1  0.16622750  0.00430487  -0.00567855  1
  Te  Te136  1  0.16582717  0.00225859  0.33391900  1
  Te  Te137  1  0.16610282  0.00900170  0.67176760  1
  Te  Te138  1  0.16687682  0.33129498  0.00141590  1
  Te  Te139  1  0.16442770  0.32804105  0.34000060  1
  Te  Te140  1  0.16466616  0.32896923  0.65804996  1
  Te  Te141  1  0.16524645  0.66663374  0.00795910  1
  Te  Te142  1  0.16596001  0.66910533  0.32667246  1
  Te  Te143  1  0.16416461  0.66775430  0.66433114  1
  Te  Te144  1  0.50393206  -0.00354754  -0.00215138  1
  Te  Te145  1  0.50049754  -0.00211672  0.33164765  1
  Te  Te146  1  0.50720277  0.00033006  0.66847638  1
  Te  Te147  1  0.49511232  0.33104663  -0.00706611  1
  Te  Te148  1  0.50018863  0.33302331  0.33367600  1
  Te  Te149  1  0.50706699  0.33208042  0.67611140  1
  Te  Te150  1  0.50338233  0.67100092  0.00029645  1
  Te  Te151  1  0.50681865  0.66860188  0.32620729  1
  Te  Te152  1  0.49963870  0.66743771  0.67515557  1
  Te  Te153  1  0.82920107  0.00130474  -0.00412670  1
  Te  Te154  1  0.83410274  0.00300571  0.33353960  1
  Te  Te155  1  0.82842320  0.00775261  0.67277867  1
  Te  Te156  1  0.83430368  0.33106543  0.00388220  1
  Te  Te157  1  0.83442337  0.32563082  0.33103850  1
  Te  Te158  1  0.83448285  0.32816633  0.66665063  1
  Te  Te159  1  0.83026680  0.66664565  0.00213421  1
  Te  Te160  1  0.83051755  0.66792674  0.33239801  1
  Te  Te161  1  0.83422306  0.66760748  0.65963985  1
  Te  Te162  1  -0.00129412  0.17132201  0.00013946  1
  Te  Te163  1  -0.00157519  0.16525024  0.33307856  1
  Te  Te164  1  0.00147466  0.17340120  0.66726257  1
  Te  Te165  1  0.00643605  0.49447627  0.00015254  1
  Te  Te166  1  0.00161677  0.50791714  0.33970944  1
  Te  Te167  1  -0.00000490  0.49223882  0.66053922  1
  Te  Te168  1  -0.00568607  0.83344133  -0.00133584  1
  Te  Te169  1  -0.00284146  0.82901385  0.33299351  1
  Te  Te170  1  -0.00099416  0.83410251  0.67338705  1
  Te  Te171  1  0.32997942  0.17085692  0.00311993  1
  Te  Te172  1  0.33022034  0.16702149  0.33296735  1
  Te  Te173  1  0.32537858  0.16701969  0.65913878  1
  Te  Te174  1  0.33065929  0.49737289  0.00046564  1
  Te  Te175  1  0.33385915  0.49965616  0.33653816  1
  Te  Te176  1  0.33362550  0.49860503  0.66343732  1
  Te  Te177  1  0.33252940  0.83397001  -0.00527973  1
  Te  Te178  1  0.32590695  0.83358008  0.33377512  1
  Te  Te179  1  0.33280467  0.83396714  0.67420068  1
  Te  Te180  1  0.66943384  0.16763194  -0.00032941  1
  Te  Te181  1  0.67061676  0.16762181  0.32871214  1
  Te  Te182  1  0.66704490  0.16633566  0.66867679  1
  Te  Te183  1  0.66710866  0.50358434  0.00146066  1
  Te  Te184  1  0.66701166  0.50632691  0.33167297  1
  Te  Te185  1  0.66668423  0.49400717  0.66342653  1
  Te  Te186  1  0.66987550  0.83225004  -0.00000241  1
  Te  Te187  1  0.67161192  0.82865814  0.33645465  1
  Te  Te188  1  0.66732376  0.83971587  0.66227198  1
  Te  Te189  1  0.00181577  -0.01020713  0.16525418  1
  Te  Te190  1  0.00176163  -0.00277916  0.50268016  1
  Te  Te191  1  0.00647000  -0.00711539  0.83295529  1
  Te  Te192  1  -0.00099928  0.33398649  0.16458290  1
  Te  Te193  1  -0.00407644  0.33676787  0.49913022  1
  Te  Te194  1  0.00384033  0.33479865  0.83356088  1
  Te  Te195  1  -0.00272560  0.66821371  0.16917718  1
  Te  Te196  1  -0.00679637  0.65912192  0.49594501  1
  Te  Te197  1  -0.00403258  0.67046291  0.83311149  1
  Te  Te198  1  0.34031137  0.00474686  0.16555337  1
  Te  Te199  1  0.34212296  0.00297034  0.50151411  1
  Te  Te200  1  0.32977550  -0.00125666  0.83308282  1
  Te  Te201  1  0.33288388  0.33508452  0.16279996  1
  Te  Te202  1  0.33754942  0.33221636  0.50056698  1
  Te  Te203  1  0.33103476  0.33568209  0.83562984  1
  Te  Te204  1  0.32684962  0.66122045  0.16676534  1
  Te  Te205  1  0.33615237  0.66318888  0.49995670  1
  Te  Te206  1  0.33500203  0.66236116  0.83420734  1
  Te  Te207  1  0.66235823  0.00516378  0.16274355  1
  Te  Te208  1  0.66415842  0.00396847  0.49597362  1
  Te  Te209  1  0.66687600  -0.00044124  0.83712006  1
  Te  Te210  1  0.66840224  0.33302332  0.16617040  1
  Te  Te211  1  0.66950475  0.33176726  0.50222668  1
  Te  Te212  1  0.66684769  0.34194897  0.83117964  1
  Te  Te213  1  0.66989872  0.66738463  0.16274765  1
  Te  Te214  1  0.66874986  0.66328406  0.50619563  1
  Te  Te215  1  0.66776065  0.66271539  0.83398510  1
