# generated using pymatgen
data_AgSbTe2
_symmetry_space_group_name_H-M   'P 1'
_cell_length_a   18.31806893
_cell_length_b   18.32309613
_cell_length_c   18.32415848
_cell_angle_alpha   90.00096867
_cell_angle_beta   89.99947713
_cell_angle_gamma   90.00341912
_symmetry_Int_Tables_number   1
_chemical_formula_structural   AgSbTe2
_chemical_formula_sum   'Ag54 Sb54 Te108'
_cell_volume   6150.38903354
_cell_formula_units_Z   54
loop_
 _symmetry_equiv_pos_site_id
 _symmetry_equiv_pos_as_xyz
  1  'x, y, z'
loop_
 _atom_site_type_symbol
 _atom_site_label
 _atom_site_symmetry_multiplicity
 _atom_site_fract_x
 _atom_site_fract_y
 _atom_site_fract_z
 _atom_site_occupancy
  Ag  Ag0  1  0.17497130  0.33372737  0.16256687  1
  Ag  Ag1  1  0.17962589  0.66371138  0.50775871  1
  Ag  Ag2  1  0.82880924  0.82749243  0.32992911  1
  Ag  Ag3  1  0.33696763  0.66894792  -0.00147962  1
  Ag  Ag4  1  0.17040517  0.17154343  0.00291151  1
  Ag  Ag5  1  0.82442355  0.83519684  0.66586647  1
  Ag  Ag6  1  -0.00481445  0.49950032  0.16672886  1
  Ag  Ag7  1  0.49771702  0.17130559  0.33436108  1
  Ag  Ag8  1  0.65911361  0.49918857  0.50370417  1
  Ag  Ag9  1  0.33281860  0.17122649  0.49850709  1
  Ag  Ag10  1  0.16847089  0.33921339  0.83447712  1
  Ag  Ag11  1  0.83035244  0.50288754  0.32650902  1
  Ag  Ag12  1  0.66197580  -0.00876913  -0.00498679  1
  Ag  Ag13  1  -0.00327069  0.00672610  0.33085390  1
  Ag  Ag14  1  0.83546565  0.33429417  0.82965124  1
  Ag  Ag15  1  0.33980960  0.82468036  0.16405665  1
  Ag  Ag16  1  0.66261111  0.82416406  0.16448908  1
  Ag  Ag17  1  0.33506630  0.33774652  0.66554931  1
  Ag  Ag18  1  0.00605710  0.17193716  0.49267336  1
  Ag  Ag19  1  0.83085959  0.66402108  0.16487874  1
  Ag  Ag20  1  0.34083081  0.66882725  0.65816993  1
  Ag  Ag21  1  -0.00136214  0.33350785  0.66300263  1
  Ag  Ag22  1  0.33648528  0.66821141  0.34620093  1
  Ag  Ag23  1  -0.00197631  0.66590005  0.00396649  1
  Ag  Ag24  1  0.32998581  0.17866802  0.16728631  1
  Ag  Ag25  1  0.66627737  0.33885684  0.33548032  1
  Ag  Ag26  1  0.33825051  -0.00983395  -0.00156047  1
  Ag  Ag27  1  0.66548874  -0.00981461  0.67139991  1
  Ag  Ag28  1  0.66381731  0.34103526  0.66313677  1
  Ag  Ag29  1  0.49736171  0.33888558  0.49807033  1
  Ag  Ag30  1  -0.00312107  0.82649142  0.16835250  1
  Ag  Ag31  1  -0.00529624  0.33110816  0.33258853  1
  Ag  Ag32  1  0.49779472  0.82997744  0.00421688  1
  Ag  Ag33  1  0.65747474  0.66544140  0.67144905  1
  Ag  Ag34  1  0.17829831  0.66045878  0.83087492  1
  Ag  Ag35  1  0.33681861  0.81925599  0.50535515  1
  Ag  Ag36  1  0.33844889  0.50632063  0.49867786  1
  Ag  Ag37  1  0.66912941  0.50208532  0.82751011  1
  Ag  Ag38  1  0.00440767  0.17719449  0.17189213  1
  Ag  Ag39  1  0.49966392  0.83316815  0.32988591  1
  Ag  Ag40  1  0.33402643  0.49871663  0.16791979  1
  Ag  Ag41  1  0.82966238  0.50236503  0.00674330  1
  Ag  Ag42  1  0.49895991  0.82873593  0.66601369  1
  Ag  Ag43  1  0.67274171  0.50459734  0.16683807  1
  Ag  Ag44  1  0.66256703  0.66769375  0.00031490  1
  Ag  Ag45  1  0.82990026  -0.00150420  0.83124805  1
  Ag  Ag46  1  0.49395553  0.66380261  0.50477658  1
  Ag  Ag47  1  0.83205090  0.16831220  0.66696643  1
  Ag  Ag48  1  0.33833150  -0.01248573  0.66935289  1
  Ag  Ag49  1  0.33542787  0.82697789  0.83176646  1
  Ag  Ag50  1  0.33247873  0.33570747  0.00598467  1
  Ag  Ag51  1  0.49337082  0.33490770  0.17253937  1
  Ag  Ag52  1  0.49453037  0.66950938  0.82712968  1
  Ag  Ag53  1  0.17086373  0.49933949  0.66674306  1
  Sb  Sb54  1  0.00334687  0.83498861  0.49536799  1
  Sb  Sb55  1  0.83165163  0.49943279  0.66646409  1
  Sb  Sb56  1  0.33295937  0.16654407  0.83385992  1
  Sb  Sb57  1  0.17248220  0.33789810  0.50035634  1
  Sb  Sb58  1  0.65973221  0.82661870  0.50017052  1
  Sb  Sb59  1  0.00121760  0.66285541  0.67094338  1
  Sb  Sb60  1  0.17012671  0.83056495  0.33131725  1
  Sb  Sb61  1  0.49973617  0.66470851  0.16726917  1
  Sb  Sb62  1  0.66211390  0.33885907  0.00021247  1
  Sb  Sb63  1  0.49680939  0.50629154  0.66396058  1
  Sb  Sb64  1  0.00032284  0.16914781  0.83448087  1
  Sb  Sb65  1  0.16582896  0.49910967  0.33389183  1
  Sb  Sb66  1  0.50309227  -0.00688179  0.83322363  1
  Sb  Sb67  1  0.00176894  0.66441803  0.32784746  1
  Sb  Sb68  1  0.00210978  0.83114292  0.83703905  1
  Sb  Sb69  1  0.66137110  0.82696918  0.83480299  1
  Sb  Sb70  1  0.82733388  0.82817859  0.00088781  1
  Sb  Sb71  1  0.16973367  -0.00247815  0.50114927  1
  Sb  Sb72  1  -0.00341320  0.49908900  0.83834469  1
  Sb  Sb73  1  0.33156743  -0.00366832  0.33228087  1
  Sb  Sb74  1  -0.00230894  0.00517981  0.66331820  1
  Sb  Sb75  1  0.16707104  0.49871693  -0.00259095  1
  Sb  Sb76  1  0.49881033  -0.00163599  0.16612037  1
  Sb  Sb77  1  0.66120107  0.66221391  0.33212547  1
  Sb  Sb78  1  0.00121900  0.49631469  0.49597275  1
  Sb  Sb79  1  0.66335753  0.17287091  0.50095741  1
  Sb  Sb80  1  0.33721684  0.33805370  0.33233095  1
  Sb  Sb81  1  0.33586521  0.50647350  0.83183373  1
  Sb  Sb82  1  0.83625555  0.17051978  -0.00254643  1
  Sb  Sb83  1  0.49352651  0.16337476  0.00670888  1
  Sb  Sb84  1  0.83082182  0.66549949  0.49666081  1
  Sb  Sb85  1  0.16576509  0.17430540  0.66933699  1
  Sb  Sb86  1  0.66939637  -0.00077531  0.33365494  1
  Sb  Sb87  1  0.17327674  0.82608589  0.66661423  1
  Sb  Sb88  1  0.00021670  -0.00398736  0.00521801  1
  Sb  Sb89  1  0.49793552  -0.00316776  0.50124789  1
  Sb  Sb90  1  0.83254804  -0.00013044  0.50430264  1
  Sb  Sb91  1  0.16796802  0.00516435  0.16535478  1
  Sb  Sb92  1  0.66751498  0.17030216  0.83226567  1
  Sb  Sb93  1  0.16890064  0.66154694  0.16396627  1
  Sb  Sb94  1  0.00438526  0.33730476  0.00282804  1
  Sb  Sb95  1  0.49788118  0.34154034  0.83096308  1
  Sb  Sb96  1  0.83336728  -0.00712916  0.16257414  1
  Sb  Sb97  1  0.50115586  0.16491699  0.66110050  1
  Sb  Sb98  1  0.83296132  0.34083793  0.16469198  1
  Sb  Sb99  1  0.16781451  -0.00013691  0.83388892  1
  Sb  Sb100  1  0.82979636  0.66548254  0.83711558  1
  Sb  Sb101  1  0.83377028  0.16843065  0.33664885  1
  Sb  Sb102  1  0.66591488  0.16924470  0.16669584  1
  Sb  Sb103  1  0.82921867  0.33413986  0.50393174  1
  Sb  Sb104  1  0.50358844  0.50029652  0.33345263  1
  Sb  Sb105  1  0.17610074  0.83274786  0.00156883  1
  Sb  Sb106  1  0.50174727  0.50664802  0.00209353  1
  Sb  Sb107  1  0.16998855  0.16989530  0.32997984  1
  Te  Te108  1  0.16826180  0.17149312  0.16432814  1
  Te  Te109  1  0.16786171  0.16712940  0.50086583  1
  Te  Te110  1  0.16633810  0.17347225  0.83969163  1
  Te  Te111  1  0.16923796  0.49408064  0.16624763  1
  Te  Te112  1  0.17066540  0.50409011  0.50330627  1
  Te  Te113  1  0.16503926  0.49890663  0.82969203  1
  Te  Te114  1  0.16493925  0.83341889  0.16640474  1
  Te  Te115  1  0.17412914  0.82714438  0.49929902  1
  Te  Te116  1  0.17221553  0.82891649  0.83380580  1
  Te  Te117  1  0.49721454  0.17132136  0.17292668  1
  Te  Te118  1  0.49604506  0.17054898  0.49525711  1
  Te  Te119  1  0.49975096  0.16716584  0.83407893  1
  Te  Te120  1  0.49471659  0.49473910  0.16748026  1
  Te  Te121  1  0.49913512  0.49982461  0.49927474  1
  Te  Te122  1  0.50959582  0.50868903  0.83470310  1
  Te  Te123  1  0.50074929  0.83273600  0.16738836  1
  Te  Te124  1  0.49540288  0.83050432  0.50053761  1
  Te  Te125  1  0.49535014  0.82814401  0.83107288  1
  Te  Te126  1  0.83914521  0.16633546  0.16677605  1
  Te  Te127  1  0.83840238  0.16674484  0.50541507  1
  Te  Te128  1  0.83406888  0.17083203  0.82894682  1
  Te  Te129  1  0.83341971  0.50229730  0.16642736  1
  Te  Te130  1  0.82918637  0.50058425  0.49232180  1
  Te  Te131  1  0.82927765  0.49734064  0.83604262  1
  Te  Te132  1  0.83220878  0.82765061  0.16777435  1
  Te  Te133  1  0.83373576  0.83282894  0.49876570  1
  Te  Te134  1  0.83396231  0.83550054  0.82897800  1
  Te  Te135  1  0.17281564  0.00654076  -0.00217085  1
  Te  Te136  1  0.15701637  -0.00052089  0.33351792  1
  Te  Te137  1  0.17285634  0.00065993  0.66886007  1
  Te  Te138  1  0.17058518  0.33330470  -0.00028211  1
  Te  Te139  1  0.15755553  0.33394203  0.32835052  1
  Te  Te140  1  0.17075499  0.33744530  0.66757162  1
  Te  Te141  1  0.17084209  0.66582704  -0.00452272  1
  Te  Te142  1  0.17425779  0.66507827  0.33685710  1
  Te  Te143  1  0.16647872  0.66109617  0.66958827  1
  Te  Te144  1  0.49994348  -0.00558425  -0.00052915  1
  Te  Te145  1  0.50141382  -0.00389634  0.33376911  1
  Te  Te146  1  0.49914296  -0.00462057  0.66752864  1
  Te  Te147  1  0.49339989  0.33182602  0.00070806  1
  Te  Te148  1  0.50247833  0.33322340  0.33435556  1
  Te  Te149  1  0.50019649  0.33176502  0.66397851  1
  Te  Te150  1  0.50170587  0.67101904  0.00040953  1
  Te  Te151  1  0.49613634  0.67246723  0.33863605  1
  Te  Te152  1  0.50018415  0.66904531  0.66572584  1
  Te  Te153  1  0.82997956  0.00098623  -0.00673346  1
  Te  Te154  1  0.83646738  -0.00366686  0.33275016  1
  Te  Te155  1  0.83188252  -0.00105881  0.67032631  1
  Te  Te156  1  0.83197550  0.33768065  -0.00798083  1
  Te  Te157  1  0.83131155  0.33570306  0.33398869  1
  Te  Te158  1  0.83078921  0.33363162  0.66946189  1
  Te  Te159  1  0.83006365  0.66334685  0.00378860  1
  Te  Te160  1  0.83326595  0.66742102  0.32873733  1
  Te  Te161  1  0.83230673  0.67111757  0.66641532  1
  Te  Te162  1  0.00474468  0.16570116  0.00789905  1
  Te  Te163  1  -0.00056227  0.16961991  0.33223962  1
  Te  Te164  1  -0.00287994  0.17194663  0.66437300  1
  Te  Te165  1  -0.00399572  0.50436179  0.00585182  1
  Te  Te166  1  -0.00470266  0.49640954  0.32840067  1
  Te  Te167  1  0.00182369  0.49381244  0.66535081  1
  Te  Te168  1  -0.00081524  0.82823447  0.00579944  1
  Te  Te169  1  -0.00355321  0.83233384  0.32968180  1
  Te  Te170  1  -0.00423052  0.83445540  0.66616101  1
  Te  Te171  1  0.33114309  0.17080205  0.00303890  1
  Te  Te172  1  0.33645627  0.16439370  0.33119366  1
  Te  Te173  1  0.33360314  0.17318276  0.66485457  1
  Te  Te174  1  0.33439958  0.49884318  0.00262524  1
  Te  Te175  1  0.33296656  0.50526610  0.33253372  1
  Te  Te176  1  0.33192398  0.49919315  0.66637666  1
  Te  Te177  1  0.33627057  0.83293131  0.00225991  1
  Te  Te178  1  0.33699318  0.83232210  0.32908560  1
  Te  Te179  1  0.33481463  0.82983451  0.66587331  1
  Te  Te180  1  0.66604825  0.15887804  0.00053990  1
  Te  Te181  1  0.66229344  0.17039280  0.33335930  1
  Te  Te182  1  0.67077640  0.16925481  0.66584197  1
  Te  Te183  1  0.66808614  0.50334864  0.00658810  1
  Te  Te184  1  0.66966784  0.49832034  0.32924683  1
  Te  Te185  1  0.66834516  0.50085614  0.66462597  1
  Te  Te186  1  0.66250452  0.83079777  0.00111281  1
  Te  Te187  1  0.66658531  0.83374807  0.33056217  1
  Te  Te188  1  0.66497482  0.83056225  0.66698582  1
  Te  Te189  1  0.00057009  -0.00405100  0.17003768  1
  Te  Te190  1  0.00160613  0.00511060  0.49422559  1
  Te  Te191  1  -0.00577470  0.00018813  0.83376804  1
  Te  Te192  1  -0.00141558  0.33569337  0.16729812  1
  Te  Te193  1  0.00167117  0.33077518  0.50028315  1
  Te  Te194  1  0.00145883  0.33321376  0.82979928  1
  Te  Te195  1  0.00160145  0.66467702  0.16382548  1
  Te  Te196  1  0.00424014  0.66625210  0.50002154  1
  Te  Te197  1  0.00428241  0.66623179  0.84064508  1
  Te  Te198  1  0.33319686  -0.00301116  0.16281929  1
  Te  Te199  1  0.33259248  0.00929029  0.50383567  1
  Te  Te200  1  0.33330133  -0.00475750  0.83306145  1
  Te  Te201  1  0.33400717  0.33573461  0.16998617  1
  Te  Te202  1  0.33690733  0.33239134  0.49905612  1
  Te  Te203  1  0.33093230  0.33554167  0.83038449  1
  Te  Te204  1  0.33288629  0.66511588  0.15754245  1
  Te  Te205  1  0.33505543  0.66308700  0.50267913  1
  Te  Te206  1  0.33479901  0.66610500  0.83737264  1
  Te  Te207  1  0.66686768  -0.00417651  0.16354854  1
  Te  Te208  1  0.66579497  0.00074048  0.50844971  1
  Te  Te209  1  0.66909779  0.00050936  0.83136290  1
  Te  Te210  1  0.66351997  0.33738911  0.16832266  1
  Te  Te211  1  0.66250648  0.33767992  0.50077060  1
  Te  Te212  1  0.66624181  0.33922798  0.83079494  1
  Te  Te213  1  0.66650048  0.66587476  0.16622113  1
  Te  Te214  1  0.66326555  0.66015826  0.50378488  1
  Te  Te215  1  0.66552293  0.66289049  0.83317189  1
