# generated using pymatgen
data_AgSbTe2
_symmetry_space_group_name_H-M   'P 1'
_cell_length_a   18.33292358
_cell_length_b   18.32937603
_cell_length_c   18.33954273
_cell_angle_alpha   90.00157865
_cell_angle_beta   90.00144062
_cell_angle_gamma   90.00092946
_symmetry_Int_Tables_number   1
_chemical_formula_structural   AgSbTe2
_chemical_formula_sum   'Ag54 Sb54 Te108'
_cell_volume   6162.65579662
_cell_formula_units_Z   54
loop_
 _symmetry_equiv_pos_site_id
 _symmetry_equiv_pos_as_xyz
  1  'x, y, z'
loop_
 _atom_site_type_symbol
 _atom_site_label
 _atom_site_symmetry_multiplicity
 _atom_site_fract_x
 _atom_site_fract_y
 _atom_site_fract_z
 _atom_site_occupancy
  Ag  Ag0  1  0.65880947  0.16965907  0.49878411  1
  Ag  Ag1  1  0.33381922  0.48982490  0.50102483  1
  Ag  Ag2  1  0.49772083  0.49705505  0.33517415  1
  Ag  Ag3  1  0.82102960  0.00110830  0.17698686  1
  Ag  Ag4  1  0.65900381  0.33140717  -0.00268691  1
  Ag  Ag5  1  0.50002735  0.32667618  0.16750623  1
  Ag  Ag6  1  0.16674136  0.65985155  0.16446854  1
  Ag  Ag7  1  0.65879864  0.84640265  0.16983498  1
  Ag  Ag8  1  0.33954969  0.83969977  0.16649663  1
  Ag  Ag9  1  0.33646009  0.00700423  0.00024386  1
  Ag  Ag10  1  0.16818798  0.49531263  -0.00274749  1
  Ag  Ag11  1  0.82955646  0.16914296  0.00506215  1
  Ag  Ag12  1  0.33817188  0.00135980  0.33275861  1
  Ag  Ag13  1  0.16031849  0.16964761  0.34189584  1
  Ag  Ag14  1  0.16457263  0.65492588  0.83213711  1
  Ag  Ag15  1  0.49659015  0.16826391  0.66118097  1
  Ag  Ag16  1  0.83601998  0.15863777  0.33341937  1
  Ag  Ag17  1  0.49463615  0.01029459  0.83635658  1
  Ag  Ag18  1  0.16553189  0.84012150  0.66692586  1
  Ag  Ag19  1  0.66651064  0.16516569  0.17070496  1
  Ag  Ag20  1  0.49664174  0.32568523  0.49809515  1
  Ag  Ag21  1  0.83020157  0.49251454  -0.00079373  1
  Ag  Ag22  1  0.67316185  0.00314478  0.32996693  1
  Ag  Ag23  1  0.83271894  0.84554663  0.33006930  1
  Ag  Ag24  1  -0.01260137  0.00431445  0.33440120  1
  Ag  Ag25  1  0.00869004  0.32225834  0.33401037  1
  Ag  Ag26  1  0.66256823  0.49120705  0.16604455  1
  Ag  Ag27  1  0.49851361  0.84240563  0.01410010  1
  Ag  Ag28  1  0.17356354  0.33434291  0.83193469  1
  Ag  Ag29  1  0.33534431  0.16947666  0.50001707  1
  Ag  Ag30  1  0.17423480  0.33146383  0.49624427  1
  Ag  Ag31  1  0.33666751  0.32911772  -0.00271975  1
  Ag  Ag32  1  0.17333104  0.48952475  0.33339292  1
  Ag  Ag33  1  0.83085796  0.00442769  0.48894314  1
  Ag  Ag34  1  0.00538819  0.66781752  0.66702600  1
  Ag  Ag35  1  0.00521385  0.16393511  0.49783310  1
  Ag  Ag36  1  0.16982699  0.49277325  0.67271435  1
  Ag  Ag37  1  0.83952692  0.66435489  0.83483988  1
  Ag  Ag38  1  0.50238162  0.00166259  0.17262748  1
  Ag  Ag39  1  0.32762686  0.49420065  0.83117848  1
  Ag  Ag40  1  0.66204467  0.33003455  0.67482166  1
  Ag  Ag41  1  0.66086923  0.48850454  0.83639232  1
  Ag  Ag42  1  0.00238376  0.84586060  0.49265732  1
  Ag  Ag43  1  0.00619751  0.16623641  0.82695225  1
  Ag  Ag44  1  0.17285609  0.33506074  0.17563784  1
  Ag  Ag45  1  0.49975027  0.00804758  0.48866003  1
  Ag  Ag46  1  0.17597967  0.01083936  0.83033709  1
  Ag  Ag47  1  0.50224871  0.84774474  0.33060440  1
  Ag  Ag48  1  0.65930496  0.48795708  0.49686519  1
  Ag  Ag49  1  0.50280346  0.32905174  0.83476096  1
  Ag  Ag50  1  0.66527118  0.17039106  0.83335848  1
  Ag  Ag51  1  0.17050846  0.17021410  0.66119635  1
  Ag  Ag52  1  0.33153965  0.00366992  0.66714156  1
  Ag  Ag53  1  0.00291162  0.83733784  0.17371365  1
  Sb  Sb54  1  0.66081177  0.00806280  0.00691109  1
  Sb  Sb55  1  0.66531017  0.32693155  0.33142046  1
  Sb  Sb56  1  0.33089333  0.32754550  0.33408013  1
  Sb  Sb57  1  0.65970415  0.00801965  0.66188895  1
  Sb  Sb58  1  0.33435189  0.49811123  0.16834309  1
  Sb  Sb59  1  0.33482898  0.32809463  0.66849689  1
  Sb  Sb60  1  0.83019607  0.33457593  0.83578207  1
  Sb  Sb61  1  0.17086578  0.83058694  -0.00096914  1
  Sb  Sb62  1  0.82786547  0.83750945  0.00711051  1
  Sb  Sb63  1  0.33264994  0.83566680  0.83750210  1
  Sb  Sb64  1  0.66414602  0.83719742  0.83945862  1
  Sb  Sb65  1  0.00365749  0.49430618  0.83286708  1
  Sb  Sb66  1  0.00414086  0.00234616  0.00415470  1
  Sb  Sb67  1  0.00694009  -0.00029322  0.66019464  1
  Sb  Sb68  1  0.00122398  0.66661318  -0.00415986  1
  Sb  Sb69  1  0.50225379  0.16495608  0.33800797  1
  Sb  Sb70  1  0.66664693  0.65889128  0.00130675  1
  Sb  Sb71  1  0.00124899  0.50128041  0.16780886  1
  Sb  Sb72  1  0.00298360  0.33295189  0.66413157  1
  Sb  Sb73  1  0.83523193  0.49919914  0.67004770  1
  Sb  Sb74  1  0.16469487  0.17215788  -0.00193712  1
  Sb  Sb75  1  0.83699534  0.67036267  0.16274012  1
  Sb  Sb76  1  0.49969734  0.66384711  0.50023714  1
  Sb  Sb77  1  0.16545291  0.66000495  0.50145789  1
  Sb  Sb78  1  0.33861013  0.16417392  0.17237591  1
  Sb  Sb79  1  0.49524226  0.49155117  0.66330802  1
  Sb  Sb80  1  0.32649916  0.66933052  0.66790316  1
  Sb  Sb81  1  0.83799528  0.83468570  0.66160902  1
  Sb  Sb82  1  0.32924357  0.83995232  0.49676912  1
  Sb  Sb83  1  0.67028689  0.65846181  0.66878905  1
  Sb  Sb84  1  0.66654203  0.67049871  0.33224898  1
  Sb  Sb85  1  0.33485104  0.16923377  0.82806530  1
  Sb  Sb86  1  0.00268412  0.49462301  0.49914027  1
  Sb  Sb87  1  0.49865020  0.49678273  0.00308056  1
  Sb  Sb88  1  0.83453043  0.67072224  0.50224134  1
  Sb  Sb89  1  0.17063547  0.00341255  0.16558828  1
  Sb  Sb90  1  0.33105616  0.66912633  0.33238668  1
  Sb  Sb91  1  0.50310489  0.16573600  -0.00364122  1
  Sb  Sb92  1  0.00232885  0.67039092  0.33643126  1
  Sb  Sb93  1  0.49683665  0.66974733  0.16707443  1
  Sb  Sb94  1  0.00209885  0.33121880  0.00322345  1
  Sb  Sb95  1  0.83077039  0.32610837  0.49696073  1
  Sb  Sb96  1  0.82891524  0.32704743  0.16655399  1
  Sb  Sb97  1  0.49714658  0.66091577  0.83399754  1
  Sb  Sb98  1  0.00271798  0.83726204  0.83296389  1
  Sb  Sb99  1  -0.00297195  0.16426018  0.17278293  1
  Sb  Sb100  1  0.16985956  0.01073028  0.50185308  1
  Sb  Sb101  1  0.66885451  0.84131129  0.49424562  1
  Sb  Sb102  1  0.16666096  0.83894282  0.33547380  1
  Sb  Sb103  1  0.33195758  0.66383773  0.00095737  1
  Sb  Sb104  1  0.49470513  0.84569602  0.66154811  1
  Sb  Sb105  1  0.83321372  0.16573479  0.66387922  1
  Sb  Sb106  1  0.83143083  0.00148809  0.83470944  1
  Sb  Sb107  1  0.83062684  0.49664185  0.32931926  1
  Te  Te108  1  0.16652447  0.17303594  0.16652508  1
  Te  Te109  1  0.16674938  0.17053938  0.50121329  1
  Te  Te110  1  0.16738950  0.16862658  0.83334830  1
  Te  Te111  1  0.16751408  0.49700241  0.16700751  1
  Te  Te112  1  0.16777894  0.49308622  0.49678438  1
  Te  Te113  1  0.16592223  0.49625214  0.83394661  1
  Te  Te114  1  0.16577508  0.83388282  0.16703021  1
  Te  Te115  1  0.16264252  0.82901026  0.50405787  1
  Te  Te116  1  0.16658265  0.83244867  0.82971184  1
  Te  Te117  1  0.50472739  0.16739373  0.16800776  1
  Te  Te118  1  0.49922811  0.16763831  0.50030470  1
  Te  Te119  1  0.50172177  0.16968345  0.83002294  1
  Te  Te120  1  0.50193074  0.50060643  0.16966218  1
  Te  Te121  1  0.49961028  0.49734189  0.49799451  1
  Te  Te122  1  0.50068719  0.49436777  0.83319301  1
  Te  Te123  1  0.50014235  0.83280571  0.17116840  1
  Te  Te124  1  0.49911476  0.83588529  0.49295512  1
  Te  Te125  1  0.50008748  0.83565228  0.83100116  1
  Te  Te126  1  0.83080858  0.16268100  0.16801063  1
  Te  Te127  1  0.83429547  0.16221868  0.49718764  1
  Te  Te128  1  0.82846929  0.16541791  0.83440988  1
  Te  Te129  1  0.82908288  0.50132243  0.16108755  1
  Te  Te130  1  0.82771790  0.50071298  0.49978640  1
  Te  Te131  1  0.83297366  0.50205711  0.83741185  1
  Te  Te132  1  0.83133540  0.83677671  0.16988800  1
  Te  Te133  1  0.83723951  0.83887086  0.49395221  1
  Te  Te134  1  0.83328340  0.82886254  0.83553658  1
  Te  Te135  1  0.17227924  -0.00006620  -0.00649803  1
  Te  Te136  1  0.17385242  0.00507630  0.33299616  1
  Te  Te137  1  0.17003096  0.00312128  0.66921293  1
  Te  Te138  1  0.16841444  0.33657413  -0.00490844  1
  Te  Te139  1  0.16904413  0.33166545  0.33451438  1
  Te  Te140  1  0.16655249  0.33232852  0.66825133  1
  Te  Te141  1  0.16643570  0.66065591  -0.00109423  1
  Te  Te142  1  0.16590649  0.66037336  0.32829082  1
  Te  Te143  1  0.16480881  0.66226999  0.66920353  1
  Te  Te144  1  0.49667751  0.00000381  -0.00126696  1
  Te  Te145  1  0.49845064  0.00348771  0.33191298  1
  Te  Te146  1  0.49381473  0.00745928  0.67170650  1
  Te  Te147  1  0.49882653  0.33397975  0.00047211  1
  Te  Te148  1  0.49929059  0.33665398  0.33243182  1
  Te  Te149  1  0.50244859  0.32874850  0.66568652  1
  Te  Te150  1  0.49957460  0.67886872  -0.00138775  1
  Te  Te151  1  0.49915763  0.65903748  0.33408168  1
  Te  Te152  1  0.50008906  0.67049019  0.66782022  1
  Te  Te153  1  0.83414126  0.00553068  0.00393352  1
  Te  Te154  1  0.83109158  0.00152628  0.33254082  1
  Te  Te155  1  0.83259569  -0.00119820  0.66146326  1
  Te  Te156  1  0.83092612  0.33239981  0.00171200  1
  Te  Te157  1  0.84392540  0.32946382  0.33145500  1
  Te  Te158  1  0.82530533  0.33390911  0.66577511  1
  Te  Te159  1  0.83415109  0.66306612  -0.00544669  1
  Te  Te160  1  0.83486823  0.67081996  0.33247323  1
  Te  Te161  1  0.84018694  0.66708935  0.67387225  1
  Te  Te162  1  -0.00770449  0.16662156  -0.00633286  1
  Te  Te163  1  -0.00013603  0.16369355  0.33453644  1
  Te  Te164  1  0.00354391  0.16692133  0.66487315  1
  Te  Te165  1  -0.00172349  0.49901145  0.00046376  1
  Te  Te166  1  0.00180636  0.49876986  0.33411328  1
  Te  Te167  1  0.00621576  0.50316620  0.66531134  1
  Te  Te168  1  -0.00173156  0.83460418  0.00784622  1
  Te  Te169  1  0.00007769  0.83686729  0.33422254  1
  Te  Te170  1  0.00539792  0.83115410  0.66492123  1
  Te  Te171  1  0.33265699  0.16768464  0.00335475  1
  Te  Te172  1  0.32646177  0.16179661  0.33869299  1
  Te  Te173  1  0.33169208  0.16249408  0.66184961  1
  Te  Te174  1  0.33048656  0.49521766  -0.00227829  1
  Te  Te175  1  0.33296019  0.50091864  0.33617292  1
  Te  Te176  1  0.32878612  0.50207765  0.66632361  1
  Te  Te177  1  0.33704937  0.83669100  0.00443445  1
  Te  Te178  1  0.33578074  0.83775032  0.32959288  1
  Te  Te179  1  0.32645394  0.84036569  0.66598576  1
  Te  Te180  1  0.66909959  0.17135405  0.00043080  1
  Te  Te181  1  0.67005131  0.16448186  0.33429608  1
  Te  Te182  1  0.66602590  0.17088209  0.66465054  1
  Te  Te183  1  0.66571802  0.49393199  -0.00024761  1
  Te  Te184  1  0.66541322  0.49883891  0.33265731  1
  Te  Te185  1  0.66614194  0.49302504  0.66848722  1
  Te  Te186  1  0.66114736  0.83283688  0.00719179  1
  Te  Te187  1  0.66492412  0.83694351  0.32990715  1
  Te  Te188  1  0.66691321  0.83102501  0.66577610  1
  Te  Te189  1  0.00266827  -0.00277159  0.17164351  1
  Te  Te190  1  0.00232583  0.00266606  0.49594461  1
  Te  Te191  1  0.00123687  0.00534292  0.83321609  1
  Te  Te192  1  0.00739141  0.33340663  0.17110006  1
  Te  Te193  1  0.00231603  0.32752036  0.49695245  1
  Te  Te194  1  0.00299062  0.32624532  0.83219932  1
  Te  Te195  1  0.00543936  0.67250374  0.16699579  1
  Te  Te196  1  -0.00138612  0.66938047  0.50553595  1
  Te  Te197  1  0.00370163  0.66834305  0.83002116  1
  Te  Te198  1  0.33787761  -0.00073295  0.16471392  1
  Te  Te199  1  0.33725515  0.00221022  0.49882280  1
  Te  Te200  1  0.33445948  -0.00004654  0.83584160  1
  Te  Te201  1  0.33635299  0.33277648  0.16146987  1
  Te  Te202  1  0.33540998  0.33172262  0.50058496  1
  Te  Te203  1  0.33486858  0.33518594  0.83486230  1
  Te  Te204  1  0.32571798  0.67402320  0.16556858  1
  Te  Te205  1  0.33312850  0.65740923  0.50043295  1
  Te  Te206  1  0.32769113  0.65893843  0.83401519  1
  Te  Te207  1  0.66316716  0.00322170  0.16773440  1
  Te  Te208  1  0.66290741  0.00471339  0.49615958  1
  Te  Te209  1  0.66195260  0.00564256  0.83272946  1
  Te  Te210  1  0.66322819  0.33127029  0.16487241  1
  Te  Te211  1  0.66419304  0.33048612  0.49682268  1
  Te  Te212  1  0.66679740  0.33136175  0.83550149  1
  Te  Te213  1  0.66807676  0.66004236  0.16698765  1
  Te  Te214  1  0.66799313  0.65770337  0.50101996  1
  Te  Te215  1  0.66809057  0.66355926  0.83333580  1
