# generated using pymatgen
data_AgSbTe2
_symmetry_space_group_name_H-M   'P 1'
_cell_length_a   18.34816256
_cell_length_b   18.34503201
_cell_length_c   18.34558440
_cell_angle_alpha   89.99804046
_cell_angle_beta   89.99540511
_cell_angle_gamma   90.00068880
_symmetry_Int_Tables_number   1
_chemical_formula_structural   AgSbTe2
_chemical_formula_sum   'Ag54 Sb54 Te108'
_cell_volume   6175.08019471
_cell_formula_units_Z   54
loop_
 _symmetry_equiv_pos_site_id
 _symmetry_equiv_pos_as_xyz
  1  'x, y, z'
loop_
 _atom_site_type_symbol
 _atom_site_label
 _atom_site_symmetry_multiplicity
 _atom_site_fract_x
 _atom_site_fract_y
 _atom_site_fract_z
 _atom_site_occupancy
  Ag  Ag0  1  -0.00281936  0.00765626  0.33475824  1
  Ag  Ag1  1  0.66535856  0.83519815  0.50667538  1
  Ag  Ag2  1  0.67583908  0.68107785  0.00264817  1
  Ag  Ag3  1  0.34513621  0.83556547  0.83817087  1
  Ag  Ag4  1  0.50866601  0.49869742  0.66454441  1
  Ag  Ag5  1  0.51053125  0.67567660  0.16482693  1
  Ag  Ag6  1  0.16562856  0.67306628  0.15797924  1
  Ag  Ag7  1  0.34524413  0.33072088  -0.00335289  1
  Ag  Ag8  1  0.16124263  -0.00420135  0.83651473  1
  Ag  Ag9  1  0.82939930  0.50508550  0.66859642  1
  Ag  Ag10  1  -0.00068597  0.33090977  0.33727858  1
  Ag  Ag11  1  0.34080471  0.16146629  0.50211319  1
  Ag  Ag12  1  0.50168053  0.16594823  0.33681501  1
  Ag  Ag13  1  0.67047774  0.33140661  -0.00528053  1
  Ag  Ag14  1  0.16618608  0.33130197  0.83420386  1
  Ag  Ag15  1  0.66371555  0.33073326  0.67298007  1
  Ag  Ag16  1  0.16823087  0.83306350  -0.00021681  1
  Ag  Ag17  1  0.50530777  0.83677168  -0.00135554  1
  Ag  Ag18  1  0.83009745  0.50610332  0.33547907  1
  Ag  Ag19  1  0.83602149  0.67384226  0.83937881  1
  Ag  Ag20  1  0.50667960  0.33227145  0.83452029  1
  Ag  Ag21  1  0.16338908  0.33171884  0.51052964  1
  Ag  Ag22  1  0.82347795  -0.00416059  0.50941358  1
  Ag  Ag23  1  0.83187969  0.50966626  -0.00560957  1
  Ag  Ag24  1  0.66620471  -0.00741100  0.67289612  1
  Ag  Ag25  1  0.17311688  -0.00768813  0.15544661  1
  Ag  Ag26  1  -0.01048104  0.66526071  -0.00129433  1
  Ag  Ag27  1  0.82584908  0.16457085  -0.00405253  1
  Ag  Ag28  1  0.83080417  0.83036480  0.33074095  1
  Ag  Ag29  1  0.50728505  0.15899652  -0.00759761  1
  Ag  Ag30  1  0.15843979  0.67685075  0.83953648  1
  Ag  Ag31  1  0.50432281  0.15784423  0.66985343  1
  Ag  Ag32  1  0.66184809  0.82907307  0.15165558  1
  Ag  Ag33  1  0.66759915  0.83956794  0.83569009  1
  Ag  Ag34  1  -0.00736761  0.16971222  0.83339661  1
  Ag  Ag35  1  -0.00561806  0.33457415  -0.00521648  1
  Ag  Ag36  1  0.50663596  0.83920278  0.67564607  1
  Ag  Ag37  1  0.00024455  0.17017174  0.50493414  1
  Ag  Ag38  1  0.82559966  0.83324712  0.67744160  1
  Ag  Ag39  1  0.82023600  0.82330267  -0.00387914  1
  Ag  Ag40  1  0.34539476  0.83383314  0.15601802  1
  Ag  Ag41  1  0.51050581  0.49463811  0.33866292  1
  Ag  Ag42  1  0.66779060  0.50731982  0.16085776  1
  Ag  Ag43  1  0.83024162  -0.00507802  0.83314503  1
  Ag  Ag44  1  0.34800947  -0.00171892  0.66736698  1
  Ag  Ag45  1  0.50635684  -0.00100194  0.50606303  1
  Ag  Ag46  1  -0.01275138  0.49440633  0.50450997  1
  Ag  Ag47  1  0.66884092  -0.00415380  -0.00827034  1
  Ag  Ag48  1  0.66924328  0.50430187  0.50374517  1
  Ag  Ag49  1  0.82753530  0.66802533  0.15559025  1
  Ag  Ag50  1  0.49996265  -0.00481631  0.16568088  1
  Ag  Ag51  1  0.34489720  0.84120000  0.50589796  1
  Ag  Ag52  1  -0.00376688  0.49406615  0.83340036  1
  Ag  Ag53  1  0.66911708  0.15958277  0.83496546  1
  Sb  Sb54  1  0.50371185  0.67061535  0.49711183  1
  Sb  Sb55  1  0.34028560  0.32894469  0.67132830  1
  Sb  Sb56  1  0.16129933  0.49873715  0.33266356  1
  Sb  Sb57  1  -0.00016205  0.16534440  0.16324883  1
  Sb  Sb58  1  0.33510258  0.66880165  -0.00023963  1
  Sb  Sb59  1  0.33815844  0.49882182  0.50129825  1
  Sb  Sb60  1  -0.00556723  -0.00080126  0.00019581  1
  Sb  Sb61  1  -0.00229598  0.66554911  0.67411858  1
  Sb  Sb62  1  0.66612607  0.16484149  0.50581600  1
  Sb  Sb63  1  0.33662835  0.16156507  0.16803322  1
  Sb  Sb64  1  0.33547269  0.66840755  0.33132271  1
  Sb  Sb65  1  0.16515664  0.33404428  0.16127033  1
  Sb  Sb66  1  0.16759691  0.16556631  0.33524772  1
  Sb  Sb67  1  -0.00674722  0.33239008  0.66935129  1
  Sb  Sb68  1  -0.00644580  0.83432528  0.83509515  1
  Sb  Sb69  1  0.33150000  0.33259216  0.33101929  1
  Sb  Sb70  1  -0.00340590  0.66614274  0.32802019  1
  Sb  Sb71  1  0.17050330  0.16637189  0.66750641  1
  Sb  Sb72  1  0.67296501  0.50037944  0.83257605  1
  Sb  Sb73  1  -0.00555033  0.00017760  0.66503758  1
  Sb  Sb74  1  0.83125699  0.66928593  0.50160867  1
  Sb  Sb75  1  0.66865966  -0.00150177  0.33327142  1
  Sb  Sb76  1  0.50580811  0.00079415  0.83117321  1
  Sb  Sb77  1  0.66508795  0.16092514  0.15724449  1
  Sb  Sb78  1  0.82763013  0.16455362  0.67177878  1
  Sb  Sb79  1  -0.00757249  0.50137525  0.16443780  1
  Sb  Sb80  1  0.83102144  0.33963064  0.16230425  1
  Sb  Sb81  1  0.66843586  0.67075471  0.67425354  1
  Sb  Sb82  1  0.83044377  0.16521369  0.33138120  1
  Sb  Sb83  1  0.33777071  0.16206660  0.83065904  1
  Sb  Sb84  1  0.83084025  0.33394517  0.83564303  1
  Sb  Sb85  1  0.15882739  0.50425642  -0.00189816  1
  Sb  Sb86  1  0.83533294  0.33335172  0.50024435  1
  Sb  Sb87  1  0.33586456  0.67268216  0.66923462  1
  Sb  Sb88  1  0.50166129  0.33096635  0.16039902  1
  Sb  Sb89  1  0.34212124  0.50654032  0.16361646  1
  Sb  Sb90  1  0.66934879  0.33714571  0.33270695  1
  Sb  Sb91  1  -0.00450003  0.83279603  0.16364112  1
  Sb  Sb92  1  0.16475489  0.66403973  0.50165640  1
  Sb  Sb93  1  0.82947840  -0.00729683  0.16318163  1
  Sb  Sb94  1  0.33005145  0.50176800  0.83502074  1
  Sb  Sb95  1  0.16790531  0.00339066  0.50305147  1
  Sb  Sb96  1  0.16722242  0.16449084  -0.00334763  1
  Sb  Sb97  1  0.16379870  0.49812118  0.66827049  1
  Sb  Sb98  1  0.50367696  0.66755335  0.83631262  1
  Sb  Sb99  1  0.16355191  0.83550110  0.32830580  1
  Sb  Sb100  1  0.33391142  -0.00087169  0.33662856  1
  Sb  Sb101  1  0.49827721  0.32813117  0.50485229  1
  Sb  Sb102  1  0.66777322  0.66778154  0.32465333  1
  Sb  Sb103  1  -0.00526255  0.83556673  0.49813770  1
  Sb  Sb104  1  0.50884861  0.50134780  -0.00145843  1
  Sb  Sb105  1  0.17098613  0.83565925  0.67334590  1
  Sb  Sb106  1  0.33931361  -0.00104996  -0.00519156  1
  Sb  Sb107  1  0.50503224  0.83515306  0.32975836  1
  Te  Te108  1  0.16868715  0.15958846  0.16619766  1
  Te  Te109  1  0.16157562  0.17145028  0.50133344  1
  Te  Te110  1  0.16382134  0.16957048  0.83281522  1
  Te  Te111  1  0.17155776  0.50434749  0.16675812  1
  Te  Te112  1  0.16897195  0.49500482  0.50012052  1
  Te  Te113  1  0.16100800  0.49421883  0.83236331  1
  Te  Te114  1  0.16383702  0.83455743  0.16498956  1
  Te  Te115  1  0.16742770  0.83135240  0.50194014  1
  Te  Te116  1  0.16143986  0.83468480  0.83563150  1
  Te  Te117  1  0.49945625  0.16113125  0.16672220  1
  Te  Te118  1  0.50006577  0.16267427  0.50293873  1
  Te  Te119  1  0.50103727  0.16979888  0.83284062  1
  Te  Te120  1  0.50678599  0.50095695  0.16846135  1
  Te  Te121  1  0.50388641  0.50011733  0.50002217  1
  Te  Te122  1  0.49790065  0.49828048  0.82887773  1
  Te  Te123  1  0.50121289  0.83490668  0.16860116  1
  Te  Te124  1  0.50129928  0.83604486  0.49728014  1
  Te  Te125  1  0.50175770  0.83065427  0.83435268  1
  Te  Te126  1  0.83283341  0.16540960  0.16050240  1
  Te  Te127  1  0.83791001  0.16045165  0.49838095  1
  Te  Te128  1  0.83244422  0.16354996  0.83505592  1
  Te  Te129  1  0.82796748  0.50562592  0.16807481  1
  Te  Te130  1  0.83124322  0.50017344  0.49988051  1
  Te  Te131  1  0.83704373  0.50080225  0.83320997  1
  Te  Te132  1  0.82839896  0.82894136  0.16342667  1
  Te  Te133  1  0.83193901  0.83584176  0.49723116  1
  Te  Te134  1  0.83189963  0.83385660  0.83594954  1
  Te  Te135  1  0.16694030  -0.00289190  -0.00160925  1
  Te  Te136  1  0.15948909  -0.00000945  0.33340742  1
  Te  Te137  1  0.16471028  -0.00029695  0.67370187  1
  Te  Te138  1  0.15712264  0.33366053  -0.00416358  1
  Te  Te139  1  0.16112383  0.33332498  0.33169550  1
  Te  Te140  1  0.16944905  0.33359657  0.66823682  1
  Te  Te141  1  0.17060420  0.66958551  -0.00170969  1
  Te  Te142  1  0.16526091  0.66623503  0.32910615  1
  Te  Te143  1  0.16642963  0.66631669  0.67437775  1
  Te  Te144  1  0.50407396  -0.00052711  0.00001421  1
  Te  Te145  1  0.49927847  0.00479865  0.33431438  1
  Te  Te146  1  0.50375509  -0.00270578  0.66739435  1
  Te  Te147  1  0.50197305  0.33432910  -0.00452972  1
  Te  Te148  1  0.49883868  0.33310351  0.33274791  1
  Te  Te149  1  0.50387311  0.33608506  0.67046710  1
  Te  Te150  1  0.50208317  0.67031321  0.00464629  1
  Te  Te151  1  0.49961091  0.65921673  0.32698364  1
  Te  Te152  1  0.50043114  0.66449598  0.66543714  1
  Te  Te153  1  0.82948012  0.00268688  -0.00328510  1
  Te  Te154  1  0.83711110  -0.00100663  0.33162797  1
  Te  Te155  1  0.82828103  -0.00249566  0.66770053  1
  Te  Te156  1  0.83448878  0.32505119  0.00042792  1
  Te  Te157  1  0.83871951  0.33497984  0.33284306  1
  Te  Te158  1  0.82417521  0.33914719  0.66617067  1
  Te  Te159  1  0.83305652  0.66643901  -0.00011432  1
  Te  Te160  1  0.83484156  0.66701662  0.33066045  1
  Te  Te161  1  0.83487316  0.66742228  0.67111184  1
  Te  Te162  1  0.00006868  0.16853348  -0.00392870  1
  Te  Te163  1  -0.00013381  0.16926915  0.33473678  1
  Te  Te164  1  -0.00071744  0.16720141  0.66724158  1
  Te  Te165  1  -0.00609158  0.49963851  -0.00233243  1
  Te  Te166  1  -0.00507370  0.49504377  0.33544852  1
  Te  Te167  1  -0.00350118  0.49913435  0.66649362  1
  Te  Te168  1  0.00715166  0.83052028  -0.00015668  1
  Te  Te169  1  -0.00682978  0.83512127  0.33322827  1
  Te  Te170  1  -0.00960830  0.83266584  0.66442993  1
  Te  Te171  1  0.33843202  0.17054051  0.00022437  1
  Te  Te172  1  0.33854896  0.16717028  0.33887612  1
  Te  Te173  1  0.33889210  0.16244032  0.66217658  1
  Te  Te174  1  0.33325043  0.49086638  0.00012738  1
  Te  Te175  1  0.33786655  0.49929994  0.33286653  1
  Te  Te176  1  0.33947945  0.50015772  0.66581688  1
  Te  Te177  1  0.33156205  0.83433813  -0.00224495  1
  Te  Te178  1  0.33178947  0.83367565  0.33737166  1
  Te  Te179  1  0.33629649  0.83862711  0.66706763  1
  Te  Te180  1  0.66494354  0.17092738  -0.00269237  1
  Te  Te181  1  0.66181810  0.16868756  0.33102880  1
  Te  Te182  1  0.66293284  0.16806545  0.67192992  1
  Te  Te183  1  0.67228275  0.49167824  0.00033719  1
  Te  Te184  1  0.66874692  0.49993495  0.33688995  1
  Te  Te185  1  0.66839220  0.50473767  0.66658592  1
  Te  Te186  1  0.66426065  0.83622381  -0.00249592  1
  Te  Te187  1  0.67254811  0.83372657  0.34558621  1
  Te  Te188  1  0.66603327  0.83392694  0.66539662  1
  Te  Te189  1  0.00257399  0.00115968  0.17210204  1
  Te  Te190  1  -0.00070313  0.00319963  0.49724345  1
  Te  Te191  1  -0.00058014  0.00691866  0.83347966  1
  Te  Te192  1  0.00019814  0.33304421  0.16619581  1
  Te  Te193  1  0.00134994  0.33369841  0.50157932  1
  Te  Te194  1  -0.00059528  0.33219023  0.83369008  1
  Te  Te195  1  0.00464310  0.66519793  0.15995886  1
  Te  Te196  1  0.00098122  0.65775346  0.49936263  1
  Te  Te197  1  -0.00145772  0.66498331  0.83876079  1
  Te  Te198  1  0.33397874  -0.00623092  0.16631171  1
  Te  Te199  1  0.33400850  0.00081141  0.50306959  1
  Te  Te200  1  0.32592665  -0.00372657  0.82945256  1
  Te  Te201  1  0.33216764  0.33287160  0.15931597  1
  Te  Te202  1  0.32781617  0.32836774  0.49923663  1
  Te  Te203  1  0.32964657  0.33302990  0.83784207  1
  Te  Te204  1  0.32847638  0.67436249  0.16638911  1
  Te  Te205  1  0.33252618  0.67362300  0.50046614  1
  Te  Te206  1  0.32704321  0.67261973  0.83284949  1
  Te  Te207  1  0.66130832  -0.00590574  0.16604791  1
  Te  Te208  1  0.66618476  -0.00048980  0.49936351  1
  Te  Te209  1  0.66782740  0.00056289  0.83249921  1
  Te  Te210  1  0.66573751  0.33751478  0.16455128  1
  Te  Te211  1  0.66483992  0.33701227  0.50321408  1
  Te  Te212  1  0.66455270  0.33449291  0.83185418  1
  Te  Te213  1  0.66732489  0.66724358  0.16241344  1
  Te  Te214  1  0.66734235  0.66521789  0.49955910  1
  Te  Te215  1  0.67078269  0.67174566  0.84222146  1
