# generated using pymatgen
data_AgSbTe2
_symmetry_space_group_name_H-M   'P 1'
_cell_length_a   18.33322146
_cell_length_b   18.33511000
_cell_length_c   18.33441249
_cell_angle_alpha   90.00113516
_cell_angle_beta   89.99937728
_cell_angle_gamma   90.00207651
_symmetry_Int_Tables_number   1
_chemical_formula_structural   AgSbTe2
_chemical_formula_sum   'Ag54 Sb54 Te108'
_cell_volume   6162.95933638
_cell_formula_units_Z   54
loop_
 _symmetry_equiv_pos_site_id
 _symmetry_equiv_pos_as_xyz
  1  'x, y, z'
loop_
 _atom_site_type_symbol
 _atom_site_label
 _atom_site_symmetry_multiplicity
 _atom_site_fract_x
 _atom_site_fract_y
 _atom_site_fract_z
 _atom_site_occupancy
  Ag  Ag0  1  0.67362951  -0.00310938  0.66835869  1
  Ag  Ag1  1  0.50644419  0.00384747  0.50326000  1
  Ag  Ag2  1  0.66830216  0.66624956  -0.00101028  1
  Ag  Ag3  1  0.00036512  -0.01029111  -0.01231034  1
  Ag  Ag4  1  0.50302654  0.16422634  -0.00062828  1
  Ag  Ag5  1  0.16542100  0.66686256  0.50683711  1
  Ag  Ag6  1  0.15645165  -0.00387522  0.82911522  1
  Ag  Ag7  1  0.50112105  0.34020218  0.50058638  1
  Ag  Ag8  1  0.82714778  0.00120269  0.50602307  1
  Ag  Ag9  1  0.82430367  0.66891055  0.15616370  1
  Ag  Ag10  1  -0.00289925  0.67187707  -0.00678923  1
  Ag  Ag11  1  0.33530652  0.15730270  0.16694688  1
  Ag  Ag12  1  -0.00947097  0.67282965  0.67640860  1
  Ag  Ag13  1  0.67022477  0.66603578  0.31539917  1
  Ag  Ag14  1  -0.00961016  0.66977609  0.33311747  1
  Ag  Ag15  1  0.66810197  0.16591002  0.50580335  1
  Ag  Ag16  1  -0.00212489  0.83420430  0.83553132  1
  Ag  Ag17  1  -0.00431368  0.15237470  0.83065559  1
  Ag  Ag18  1  0.82960663  0.67029415  0.83492811  1
  Ag  Ag19  1  0.50450643  0.50327926  0.34306024  1
  Ag  Ag20  1  0.15989095  0.16153258  0.66593464  1
  Ag  Ag21  1  0.83271737  0.15928576  0.66704299  1
  Ag  Ag22  1  0.67174430  0.82769593  0.83552106  1
  Ag  Ag23  1  0.83193026  0.83184720  0.67416505  1
  Ag  Ag24  1  0.34111141  0.83469155  0.15879858  1
  Ag  Ag25  1  0.51205731  0.67157350  0.15787410  1
  Ag  Ag26  1  0.66609727  0.51540062  0.16223682  1
  Ag  Ag27  1  0.16097398  0.83037824  -0.00462143  1
  Ag  Ag28  1  0.16504619  0.33247883  0.83057514  1
  Ag  Ag29  1  0.82830284  0.34060129  0.16548231  1
  Ag  Ag30  1  0.16195866  0.67450056  0.83551540  1
  Ag  Ag31  1  0.33374366  0.00016931  0.33283621  1
  Ag  Ag32  1  0.33166023  0.67007916  -0.00216414  1
  Ag  Ag33  1  0.50255166  -0.00892860  0.83236778  1
  Ag  Ag34  1  0.66514280  0.82710363  0.15728039  1
  Ag  Ag35  1  0.82712798  0.51507823  0.66695021  1
  Ag  Ag36  1  0.51011836  0.50364153  0.66231347  1
  Ag  Ag37  1  0.51479394  0.67314379  0.83767801  1
  Ag  Ag38  1  0.17141372  0.32974689  0.50550143  1
  Ag  Ag39  1  0.83307291  0.16054624  0.33866609  1
  Ag  Ag40  1  0.34281059  0.50170331  0.50031658  1
  Ag  Ag41  1  0.16631112  0.00204321  0.50829547  1
  Ag  Ag42  1  0.83603618  0.82917476  -0.00773495  1
  Ag  Ag43  1  0.66212598  0.50226040  0.50924990  1
  Ag  Ag44  1  0.66772937  0.34343789  -0.00133906  1
  Ag  Ag45  1  0.83221392  0.83129840  0.33282313  1
  Ag  Ag46  1  0.16332367  0.16304504  0.34286375  1
  Ag  Ag47  1  -0.00868282  -0.00323288  0.67045521  1
  Ag  Ag48  1  0.32597646  0.83124107  0.83901103  1
  Ag  Ag49  1  0.67300338  0.66501508  0.68223256  1
  Ag  Ag50  1  0.67051911  0.16288875  0.82743046  1
  Ag  Ag51  1  0.66598169  0.51466992  0.82841325  1
  Ag  Ag52  1  0.49872836  -0.00726061  0.16378211  1
  Ag  Ag53  1  0.16732141  0.51377282  -0.00500587  1
  Sb  Sb54  1  0.17237385  -0.00101127  0.16394738  1
  Sb  Sb55  1  0.50218364  0.16671120  0.33254316  1
  Sb  Sb56  1  -0.00712530  0.50427380  0.16533121  1
  Sb  Sb57  1  0.66895168  -0.00610356  -0.00886832  1
  Sb  Sb58  1  0.16983501  0.16233997  -0.00516407  1
  Sb  Sb59  1  0.83370856  -0.00956653  0.82542969  1
  Sb  Sb60  1  0.50365790  0.16658902  0.66856295  1
  Sb  Sb61  1  0.00166556  0.16447938  0.16179860  1
  Sb  Sb62  1  0.83245092  0.50929613  -0.00378335  1
  Sb  Sb63  1  0.82674285  -0.00678194  0.17089218  1
  Sb  Sb64  1  0.50299837  0.83290352  -0.00087247  1
  Sb  Sb65  1  -0.00425872  0.33540393  -0.00318176  1
  Sb  Sb66  1  0.33368707  0.32876042  0.33430070  1
  Sb  Sb67  1  -0.00187745  0.16418157  0.50635111  1
  Sb  Sb68  1  0.33331691  0.15919997  0.83704572  1
  Sb  Sb69  1  0.83305521  0.67117737  0.50455345  1
  Sb  Sb70  1  0.66781222  0.33673466  0.67007229  1
  Sb  Sb71  1  -0.00096099  0.83294623  0.50677947  1
  Sb  Sb72  1  0.33338786  -0.00120790  0.66552735  1
  Sb  Sb73  1  0.50544147  0.33525027  0.16888007  1
  Sb  Sb74  1  0.33538301  0.67090627  0.32953394  1
  Sb  Sb75  1  0.83361822  0.33682409  0.83590074  1
  Sb  Sb76  1  -0.00261059  0.50307241  0.50195720  1
  Sb  Sb77  1  0.82972588  0.16030459  -0.00390610  1
  Sb  Sb78  1  -0.00598731  0.83176731  0.15829670  1
  Sb  Sb79  1  0.16304341  0.83557571  0.32888712  1
  Sb  Sb80  1  -0.00355075  0.50866610  0.83289032  1
  Sb  Sb81  1  0.16576320  0.66764172  0.16061835  1
  Sb  Sb82  1  -0.00157179  0.33508848  0.33451353  1
  Sb  Sb83  1  0.66861481  0.83205889  0.50310265  1
  Sb  Sb84  1  0.50029294  0.66527941  0.50256918  1
  Sb  Sb85  1  0.15941332  0.83654854  0.67564741  1
  Sb  Sb86  1  0.83001297  0.32845354  0.49779975  1
  Sb  Sb87  1  0.33443264  0.16757684  0.49720603  1
  Sb  Sb88  1  0.66722642  0.33768772  0.33139380  1
  Sb  Sb89  1  0.50469065  0.83024760  0.33084515  1
  Sb  Sb90  1  -0.00053918  0.33117004  0.66864344  1
  Sb  Sb91  1  0.33446621  0.66766172  0.67210365  1
  Sb  Sb92  1  0.33674263  0.33725058  -0.00084452  1
  Sb  Sb93  1  0.16337098  0.33185754  0.16457512  1
  Sb  Sb94  1  0.50061901  0.33446091  0.83009740  1
  Sb  Sb95  1  0.16443983  0.50071073  0.66949381  1
  Sb  Sb96  1  0.33619506  0.50805087  0.83047626  1
  Sb  Sb97  1  0.66392679  -0.00434232  0.33839366  1
  Sb  Sb98  1  0.82626061  0.50565621  0.33717642  1
  Sb  Sb99  1  0.50806485  0.83023580  0.67055331  1
  Sb  Sb100  1  0.34097911  0.50516994  0.16865458  1
  Sb  Sb101  1  0.00125603  -0.00355039  0.33629511  1
  Sb  Sb102  1  0.33254646  0.83165366  0.50046898  1
  Sb  Sb103  1  0.66418748  0.16209336  0.16628640  1
  Sb  Sb104  1  0.50275870  0.50254266  -0.00257498  1
  Sb  Sb105  1  0.33322089  -0.00843995  0.00124513  1
  Sb  Sb106  1  0.17070255  0.49929855  0.33458618  1
  Sb  Sb107  1  0.33312477  0.33414674  0.66640280  1
  Te  Te108  1  0.17154041  0.16721306  0.16999791  1
  Te  Te109  1  0.16673657  0.16536859  0.50213092  1
  Te  Te110  1  0.16701339  0.15965155  0.83067134  1
  Te  Te111  1  0.16816190  0.49760047  0.16241871  1
  Te  Te112  1  0.16730532  0.50093612  0.50065165  1
  Te  Te113  1  0.16784654  0.50036241  0.83499672  1
  Te  Te114  1  0.17293797  0.83361477  0.16022083  1
  Te  Te115  1  0.16709198  0.83411943  0.49830553  1
  Te  Te116  1  0.16444591  0.83502306  0.83574386  1
  Te  Te117  1  0.49658660  0.16644516  0.16478874  1
  Te  Te118  1  0.50313872  0.16387932  0.50031821  1
  Te  Te119  1  0.50140996  0.16653556  0.83624722  1
  Te  Te120  1  0.50579404  0.50358383  0.16724462  1
  Te  Te121  1  0.50242261  0.50268825  0.50200532  1
  Te  Te122  1  0.50390651  0.50219903  0.82908160  1
  Te  Te123  1  0.50145649  0.83226961  0.16643257  1
  Te  Te124  1  0.49836656  0.84356341  0.49999126  1
  Te  Te125  1  0.50676013  0.83189897  0.83341310  1
  Te  Te126  1  0.83326772  0.16289413  0.16922314  1
  Te  Te127  1  0.83129056  0.16452394  0.50178932  1
  Te  Te128  1  0.83342253  0.17029401  0.83071489  1
  Te  Te129  1  0.82629048  0.50389373  0.16811287  1
  Te  Te130  1  0.82698547  0.49658501  0.50547103  1
  Te  Te131  1  0.82789066  0.50377199  0.82876545  1
  Te  Te132  1  0.82862314  0.82870863  0.17039961  1
  Te  Te133  1  0.83416570  0.84061273  0.49598934  1
  Te  Te134  1  0.83295831  0.82993997  0.83323456  1
  Te  Te135  1  0.16311849  -0.00422478  -0.00492109  1
  Te  Te136  1  0.16879447  0.00353942  0.33428608  1
  Te  Te137  1  0.16668012  0.00121319  0.66823528  1
  Te  Te138  1  0.16621219  0.33283116  -0.00455585  1
  Te  Te139  1  0.16559269  0.32730284  0.33746150  1
  Te  Te140  1  0.16639589  0.33068786  0.66725126  1
  Te  Te141  1  0.16366095  0.67040235  -0.00055518  1
  Te  Te142  1  0.16599242  0.66655767  0.33511076  1
  Te  Te143  1  0.16459892  0.66712117  0.66713589  1
  Te  Te144  1  0.50021086  0.00368192  -0.00163034  1
  Te  Te145  1  0.49619595  0.00059926  0.33374489  1
  Te  Te146  1  0.50397724  0.00081937  0.66770793  1
  Te  Te147  1  0.50486661  0.32990515  -0.00042312  1
  Te  Te148  1  0.50064662  0.33871272  0.33983673  1
  Te  Te149  1  0.49981926  0.33807023  0.66038561  1
  Te  Te150  1  0.50282757  0.66557903  -0.00203338  1
  Te  Te151  1  0.50367749  0.66379604  0.33207835  1
  Te  Te152  1  0.50324828  0.66382345  0.67139426  1
  Te  Te153  1  0.83932235  -0.00713709  0.00345534  1
  Te  Te154  1  0.83374267  -0.00051439  0.33909950  1
  Te  Te155  1  0.83354588  0.00015670  0.66427108  1
  Te  Te156  1  0.82832871  0.33247963  0.00439519  1
  Te  Te157  1  0.83433835  0.32740674  0.32866822  1
  Te  Te158  1  0.83500534  0.32418921  0.66694456  1
  Te  Te159  1  0.83457605  0.66820192  -0.00187576  1
  Te  Te160  1  0.83050419  0.66896483  0.33855361  1
  Te  Te161  1  0.83250826  0.67109655  0.66555371  1
  Te  Te162  1  0.00028018  0.16445193  -0.00713030  1
  Te  Te163  1  -0.00035984  0.16552726  0.33184884  1
  Te  Te164  1  -0.00022210  0.16432971  0.67139670  1
  Te  Te165  1  0.00603888  0.50484819  0.00015947  1
  Te  Te166  1  0.00027994  0.50772900  0.33328204  1
  Te  Te167  1  -0.00677924  0.50696083  0.66714744  1
  Te  Te168  1  -0.00134295  0.83141000  -0.00237934  1
  Te  Te169  1  -0.00481975  0.82908602  0.33077301  1
  Te  Te170  1  -0.00567737  0.83393490  0.67196443  1
  Te  Te171  1  0.33809800  0.16796184  0.00561276  1
  Te  Te172  1  0.33146941  0.16169092  0.32961654  1
  Te  Te173  1  0.32594545  0.16646922  0.66769353  1
  Te  Te174  1  0.32947687  0.50523190  -0.00001725  1
  Te  Te175  1  0.33945356  0.50046934  0.33721063  1
  Te  Te176  1  0.33553372  0.50136788  0.66036209  1
  Te  Te177  1  0.33252946  0.82937393  -0.00067344  1
  Te  Te178  1  0.33217064  0.83844041  0.32953788  1
  Te  Te179  1  0.33426463  0.83287214  0.67392182  1
  Te  Te180  1  0.66388768  0.16251753  -0.00201019  1
  Te  Te181  1  0.67096273  0.16620919  0.33779847  1
  Te  Te182  1  0.66753446  0.16698444  0.66554445  1
  Te  Te183  1  0.66723515  0.50140026  -0.00144337  1
  Te  Te184  1  0.66387656  0.50451045  0.33138856  1
  Te  Te185  1  0.66847605  0.49959502  0.66924765  1
  Te  Te186  1  0.67052746  0.83017093  -0.00235308  1
  Te  Te187  1  0.67115737  0.82775198  0.33373599  1
  Te  Te188  1  0.67156768  0.83351350  0.66985407  1
  Te  Te189  1  0.00016612  0.00002681  0.16291740  1
  Te  Te190  1  0.00540564  -0.00076457  0.50474655  1
  Te  Te191  1  -0.00268284  -0.00346305  0.83054244  1
  Te  Te192  1  -0.01012310  0.33393820  0.16580306  1
  Te  Te193  1  0.00932715  0.33466358  0.50049640  1
  Te  Te194  1  0.00554971  0.33084877  0.83389606  1
  Te  Te195  1  -0.00473672  0.66702411  0.16941934  1
  Te  Te196  1  0.00550493  0.66737238  0.49716514  1
  Te  Te197  1  0.00119920  0.66898452  0.83334810  1
  Te  Te198  1  0.33833453  -0.00272157  0.16733124  1
  Te  Te199  1  0.33032804  -0.00087053  0.49696533  1
  Te  Te200  1  0.34125236  -0.00705550  0.83384021  1
  Te  Te201  1  0.33387342  0.33109758  0.16621112  1
  Te  Te202  1  0.33344255  0.33795787  0.49964916  1
  Te  Te203  1  0.32619522  0.33361156  0.83392042  1
  Te  Te204  1  0.33663386  0.67075651  0.16178691  1
  Te  Te205  1  0.32860689  0.66428016  0.49894211  1
  Te  Te206  1  0.32415345  0.67100687  0.83822046  1
  Te  Te207  1  0.65868954  -0.00570076  0.16767851  1
  Te  Te208  1  0.66681360  0.00010091  0.50446930  1
  Te  Te209  1  0.66359420  0.00338584  0.82900039  1
  Te  Te210  1  0.67026486  0.33015911  0.16134902  1
  Te  Te211  1  0.66354813  0.33330542  0.49960184  1
  Te  Te212  1  0.66596166  0.32380002  0.83931073  1
  Te  Te213  1  0.66790819  0.67068299  0.16030174  1
  Te  Te214  1  0.66494996  0.66249164  0.50414870  1
  Te  Te215  1  0.66981012  0.66919865  0.83727522  1
