# generated using pymatgen
data_AgSbTe2
_symmetry_space_group_name_H-M   'P 1'
_cell_length_a   18.31278525
_cell_length_b   18.31273671
_cell_length_c   18.31053993
_cell_angle_alpha   89.99897707
_cell_angle_beta   89.99786173
_cell_angle_gamma   90.00083988
_symmetry_Int_Tables_number   1
_chemical_formula_structural   AgSbTe2
_chemical_formula_sum   'Ag54 Sb54 Te108'
_cell_volume   6140.57166267
_cell_formula_units_Z   54
loop_
 _symmetry_equiv_pos_site_id
 _symmetry_equiv_pos_as_xyz
  1  'x, y, z'
loop_
 _atom_site_type_symbol
 _atom_site_label
 _atom_site_symmetry_multiplicity
 _atom_site_fract_x
 _atom_site_fract_y
 _atom_site_fract_z
 _atom_site_occupancy
  Ag  Ag0  1  0.82928746  0.49784791  0.67091319  1
  Ag  Ag1  1  -0.00481792  0.83560716  0.50429774  1
  Ag  Ag2  1  0.17760689  0.67362889  0.16713740  1
  Ag  Ag3  1  0.82929039  0.33794839  0.82665827  1
  Ag  Ag4  1  0.00500971  0.67200209  -0.00563193  1
  Ag  Ag5  1  0.66709549  0.32820002  0.33849919  1
  Ag  Ag6  1  0.17212439  -0.00145455  0.84034494  1
  Ag  Ag7  1  0.16847089  0.33255677  0.83413323  1
  Ag  Ag8  1  0.65518441  0.83673667  0.17103189  1
  Ag  Ag9  1  0.67202803  0.33777738  0.66803513  1
  Ag  Ag10  1  0.00021979  0.00236739  0.33437846  1
  Ag  Ag11  1  0.50715532  0.49998944  0.67084958  1
  Ag  Ag12  1  0.17002458  0.66790179  0.49322874  1
  Ag  Ag13  1  0.48909407  0.67946803  0.16762953  1
  Ag  Ag14  1  0.66891053  0.49428771  0.82794964  1
  Ag  Ag15  1  0.33388133  0.66848083  0.00796436  1
  Ag  Ag16  1  0.00343742  -0.00679561  0.00071823  1
  Ag  Ag17  1  0.33394964  0.51336210  0.15827047  1
  Ag  Ag18  1  0.33879371  0.16229115  0.16916868  1
  Ag  Ag19  1  0.83578538  0.82868524  0.66535219  1
  Ag  Ag20  1  0.66274740  0.00366192  0.33142410  1
  Ag  Ag21  1  0.33037195  0.83310981  0.84264728  1
  Ag  Ag22  1  0.49834877  0.15923131  0.00708988  1
  Ag  Ag23  1  -0.00104672  0.32700316  0.34078913  1
  Ag  Ag24  1  0.49240424  0.83473662  0.00818910  1
  Ag  Ag25  1  0.83319970  0.33100625  0.50707262  1
  Ag  Ag26  1  0.16756503  0.49745291  0.33237267  1
  Ag  Ag27  1  0.49496714  0.00222037  0.84184281  1
  Ag  Ag28  1  0.66060888  0.17550105  0.83724272  1
  Ag  Ag29  1  0.33460559  -0.00078374  0.67110408  1
  Ag  Ag30  1  0.17674486  -0.00514968  0.16244956  1
  Ag  Ag31  1  -0.00317834  0.50156778  0.83192542  1
  Ag  Ag32  1  0.00014015  0.66446970  0.67181311  1
  Ag  Ag33  1  0.50098622  0.83845247  0.32062402  1
  Ag  Ag34  1  0.00488833  0.82966157  0.83270326  1
  Ag  Ag35  1  0.66662186  0.50135092  0.50710284  1
  Ag  Ag36  1  0.65673180  0.66702207  0.00135310  1
  Ag  Ag37  1  0.33443576  0.50042066  0.83838239  1
  Ag  Ag38  1  0.33443214  0.33947111  -0.00262251  1
  Ag  Ag39  1  0.49769976  0.16172513  0.32485497  1
  Ag  Ag40  1  0.33188746  0.16590548  0.49092873  1
  Ag  Ag41  1  0.83574738  0.00170554  0.49982565  1
  Ag  Ag42  1  0.49373723  -0.00880744  0.16302845  1
  Ag  Ag43  1  0.83261903  0.50015792  -0.01078786  1
  Ag  Ag44  1  0.50292183  0.33336843  0.83383036  1
  Ag  Ag45  1  0.33382056  0.66658112  0.32096578  1
  Ag  Ag46  1  0.17250001  0.16786262  0.33252217  1
  Ag  Ag47  1  -0.00917128  0.33994007  0.66606731  1
  Ag  Ag48  1  0.00174666  0.16389330  0.49633215  1
  Ag  Ag49  1  0.66852219  0.82978787  0.49615706  1
  Ag  Ag50  1  0.17501832  0.83315088  0.00072228  1
  Ag  Ag51  1  0.49711022  0.66855136  0.49473568  1
  Ag  Ag52  1  0.34192973  0.82588789  0.15959798  1
  Ag  Ag53  1  0.65629163  0.16074966  0.16679735  1
  Sb  Sb54  1  0.16255448  0.83303064  0.67214246  1
  Sb  Sb55  1  0.00563311  0.50172215  0.16233238  1
  Sb  Sb56  1  0.33406735  0.83501938  0.49860273  1
  Sb  Sb57  1  0.33442747  0.33393504  0.32917059  1
  Sb  Sb58  1  0.00394064  0.33446235  -0.00395529  1
  Sb  Sb59  1  0.00257073  0.83380608  0.16484145  1
  Sb  Sb60  1  0.66607523  -0.00337577  0.00446280  1
  Sb  Sb61  1  0.49924125  0.16957568  0.66771314  1
  Sb  Sb62  1  0.83666549  0.49695054  0.33687333  1
  Sb  Sb63  1  0.16753865  0.16629936  0.66347731  1
  Sb  Sb64  1  0.82773820  0.83485989  0.33880191  1
  Sb  Sb65  1  0.83101195  -0.00066760  0.17088394  1
  Sb  Sb66  1  0.49927499  0.32939320  0.16117807  1
  Sb  Sb67  1  0.00365021  0.16392665  0.17197242  1
  Sb  Sb68  1  0.16125273  0.33540476  0.50177511  1
  Sb  Sb69  1  0.16937384  0.33309349  0.16404167  1
  Sb  Sb70  1  0.16518376  0.50067605  0.66650365  1
  Sb  Sb71  1  0.83352556  0.82892147  -0.00504511  1
  Sb  Sb72  1  0.33426004  0.33066697  0.67253227  1
  Sb  Sb73  1  0.16545343  0.66808810  0.83784504  1
  Sb  Sb74  1  0.83217687  0.66749693  0.50255751  1
  Sb  Sb75  1  0.66435425  0.00252452  0.66344990  1
  Sb  Sb76  1  0.65947625  0.50101554  0.16534284  1
  Sb  Sb77  1  0.83196651  0.16680262  0.33417768  1
  Sb  Sb78  1  0.00919878  0.66814975  0.33440144  1
  Sb  Sb79  1  0.82843030  0.17047409  -0.00192840  1
  Sb  Sb80  1  0.66915319  0.66054579  0.66958075  1
  Sb  Sb81  1  0.66183246  0.33663028  -0.00501750  1
  Sb  Sb82  1  0.00260814  -0.00160495  0.66563562  1
  Sb  Sb83  1  0.66581348  0.83235949  0.83336100  1
  Sb  Sb84  1  0.65836046  0.66858407  0.33086503  1
  Sb  Sb85  1  0.83102781  0.66726789  0.16335725  1
  Sb  Sb86  1  0.50543174  0.33541139  0.50346975  1
  Sb  Sb87  1  0.33482844  -0.00080904  0.33095649  1
  Sb  Sb88  1  -0.00079949  0.16835872  0.83012997  1
  Sb  Sb89  1  0.16771835  0.50663536  0.00172290  1
  Sb  Sb90  1  0.66675929  0.16728704  0.49695092  1
  Sb  Sb91  1  0.83095637  0.33390641  0.16636398  1
  Sb  Sb92  1  0.32997247  0.66934964  0.66887435  1
  Sb  Sb93  1  -0.00426053  0.50121574  0.50581203  1
  Sb  Sb94  1  0.17396405  0.16011559  0.00468751  1
  Sb  Sb95  1  0.49827327  0.66601129  0.83642053  1
  Sb  Sb96  1  0.50304380  0.82985206  0.66831094  1
  Sb  Sb97  1  0.33796764  0.16505678  0.83844959  1
  Sb  Sb98  1  0.83599892  0.65845257  0.83335242  1
  Sb  Sb99  1  0.17126443  0.83458366  0.32764738  1
  Sb  Sb100  1  0.49936411  0.50349236  -0.00444425  1
  Sb  Sb101  1  0.83324941  0.17224935  0.66545232  1
  Sb  Sb102  1  0.50221606  -0.00311733  0.49643958  1
  Sb  Sb103  1  0.33635430  0.49805772  0.50227798  1
  Sb  Sb104  1  0.83341065  0.00275715  0.82903901  1
  Sb  Sb105  1  0.16373174  -0.00265741  0.49741023  1
  Sb  Sb106  1  0.33314020  -0.00619372  -0.00067350  1
  Sb  Sb107  1  0.49693277  0.50020103  0.33555158  1
  Te  Te108  1  0.17091478  0.16229550  0.17190150  1
  Te  Te109  1  0.16538326  0.16615050  0.49410003  1
  Te  Te110  1  0.16780284  0.16489167  0.83478001  1
  Te  Te111  1  0.17292633  0.50210042  0.17038710  1
  Te  Te112  1  0.16711647  0.50460878  0.49469132  1
  Te  Te113  1  0.16833264  0.49739515  0.83401132  1
  Te  Te114  1  0.16822525  0.83492062  0.16232804  1
  Te  Te115  1  0.16417822  0.82893809  0.49890535  1
  Te  Te116  1  0.16625188  0.83516160  0.83796829  1
  Te  Te117  1  0.50001537  0.16789746  0.16650033  1
  Te  Te118  1  0.49627814  0.16620024  0.49533588  1
  Te  Te119  1  0.50178381  0.16474182  0.83431268  1
  Te  Te120  1  0.49222207  0.50253864  0.16623349  1
  Te  Te121  1  0.50440463  0.50343650  0.50370405  1
  Te  Te122  1  0.49786690  0.49906363  0.83148513  1
  Te  Te123  1  0.49944162  0.83519417  0.16492358  1
  Te  Te124  1  0.50261711  0.82905371  0.50010065  1
  Te  Te125  1  0.49751828  0.83691512  0.83553842  1
  Te  Te126  1  0.82303536  0.16717438  0.16459749  1
  Te  Te127  1  0.83772069  0.16625317  0.49976926  1
  Te  Te128  1  0.82678572  0.17273084  0.83301371  1
  Te  Te129  1  0.83250051  0.49958039  0.16174196  1
  Te  Te130  1  0.82795446  0.49602814  0.50403963  1
  Te  Te131  1  0.83439834  0.49661145  0.83165104  1
  Te  Te132  1  0.82437267  0.83365689  0.16539630  1
  Te  Te133  1  0.83382163  0.83410057  0.50365744  1
  Te  Te134  1  0.83725159  0.83572776  0.82691742  1
  Te  Te135  1  0.16303869  -0.00390949  0.00064239  1
  Te  Te136  1  0.16393153  0.00324791  0.32992800  1
  Te  Te137  1  0.17155155  0.00009059  0.67315305  1
  Te  Te138  1  0.17137869  0.33175603  -0.00487929  1
  Te  Te139  1  0.16456215  0.33233612  0.33314163  1
  Te  Te140  1  0.16193403  0.33325517  0.67319350  1
  Te  Te141  1  0.16755590  0.67175008  0.00370969  1
  Te  Te142  1  0.17225486  0.66726142  0.33104074  1
  Te  Te143  1  0.16096207  0.66650203  0.65910878  1
  Te  Te144  1  0.50221437  -0.00114922  0.00112176  1
  Te  Te145  1  0.50166154  0.00001629  0.33045987  1
  Te  Te146  1  0.49672473  -0.00049461  0.66973995  1
  Te  Te147  1  0.49605115  0.33053706  -0.00580897  1
  Te  Te148  1  0.50408019  0.32958625  0.33436602  1
  Te  Te149  1  0.50366577  0.33799347  0.67162599  1
  Te  Te150  1  0.49745584  0.66981846  0.00221794  1
  Te  Te151  1  0.49498165  0.66721250  0.33337606  1
  Te  Te152  1  0.49950085  0.66167616  0.66203002  1
  Te  Te153  1  0.84129438  0.00059128  -0.00100936  1
  Te  Te154  1  0.83592835  0.00014143  0.33845561  1
  Te  Te155  1  0.83326421  -0.00332752  0.66038612  1
  Te  Te156  1  0.83443642  0.33871528  -0.00435450  1
  Te  Te157  1  0.83408168  0.33357744  0.33738105  1
  Te  Te158  1  0.83271501  0.33557915  0.66676956  1
  Te  Te159  1  0.83878882  0.66131195  -0.00009681  1
  Te  Te160  1  0.83527453  0.66543489  0.33257879  1
  Te  Te161  1  0.83887359  0.66466086  0.66673372  1
  Te  Te162  1  -0.00027223  0.16351667  0.00172902  1
  Te  Te163  1  0.00113963  0.16589013  0.33566210  1
  Te  Te164  1  0.00056656  0.17149924  0.66021154  1
  Te  Te165  1  -0.00198300  0.50199950  -0.00547326  1
  Te  Te166  1  0.00527714  0.49821277  0.33255606  1
  Te  Te167  1  -0.00161778  0.50042728  0.67163183  1
  Te  Te168  1  -0.00124589  0.83296500  -0.00210384  1
  Te  Te169  1  -0.00148750  0.83713992  0.33599028  1
  Te  Te170  1  -0.00289959  0.83238549  0.66658050  1
  Te  Te171  1  0.33868320  0.17132048  0.00544683  1
  Te  Te172  1  0.33415026  0.16682625  0.33160532  1
  Te  Te173  1  0.33339711  0.16209255  0.66085146  1
  Te  Te174  1  0.33294741  0.50162411  -0.00170974  1
  Te  Te175  1  0.32885556  0.50180511  0.33437351  1
  Te  Te176  1  0.33658901  0.49989975  0.67210089  1
  Te  Te177  1  0.33451824  0.83105011  -0.00076658  1
  Te  Te178  1  0.33932136  0.82986844  0.33150463  1
  Te  Te179  1  0.33355867  0.83766428  0.67070192  1
  Te  Te180  1  0.66088351  0.16648908  0.00079887  1
  Te  Te181  1  0.66385768  0.16589024  0.33249938  1
  Te  Te182  1  0.66582114  0.17235052  0.67037718  1
  Te  Te183  1  0.66912721  0.50401853  -0.00171444  1
  Te  Te184  1  0.66694488  0.49630689  0.33557235  1
  Te  Te185  1  0.66777926  0.49923726  0.66786856  1
  Te  Te186  1  0.66595382  0.82850002  0.00081470  1
  Te  Te187  1  0.66183899  0.83468795  0.33534349  1
  Te  Te188  1  0.67194844  0.83318823  0.66271242  1
  Te  Te189  1  0.00045388  -0.00003699  0.16836720  1
  Te  Te190  1  -0.00140530  -0.00141465  0.49799570  1
  Te  Te191  1  0.00132957  -0.00086359  0.83507232  1
  Te  Te192  1  0.00010962  0.33263387  0.17356761  1
  Te  Te193  1  -0.00316866  0.33375930  0.50017660  1
  Te  Te194  1  0.00098398  0.33370725  0.83087500  1
  Te  Te195  1  0.00427166  0.66683640  0.16154465  1
  Te  Te196  1  0.00257579  0.66998426  0.50189873  1
  Te  Te197  1  0.00222409  0.66784547  0.83325517  1
  Te  Te198  1  0.33474490  0.00128752  0.16644843  1
  Te  Te199  1  0.33263471  0.00350292  0.50407309  1
  Te  Te200  1  0.33419823  -0.00121614  0.83388623  1
  Te  Te201  1  0.33297619  0.32894097  0.16092355  1
  Te  Te202  1  0.33201427  0.32729670  0.50194106  1
  Te  Te203  1  0.33399281  0.33413223  0.83544890  1
  Te  Te204  1  0.33368259  0.66920873  0.16534872  1
  Te  Te205  1  0.33381895  0.66627275  0.50096200  1
  Te  Te206  1  0.33151031  0.66713502  0.83511553  1
  Te  Te207  1  0.66484756  -0.00056609  0.17085120  1
  Te  Te208  1  0.67025299  -0.00324638  0.49588860  1
  Te  Te209  1  0.66293295  0.00261888  0.83287465  1
  Te  Te210  1  0.66652564  0.33144637  0.17265703  1
  Te  Te211  1  0.67048722  0.33486705  0.50038377  1
  Te  Te212  1  0.66468051  0.33492527  0.83359590  1
  Te  Te213  1  0.66343256  0.66932569  0.16277057  1
  Te  Te214  1  0.66326572  0.66718854  0.49981426  1
  Te  Te215  1  0.66584850  0.66202895  0.83994856  1
