# generated using pymatgen
data_AgSbTe2
_symmetry_space_group_name_H-M   'P 1'
_cell_length_a   18.32481438
_cell_length_b   18.32056055
_cell_length_c   18.32206686
_cell_angle_alpha   90.00219703
_cell_angle_beta   89.99999531
_cell_angle_gamma   90.00135591
_symmetry_Int_Tables_number   1
_chemical_formula_structural   AgSbTe2
_chemical_formula_sum   'Ag54 Sb54 Te108'
_cell_volume   6151.10024656
_cell_formula_units_Z   54
loop_
 _symmetry_equiv_pos_site_id
 _symmetry_equiv_pos_as_xyz
  1  'x, y, z'
loop_
 _atom_site_type_symbol
 _atom_site_label
 _atom_site_symmetry_multiplicity
 _atom_site_fract_x
 _atom_site_fract_y
 _atom_site_fract_z
 _atom_site_occupancy
  Ag  Ag0  1  0.16383129  0.00020493  0.83084883  1
  Ag  Ag1  1  0.34168037  0.83554028  0.16850763  1
  Ag  Ag2  1  0.50519873  0.82988418  0.66985023  1
  Ag  Ag3  1  0.83499248  0.83225475  0.00471514  1
  Ag  Ag4  1  0.66651876  0.16628339  0.82863356  1
  Ag  Ag5  1  0.00235771  -0.00275449  0.66861815  1
  Ag  Ag6  1  0.50455334  0.16411554  0.00822183  1
  Ag  Ag7  1  0.16526835  0.16316560  0.00041406  1
  Ag  Ag8  1  0.82404498  0.66569539  0.16849145  1
  Ag  Ag9  1  0.82847496  0.16655723  0.66572399  1
  Ag  Ag10  1  0.66863760  0.51115500  0.16524852  1
  Ag  Ag11  1  -0.00932672  0.65899879  0.67161386  1
  Ag  Ag12  1  0.83395001  0.82632558  0.66654223  1
  Ag  Ag13  1  0.50887635  0.66773827  0.50194407  1
  Ag  Ag14  1  0.66737409  -0.00113457  0.33084043  1
  Ag  Ag15  1  0.00027443  0.50907320  0.82412596  1
  Ag  Ag16  1  0.16546423  0.00296202  0.50359081  1
  Ag  Ag17  1  0.50961071  0.16154288  0.66647391  1
  Ag  Ag18  1  0.67345236  0.33007128  0.66975730  1
  Ag  Ag19  1  0.33489358  -0.00490428  0.32445414  1
  Ag  Ag20  1  -0.00718645  0.66885714  -0.00401198  1
  Ag  Ag21  1  0.15475834  0.50143608  0.66903850  1
  Ag  Ag22  1  0.82556963  0.33824349  0.16549224  1
  Ag  Ag23  1  0.34372364  0.67242083  0.66169198  1
  Ag  Ag24  1  0.49739136  0.00312862  0.16867589  1
  Ag  Ag25  1  0.67142441  0.66577232  0.66578817  1
  Ag  Ag26  1  0.66714033  0.16746395  0.50485373  1
  Ag  Ag27  1  -0.01055071  0.34797496  0.66552643  1
  Ag  Ag28  1  0.51027289  0.66913900  0.16835755  1
  Ag  Ag29  1  -0.00139439  0.82979683  0.83150674  1
  Ag  Ag30  1  0.34094254  0.15502960  0.16534623  1
  Ag  Ag31  1  0.82869879  0.16286202  0.00397287  1
  Ag  Ag32  1  0.33836254  0.50554248  0.16584843  1
  Ag  Ag33  1  0.83973816  0.51058946  0.66406804  1
  Ag  Ag34  1  0.32908637  0.00198783  0.01018699  1
  Ag  Ag35  1  0.00278657  -0.00387717  -0.00037587  1
  Ag  Ag36  1  -0.00640462  0.50257983  0.16408970  1
  Ag  Ag37  1  0.82846138  0.66709713  0.50619248  1
  Ag  Ag38  1  0.16101763  0.49806920  -0.00150728  1
  Ag  Ag39  1  0.50247269  0.66810889  0.82520563  1
  Ag  Ag40  1  -0.00146903  -0.00216275  0.33179627  1
  Ag  Ag41  1  0.66422526  0.82579967  0.16795184  1
  Ag  Ag42  1  0.67178108  0.66434580  0.01074673  1
  Ag  Ag43  1  0.82515787  0.15813990  0.33174460  1
  Ag  Ag44  1  0.66907841  0.33233139  0.00489094  1
  Ag  Ag45  1  0.34224315  0.67546011  0.32935204  1
  Ag  Ag46  1  0.66442155  0.67256536  0.32245157  1
  Ag  Ag47  1  0.50619347  0.32632376  0.16568660  1
  Ag  Ag48  1  0.00032316  0.50164754  0.51109990  1
  Ag  Ag49  1  0.50651827  0.16094118  0.32475271  1
  Ag  Ag50  1  0.83156306  0.83494674  0.32798248  1
  Ag  Ag51  1  0.32991531  -0.00515381  0.66536846  1
  Ag  Ag52  1  0.16359953  0.32953076  0.50219102  1
  Ag  Ag53  1  0.16236424  0.83703224  0.33131172  1
  Sb  Sb54  1  -0.00158859  0.83073862  0.50490347  1
  Sb  Sb55  1  0.67135457  0.83487678  0.83492801  1
  Sb  Sb56  1  0.83810501  0.00001123  0.83292199  1
  Sb  Sb57  1  0.83512277  0.33545673  0.50091556  1
  Sb  Sb58  1  0.50498316  0.83558424  0.00009509  1
  Sb  Sb59  1  0.83725241  0.50335321  0.00038597  1
  Sb  Sb60  1  0.49923537  0.49884629  0.00361335  1
  Sb  Sb61  1  0.33506944  0.67084022  0.00436029  1
  Sb  Sb62  1  0.67126072  0.50163856  0.49873614  1
  Sb  Sb63  1  0.32799688  0.50439371  0.83666611  1
  Sb  Sb64  1  0.33789753  0.16327830  0.83721722  1
  Sb  Sb65  1  0.16567089  0.50615524  0.33375260  1
  Sb  Sb66  1  0.83628421  -0.00328445  0.49869495  1
  Sb  Sb67  1  0.33404698  0.83336763  0.49493461  1
  Sb  Sb68  1  0.33480920  0.33280027  0.66558276  1
  Sb  Sb69  1  0.66783118  0.00107955  0.00606268  1
  Sb  Sb70  1  -0.00478646  0.83083766  0.16423001  1
  Sb  Sb71  1  0.83172866  0.66679331  0.83281131  1
  Sb  Sb72  1  0.16490517  0.16575835  0.66940877  1
  Sb  Sb73  1  -0.00459262  0.16737399  0.50201007  1
  Sb  Sb74  1  -0.00291704  0.32970786  0.33614995  1
  Sb  Sb75  1  0.16408451  0.66860837  0.50202175  1
  Sb  Sb76  1  0.82760620  -0.00227635  0.16806041  1
  Sb  Sb77  1  0.66821948  0.00047504  0.66178354  1
  Sb  Sb78  1  0.33735984  0.32765327  0.00491802  1
  Sb  Sb79  1  0.50338045  0.50432449  0.66712388  1
  Sb  Sb80  1  0.66624514  0.83285612  0.49632823  1
  Sb  Sb81  1  0.49647217  -0.00170725  0.83446891  1
  Sb  Sb82  1  0.83339997  0.50501198  0.33326717  1
  Sb  Sb83  1  -0.00486569  0.67185511  0.33331319  1
  Sb  Sb84  1  0.32977601  0.83449578  0.83619776  1
  Sb  Sb85  1  0.16774074  0.15911994  0.33014924  1
  Sb  Sb86  1  0.50370469  0.33454438  0.83656144  1
  Sb  Sb87  1  -0.00489967  0.16385879  0.83314997  1
  Sb  Sb88  1  0.32825701  0.50344787  0.49751320  1
  Sb  Sb89  1  0.16105909  0.83557683  0.00430780  1
  Sb  Sb90  1  0.33785452  0.16303923  0.49623237  1
  Sb  Sb91  1  0.83330762  0.33275603  0.83418248  1
  Sb  Sb92  1  0.66284240  0.16709718  0.16654265  1
  Sb  Sb93  1  0.16356908  0.32974077  0.83124247  1
  Sb  Sb94  1  -0.00012175  0.16724761  0.16539902  1
  Sb  Sb95  1  0.50339242  0.83527603  0.33146988  1
  Sb  Sb96  1  0.49802655  -0.00318884  0.49748086  1
  Sb  Sb97  1  0.16440409  0.83235233  0.66365004  1
  Sb  Sb98  1  -0.00498875  0.33494772  -0.00294107  1
  Sb  Sb99  1  0.50024340  0.50247254  0.32942286  1
  Sb  Sb100  1  0.16636132  0.66636192  0.16677142  1
  Sb  Sb101  1  0.16509362  0.66997684  0.83201027  1
  Sb  Sb102  1  0.33438289  0.33104924  0.32988730  1
  Sb  Sb103  1  0.67160881  0.50068515  0.83519417  1
  Sb  Sb104  1  0.66817375  0.33190573  0.33040430  1
  Sb  Sb105  1  0.16571703  0.33512292  0.16952352  1
  Sb  Sb106  1  0.49970900  0.33410626  0.49700196  1
  Sb  Sb107  1  0.17228683  -0.00039373  0.16603949  1
  Te  Te108  1  0.17246680  0.16971033  0.16060041  1
  Te  Te109  1  0.16715012  0.16544693  0.49975415  1
  Te  Te110  1  0.16690239  0.16165349  0.84007090  1
  Te  Te111  1  0.16625268  0.49840966  0.16454284  1
  Te  Te112  1  0.16113693  0.49877629  0.50234609  1
  Te  Te113  1  0.16099362  0.49972733  0.83351049  1
  Te  Te114  1  0.17178110  0.83334491  0.17261918  1
  Te  Te115  1  0.16591601  0.84027374  0.49263289  1
  Te  Te116  1  0.15971017  0.83959603  0.83487120  1
  Te  Te117  1  0.49936082  0.16538429  0.16572571  1
  Te  Te118  1  0.50505583  0.16806353  0.50451253  1
  Te  Te119  1  0.50497634  0.16662768  0.83007842  1
  Te  Te120  1  0.50113949  0.50304157  0.16646258  1
  Te  Te121  1  0.49903809  0.50584012  0.49807144  1
  Te  Te122  1  0.49924789  0.50742984  0.83603088  1
  Te  Te123  1  0.50154477  0.83181686  0.16463257  1
  Te  Te124  1  0.50027287  0.82719560  0.51094857  1
  Te  Te125  1  0.50054904  0.82885856  0.82893709  1
  Te  Te126  1  0.83355549  0.16756529  0.16620650  1
  Te  Te127  1  0.82839501  0.16671106  0.49856057  1
  Te  Te128  1  0.82750087  0.16630869  0.83431144  1
  Te  Te129  1  0.83132128  0.50140794  0.16661789  1
  Te  Te130  1  0.83841348  0.50347347  0.50232942  1
  Te  Te131  1  0.83932067  0.49929562  0.82561531  1
  Te  Te132  1  0.82991655  0.83133213  0.16685752  1
  Te  Te133  1  0.83250772  0.82785847  0.50154623  1
  Te  Te134  1  0.83855079  0.83409523  0.83246487  1
  Te  Te135  1  0.16483268  0.00104241  -0.00036199  1
  Te  Te136  1  0.16813612  -0.00261987  0.33454019  1
  Te  Te137  1  0.16616445  -0.00018138  0.66600736  1
  Te  Te138  1  0.16514733  0.33253659  -0.00011736  1
  Te  Te139  1  0.16581398  0.33234163  0.34023914  1
  Te  Te140  1  0.16611547  0.33571208  0.66370261  1
  Te  Te141  1  0.16261771  0.66248974  -0.00172271  1
  Te  Te142  1  0.17157634  0.67455417  0.33568823  1
  Te  Te143  1  0.16470563  0.66354799  0.66613903  1
  Te  Te144  1  0.49687738  0.00341964  0.00195669  1
  Te  Te145  1  0.49803479  0.00167989  0.33275536  1
  Te  Te146  1  0.49773532  -0.00067845  0.66633049  1
  Te  Te147  1  0.50549782  0.32839283  0.00404934  1
  Te  Te148  1  0.50024890  0.32427148  0.32857840  1
  Te  Te149  1  0.50473698  0.33015733  0.66683116  1
  Te  Te150  1  0.50410442  0.66710402  0.00680732  1
  Te  Te151  1  0.50197649  0.66777310  0.33100948  1
  Te  Te152  1  0.50063318  0.66622980  0.66472330  1
  Te  Te153  1  0.83708834  -0.00038602  0.00071864  1
  Te  Te154  1  0.83302960  -0.00217240  0.33381747  1
  Te  Te155  1  0.83692600  0.00103616  0.66542426  1
  Te  Te156  1  0.82931137  0.33038063  0.00411853  1
  Te  Te157  1  0.83339081  0.32615009  0.32745612  1
  Te  Te158  1  0.83261334  0.32622048  0.66605535  1
  Te  Te159  1  0.83252016  0.66819908  0.00159045  1
  Te  Te160  1  0.83030725  0.67098641  0.32972604  1
  Te  Te161  1  0.83366875  0.66864047  0.66814632  1
  Te  Te162  1  -0.00265118  0.16411276  -0.00089793  1
  Te  Te163  1  -0.00370095  0.15926935  0.33355174  1
  Te  Te164  1  -0.00403967  0.15722461  0.66747392  1
  Te  Te165  1  0.00123691  0.50153727  0.00421611  1
  Te  Te166  1  0.00069788  0.49985786  0.32505927  1
  Te  Te167  1  -0.00086012  0.50271129  0.66774929  1
  Te  Te168  1  -0.00407092  0.83268217  -0.00182217  1
  Te  Te169  1  -0.00341362  0.83800801  0.33295592  1
  Te  Te170  1  -0.00152384  0.83739577  0.66959228  1
  Te  Te171  1  0.33623982  0.16203091  0.00343272  1
  Te  Te172  1  0.33633333  0.16165718  0.32831572  1
  Te  Te173  1  0.33604479  0.16332650  0.66654275  1
  Te  Te174  1  0.32643002  0.50103783  0.00444331  1
  Te  Te175  1  0.33228431  0.50490822  0.32754688  1
  Te  Te176  1  0.33167186  0.50331453  0.66734748  1
  Te  Te177  1  0.33299515  0.83975754  0.00491775  1
  Te  Te178  1  0.33753363  0.83443899  0.32958090  1
  Te  Te179  1  0.33217809  0.83206918  0.66817954  1
  Te  Te180  1  0.66785367  0.16663114  0.00015584  1
  Te  Te181  1  0.66659653  0.16651463  0.33340577  1
  Te  Te182  1  0.66777988  0.16290858  0.66616801  1
  Te  Te183  1  0.66789799  0.49982220  0.00204817  1
  Te  Te184  1  0.66738856  0.50610720  0.32892150  1
  Te  Te185  1  0.67131733  0.49950217  0.66708048  1
  Te  Te186  1  0.67281187  0.82975231  0.00240599  1
  Te  Te187  1  0.66991025  0.83295531  0.33133378  1
  Te  Te188  1  0.67046116  0.83210897  0.66705412  1
  Te  Te189  1  -0.00048392  -0.00043687  0.16512710  1
  Te  Te190  1  0.00384089  -0.00028820  0.49921228  1
  Te  Te191  1  0.00342873  -0.00104862  0.83571070  1
  Te  Te192  1  -0.00449024  0.33787561  0.16659130  1
  Te  Te193  1  0.00261176  0.33716219  0.50407789  1
  Te  Te194  1  -0.00008950  0.33834116  0.82546284  1
  Te  Te195  1  -0.00193966  0.66406545  0.16426503  1
  Te  Te196  1  -0.00392060  0.66270175  0.50219234  1
  Te  Te197  1  0.00030510  0.66853447  0.83378688  1
  Te  Te198  1  0.33629397  -0.00167109  0.16725157  1
  Te  Te199  1  0.32899221  -0.00032106  0.50493717  1
  Te  Te200  1  0.32784089  -0.00044237  0.82677471  1
  Te  Te201  1  0.33922399  0.34133205  0.16732152  1
  Te  Te202  1  0.32604814  0.33406523  0.49867061  1
  Te  Te203  1  0.33388874  0.33467538  0.83487879  1
  Te  Te204  1  0.33317813  0.66740623  0.16847983  1
  Te  Te205  1  0.33544060  0.66692850  0.50072245  1
  Te  Te206  1  0.33882773  0.66807419  0.83022838  1
  Te  Te207  1  0.66038148  -0.00761713  0.17152631  1
  Te  Te208  1  0.66594074  0.00529866  0.49081915  1
  Te  Te209  1  0.66521416  0.00505130  0.83512388  1
  Te  Te210  1  0.66602760  0.33516912  0.16519696  1
  Te  Te211  1  0.66579329  0.33072504  0.50456955  1
  Te  Te212  1  0.66663267  0.33111244  0.83199402  1
  Te  Te213  1  0.66749294  0.66734831  0.16698216  1
  Te  Te214  1  0.66815267  0.66619246  0.50630556  1
  Te  Te215  1  0.66175105  0.66729878  0.82701614  1
