# generated using pymatgen
data_AgSbTe2
_symmetry_space_group_name_H-M   'P 1'
_cell_length_a   18.34651078
_cell_length_b   18.34667409
_cell_length_c   18.34789182
_cell_angle_alpha   90.00076926
_cell_angle_beta   90.00043359
_cell_angle_gamma   90.00138232
_symmetry_Int_Tables_number   1
_chemical_formula_structural   AgSbTe2
_chemical_formula_sum   'Ag54 Sb54 Te108'
_cell_volume   6175.85367043
_cell_formula_units_Z   54
loop_
 _symmetry_equiv_pos_site_id
 _symmetry_equiv_pos_as_xyz
  1  'x, y, z'
loop_
 _atom_site_type_symbol
 _atom_site_label
 _atom_site_symmetry_multiplicity
 _atom_site_fract_x
 _atom_site_fract_y
 _atom_site_fract_z
 _atom_site_occupancy
  Ag  Ag0  1  0.31913362  0.50372970  0.83229189  1
  Ag  Ag1  1  0.33336113  0.00023265  0.32246643  1
  Ag  Ag2  1  0.83698988  0.83569033  0.67299964  1
  Ag  Ag3  1  0.00161660  0.67714780  -0.01149104  1
  Ag  Ag4  1  0.15834518  -0.00336541  0.49811200  1
  Ag  Ag5  1  -0.00441386  -0.00121537  0.67556469  1
  Ag  Ag6  1  -0.00103625  0.49952299  0.51276079  1
  Ag  Ag7  1  0.16091394  0.83969323  -0.00419446  1
  Ag  Ag8  1  0.33129300  0.15903717  0.15908400  1
  Ag  Ag9  1  0.66478964  0.84384858  0.16444010  1
  Ag  Ag10  1  0.16469057  0.15747736  -0.00088007  1
  Ag  Ag11  1  0.66658291  0.66877731  0.33426542  1
  Ag  Ag12  1  0.84163978  0.50663881  0.66797985  1
  Ag  Ag13  1  0.00830837  0.51590263  0.82399488  1
  Ag  Ag14  1  0.31843877  0.66805503  0.67030291  1
  Ag  Ag15  1  0.66339046  0.16024580  0.83468873  1
  Ag  Ag16  1  0.17145555  0.00169389  0.15731944  1
  Ag  Ag17  1  0.00062196  0.82632913  0.83362661  1
  Ag  Ag18  1  0.50434095  0.33160420  0.50170996  1
  Ag  Ag19  1  0.50658220  0.00217144  0.83964956  1
  Ag  Ag20  1  -0.00286936  0.34547870  0.67538353  1
  Ag  Ag21  1  0.49936130  0.84341901  0.32868317  1
  Ag  Ag22  1  0.83761274  0.33028936  0.15508915  1
  Ag  Ag23  1  0.67828742  0.00083523  0.67869575  1
  Ag  Ag24  1  0.49815146  0.32500962  0.83275309  1
  Ag  Ag25  1  0.66213487  -0.00063811  -0.00361184  1
  Ag  Ag26  1  0.49891944  0.49301473  0.33409919  1
  Ag  Ag27  1  0.15235243  0.65520442  0.82936548  1
  Ag  Ag28  1  0.84189009  0.68054480  0.82841752  1
  Ag  Ag29  1  -0.00201341  0.32904884  0.33502481  1
  Ag  Ag30  1  -0.00049959  0.16425816  0.16424958  1
  Ag  Ag31  1  0.66559358  0.16075356  0.16464099  1
  Ag  Ag32  1  0.66781269  0.16461594  0.50047545  1
  Ag  Ag33  1  0.00333835  -0.00052127  -0.00433230  1
  Ag  Ag34  1  0.15158263  0.50643269  0.67850048  1
  Ag  Ag35  1  0.15938095  0.67231442  0.51156925  1
  Ag  Ag36  1  0.84019946  0.67002972  0.51038652  1
  Ag  Ag37  1  0.15750902  0.34348880  0.83525864  1
  Ag  Ag38  1  0.83489151  -0.00275192  0.83004211  1
  Ag  Ag39  1  0.84333090  0.83729640  -0.01012547  1
  Ag  Ag40  1  0.16268527  0.50043655  -0.01043539  1
  Ag  Ag41  1  0.32671719  0.83611198  0.83295353  1
  Ag  Ag42  1  0.83770536  0.33242568  0.50639699  1
  Ag  Ag43  1  0.33601262  0.15958480  0.83870241  1
  Ag  Ag44  1  0.33016813  -0.00020413  0.00029805  1
  Ag  Ag45  1  0.49906006  0.84133921  -0.00035283  1
  Ag  Ag46  1  0.33140509  0.83481739  0.50874561  1
  Ag  Ag47  1  0.00381758  0.00173082  0.33303132  1
  Ag  Ag48  1  0.84424746  0.33131640  0.82945130  1
  Ag  Ag49  1  0.83811204  -0.00117241  0.50998432  1
  Ag  Ag50  1  0.49605909  0.00074531  0.15885598  1
  Ag  Ag51  1  0.00114535  0.65545508  0.67684529  1
  Ag  Ag52  1  0.00130043  0.33230067  -0.01096165  1
  Ag  Ag53  1  0.50046550  0.16158918  0.33123155  1
  Sb  Sb54  1  0.67689169  0.67313199  0.66510463  1
  Sb  Sb55  1  0.15911817  0.32438831  0.15745692  1
  Sb  Sb56  1  0.16013649  0.82850745  0.67428987  1
  Sb  Sb57  1  0.84116404  0.50238895  -0.00984980  1
  Sb  Sb58  1  0.67242973  0.49349757  0.83295286  1
  Sb  Sb59  1  0.33118099  0.49092396  0.16058238  1
  Sb  Sb60  1  0.00042604  0.16609431  0.83856528  1
  Sb  Sb61  1  0.16830769  0.50017704  0.33608475  1
  Sb  Sb62  1  0.16313398  -0.00142657  0.83638839  1
  Sb  Sb63  1  0.16823445  0.16347933  0.32844478  1
  Sb  Sb64  1  0.66527672  0.83824776  0.49643883  1
  Sb  Sb65  1  -0.00307514  0.66839158  0.33897378  1
  Sb  Sb66  1  0.32422501  0.67626142  -0.00863022  1
  Sb  Sb67  1  0.16117877  0.33270116  0.50614478  1
  Sb  Sb68  1  0.50283626  0.83556756  0.66921817  1
  Sb  Sb69  1  0.83018517  0.16670154  0.33262306  1
  Sb  Sb70  1  0.17018225  0.83671368  0.33181499  1
  Sb  Sb71  1  0.49993262  0.67114685  0.83384128  1
  Sb  Sb72  1  0.50188486  0.00238071  0.49952524  1
  Sb  Sb73  1  0.50214807  0.66426268  0.49947606  1
  Sb  Sb74  1  0.49931717  0.49819289  0.66497228  1
  Sb  Sb75  1  -0.00010778  0.49202336  0.16085416  1
  Sb  Sb76  1  0.67031765  0.33324894  0.33445358  1
  Sb  Sb77  1  0.32802773  0.50376158  0.50577572  1
  Sb  Sb78  1  0.83916213  0.16012502  -0.00208619  1
  Sb  Sb79  1  0.67373341  0.67730796  0.00128766  1
  Sb  Sb80  1  0.50485453  0.32332586  0.16520921  1
  Sb  Sb81  1  0.49278968  0.50430728  0.00001326  1
  Sb  Sb82  1  -0.00484472  0.16633662  0.49572302  1
  Sb  Sb83  1  0.83579102  0.66464533  0.16401283  1
  Sb  Sb84  1  0.67307787  0.32354508  -0.00279339  1
  Sb  Sb85  1  0.33660828  0.84055884  0.16218216  1
  Sb  Sb86  1  0.83288776  0.00349771  0.16286952  1
  Sb  Sb87  1  -0.00463549  0.84203317  0.15725563  1
  Sb  Sb88  1  0.32735513  0.32563229  -0.00599004  1
  Sb  Sb89  1  0.00326247  0.83357776  0.50745454  1
  Sb  Sb90  1  0.50056741  0.67580220  0.16834459  1
  Sb  Sb91  1  0.66657453  0.49737203  0.16790704  1
  Sb  Sb92  1  0.67577005  0.32691044  0.66741237  1
  Sb  Sb93  1  0.67186744  0.84006811  0.83817447  1
  Sb  Sb94  1  0.16524837  0.67436900  0.16007482  1
  Sb  Sb95  1  0.83091851  0.83534945  0.33343993  1
  Sb  Sb96  1  0.32914070  -0.00554809  0.67118391  1
  Sb  Sb97  1  0.50075389  0.16629254  0.66790636  1
  Sb  Sb98  1  0.83206080  0.49866221  0.34008667  1
  Sb  Sb99  1  0.67279768  0.49634475  0.50089052  1
  Sb  Sb100  1  0.32813070  0.33800535  0.67044694  1
  Sb  Sb101  1  0.16478781  0.16757731  0.67463736  1
  Sb  Sb102  1  0.33726345  0.67438053  0.33949744  1
  Sb  Sb103  1  0.66603195  -0.00039998  0.33029472  1
  Sb  Sb104  1  0.83511436  0.16296156  0.66919643  1
  Sb  Sb105  1  0.49599067  0.16033183  0.00066472  1
  Sb  Sb106  1  0.33662373  0.16025700  0.50107028  1
  Sb  Sb107  1  0.33150523  0.32691823  0.33429490  1
  Te  Te108  1  0.16719942  0.16088878  0.16233450  1
  Te  Te109  1  0.16844604  0.16189773  0.50074554  1
  Te  Te110  1  0.17283764  0.16807485  0.83842863  1
  Te  Te111  1  0.16786418  0.50028242  0.16323643  1
  Te  Te112  1  0.16173576  0.50242305  0.50306807  1
  Te  Te113  1  0.16414346  0.49983586  0.83335414  1
  Te  Te114  1  0.16651841  0.84074610  0.16008799  1
  Te  Te115  1  0.16998578  0.83352724  0.49908479  1
  Te  Te116  1  0.16624123  0.83289687  0.83690575  1
  Te  Te117  1  0.50212264  0.16189841  0.16907076  1
  Te  Te118  1  0.50377525  0.17022524  0.49655648  1
  Te  Te119  1  0.49953943  0.16307962  0.83371649  1
  Te  Te120  1  0.49833500  0.49854510  0.17194691  1
  Te  Te121  1  0.49959616  0.49494170  0.49612454  1
  Te  Te122  1  0.50144704  0.49852038  0.83400954  1
  Te  Te123  1  0.50300342  0.83987650  0.16738120  1
  Te  Te124  1  0.49580312  0.83303388  0.49697110  1
  Te  Te125  1  0.49804695  0.83776202  0.83609379  1
  Te  Te126  1  0.83214311  0.17120437  0.16652300  1
  Te  Te127  1  0.82782829  0.16565933  0.49915220  1
  Te  Te128  1  0.82636826  0.16854152  0.83490570  1
  Te  Te129  1  0.83227914  0.49136828  0.16733397  1
  Te  Te130  1  0.83812025  0.49857203  0.50454581  1
  Te  Te131  1  0.83722455  0.49048072  0.82810150  1
  Te  Te132  1  0.82583108  0.83203556  0.16355919  1
  Te  Te133  1  0.83344622  0.83410147  0.50077008  1
  Te  Te134  1  0.83397251  0.83714636  0.83361991  1
  Te  Te135  1  0.16587135  -0.00016672  -0.00157792  1
  Te  Te136  1  0.16720590  0.00011674  0.33684748  1
  Te  Te137  1  0.16267456  -0.00028059  0.66025513  1
  Te  Te138  1  0.16235355  0.33658836  -0.00477011  1
  Te  Te139  1  0.16119985  0.33298353  0.33294244  1
  Te  Te140  1  0.16051005  0.33821117  0.67238570  1
  Te  Te141  1  0.16110463  0.66715257  -0.00444202  1
  Te  Te142  1  0.16722654  0.66745181  0.33683782  1
  Te  Te143  1  0.16148558  0.66716806  0.66870008  1
  Te  Te144  1  0.49948546  -0.00049274  -0.00002815  1
  Te  Te145  1  0.49903510  0.00090754  0.33445461  1
  Te  Te146  1  0.50170234  -0.00088599  0.67264113  1
  Te  Te147  1  0.50065556  0.33616031  -0.00406462  1
  Te  Te148  1  0.49950387  0.33124187  0.33361346  1
  Te  Te149  1  0.50153499  0.33408290  0.66661047  1
  Te  Te150  1  0.50081142  0.67421388  0.00138761  1
  Te  Te151  1  0.50431222  0.66946015  0.33474309  1
  Te  Te152  1  0.50193936  0.66638811  0.66570515  1
  Te  Te153  1  0.83666994  -0.00383384  -0.00179172  1
  Te  Te154  1  0.83848316  0.00006428  0.33788536  1
  Te  Te155  1  0.83430781  -0.00060951  0.66801180  1
  Te  Te156  1  0.83865963  0.33451905  -0.00406639  1
  Te  Te157  1  0.83742297  0.33342363  0.34418960  1
  Te  Te158  1  0.83783871  0.33303269  0.66674267  1
  Te  Te159  1  0.84010858  0.67131003  -0.00385406  1
  Te  Te160  1  0.82889315  0.66664082  0.33568702  1
  Te  Te161  1  0.83704016  0.66858614  0.66749759  1
  Te  Te162  1  0.00435568  0.16775118  0.00406888  1
  Te  Te163  1  0.00017805  0.16480159  0.32777294  1
  Te  Te164  1  0.00164501  0.15723679  0.66395226  1
  Te  Te165  1  0.00342945  0.49308803  -0.00370118  1
  Te  Te166  1  0.00070330  0.49813632  0.33261471  1
  Te  Te167  1  -0.00282481  0.50021222  0.66783876  1
  Te  Te168  1  0.00096505  0.83639057  -0.00405288  1
  Te  Te169  1  0.00038326  0.83787683  0.33031502  1
  Te  Te170  1  -0.00420573  0.84030076  0.67169061  1
  Te  Te171  1  0.32959015  0.16131007  -0.00061350  1
  Te  Te172  1  0.33795944  0.16037082  0.33255170  1
  Te  Te173  1  0.33303847  0.16733968  0.67435941  1
  Te  Te174  1  0.32699470  0.50161530  -0.00647728  1
  Te  Te175  1  0.33772628  0.49985660  0.33301730  1
  Te  Te176  1  0.33154401  0.50568398  0.67232471  1
  Te  Te177  1  0.33534812  0.83885306  -0.00371953  1
  Te  Te178  1  0.33806230  0.83949609  0.33299619  1
  Te  Te179  1  0.33546760  0.82870295  0.66928245  1
  Te  Te180  1  0.66792690  0.15976351  0.00060780  1
  Te  Te181  1  0.66160119  0.16686791  0.33110493  1
  Te  Te182  1  0.66625827  0.16042228  0.66657698  1
  Te  Te183  1  0.66488647  0.50152253  0.00165595  1
  Te  Te184  1  0.65990225  0.50440524  0.33381693  1
  Te  Te185  1  0.67206861  0.50126061  0.66636817  1
  Te  Te186  1  0.66125613  0.83880010  0.00360186  1
  Te  Te187  1  0.66226073  0.83153371  0.32876896  1
  Te  Te188  1  0.67262008  0.84030806  0.66451314  1
  Te  Te189  1  -0.00007553  0.00400661  0.16573876  1
  Te  Te190  1  -0.00152116  0.00000497  0.49509647  1
  Te  Te191  1  -0.00284126  0.00325478  0.83570298  1
  Te  Te192  1  -0.00387268  0.32699053  0.17262245  1
  Te  Te193  1  -0.00140459  0.33329675  0.49876902  1
  Te  Te194  1  0.00076936  0.32413185  0.83238691  1
  Te  Te195  1  0.00057452  0.66605327  0.16553189  1
  Te  Te196  1  -0.00044002  0.66611431  0.50149845  1
  Te  Te197  1  -0.00312124  0.67008069  0.83409041  1
  Te  Te198  1  0.33380281  0.00208635  0.16481181  1
  Te  Te199  1  0.33321728  -0.00433415  0.50285722  1
  Te  Te200  1  0.33133460  -0.00241071  0.83494437  1
  Te  Te201  1  0.33347396  0.32200586  0.16601650  1
  Te  Te202  1  0.33738307  0.33315045  0.50144666  1
  Te  Te203  1  0.33952504  0.33303409  0.83275539  1
  Te  Te204  1  0.33244502  0.66247193  0.16752387  1
  Te  Te205  1  0.33057271  0.67073156  0.50577163  1
  Te  Te206  1  0.33507338  0.66817731  0.82950859  1
  Te  Te207  1  0.66655755  0.00276710  0.16484966  1
  Te  Te208  1  0.67015671  0.00416481  0.49893947  1
  Te  Te209  1  0.66716063  0.00060108  0.83612062  1
  Te  Te210  1  0.67387468  0.32689214  0.16604904  1
  Te  Te211  1  0.66609022  0.32822758  0.50070171  1
  Te  Te212  1  0.65897563  0.32566098  0.83300320  1
  Te  Te213  1  0.66794059  0.66745798  0.17082640  1
  Te  Te214  1  0.67267323  0.66656101  0.49708539  1
  Te  Te215  1  0.67318976  0.66478614  0.83377826  1
