# generated using pymatgen
data_AgSbTe2
_symmetry_space_group_name_H-M   'P 1'
_cell_length_a   18.38378871
_cell_length_b   18.38548384
_cell_length_c   18.37934420
_cell_angle_alpha   89.99632911
_cell_angle_beta   89.99919826
_cell_angle_gamma   89.99818647
_symmetry_Int_Tables_number   1
_chemical_formula_structural   AgSbTe2
_chemical_formula_sum   'Ag54 Sb54 Te108'
_cell_volume   6212.12367299
_cell_formula_units_Z   54
loop_
 _symmetry_equiv_pos_site_id
 _symmetry_equiv_pos_as_xyz
  1  'x, y, z'
loop_
 _atom_site_type_symbol
 _atom_site_label
 _atom_site_symmetry_multiplicity
 _atom_site_fract_x
 _atom_site_fract_y
 _atom_site_fract_z
 _atom_site_occupancy
  Ag  Ag0  1  0.82471136  0.50245776  0.66663153  1
  Ag  Ag1  1  0.50314194  0.67129749  0.16883191  1
  Ag  Ag2  1  0.50237090  -0.00509334  0.82984377  1
  Ag  Ag3  1  0.16128972  0.66927633  0.83461763  1
  Ag  Ag4  1  0.49950695  0.82970331  0.34845988  1
  Ag  Ag5  1  0.34576260  -0.00616800  0.67208557  1
  Ag  Ag6  1  0.66568582  0.67094649  0.34846533  1
  Ag  Ag7  1  0.50770591  0.15304154  0.66921341  1
  Ag  Ag8  1  0.17039837  0.82889882  0.33283792  1
  Ag  Ag9  1  -0.00455415  0.66652476  0.66409298  1
  Ag  Ag10  1  0.16728984  0.33519230  0.83433275  1
  Ag  Ag11  1  0.66529278  0.67236923  0.66477022  1
  Ag  Ag12  1  0.82270171  -0.01639607  0.50878933  1
  Ag  Ag13  1  0.49411006  0.83197589  -0.00562382  1
  Ag  Ag14  1  0.34638194  0.83056218  0.50846016  1
  Ag  Ag15  1  -0.00068471  0.82461851  0.50924288  1
  Ag  Ag16  1  0.00165019  0.51242238  0.82711684  1
  Ag  Ag17  1  0.33913120  -0.01220505  -0.00929301  1
  Ag  Ag18  1  0.49502583  0.15131340  -0.01175482  1
  Ag  Ag19  1  0.00934632  0.67046252  -0.00992683  1
  Ag  Ag20  1  0.00002443  0.82563816  0.16290310  1
  Ag  Ag21  1  0.66299730  0.15078588  0.51212463  1
  Ag  Ag22  1  0.16246954  0.51360735  0.33891658  1
  Ag  Ag23  1  0.66603819  0.14722024  0.82048258  1
  Ag  Ag24  1  0.50527243  0.66850291  0.50482789  1
  Ag  Ag25  1  0.81694138  -0.00186580  0.82756092  1
  Ag  Ag26  1  0.50338998  -0.01847877  0.51754513  1
  Ag  Ag27  1  0.33528208  0.51462106  0.50295074  1
  Ag  Ag28  1  0.33288860  0.67111295  -0.00328018  1
  Ag  Ag29  1  0.33571972  0.83445307  0.83282612  1
  Ag  Ag30  1  0.00071734  0.50891565  0.50705945  1
  Ag  Ag31  1  0.66023660  0.82957129  0.16598245  1
  Ag  Ag32  1  0.50086687  0.33851482  0.50981365  1
  Ag  Ag33  1  0.17505271  0.15158348  -0.00648621  1
  Ag  Ag34  1  0.83456668  0.66934280  0.17245097  1
  Ag  Ag35  1  0.16299737  0.66942393  0.50116387  1
  Ag  Ag36  1  0.82030672  0.16298921  0.66993582  1
  Ag  Ag37  1  0.65683810  -0.00513293  -0.01665806  1
  Ag  Ag38  1  0.00822274  0.83042750  0.83201285  1
  Ag  Ag39  1  0.83436382  0.32952606  0.82834530  1
  Ag  Ag40  1  0.65877499  0.00622716  0.67115618  1
  Ag  Ag41  1  0.83455251  0.66869354  0.50033195  1
  Ag  Ag42  1  0.65528501  0.83590661  0.82935703  1
  Ag  Ag43  1  0.50198958  0.84038959  0.66298076  1
  Ag  Ag44  1  0.83967283  0.50678388  0.34867502  1
  Ag  Ag45  1  0.17446878  -0.01330375  0.83428396  1
  Ag  Ag46  1  0.33542635  0.33520357  -0.01148883  1
  Ag  Ag47  1  0.50466413  0.50146548  0.66737422  1
  Ag  Ag48  1  0.65729408  0.83271068  0.51019751  1
  Ag  Ag49  1  0.17399435  0.83073021  -0.00782448  1
  Ag  Ag50  1  0.16474477  0.67059546  0.16063033  1
  Ag  Ag51  1  0.65806230  0.31919373  0.66712926  1
  Ag  Ag52  1  0.49809197  0.51215437  -0.01218149  1
  Ag  Ag53  1  0.34368867  0.33312824  0.66883437  1
  Sb  Sb54  1  0.16789393  0.50371419  0.66537515  1
  Sb  Sb55  1  0.33564393  0.33763632  0.33949692  1
  Sb  Sb56  1  0.50256115  0.15953047  0.34172738  1
  Sb  Sb57  1  0.33911969  0.15799379  0.83261460  1
  Sb  Sb58  1  0.66801749  0.50434433  0.83016837  1
  Sb  Sb59  1  0.17158377  0.83180838  0.67086324  1
  Sb  Sb60  1  -0.00215146  0.16236006  0.83179441  1
  Sb  Sb61  1  0.49772563  0.32883022  0.82546808  1
  Sb  Sb62  1  0.83852305  0.67148863  0.82843276  1
  Sb  Sb63  1  0.50050905  -0.00981852  0.15971249  1
  Sb  Sb64  1  0.66564521  0.51068502  0.50483088  1
  Sb  Sb65  1  0.33588940  0.66851984  0.66636874  1
  Sb  Sb66  1  0.33073735  0.50360651  0.82937411  1
  Sb  Sb67  1  0.82968789  0.16520251  -0.00836242  1
  Sb  Sb68  1  0.83078716  -0.00980258  0.16482120  1
  Sb  Sb69  1  0.82979922  0.17242438  0.34414062  1
  Sb  Sb70  1  0.65894229  0.32668669  -0.00972008  1
  Sb  Sb71  1  0.17215953  0.34079220  0.50568698  1
  Sb  Sb72  1  0.33404147  0.66930457  0.33470143  1
  Sb  Sb73  1  0.83008861  0.50368376  -0.00655148  1
  Sb  Sb74  1  0.17030150  -0.01052122  0.50652663  1
  Sb  Sb75  1  0.33617746  -0.00648778  0.33856653  1
  Sb  Sb76  1  0.66479229  0.15786853  0.16032309  1
  Sb  Sb77  1  0.34061534  0.16159599  0.50506576  1
  Sb  Sb78  1  0.66299966  0.67483361  -0.00545158  1
  Sb  Sb79  1  0.82201574  0.83089635  0.66527655  1
  Sb  Sb80  1  0.66569726  -0.01125561  0.34351355  1
  Sb  Sb81  1  0.00121991  0.51060176  0.16559143  1
  Sb  Sb82  1  0.83294686  0.83153028  -0.00354766  1
  Sb  Sb83  1  0.50190507  0.34037111  0.16384622  1
  Sb  Sb84  1  0.00603379  0.34097446  -0.00499558  1
  Sb  Sb85  1  -0.00120652  -0.00757882  0.33713093  1
  Sb  Sb86  1  0.83081223  0.82629688  0.33635909  1
  Sb  Sb87  1  0.00143754  -0.00935445  -0.00456641  1
  Sb  Sb88  1  -0.00114565  0.34072768  0.66923004  1
  Sb  Sb89  1  0.49554914  0.67462842  0.82906687  1
  Sb  Sb90  1  0.33519682  0.82976391  0.16158195  1
  Sb  Sb91  1  0.66660573  0.51079170  0.16622284  1
  Sb  Sb92  1  0.16746298  0.34038454  0.16009817  1
  Sb  Sb93  1  -0.00554069  -0.01040392  0.66964098  1
  Sb  Sb94  1  0.49959448  0.50979114  0.33945158  1
  Sb  Sb95  1  -0.00640007  0.16576919  0.50368214  1
  Sb  Sb96  1  0.17157478  0.50951569  0.00017833  1
  Sb  Sb97  1  -0.00035226  0.15712418  0.16167067  1
  Sb  Sb98  1  0.33473604  0.16668969  0.15743896  1
  Sb  Sb99  1  0.83199380  0.34111955  0.16059276  1
  Sb  Sb100  1  0.66545720  0.34286101  0.34626313  1
  Sb  Sb101  1  0.33273303  0.50492391  0.16816527  1
  Sb  Sb102  1  0.16790412  -0.01144974  0.15891340  1
  Sb  Sb103  1  -0.00065553  0.33923283  0.33473114  1
  Sb  Sb104  1  0.82720957  0.33999137  0.51094596  1
  Sb  Sb105  1  0.16729129  0.16331669  0.32847989  1
  Sb  Sb106  1  -0.00032300  0.66912365  0.33947964  1
  Sb  Sb107  1  0.17122793  0.16673635  0.67360232  1
  Te  Te108  1  0.16572403  0.16822396  0.15872958  1
  Te  Te109  1  0.16451394  0.16552530  0.49674153  1
  Te  Te110  1  0.16537533  0.17586451  0.83794543  1
  Te  Te111  1  0.16561874  0.50745348  0.17665579  1
  Te  Te112  1  0.16652106  0.50160477  0.49803037  1
  Te  Te113  1  0.16216762  0.50150615  0.83488232  1
  Te  Te114  1  0.16721882  0.82797594  0.16942821  1
  Te  Te115  1  0.15774317  0.83160776  0.49903499  1
  Te  Te116  1  0.16933276  0.82976065  0.83358584  1
  Te  Te117  1  0.50172998  0.16887471  0.16784651  1
  Te  Te118  1  0.50438650  0.16974264  0.50381886  1
  Te  Te119  1  0.50367487  0.16590130  0.83110799  1
  Te  Te120  1  0.49982556  0.50852314  0.17030399  1
  Te  Te121  1  0.49756729  0.50242511  0.50120999  1
  Te  Te122  1  0.49907106  0.49978986  0.83040428  1
  Te  Te123  1  0.50113310  0.82806190  0.15572706  1
  Te  Te124  1  0.50264735  0.82765774  0.50232256  1
  Te  Te125  1  0.49606474  0.83349022  0.83245851  1
  Te  Te126  1  0.83355915  0.16823088  0.16759228  1
  Te  Te127  1  0.82710273  0.17133314  0.50729057  1
  Te  Te128  1  0.83058440  0.16386441  0.82960452  1
  Te  Te129  1  0.83373279  0.50741844  0.16536927  1
  Te  Te130  1  0.83429514  0.50382812  0.50527459  1
  Te  Te131  1  0.83845611  0.49995815  0.82897680  1
  Te  Te132  1  0.83622819  0.82830911  0.16862076  1
  Te  Te133  1  0.84250494  0.82963903  0.49894143  1
  Te  Te134  1  0.83848559  0.83932627  0.83166849  1
  Te  Te135  1  0.16767036  -0.00440526  -0.00478092  1
  Te  Te136  1  0.16759066  -0.00439385  0.33237081  1
  Te  Te137  1  0.16851351  0.00343600  0.67348673  1
  Te  Te138  1  0.17277191  0.34011096  -0.00352991  1
  Te  Te139  1  0.16726537  0.33264557  0.33184880  1
  Te  Te140  1  0.16892872  0.33301556  0.67328856  1
  Te  Te141  1  0.16769914  0.66973317  -0.00150403  1
  Te  Te142  1  0.16886621  0.66991080  0.34045092  1
  Te  Te143  1  0.16278121  0.66667891  0.66407939  1
  Te  Te144  1  0.49803087  -0.00424990  -0.00167431  1
  Te  Te145  1  0.49971524  -0.00868635  0.33144007  1
  Te  Te146  1  0.49959944  -0.00084646  0.67002535  1
  Te  Te147  1  0.49541453  0.33654990  0.00104874  1
  Te  Te148  1  0.50063773  0.33282799  0.33675674  1
  Te  Te149  1  0.50084621  0.34434952  0.66533550  1
  Te  Te150  1  0.49791133  0.66937313  -0.00493836  1
  Te  Te151  1  0.50102342  0.67145891  0.33201641  1
  Te  Te152  1  0.50007958  0.66247852  0.66424182  1
  Te  Te153  1  0.83176523  0.00211035  -0.00441776  1
  Te  Te154  1  0.83297673  0.00535176  0.33873379  1
  Te  Te155  1  0.83245430  0.00114038  0.66673830  1
  Te  Te156  1  0.83137781  0.33362584  -0.00809501  1
  Te  Te157  1  0.83187886  0.34369625  0.33026960  1
  Te  Te158  1  0.83341875  0.33958953  0.67168904  1
  Te  Te159  1  0.83406662  0.66495851  0.00667281  1
  Te  Te160  1  0.82938963  0.66428492  0.33453451  1
  Te  Te161  1  0.83403983  0.66504050  0.66337016  1
  Te  Te162  1  0.00480130  0.16956023  -0.00018055  1
  Te  Te163  1  -0.00053452  0.16730756  0.33082020  1
  Te  Te164  1  -0.00269540  0.16693959  0.66609761  1
  Te  Te165  1  -0.00095300  0.50787861  -0.00458613  1
  Te  Te166  1  0.00028159  0.50041958  0.33594120  1
  Te  Te167  1  0.00190207  0.50477129  0.66631529  1
  Te  Te168  1  -0.00048268  0.82755170  -0.00114050  1
  Te  Te169  1  0.00651076  0.83355073  0.32830249  1
  Te  Te170  1  0.00330859  0.82718991  0.66932023  1
  Te  Te171  1  0.33479628  0.17307861  -0.00270410  1
  Te  Te172  1  0.33344665  0.16638993  0.33111974  1
  Te  Te173  1  0.33851081  0.17122346  0.66680378  1
  Te  Te174  1  0.33862266  0.49989022  0.00130162  1
  Te  Te175  1  0.32767032  0.49945651  0.34273236  1
  Te  Te176  1  0.33527091  0.49814276  0.66237885  1
  Te  Te177  1  0.33206089  0.83187955  -0.00032930  1
  Te  Te178  1  0.33355005  0.83440295  0.34123459  1
  Te  Te179  1  0.33752094  0.83365052  0.66904008  1
  Te  Te180  1  0.66104998  0.15983995  -0.00489167  1
  Te  Te181  1  0.66661376  0.16960560  0.33310588  1
  Te  Te182  1  0.66571855  0.16621052  0.66611422  1
  Te  Te183  1  0.65773921  0.49589991  -0.00098113  1
  Te  Te184  1  0.67057523  0.50948282  0.33336260  1
  Te  Te185  1  0.66730505  0.50886274  0.66686894  1
  Te  Te186  1  0.66688415  0.83707419  -0.00224618  1
  Te  Te187  1  0.66500510  0.82751075  0.32814354  1
  Te  Te188  1  0.66316010  0.83410648  0.66726164  1
  Te  Te189  1  -0.00100276  -0.01066751  0.16626686  1
  Te  Te190  1  -0.00244806  -0.00220939  0.50187111  1
  Te  Te191  1  0.01091844  -0.00516204  0.83371448  1
  Te  Te192  1  -0.00123851  0.33215395  0.16442213  1
  Te  Te193  1  0.00086001  0.33652318  0.50028953  1
  Te  Te194  1  0.00027914  0.33254131  0.83489446  1
  Te  Te195  1  0.00315439  0.66935392  0.16698540  1
  Te  Te196  1  -0.00013619  0.66535372  0.50006773  1
  Te  Te197  1  -0.00038852  0.66988291  0.83094036  1
  Te  Te198  1  0.33241906  0.00112292  0.16078784  1
  Te  Te199  1  0.33842086  -0.00553960  0.50623091  1
  Te  Te200  1  0.33494362  -0.00181542  0.83359994  1
  Te  Te201  1  0.33360238  0.33578049  0.16509551  1
  Te  Te202  1  0.33859826  0.32939427  0.50555802  1
  Te  Te203  1  0.33173731  0.33693788  0.83080850  1
  Te  Te204  1  0.33176485  0.66606525  0.16052321  1
  Te  Te205  1  0.32943718  0.67166574  0.50020808  1
  Te  Te206  1  0.32685223  0.66885319  0.83510838  1
  Te  Te207  1  0.66829117  -0.00851175  0.16934051  1
  Te  Te208  1  0.66515757  -0.00581237  0.50294773  1
  Te  Te209  1  0.66283830  -0.00622692  0.83015948  1
  Te  Te210  1  0.66857418  0.33296223  0.16712525  1
  Te  Te211  1  0.66228647  0.33350838  0.50701357  1
  Te  Te212  1  0.67127754  0.33781496  0.82702838  1
  Te  Te213  1  0.66372001  0.67174168  0.15966540  1
  Te  Te214  1  0.66573259  0.67200121  0.50496767  1
  Te  Te215  1  0.66949122  0.67349157  0.82699906  1
