# generated using pymatgen
data_AgSbTe2
_symmetry_space_group_name_H-M   'P 1'
_cell_length_a   18.32668972
_cell_length_b   18.32619004
_cell_length_c   18.32656745
_cell_angle_alpha   89.99788069
_cell_angle_beta   89.99875550
_cell_angle_gamma   89.99915554
_symmetry_Int_Tables_number   1
_chemical_formula_structural   AgSbTe2
_chemical_formula_sum   'Ag54 Sb54 Te108'
_cell_volume   6155.13158622
_cell_formula_units_Z   54
loop_
 _symmetry_equiv_pos_site_id
 _symmetry_equiv_pos_as_xyz
  1  'x, y, z'
loop_
 _atom_site_type_symbol
 _atom_site_label
 _atom_site_symmetry_multiplicity
 _atom_site_fract_x
 _atom_site_fract_y
 _atom_site_fract_z
 _atom_site_occupancy
  Ag  Ag0  1  0.33462548  0.66318178  0.00314040  1
  Ag  Ag1  1  0.33405542  0.83224869  0.49420126  1
  Ag  Ag2  1  0.65872866  0.66840121  0.33653780  1
  Ag  Ag3  1  0.66645560  0.32131712  -0.00024274  1
  Ag  Ag4  1  0.50370564  0.32528218  0.16914683  1
  Ag  Ag5  1  -0.01310190  0.15863580  0.82908517  1
  Ag  Ag6  1  0.16591845  0.49319440  -0.00100616  1
  Ag  Ag7  1  0.82590132  0.00647520  0.82976433  1
  Ag  Ag8  1  0.49749473  0.49718942  0.33561710  1
  Ag  Ag9  1  0.82438734  0.67000985  0.83120401  1
  Ag  Ag10  1  0.83118827  0.49103801  -0.00221968  1
  Ag  Ag11  1  0.32534842  0.00021373  0.66588369  1
  Ag  Ag12  1  0.82890256  0.31869436  0.84233645  1
  Ag  Ag13  1  0.83317602  0.16297968  0.67781262  1
  Ag  Ag14  1  0.66567509  0.16018179  0.15830768  1
  Ag  Ag15  1  0.67488444  0.15316126  0.84667706  1
  Ag  Ag16  1  0.33628707  0.50264020  0.49816154  1
  Ag  Ag17  1  0.00154178  0.00195543  0.33542781  1
  Ag  Ag18  1  0.16442627  0.00135508  0.16957903  1
  Ag  Ag19  1  0.34137426  0.83604981  0.17193460  1
  Ag  Ag20  1  0.82638385  0.00389189  0.16251792  1
  Ag  Ag21  1  -0.01059372  0.84123956  0.83432639  1
  Ag  Ag22  1  0.49945843  0.50029664  0.66395205  1
  Ag  Ag23  1  0.49837219  0.83426940  0.32980112  1
  Ag  Ag24  1  0.50764777  0.66968801  0.83320720  1
  Ag  Ag25  1  -0.00514807  0.16088665  0.50582627  1
  Ag  Ag26  1  -0.00165564  0.84080903  0.16427986  1
  Ag  Ag27  1  0.34045528  0.33318617  0.00508036  1
  Ag  Ag28  1  0.49988656  0.16785064  0.32550337  1
  Ag  Ag29  1  0.67058606  0.84150115  0.83566774  1
  Ag  Ag30  1  0.66836268  0.50344371  0.83372763  1
  Ag  Ag31  1  0.83746828  0.00283517  0.50853159  1
  Ag  Ag32  1  0.49921079  0.33278275  0.48922855  1
  Ag  Ag33  1  0.50970364  0.00545048  0.16477087  1
  Ag  Ag34  1  0.82975535  0.67314507  0.50696137  1
  Ag  Ag35  1  0.66992757  0.00081753  0.67702405  1
  Ag  Ag36  1  0.66695417  0.00974132  -0.01017481  1
  Ag  Ag37  1  0.16616997  0.16744092  0.00008965  1
  Ag  Ag38  1  0.16134253  0.00369692  0.50448570  1
  Ag  Ag39  1  0.82541010  0.32138549  0.15959014  1
  Ag  Ag40  1  0.51170672  0.16722782  0.00512348  1
  Ag  Ag41  1  0.34081604  0.33511081  0.32967094  1
  Ag  Ag42  1  0.66951104  0.16318691  0.50188945  1
  Ag  Ag43  1  0.33959326  0.66684847  0.33233167  1
  Ag  Ag44  1  0.66749813  0.67127569  0.67267987  1
  Ag  Ag45  1  0.15935373  0.15916101  0.66628042  1
  Ag  Ag46  1  0.16779187  0.84471921  0.66676270  1
  Ag  Ag47  1  0.51125096  -0.00093218  0.83445228  1
  Ag  Ag48  1  -0.00264338  0.00372390  0.66407802  1
  Ag  Ag49  1  0.82249064  0.16984978  -0.01036900  1
  Ag  Ag50  1  -0.00165949  0.50027397  0.16509101  1
  Ag  Ag51  1  0.17023240  0.16174176  0.33126351  1
  Ag  Ag52  1  0.66414388  0.84361493  0.16254250  1
  Ag  Ag53  1  0.17038134  0.49963433  0.66950634  1
  Sb  Sb54  1  0.66125495  0.49790169  0.50355955  1
  Sb  Sb55  1  0.17304531  0.49453197  0.33150688  1
  Sb  Sb56  1  0.83161060  0.83822364  -0.00215353  1
  Sb  Sb57  1  0.34138124  0.16169015  0.16651674  1
  Sb  Sb58  1  0.16194723  0.33090291  0.83583129  1
  Sb  Sb59  1  0.82999555  0.16413944  0.33090513  1
  Sb  Sb60  1  0.33686677  0.83482805  0.83338182  1
  Sb  Sb61  1  0.33142853  -0.00037144  0.33560562  1
  Sb  Sb62  1  0.49882226  0.83263363  0.66471176  1
  Sb  Sb63  1  0.66397785  0.66786369  -0.00507014  1
  Sb  Sb64  1  0.33560592  0.33010065  0.66585840  1
  Sb  Sb65  1  -0.00537775  0.67330531  0.66751990  1
  Sb  Sb66  1  0.65962534  0.33405988  0.32734727  1
  Sb  Sb67  1  -0.00462887  0.16225909  0.16461212  1
  Sb  Sb68  1  0.50053354  0.66836420  0.16611762  1
  Sb  Sb69  1  0.16689861  0.66714852  0.83300185  1
  Sb  Sb70  1  -0.00573203  0.49893808  0.83595419  1
  Sb  Sb71  1  0.83106030  0.49740668  0.67235761  1
  Sb  Sb72  1  0.66876587  0.49846037  0.16239631  1
  Sb  Sb73  1  0.33795108  0.66884496  0.66539999  1
  Sb  Sb74  1  0.00099048  0.66510055  -0.00070230  1
  Sb  Sb75  1  0.33411031  0.16451328  0.49855893  1
  Sb  Sb76  1  0.16878298  0.67184370  0.16642557  1
  Sb  Sb77  1  0.50082516  0.83891302  0.00363670  1
  Sb  Sb78  1  -0.00682393  0.00314457  -0.00156721  1
  Sb  Sb79  1  0.33839774  0.00306361  -0.00117021  1
  Sb  Sb80  1  0.50169716  0.49492819  0.00015520  1
  Sb  Sb81  1  0.00037442  0.32408373  0.66728972  1
  Sb  Sb82  1  0.00285751  0.84283666  0.50124466  1
  Sb  Sb83  1  0.82768617  0.83567370  0.33177733  1
  Sb  Sb84  1  0.83046624  0.67016370  0.16243436  1
  Sb  Sb85  1  0.66791113  -0.00086373  0.33071144  1
  Sb  Sb86  1  0.16854907  0.32640360  0.16387769  1
  Sb  Sb87  1  0.00401068  0.32537469  0.33035010  1
  Sb  Sb88  1  0.50422885  0.16709650  0.66800545  1
  Sb  Sb89  1  0.83518737  0.84381455  0.66952412  1
  Sb  Sb90  1  0.82582188  0.32659858  0.49945216  1
  Sb  Sb91  1  0.16161020  0.00138719  0.83088056  1
  Sb  Sb92  1  0.33729682  0.16543365  0.83491559  1
  Sb  Sb93  1  0.33158034  0.50134095  0.16889704  1
  Sb  Sb94  1  0.50759068  0.33066862  0.83733969  1
  Sb  Sb95  1  0.50165930  0.00381347  0.49897394  1
  Sb  Sb96  1  0.16766777  0.83634318  -0.00188398  1
  Sb  Sb97  1  0.17143548  0.84019849  0.33479470  1
  Sb  Sb98  1  -0.00764059  0.33096994  0.00123382  1
  Sb  Sb99  1  0.33828350  0.50027055  0.83114299  1
  Sb  Sb100  1  0.82781589  0.50132653  0.32894888  1
  Sb  Sb101  1  0.66336615  0.83658379  0.50103257  1
  Sb  Sb102  1  0.50336025  0.66364989  0.49991752  1
  Sb  Sb103  1  0.17280059  0.32582384  0.50025726  1
  Sb  Sb104  1  0.16517239  0.67151691  0.50135025  1
  Sb  Sb105  1  -0.00087721  0.67307483  0.33334521  1
  Sb  Sb106  1  0.66651348  0.32917952  0.67341498  1
  Sb  Sb107  1  0.00453880  0.49531162  0.49765288  1
  Te  Te108  1  0.16408416  0.16132358  0.16795874  1
  Te  Te109  1  0.16653068  0.16273891  0.50197240  1
  Te  Te110  1  0.16670645  0.16753462  0.83103988  1
  Te  Te111  1  0.16200651  0.49939921  0.16250637  1
  Te  Te112  1  0.17206056  0.49911744  0.50174547  1
  Te  Te113  1  0.16470381  0.49935071  0.83456286  1
  Te  Te114  1  0.16261739  0.83916212  0.16650484  1
  Te  Te115  1  0.17048592  0.83815821  0.50463503  1
  Te  Te116  1  0.16462124  0.83293958  0.82829557  1
  Te  Te117  1  0.50223756  0.16542983  0.16579283  1
  Te  Te118  1  0.50264321  0.17084379  0.49942324  1
  Te  Te119  1  0.50547347  0.16294175  0.83644099  1
  Te  Te120  1  0.50016467  0.49518012  0.17190072  1
  Te  Te121  1  0.49664891  0.49767466  0.49900997  1
  Te  Te122  1  0.50477548  0.50122816  0.83092071  1
  Te  Te123  1  0.50149631  0.83509779  0.16943334  1
  Te  Te124  1  0.49479813  0.83395589  0.49364861  1
  Te  Te125  1  0.50436630  0.83447864  0.83357878  1
  Te  Te126  1  0.82925750  0.16459052  0.16599318  1
  Te  Te127  1  0.83307837  0.16339273  0.49781693  1
  Te  Te128  1  0.83117004  0.16355111  0.83385784  1
  Te  Te129  1  0.83684872  0.50233136  0.16117134  1
  Te  Te130  1  0.83493787  0.49891740  0.49974140  1
  Te  Te131  1  0.83092915  0.50582446  0.83667284  1
  Te  Te132  1  0.83228196  0.83812778  0.16445788  1
  Te  Te133  1  0.83355097  0.83500554  0.50001327  1
  Te  Te134  1  0.83179307  0.83143841  0.83339523  1
  Te  Te135  1  0.16922091  0.00395593  0.00226001  1
  Te  Te136  1  0.16489331  0.00379298  0.33347014  1
  Te  Te137  1  0.16580278  0.00218684  0.66815709  1
  Te  Te138  1  0.17244741  0.33355457  0.00080685  1
  Te  Te139  1  0.17437275  0.32541026  0.33221751  1
  Te  Te140  1  0.16851160  0.33820480  0.66761926  1
  Te  Te141  1  0.17298608  0.66285791  -0.00099880  1
  Te  Te142  1  0.17317300  0.66532275  0.33475151  1
  Te  Te143  1  0.16617442  0.66011613  0.66639212  1
  Te  Te144  1  0.50324711  0.00481126  0.00216329  1
  Te  Te145  1  0.49899897  0.00224451  0.33027225  1
  Te  Te146  1  0.50586629  0.00052538  0.66804688  1
  Te  Te147  1  0.50133713  0.32943957  0.00338370  1
  Te  Te148  1  0.49856334  0.33152606  0.33037088  1
  Te  Te149  1  0.49898124  0.33961146  0.66521505  1
  Te  Te150  1  0.49539111  0.66426036  -0.00448955  1
  Te  Te151  1  0.49874520  0.66703524  0.33323672  1
  Te  Te152  1  0.50462399  0.66341555  0.66952516  1
  Te  Te153  1  0.82823763  0.00426947  0.00060798  1
  Te  Te154  1  0.83989778  -0.00029242  0.33057820  1
  Te  Te155  1  0.83307098  0.00331548  0.66797698  1
  Te  Te156  1  0.83047269  0.33153775  0.00166806  1
  Te  Te157  1  0.83425819  0.33479498  0.32654966  1
  Te  Te158  1  0.83322719  0.32621452  0.66843837  1
  Te  Te159  1  0.83314149  0.66080624  -0.00559979  1
  Te  Te160  1  0.83004018  0.66723741  0.33723355  1
  Te  Te161  1  0.82816094  0.66463730  0.66749311  1
  Te  Te162  1  0.00729936  0.16718363  -0.00495415  1
  Te  Te163  1  0.00406076  0.16138583  0.33562973  1
  Te  Te164  1  -0.00059251  0.16303718  0.66747546  1
  Te  Te165  1  0.00307777  0.49906819  0.00358484  1
  Te  Te166  1  0.00134752  0.50138603  0.32787896  1
  Te  Te167  1  0.00564668  0.49994455  0.66601699  1
  Te  Te168  1  0.00101570  0.83300127  -0.00005991  1
  Te  Te169  1  0.00086997  0.83909270  0.32848194  1
  Te  Te170  1  0.00583809  0.83880653  0.66939819  1
  Te  Te171  1  0.32564997  0.17099897  0.00065012  1
  Te  Te172  1  0.33518710  0.17023050  0.33282244  1
  Te  Te173  1  0.32871387  0.16186191  0.66714090  1
  Te  Te174  1  0.33110016  0.49948903  0.00059690  1
  Te  Te175  1  0.33673747  0.50021932  0.33570201  1
  Te  Te176  1  0.33468915  0.50044861  0.66313211  1
  Te  Te177  1  0.33291158  0.82842389  0.00467306  1
  Te  Te178  1  0.33608115  0.83218878  0.33287713  1
  Te  Te179  1  0.32990521  0.83626096  0.66454063  1
  Te  Te180  1  0.66756540  0.16543697  0.00273306  1
  Te  Te181  1  0.66110269  0.16750709  0.33775921  1
  Te  Te182  1  0.66832454  0.16392701  0.66329375  1
  Te  Te183  1  0.66966797  0.50015111  -0.00407318  1
  Te  Te184  1  0.66006302  0.50635345  0.33366699  1
  Te  Te185  1  0.66423466  0.50157560  0.67061997  1
  Te  Te186  1  0.66592465  0.83653214  0.00073079  1
  Te  Te187  1  0.66085010  0.82856692  0.33203315  1
  Te  Te188  1  0.66629897  0.83378510  0.66971299  1
  Te  Te189  1  0.00014394  -0.00094698  0.16524948  1
  Te  Te190  1  -0.00028512  0.00259733  0.50177634  1
  Te  Te191  1  -0.00322927  -0.00057215  0.83198473  1
  Te  Te192  1  -0.00420008  0.33787720  0.16788641  1
  Te  Te193  1  -0.00123278  0.32531760  0.49767382  1
  Te  Te194  1  -0.00960440  0.32925310  0.83372545  1
  Te  Te195  1  -0.00031049  0.67008755  0.16773917  1
  Te  Te196  1  -0.00863411  0.66532017  0.49903825  1
  Te  Te197  1  -0.00405493  0.67266892  0.83269303  1
  Te  Te198  1  0.33103727  -0.00571545  0.16627079  1
  Te  Te199  1  0.33152742  -0.00348731  0.50430841  1
  Te  Te200  1  0.33942318  -0.00174896  0.82776874  1
  Te  Te201  1  0.33657611  0.33341666  0.16683133  1
  Te  Te202  1  0.33870479  0.33761467  0.49817901  1
  Te  Te203  1  0.33427208  0.33403304  0.84061084  1
  Te  Te204  1  0.33349765  0.67245688  0.16795833  1
  Te  Te205  1  0.33306203  0.66774472  0.49754129  1
  Te  Te206  1  0.33852763  0.66738097  0.83679707  1
  Te  Te207  1  0.66681865  0.00013335  0.17106493  1
  Te  Te208  1  0.67065808  0.00248017  0.49975078  1
  Te  Te209  1  0.66631509  -0.00139697  0.83291921  1
  Te  Te210  1  0.66642788  0.33312523  0.16205275  1
  Te  Te211  1  0.66069066  0.32901606  0.49993818  1
  Te  Te212  1  0.67060622  0.33727403  0.83855579  1
  Te  Te213  1  0.66684193  0.67103312  0.17046102  1
  Te  Te214  1  0.67051333  0.66669970  0.50152117  1
  Te  Te215  1  0.66480493  0.66613425  0.83317612  1
