# generated using pymatgen
data_AgSbTe2
_symmetry_space_group_name_H-M   'P 1'
_cell_length_a   18.34696359
_cell_length_b   18.34552737
_cell_length_c   18.34779774
_cell_angle_alpha   89.99908035
_cell_angle_beta   89.99895156
_cell_angle_gamma   90.00188781
_symmetry_Int_Tables_number   1
_chemical_formula_structural   AgSbTe2
_chemical_formula_sum   'Ag54 Sb54 Te108'
_cell_volume   6175.58840950
_cell_formula_units_Z   54
loop_
 _symmetry_equiv_pos_site_id
 _symmetry_equiv_pos_as_xyz
  1  'x, y, z'
loop_
 _atom_site_type_symbol
 _atom_site_label
 _atom_site_symmetry_multiplicity
 _atom_site_fract_x
 _atom_site_fract_y
 _atom_site_fract_z
 _atom_site_occupancy
  Ag  Ag0  1  0.83067132  0.16047923  0.66708428  1
  Ag  Ag1  1  -0.00478600  -0.01011395  -0.00856202  1
  Ag  Ag2  1  -0.00810644  0.15704535  0.82346384  1
  Ag  Ag3  1  -0.00451678  0.50602942  0.17346950  1
  Ag  Ag4  1  0.50364194  0.33331364  0.49478488  1
  Ag  Ag5  1  0.50331211  0.16166059  0.33559283  1
  Ag  Ag6  1  0.33236970  0.83238180  0.83354357  1
  Ag  Ag7  1  -0.00304820  0.15573074  0.50406697  1
  Ag  Ag8  1  0.83171067  -0.00827843  0.50408291  1
  Ag  Ag9  1  0.50926059  0.50769981  0.33488232  1
  Ag  Ag10  1  0.67140895  0.82652399  0.49310761  1
  Ag  Ag11  1  0.67181994  0.66657717  -0.00456981  1
  Ag  Ag12  1  0.15621506  0.16818923  0.66766520  1
  Ag  Ag13  1  0.34643707  0.67113228  0.33309535  1
  Ag  Ag14  1  0.66478110  0.83244942  0.17635749  1
  Ag  Ag15  1  0.83490063  0.83156078  0.00182811  1
  Ag  Ag16  1  -0.00763135  0.83583567  0.83047132  1
  Ag  Ag17  1  0.66621043  -0.01132270  0.33860866  1
  Ag  Ag18  1  0.81976393  0.83110111  0.33717880  1
  Ag  Ag19  1  0.51309968  0.66892726  0.83906572  1
  Ag  Ag20  1  0.34060202  0.15708287  0.83011052  1
  Ag  Ag21  1  -0.00865631  0.00302433  0.67045766  1
  Ag  Ag22  1  0.18683790  0.83186053  0.33501244  1
  Ag  Ag23  1  0.34368096  0.83286202  0.17553441  1
  Ag  Ag24  1  0.83101702  -0.00236817  0.17132352  1
  Ag  Ag25  1  0.66809685  0.51200889  0.82441504  1
  Ag  Ag26  1  0.34266456  0.50956607  0.49736555  1
  Ag  Ag27  1  0.66311080  0.33988724  0.33951933  1
  Ag  Ag28  1  0.16287478  0.49827986  0.66569748  1
  Ag  Ag29  1  -0.01283567  0.66934334  0.33089594  1
  Ag  Ag30  1  0.33719220  0.82988110  0.49024093  1
  Ag  Ag31  1  0.15481837  0.50474424  -0.00510014  1
  Ag  Ag32  1  0.50931399  -0.00853876  0.17329236  1
  Ag  Ag33  1  0.82677354  0.51059520  0.33432951  1
  Ag  Ag34  1  -0.00191440  0.16463323  0.16994185  1
  Ag  Ag35  1  0.83537306  0.51048577  0.01030224  1
  Ag  Ag36  1  0.67029922  0.50737536  0.49744414  1
  Ag  Ag37  1  0.67183208  0.00186717  0.66058337  1
  Ag  Ag38  1  -0.01001028  0.66919182  0.00571273  1
  Ag  Ag39  1  0.66913105  0.66772163  0.66080999  1
  Ag  Ag40  1  0.83082746  0.67255964  0.84008510  1
  Ag  Ag41  1  0.50186854  0.83132698  0.33281826  1
  Ag  Ag42  1  -0.01072278  0.83127684  0.49469111  1
  Ag  Ag43  1  0.66882716  0.16620956  0.82607062  1
  Ag  Ag44  1  0.83347672  -0.00802832  0.82573479  1
  Ag  Ag45  1  0.50076443  0.66926457  0.17139721  1
  Ag  Ag46  1  0.66572093  0.32866241  0.66039540  1
  Ag  Ag47  1  0.33803061  0.66982424  0.00540782  1
  Ag  Ag48  1  0.83163396  0.67206177  0.49129891  1
  Ag  Ag49  1  -0.00888526  0.50729699  0.49516339  1
  Ag  Ag50  1  0.34836303  -0.01264048  0.33433187  1
  Ag  Ag51  1  0.50243600  0.33814819  0.17597562  1
  Ag  Ag52  1  0.51313330  0.16530819  0.66317343  1
  Ag  Ag53  1  0.66675116  0.67084334  0.33610628  1
  Sb  Sb54  1  0.50302666  0.49908407  0.65992889  1
  Sb  Sb55  1  0.66819552  0.16191278  0.16636141  1
  Sb  Sb56  1  0.82798870  0.33531118  0.49981590  1
  Sb  Sb57  1  0.83219502  0.33303675  0.83251228  1
  Sb  Sb58  1  0.16687049  0.15890398  0.33673982  1
  Sb  Sb59  1  0.16200557  0.66724843  0.83410716  1
  Sb  Sb60  1  0.50294354  0.83469057  0.66223971  1
  Sb  Sb61  1  0.67010694  0.50636029  0.17317839  1
  Sb  Sb62  1  0.50421853  0.50653147  0.00588380  1
  Sb  Sb63  1  0.82659312  0.67408119  0.16765052  1
  Sb  Sb64  1  0.67005840  0.82943241  0.83052974  1
  Sb  Sb65  1  0.15861005  0.00015792  0.83204429  1
  Sb  Sb66  1  0.33440778  0.33961054  -0.00037290  1
  Sb  Sb67  1  0.33313802  0.50638330  0.17087806  1
  Sb  Sb68  1  0.16472486  0.83226076  0.66359728  1
  Sb  Sb69  1  0.83173019  0.83736557  0.66321710  1
  Sb  Sb70  1  0.50134357  0.16574227  0.00095845  1
  Sb  Sb71  1  0.33781505  0.50526046  0.83018037  1
  Sb  Sb72  1  0.82926048  0.33073209  0.16837554  1
  Sb  Sb73  1  0.33857091  0.33176601  0.66542682  1
  Sb  Sb74  1  0.16870214  0.33508139  0.16799771  1
  Sb  Sb75  1  -0.00129904  0.33648794  0.00059534  1
  Sb  Sb76  1  0.67014807  0.16577856  0.50400136  1
  Sb  Sb77  1  0.17005083  0.33521968  0.49983152  1
  Sb  Sb78  1  0.50587477  0.83079944  0.00579753  1
  Sb  Sb79  1  0.16368130  0.50618912  0.33611794  1
  Sb  Sb80  1  0.50872335  0.66569391  0.49572525  1
  Sb  Sb81  1  -0.00598075  0.32841614  0.66410143  1
  Sb  Sb82  1  -0.00781111  -0.00660800  0.33547527  1
  Sb  Sb83  1  -0.00562952  0.50386577  0.83273028  1
  Sb  Sb84  1  0.16167595  0.82791446  0.00302766  1
  Sb  Sb85  1  0.33962168  0.66701949  0.66198029  1
  Sb  Sb86  1  0.50750111  0.00057178  0.49343619  1
  Sb  Sb87  1  0.16347037  0.16951670  -0.00513672  1
  Sb  Sb88  1  0.66671813  0.34045096  0.00037257  1
  Sb  Sb89  1  0.16011890  -0.00273183  0.50009092  1
  Sb  Sb90  1  0.83165563  0.50000516  0.66282757  1
  Sb  Sb91  1  0.33322497  0.16325689  0.50197739  1
  Sb  Sb92  1  -0.00695837  0.67001189  0.66512555  1
  Sb  Sb93  1  0.83456999  0.16121622  -0.00317938  1
  Sb  Sb94  1  0.50520436  -0.00318698  0.83524171  1
  Sb  Sb95  1  -0.00690015  0.33848608  0.33467746  1
  Sb  Sb96  1  0.33025768  -0.00818145  0.00151575  1
  Sb  Sb97  1  0.67347237  -0.00703926  0.00059832  1
  Sb  Sb98  1  0.33417767  0.15959234  0.16579463  1
  Sb  Sb99  1  0.82969645  0.16153589  0.33652775  1
  Sb  Sb100  1  0.50330709  0.33482737  0.83217924  1
  Sb  Sb101  1  0.16925501  0.66796165  0.16815362  1
  Sb  Sb102  1  0.15978537  0.66692833  0.49815761  1
  Sb  Sb103  1  0.16610504  0.33228556  0.83062001  1
  Sb  Sb104  1  -0.00566232  0.83073927  0.17051340  1
  Sb  Sb105  1  0.34450776  0.33844531  0.33449624  1
  Sb  Sb106  1  0.16197052  -0.00323587  0.16898354  1
  Sb  Sb107  1  0.33594949  0.00071746  0.66370028  1
  Te  Te108  1  0.16062168  0.16671880  0.16579171  1
  Te  Te109  1  0.16217030  0.16732174  0.50534739  1
  Te  Te110  1  0.16591072  0.16616368  0.82798158  1
  Te  Te111  1  0.16068893  0.49868806  0.16329161  1
  Te  Te112  1  0.16166389  0.50024936  0.50468222  1
  Te  Te113  1  0.16725880  0.49950131  0.83129992  1
  Te  Te114  1  0.17544825  0.83442819  0.17247516  1
  Te  Te115  1  0.17125229  0.83299482  0.49579448  1
  Te  Te116  1  0.16805130  0.83333190  0.83364610  1
  Te  Te117  1  0.49873459  0.16256822  0.16945497  1
  Te  Te118  1  0.49789296  0.16963910  0.50001583  1
  Te  Te119  1  0.50203871  0.16533927  0.83053535  1
  Te  Te120  1  0.49971711  0.50256704  0.17391828  1
  Te  Te121  1  0.50254732  0.49879143  0.49630018  1
  Te  Te122  1  0.50561708  0.50372659  0.83436866  1
  Te  Te123  1  0.50303800  0.83146174  0.16606109  1
  Te  Te124  1  0.49777987  0.83493989  0.49605432  1
  Te  Te125  1  0.49868168  0.82879350  0.83432817  1
  Te  Te126  1  0.83740411  0.16169997  0.16617567  1
  Te  Te127  1  0.83872523  0.16626709  0.50252107  1
  Te  Te128  1  0.83227437  0.16631956  0.83204817  1
  Te  Te129  1  0.83763029  0.49635746  0.17025296  1
  Te  Te130  1  0.83139173  0.50241993  0.49694058  1
  Te  Te131  1  0.82830609  0.50238578  0.83111887  1
  Te  Te132  1  0.83020648  0.83825467  0.16857180  1
  Te  Te133  1  0.83149012  0.83201228  0.49880505  1
  Te  Te134  1  0.83477394  0.83233384  0.83413712  1
  Te  Te135  1  0.15648073  0.00149463  0.00085697  1
  Te  Te136  1  0.17274243  -0.00652240  0.33412790  1
  Te  Te137  1  0.16460487  0.00435466  0.66668373  1
  Te  Te138  1  0.16758689  0.34400258  0.00009375  1
  Te  Te139  1  0.16679484  0.32982399  0.33309801  1
  Te  Te140  1  0.16713597  0.33319609  0.66547921  1
  Te  Te141  1  0.16808154  0.66153774  -0.00027895  1
  Te  Te142  1  0.16711738  0.67275681  0.33408746  1
  Te  Te143  1  0.16612790  0.66172904  0.66640310  1
  Te  Te144  1  0.49904459  -0.00028048  0.00822048  1
  Te  Te145  1  0.50491959  0.00125504  0.33322157  1
  Te  Te146  1  0.50553359  0.00560685  0.66967164  1
  Te  Te147  1  0.49890619  0.33437179  0.00707352  1
  Te  Te148  1  0.50329535  0.33301567  0.33454741  1
  Te  Te149  1  0.50595753  0.32918792  0.66489651  1
  Te  Te150  1  0.49726767  0.66690747  -0.00126136  1
  Te  Te151  1  0.50461442  0.66675328  0.33474353  1
  Te  Te152  1  0.50793352  0.66667769  0.67464164  1
  Te  Te153  1  0.83824792  -0.00387386  0.00009619  1
  Te  Te154  1  0.82629549  -0.00307887  0.33393275  1
  Te  Te155  1  0.83234665  0.00035979  0.66617642  1
  Te  Te156  1  0.83280855  0.34616020  0.00074969  1
  Te  Te157  1  0.82476366  0.33815740  0.33292778  1
  Te  Te158  1  0.82534637  0.32518054  0.66634100  1
  Te  Te159  1  0.83266421  0.66805266  0.00338660  1
  Te  Te160  1  0.83036792  0.66845530  0.33189458  1
  Te  Te161  1  0.82784246  0.66429872  0.66863325  1
  Te  Te162  1  0.00030156  0.16847165  0.00354352  1
  Te  Te163  1  -0.00069420  0.16759708  0.33518405  1
  Te  Te164  1  -0.00277039  0.16551456  0.66437723  1
  Te  Te165  1  -0.00326593  0.50376420  -0.00262982  1
  Te  Te166  1  -0.00112506  0.50436259  0.33340537  1
  Te  Te167  1  0.00248872  0.49834149  0.66407704  1
  Te  Te168  1  -0.00264583  0.83081101  0.00303827  1
  Te  Te169  1  -0.00900664  0.82964809  0.33570378  1
  Te  Te170  1  0.00287446  0.83895721  0.66632710  1
  Te  Te171  1  0.33179476  0.16528066  -0.00647886  1
  Te  Te172  1  0.33772662  0.16729349  0.33289711  1
  Te  Te173  1  0.33133999  0.16533666  0.67055215  1
  Te  Te174  1  0.33383255  0.50876398  -0.00015256  1
  Te  Te175  1  0.33224074  0.50577901  0.33804435  1
  Te  Te176  1  0.33093993  0.49959051  0.66052160  1
  Te  Te177  1  0.32976990  0.82819205  -0.00652775  1
  Te  Te178  1  0.34270072  0.83098852  0.33315985  1
  Te  Te179  1  0.33300152  0.83391794  0.67282667  1
  Te  Te180  1  0.66757372  0.16982895  -0.00649894  1
  Te  Te181  1  0.66260110  0.16931323  0.33128526  1
  Te  Te182  1  0.66959142  0.16285343  0.66559903  1
  Te  Te183  1  0.67107983  0.50575810  -0.00074979  1
  Te  Te184  1  0.66711309  0.50262979  0.33324958  1
  Te  Te185  1  0.66660947  0.50402194  0.66404305  1
  Te  Te186  1  0.67347861  0.82751262  0.00057974  1
  Te  Te187  1  0.66149650  0.83317258  0.33404528  1
  Te  Te188  1  0.66533168  0.83263880  0.65950047  1
  Te  Te189  1  -0.00500932  0.00181681  0.16776451  1
  Te  Te190  1  -0.00571805  -0.00356521  0.50127192  1
  Te  Te191  1  -0.00375020  -0.00232378  0.83226023  1
  Te  Te192  1  0.00162223  0.33046460  0.16780820  1
  Te  Te193  1  0.00091496  0.34024717  0.49868444  1
  Te  Te194  1  0.00017036  0.32348264  0.83270287  1
  Te  Te195  1  0.00209231  0.66300173  0.16632253  1
  Te  Te196  1  -0.00640095  0.66902583  0.49935017  1
  Te  Te197  1  -0.00633795  0.67239775  0.83431401  1
  Te  Te198  1  0.33384211  -0.00600758  0.16956741  1
  Te  Te199  1  0.33187895  -0.00594980  0.49573839  1
  Te  Te200  1  0.33616699  -0.00174130  0.83310944  1
  Te  Te201  1  0.33995570  0.33180289  0.16528807  1
  Te  Te202  1  0.34036660  0.33803533  0.50054591  1
  Te  Te203  1  0.33428954  0.32804305  0.83446008  1
  Te  Te204  1  0.33586459  0.67032860  0.16832390  1
  Te  Te205  1  0.33212966  0.66831909  0.49720027  1
  Te  Te206  1  0.33200048  0.66890325  0.82961873  1
  Te  Te207  1  0.66880444  -0.00428287  0.16601798  1
  Te  Te208  1  0.67119325  0.00009153  0.49952087  1
  Te  Te209  1  0.67184196  0.00179949  0.83288261  1
  Te  Te210  1  0.66101069  0.33020510  0.16822604  1
  Te  Te211  1  0.66358051  0.33339040  0.50044657  1
  Te  Te212  1  0.66555864  0.33068496  0.83063167  1
  Te  Te213  1  0.66096727  0.66920565  0.16841264  1
  Te  Te214  1  0.66925249  0.66698303  0.49971840  1
  Te  Te215  1  0.67026038  0.66800253  0.83546265  1
