# generated using pymatgen
data_AgSbTe2
_symmetry_space_group_name_H-M   'P 1'
_cell_length_a   18.33890007
_cell_length_b   18.33540691
_cell_length_c   18.33948272
_cell_angle_alpha   89.99911485
_cell_angle_beta   89.99750334
_cell_angle_gamma   90.00048533
_symmetry_Int_Tables_number   1
_chemical_formula_structural   AgSbTe2
_chemical_formula_sum   'Ag54 Sb54 Te108'
_cell_volume   6166.67297440
_cell_formula_units_Z   54
loop_
 _symmetry_equiv_pos_site_id
 _symmetry_equiv_pos_as_xyz
  1  'x, y, z'
loop_
 _atom_site_type_symbol
 _atom_site_label
 _atom_site_symmetry_multiplicity
 _atom_site_fract_x
 _atom_site_fract_y
 _atom_site_fract_z
 _atom_site_occupancy
  Ag  Ag0  1  0.16803125  0.17351959  -0.00335989  1
  Ag  Ag1  1  0.67582085  0.83410760  0.84440565  1
  Ag  Ag2  1  0.66732753  -0.01120709  0.01172147  1
  Ag  Ag3  1  0.15337541  0.84256561  0.66587698  1
  Ag  Ag4  1  0.82916104  0.82727682  0.00871712  1
  Ag  Ag5  1  0.33056581  0.16523271  0.49905647  1
  Ag  Ag6  1  -0.00342496  0.67951723  0.65917869  1
  Ag  Ag7  1  0.50830650  0.83103193  0.33121399  1
  Ag  Ag8  1  0.82563188  0.33875207  0.17104606  1
  Ag  Ag9  1  0.82525681  0.82685282  0.33110303  1
  Ag  Ag10  1  0.50476275  0.17365776  0.33459585  1
  Ag  Ag11  1  0.50744497  0.33699901  0.17111999  1
  Ag  Ag12  1  0.00291334  -0.00109140  0.65937175  1
  Ag  Ag13  1  0.50370349  0.50102088  0.01135477  1
  Ag  Ag14  1  0.33783768  0.83424533  0.49229934  1
  Ag  Ag15  1  0.33786322  0.49973658  0.48988453  1
  Ag  Ag16  1  0.67128749  0.83913318  0.17060807  1
  Ag  Ag17  1  -0.00395479  0.33203592  0.33432579  1
  Ag  Ag18  1  0.50554455  0.66653856  0.49483432  1
  Ag  Ag19  1  0.66791387  0.82899296  0.48852702  1
  Ag  Ag20  1  -0.00581350  -0.00245471  0.33804771  1
  Ag  Ag21  1  0.48784396  0.16650002  0.65317180  1
  Ag  Ag22  1  0.82720499  0.17011180  0.33566329  1
  Ag  Ag23  1  0.16587445  0.16570334  0.66475290  1
  Ag  Ag24  1  0.00203958  0.32228502  0.65649693  1
  Ag  Ag25  1  -0.01141955  0.83293454  0.17490421  1
  Ag  Ag26  1  0.66754351  0.32841890  0.32983903  1
  Ag  Ag27  1  0.66785741  0.17005781  0.17136029  1
  Ag  Ag28  1  0.83394558  0.66729524  0.17435475  1
  Ag  Ag29  1  0.82720882  0.50328856  0.33053368  1
  Ag  Ag30  1  -0.00770507  0.83168948  0.82139015  1
  Ag  Ag31  1  0.51217455  0.82861307  0.01352900  1
  Ag  Ag32  1  0.16635739  0.33083239  0.49587826  1
  Ag  Ag33  1  0.16591805  0.32940369  0.83310674  1
  Ag  Ag34  1  0.84314891  0.16233257  0.65664299  1
  Ag  Ag35  1  -0.00874590  0.67296074  0.33682881  1
  Ag  Ag36  1  0.83495632  0.67278728  0.83321078  1
  Ag  Ag37  1  0.82900115  0.50622491  0.01117848  1
  Ag  Ag38  1  0.33662343  0.49985855  0.17284570  1
  Ag  Ag39  1  0.66770654  -0.00428884  0.33011954  1
  Ag  Ag40  1  0.34028231  0.33729495  0.33271895  1
  Ag  Ag41  1  0.33861727  0.82819956  0.17783307  1
  Ag  Ag42  1  0.33598123  0.66873525  0.33498818  1
  Ag  Ag43  1  0.49929932  0.49642565  0.33088511  1
  Ag  Ag44  1  0.33063980  0.16765832  0.82035681  1
  Ag  Ag45  1  0.00191736  0.16970508  0.49987406  1
  Ag  Ag46  1  0.34101809  -0.00555654  0.33740448  1
  Ag  Ag47  1  0.32658956  0.00413675  0.65603293  1
  Ag  Ag48  1  0.83186630  0.66849077  0.49203156  1
  Ag  Ag49  1  0.66754086  0.33303332  0.01300339  1
  Ag  Ag50  1  0.16961544  0.49265077  0.00356188  1
  Ag  Ag51  1  0.83583676  0.83248748  0.66747919  1
  Ag  Ag52  1  0.16667171  0.33346017  0.17097183  1
  Ag  Ag53  1  0.66349015  0.50461326  0.49303833  1
  Sb  Sb54  1  0.83736432  0.33720572  0.83755455  1
  Sb  Sb55  1  -0.00132640  0.83621473  0.49851916  1
  Sb  Sb56  1  0.66697873  0.16550507  0.49145118  1
  Sb  Sb57  1  0.83123122  -0.00441207  0.17099761  1
  Sb  Sb58  1  -0.00072110  0.50177169  0.17036651  1
  Sb  Sb59  1  0.00024694  0.49699766  0.49564102  1
  Sb  Sb60  1  0.83469097  0.16652064  0.00513274  1
  Sb  Sb61  1  -0.00059410  0.33270199  0.00485443  1
  Sb  Sb62  1  0.50542382  0.66538947  0.17593982  1
  Sb  Sb63  1  0.49797438  -0.00403559  0.49598263  1
  Sb  Sb64  1  0.66940026  0.66824974  0.33371704  1
  Sb  Sb65  1  0.33527493  0.66616519  0.00828145  1
  Sb  Sb66  1  0.50230438  -0.00034710  0.17086685  1
  Sb  Sb67  1  0.49810247  0.49410198  0.65913156  1
  Sb  Sb68  1  0.66429518  0.16225331  0.83824372  1
  Sb  Sb69  1  0.33360116  0.33270384  0.00974541  1
  Sb  Sb70  1  0.83406342  -0.00546396  0.49642730  1
  Sb  Sb71  1  0.16720529  0.00393248  0.16853668  1
  Sb  Sb72  1  0.16636263  0.00575060  0.83048738  1
  Sb  Sb73  1  0.50434280  0.66916574  0.82953652  1
  Sb  Sb74  1  0.83722746  0.33621821  0.48987120  1
  Sb  Sb75  1  0.67393742  0.67027853  0.66204654  1
  Sb  Sb76  1  0.16778878  0.00387193  0.50104769  1
  Sb  Sb77  1  0.16744419  0.17010333  0.33786834  1
  Sb  Sb78  1  0.33881583  0.00093494  0.00418919  1
  Sb  Sb79  1  0.50338302  0.83804955  0.65988091  1
  Sb  Sb80  1  -0.00539171  -0.00198617  0.00085075  1
  Sb  Sb81  1  0.16730805  0.83365470  0.33832775  1
  Sb  Sb82  1  0.33318381  0.83792759  0.83018435  1
  Sb  Sb83  1  0.49547049  0.33594370  0.49050335  1
  Sb  Sb84  1  0.67217192  0.32934625  0.66048444  1
  Sb  Sb85  1  0.66860533  0.50368206  0.83487255  1
  Sb  Sb86  1  0.49861270  0.16751712  0.00678091  1
  Sb  Sb87  1  0.16320148  0.66392515  0.16801591  1
  Sb  Sb88  1  0.83500934  0.50213027  0.66130120  1
  Sb  Sb89  1  0.00275286  0.16330545  0.82422819  1
  Sb  Sb90  1  0.16613512  0.49452190  0.66733055  1
  Sb  Sb91  1  -0.00414526  0.66813914  0.00278772  1
  Sb  Sb92  1  0.50055321  -0.00057419  0.83308093  1
  Sb  Sb93  1  0.32760035  0.67485962  0.65611576  1
  Sb  Sb94  1  0.16451510  0.66310564  0.49887331  1
  Sb  Sb95  1  0.66862413  -0.00017584  0.66153926  1
  Sb  Sb96  1  0.49608997  0.33164503  0.83937634  1
  Sb  Sb97  1  0.33582906  0.16834753  0.17584912  1
  Sb  Sb98  1  0.83378983  -0.00725471  0.83105187  1
  Sb  Sb99  1  0.33232866  0.49340603  0.83669326  1
  Sb  Sb100  1  0.66874191  0.66741310  0.00273496  1
  Sb  Sb101  1  -0.00369791  0.16471392  0.17605270  1
  Sb  Sb102  1  -0.00072557  0.50348651  0.83368411  1
  Sb  Sb103  1  0.16410005  0.83335760  -0.00191604  1
  Sb  Sb104  1  0.17302927  0.49572591  0.32963684  1
  Sb  Sb105  1  0.16189721  0.66368601  0.83154128  1
  Sb  Sb106  1  0.66538604  0.49785825  0.17390498  1
  Sb  Sb107  1  0.32785690  0.32583495  0.65732943  1
  Te  Te108  1  0.16659049  0.17169307  0.16276354  1
  Te  Te109  1  0.16747793  0.17119168  0.50338771  1
  Te  Te110  1  0.16867252  0.17096187  0.82987479  1
  Te  Te111  1  0.17022968  0.49642564  0.16227051  1
  Te  Te112  1  0.17371600  0.49269238  0.50058857  1
  Te  Te113  1  0.16681620  0.49239313  0.84035101  1
  Te  Te114  1  0.17142320  0.83325902  0.16241757  1
  Te  Te115  1  0.17325747  0.83096888  0.50730668  1
  Te  Te116  1  0.16328389  0.83237208  0.82883149  1
  Te  Te117  1  0.50346404  0.17352993  0.17242297  1
  Te  Te118  1  0.49930033  0.16806874  0.49609171  1
  Te  Te119  1  0.49496696  0.16703209  0.83463366  1
  Te  Te120  1  0.49855875  0.49981007  0.16914784  1
  Te  Te121  1  0.49943823  0.50344884  0.49569559  1
  Te  Te122  1  0.50014636  0.50053137  0.83867119  1
  Te  Te123  1  0.49789808  0.83145713  0.16957861  1
  Te  Te124  1  0.49951769  0.82843193  0.49637955  1
  Te  Te125  1  0.50337543  0.83198831  0.83470943  1
  Te  Te126  1  0.82983456  0.17394142  0.17051659  1
  Te  Te127  1  0.83386928  0.16886230  0.49845562  1
  Te  Te128  1  0.83309174  0.16771877  0.83103729  1
  Te  Te129  1  0.83369882  0.50124987  0.16897889  1
  Te  Te130  1  0.82988663  0.50587292  0.49478886  1
  Te  Te131  1  0.83258568  0.50664376  0.83774355  1
  Te  Te132  1  0.83161050  0.83238980  0.16948753  1
  Te  Te133  1  0.83339159  0.82856431  0.49658357  1
  Te  Te134  1  0.83426028  0.83112667  0.82908671  1
  Te  Te135  1  0.16704268  0.00540231  -0.00022630  1
  Te  Te136  1  0.16109074  0.00160458  0.33340172  1
  Te  Te137  1  0.16589840  0.00174399  0.66659946  1
  Te  Te138  1  0.16650441  0.33381474  0.00258058  1
  Te  Te139  1  0.16132250  0.33360828  0.33266925  1
  Te  Te140  1  0.16273731  0.33009678  0.66616824  1
  Te  Te141  1  0.16670821  0.65836079  -0.00128147  1
  Te  Te142  1  0.16266334  0.66487571  0.33318466  1
  Te  Te143  1  0.15876772  0.66745499  0.66711877  1
  Te  Te144  1  0.50702275  -0.00554004  0.00088840  1
  Te  Te145  1  0.50011911  -0.00428088  0.33301094  1
  Te  Te146  1  0.49728956  0.00734161  0.66602302  1
  Te  Te147  1  0.50350672  0.33634353  0.00679525  1
  Te  Te148  1  0.50011912  0.33453025  0.33063193  1
  Te  Te149  1  0.50182345  0.32616889  0.66950370  1
  Te  Te150  1  0.49974646  0.66682690  -0.00139614  1
  Te  Te151  1  0.49492736  0.66866945  0.33644455  1
  Te  Te152  1  0.49783805  0.66521492  0.65861815  1
  Te  Te153  1  0.82642343  -0.00378517  -0.00008029  1
  Te  Te154  1  0.83353719  0.00347801  0.33340430  1
  Te  Te155  1  0.83649600  0.00090401  0.66460613  1
  Te  Te156  1  0.83052068  0.33565427  0.00501043  1
  Te  Te157  1  0.83351946  0.33124775  0.33064630  1
  Te  Te158  1  0.84026126  0.33253662  0.66851509  1
  Te  Te159  1  0.83415424  0.66727131  -0.00079791  1
  Te  Te160  1  0.83323701  0.66771967  0.33344343  1
  Te  Te161  1  0.83849055  0.66820496  0.66748866  1
  Te  Te162  1  0.00514253  0.16385964  -0.00092065  1
  Te  Te163  1  -0.00134398  0.16711691  0.33788300  1
  Te  Te164  1  0.00093531  0.16452912  0.66376863  1
  Te  Te165  1  -0.00479097  0.50015718  0.00156957  1
  Te  Te166  1  -0.00769764  0.49781275  0.33335483  1
  Te  Te167  1  0.00062345  0.49741661  0.66539669  1
  Te  Te168  1  -0.00450451  0.83473844  0.00387630  1
  Te  Te169  1  0.00126934  0.83372006  0.33391532  1
  Te  Te170  1  -0.00309798  0.83646577  0.66199614  1
  Te  Te171  1  0.32940914  0.16486695  -0.00092777  1
  Te  Te172  1  0.33546401  0.16520041  0.33776906  1
  Te  Te173  1  0.33116656  0.16488415  0.66228455  1
  Te  Te174  1  0.33671363  0.49969425  0.00487969  1
  Te  Te175  1  0.33447675  0.49783033  0.33267210  1
  Te  Te176  1  0.33369521  0.50151830  0.66236582  1
  Te  Te177  1  0.33460412  0.83447385  0.00067806  1
  Te  Te178  1  0.32864858  0.83443031  0.33500830  1
  Te  Te179  1  0.33558387  0.84160175  0.66477051  1
  Te  Te180  1  0.66643875  0.17099617  0.00541538  1
  Te  Te181  1  0.66595262  0.16734971  0.33157500  1
  Te  Te182  1  0.67123918  0.16563050  0.66772414  1
  Te  Te183  1  0.66673686  0.49655502  -0.00016090  1
  Te  Te184  1  0.66619920  0.49748870  0.33508924  1
  Te  Te185  1  0.66583818  0.49840115  0.65953570  1
  Te  Te186  1  0.66857601  0.83148347  0.00156632  1
  Te  Te187  1  0.66675628  0.83332462  0.33184136  1
  Te  Te188  1  0.67242247  0.83640294  0.66671433  1
  Te  Te189  1  0.00041777  -0.00564268  0.17118705  1
  Te  Te190  1  0.00031572  0.00652397  0.49925297  1
  Te  Te191  1  0.00034022  -0.00791030  0.82974615  1
  Te  Te192  1  0.00322898  0.33238328  0.17162619  1
  Te  Te193  1  0.00262030  0.33081017  0.49798401  1
  Te  Te194  1  0.00536998  0.33375855  0.83312523  1
  Te  Te195  1  -0.00431664  0.67179019  0.17194528  1
  Te  Te196  1  -0.00314320  0.66528150  0.49844349  1
  Te  Te197  1  -0.00398021  0.67116535  0.82995038  1
  Te  Te198  1  0.33352714  -0.00509643  0.17300731  1
  Te  Te199  1  0.33310244  0.00098776  0.49780234  1
  Te  Te200  1  0.33360682  0.00716795  0.83148290  1
  Te  Te201  1  0.33005300  0.33520210  0.17301616  1
  Te  Te202  1  0.33012806  0.33179100  0.49396002  1
  Te  Te203  1  0.32832034  0.32750466  0.83223633  1
  Te  Te204  1  0.33323229  0.66608827  0.17401056  1
  Te  Te205  1  0.33231757  0.66645025  0.49458861  1
  Te  Te206  1  0.33312632  0.66557334  0.83116898  1
  Te  Te207  1  0.66659632  0.00138350  0.16944590  1
  Te  Te208  1  0.66625681  -0.00737794  0.49243443  1
  Te  Te209  1  0.66653226  -0.00578295  0.83574584  1
  Te  Te210  1  0.66683130  0.33476599  0.16993420  1
  Te  Te211  1  0.66655040  0.33790327  0.49374125  1
  Te  Te212  1  0.66706353  0.33332259  0.83579162  1
  Te  Te213  1  0.67349018  0.67701307  0.16637685  1
  Te  Te214  1  0.66733550  0.66799933  0.50013477  1
  Te  Te215  1  0.67238400  0.67272365  0.82999949  1
