# generated using pymatgen
data_AgSbTe2
_symmetry_space_group_name_H-M   'P 1'
_cell_length_a   18.33656797
_cell_length_b   18.33715240
_cell_length_c   18.33533851
_cell_angle_alpha   90.00116116
_cell_angle_beta   90.00534180
_cell_angle_gamma   89.99945521
_symmetry_Int_Tables_number   1
_chemical_formula_structural   AgSbTe2
_chemical_formula_sum   'Ag54 Sb54 Te108'
_cell_volume   6165.08228400
_cell_formula_units_Z   54
loop_
 _symmetry_equiv_pos_site_id
 _symmetry_equiv_pos_as_xyz
  1  'x, y, z'
loop_
 _atom_site_type_symbol
 _atom_site_label
 _atom_site_symmetry_multiplicity
 _atom_site_fract_x
 _atom_site_fract_y
 _atom_site_fract_z
 _atom_site_occupancy
  Ag  Ag0  1  0.50739229  0.83038782  0.32852058  1
  Ag  Ag1  1  0.83733923  0.33849370  0.50603647  1
  Ag  Ag2  1  -0.00020256  0.17011071  0.49937180  1
  Ag  Ag3  1  -0.00001293  -0.00022797  0.32223835  1
  Ag  Ag4  1  0.33347493  0.66808394  0.32876318  1
  Ag  Ag5  1  0.16159127  0.16327408  0.33520675  1
  Ag  Ag6  1  -0.00708861  0.66352902  0.00718610  1
  Ag  Ag7  1  0.15792687  0.83706677  0.32848628  1
  Ag  Ag8  1  0.83043910  0.50184310  0.32687584  1
  Ag  Ag9  1  0.83295670  0.82736867  0.00934640  1
  Ag  Ag10  1  0.51229395  0.50141717  0.00565177  1
  Ag  Ag11  1  0.83508551  0.33681363  0.82923769  1
  Ag  Ag12  1  0.32716133  0.33230337  -0.00464883  1
  Ag  Ag13  1  0.66949681  0.50176230  0.83774039  1
  Ag  Ag14  1  0.67023972  0.82927588  0.49170767  1
  Ag  Ag15  1  0.33160278  0.00088958  -0.00115380  1
  Ag  Ag16  1  0.67712960  0.82789832  0.16823998  1
  Ag  Ag17  1  0.66949980  0.83198190  0.83656994  1
  Ag  Ag18  1  -0.00430390  0.66139242  0.66953298  1
  Ag  Ag19  1  0.67062289  0.34182192  0.33723402  1
  Ag  Ag20  1  -0.01065059  0.49413040  0.49908219  1
  Ag  Ag21  1  0.49941316  -0.00290356  0.83720731  1
  Ag  Ag22  1  0.15215563  0.67267836  0.16728556  1
  Ag  Ag23  1  0.15224032  0.49099577  0.66776689  1
  Ag  Ag24  1  0.82991275  0.83018023  0.32123455  1
  Ag  Ag25  1  -0.00779578  0.00143226  0.66657954  1
  Ag  Ag26  1  0.67279941  0.50147259  0.49209148  1
  Ag  Ag27  1  0.33136915  0.17022148  0.83579073  1
  Ag  Ag28  1  0.83435729  0.67201036  0.16317893  1
  Ag  Ag29  1  0.51335895  0.50761102  0.32538089  1
  Ag  Ag30  1  0.15203228  -0.00703728  0.16843928  1
  Ag  Ag31  1  -0.00353550  0.00085367  0.01050676  1
  Ag  Ag32  1  0.67375778  -0.00146751  0.66703814  1
  Ag  Ag33  1  0.83702244  0.16822257  -0.00213007  1
  Ag  Ag34  1  0.51174226  0.67007183  0.16681093  1
  Ag  Ag35  1  0.83285467  0.83294425  0.66660402  1
  Ag  Ag36  1  -0.00302776  0.33563497  0.00250782  1
  Ag  Ag37  1  -0.00754031  0.50629254  0.16669612  1
  Ag  Ag38  1  0.83445271  0.49579378  0.66302665  1
  Ag  Ag39  1  0.15488546  0.17239632  0.66432352  1
  Ag  Ag40  1  0.67410685  0.50827073  0.16602042  1
  Ag  Ag41  1  0.33717540  0.49737749  0.83578432  1
  Ag  Ag42  1  0.50405387  -0.00197121  0.49674523  1
  Ag  Ag43  1  0.15518619  0.33287033  0.50810075  1
  Ag  Ag44  1  0.83173876  0.50364604  0.00808952  1
  Ag  Ag45  1  -0.01127273  0.83792978  0.16672980  1
  Ag  Ag46  1  0.33888413  0.83755926  0.83429157  1
  Ag  Ag47  1  0.67486129  0.33684803  0.66401672  1
  Ag  Ag48  1  0.84095992  -0.01318417  0.16345587  1
  Ag  Ag49  1  0.83666415  0.17046108  0.66979465  1
  Ag  Ag50  1  0.50419186  -0.00886295  0.16512597  1
  Ag  Ag51  1  0.15979004  0.33454409  0.82900186  1
  Ag  Ag52  1  -0.00150231  0.15221798  0.16794803  1
  Ag  Ag53  1  0.67517696  0.66426056  0.00450104  1
  Sb  Sb54  1  0.50295780  0.33746566  0.16470895  1
  Sb  Sb55  1  0.33474808  0.49890389  0.50319503  1
  Sb  Sb56  1  0.33244136  0.66764681  0.00420045  1
  Sb  Sb57  1  0.32613139  0.16240561  0.16116938  1
  Sb  Sb58  1  0.83318015  0.65981845  0.49486189  1
  Sb  Sb59  1  0.50396869  0.66975235  0.49033863  1
  Sb  Sb60  1  0.50176663  0.66943214  0.83937948  1
  Sb  Sb61  1  0.32558356  0.16660978  0.50542270  1
  Sb  Sb62  1  0.15774269  0.83494768  0.66301235  1
  Sb  Sb63  1  -0.00600527  0.33249465  0.66708515  1
  Sb  Sb64  1  0.15882108  0.16659554  -0.00041441  1
  Sb  Sb65  1  0.33001846  -0.00540170  0.32645488  1
  Sb  Sb66  1  0.67538844  0.16306808  0.16689224  1
  Sb  Sb67  1  0.33450730  0.33784527  0.32874882  1
  Sb  Sb68  1  0.67458908  0.16865190  0.50088536  1
  Sb  Sb69  1  -0.00451913  0.33102392  0.33201257  1
  Sb  Sb70  1  0.16159865  0.49983631  0.33599868  1
  Sb  Sb71  1  0.50596280  0.83017536  0.00479396  1
  Sb  Sb72  1  0.50244824  0.33287292  0.83467255  1
  Sb  Sb73  1  0.33301477  -0.00020513  0.67342927  1
  Sb  Sb74  1  0.67131639  -0.00602133  -0.00151753  1
  Sb  Sb75  1  -0.00635291  0.49708209  0.83406440  1
  Sb  Sb76  1  -0.00539303  0.83506107  0.83971522  1
  Sb  Sb77  1  0.16509760  0.00372775  0.49560824  1
  Sb  Sb78  1  0.67370016  0.34206420  -0.00167487  1
  Sb  Sb79  1  0.83209653  0.00147101  0.49997274  1
  Sb  Sb80  1  0.50275794  0.16764854  0.00035584  1
  Sb  Sb81  1  0.16089751  0.83492319  0.00581067  1
  Sb  Sb82  1  0.50306921  0.16416739  0.66712335  1
  Sb  Sb83  1  0.00049301  0.67046804  0.32714942  1
  Sb  Sb84  1  -0.00712735  0.83341966  0.49437374  1
  Sb  Sb85  1  0.16589077  0.66197815  0.83821595  1
  Sb  Sb86  1  0.83299250  0.66210369  0.84073455  1
  Sb  Sb87  1  0.00107198  0.16800622  0.83312576  1
  Sb  Sb88  1  0.16290270  0.33316187  0.16558969  1
  Sb  Sb89  1  0.50594961  0.33185095  0.49848606  1
  Sb  Sb90  1  0.16196675  0.66218070  0.49486323  1
  Sb  Sb91  1  0.83907266  0.16706084  0.33285586  1
  Sb  Sb92  1  0.51028249  0.83494222  0.66521920  1
  Sb  Sb93  1  0.32572734  0.66566539  0.66555484  1
  Sb  Sb94  1  0.49559009  0.16324969  0.33179456  1
  Sb  Sb95  1  0.83441176  0.33724528  0.16516195  1
  Sb  Sb96  1  0.83022282  0.00180329  0.83461288  1
  Sb  Sb97  1  0.33415371  0.50235949  0.16135382  1
  Sb  Sb98  1  0.33847496  0.83517363  0.50115341  1
  Sb  Sb99  1  0.67109143  -0.00158097  0.33538796  1
  Sb  Sb100  1  0.66662944  0.66314268  0.32445566  1
  Sb  Sb101  1  0.50888908  0.50076422  0.66817283  1
  Sb  Sb102  1  0.16141712  0.49871232  -0.00333118  1
  Sb  Sb103  1  0.33113332  0.33377205  0.67349637  1
  Sb  Sb104  1  0.33316693  0.83281646  0.16352752  1
  Sb  Sb105  1  0.16929674  0.00401701  0.83777477  1
  Sb  Sb106  1  0.66614084  0.16736371  0.83299450  1
  Sb  Sb107  1  0.67542087  0.66664667  0.67250159  1
  Te  Te108  1  0.15943043  0.16408281  0.16951959  1
  Te  Te109  1  0.16107709  0.17032199  0.50238874  1
  Te  Te110  1  0.17091397  0.17129816  0.83031503  1
  Te  Te111  1  0.16258569  0.50351941  0.16738032  1
  Te  Te112  1  0.16632271  0.49447877  0.50562802  1
  Te  Te113  1  0.16950717  0.49581426  0.82828925  1
  Te  Te114  1  0.16774431  0.83382147  0.17052063  1
  Te  Te115  1  0.16745905  0.83295326  0.49179668  1
  Te  Te116  1  0.17062408  0.83286686  0.83212520  1
  Te  Te117  1  0.50075318  0.16091319  0.16679738  1
  Te  Te118  1  0.49904144  0.15997220  0.49895464  1
  Te  Te119  1  0.49384255  0.16023392  0.83434075  1
  Te  Te120  1  0.50121372  0.50291530  0.16660072  1
  Te  Te121  1  0.50530764  0.50002474  0.49518208  1
  Te  Te122  1  0.50363371  0.50121968  0.83627310  1
  Te  Te123  1  0.49884127  0.83087919  0.16881083  1
  Te  Te124  1  0.50637504  0.83689122  0.49533833  1
  Te  Te125  1  0.50323527  0.83635736  0.83391187  1
  Te  Te126  1  0.83958305  0.16568132  0.16426385  1
  Te  Te127  1  0.83958315  0.17131659  0.50275767  1
  Te  Te128  1  0.83268379  0.17185261  0.83239134  1
  Te  Te129  1  0.83275655  0.49820476  0.16770932  1
  Te  Te130  1  0.83214367  0.49906632  0.50076657  1
  Te  Te131  1  0.82940831  0.49651462  0.83132317  1
  Te  Te132  1  0.83266241  0.83163426  0.16523484  1
  Te  Te133  1  0.82846337  0.83308246  0.50542089  1
  Te  Te134  1  0.82911136  0.83425411  0.82749077  1
  Te  Te135  1  0.16452827  0.00075417  0.00577832  1
  Te  Te136  1  0.16406468  -0.00073074  0.32947264  1
  Te  Te137  1  0.16450066  0.00460977  0.66582799  1
  Te  Te138  1  0.16564540  0.33196669  -0.00512844  1
  Te  Te139  1  0.16768432  0.32967266  0.33767797  1
  Te  Te140  1  0.16791308  0.33260172  0.66859991  1
  Te  Te141  1  0.16100217  0.66722153  0.00670523  1
  Te  Te142  1  0.16967292  0.66924747  0.32812520  1
  Te  Te143  1  0.15838566  0.66381143  0.66662663  1
  Te  Te144  1  0.49998581  0.00012071  0.00009513  1
  Te  Te145  1  0.49901646  -0.00377677  0.33122326  1
  Te  Te146  1  0.50339950  -0.00021591  0.66856751  1
  Te  Te147  1  0.49589421  0.33885427  -0.00060131  1
  Te  Te148  1  0.50360061  0.33790101  0.33304535  1
  Te  Te149  1  0.50928350  0.33169091  0.66554017  1
  Te  Te150  1  0.49996872  0.66118760  0.00622245  1
  Te  Te151  1  0.49810050  0.66734368  0.32735460  1
  Te  Te152  1  0.49622068  0.66723842  0.66503432  1
  Te  Te153  1  0.83590770  0.00001553  0.00114340  1
  Te  Te154  1  0.83806474  -0.00184874  0.33085187  1
  Te  Te155  1  0.83198572  0.00284249  0.66739497  1
  Te  Te156  1  0.83619348  0.33490485  -0.00230024  1
  Te  Te157  1  0.82993064  0.33571904  0.33814559  1
  Te  Te158  1  0.83270896  0.33338130  0.66731892  1
  Te  Te159  1  0.83501329  0.66578893  0.00166564  1
  Te  Te160  1  0.83455250  0.66801899  0.32773281  1
  Te  Te161  1  0.83790899  0.66582168  0.66717884  1
  Te  Te162  1  -0.00415042  0.16251923  0.00148463  1
  Te  Te163  1  0.00283879  0.16446661  0.33320605  1
  Te  Te164  1  -0.00202413  0.16663051  0.66644714  1
  Te  Te165  1  -0.00462792  0.50183204  0.00055451  1
  Te  Te166  1  -0.00452682  0.50018851  0.33468201  1
  Te  Te167  1  -0.00393589  0.49870850  0.66681277  1
  Te  Te168  1  -0.00516790  0.83487813  0.00395169  1
  Te  Te169  1  -0.00222126  0.83652971  0.32979556  1
  Te  Te170  1  -0.00490686  0.83725444  0.66601111  1
  Te  Te171  1  0.33458806  0.16566253  -0.00413415  1
  Te  Te172  1  0.32499313  0.16731638  0.33361725  1
  Te  Te173  1  0.33119676  0.16633326  0.67366459  1
  Te  Te174  1  0.33101326  0.49882446  -0.00478583  1
  Te  Te175  1  0.33415786  0.50379012  0.33353448  1
  Te  Te176  1  0.33535167  0.50102634  0.67282318  1
  Te  Te177  1  0.33361277  0.83618730  -0.00602244  1
  Te  Te178  1  0.33762733  0.82990159  0.33483354  1
  Te  Te179  1  0.33152999  0.83198010  0.67309310  1
  Te  Te180  1  0.67508646  0.16916401  0.00028088  1
  Te  Te181  1  0.66542814  0.17398108  0.33361317  1
  Te  Te182  1  0.67151800  0.16400743  0.66651240  1
  Te  Te183  1  0.66967693  0.50208324  0.00112373  1
  Te  Te184  1  0.66937542  0.50175512  0.33281270  1
  Te  Te185  1  0.67167014  0.49942220  0.66990573  1
  Te  Te186  1  0.67133816  0.82966234  0.00081799  1
  Te  Te187  1  0.66912442  0.83515393  0.33222311  1
  Te  Te188  1  0.67226942  0.83471746  0.67066818  1
  Te  Te189  1  -0.00313892  -0.00302196  0.16658717  1
  Te  Te190  1  0.00003841  0.00232613  0.50607576  1
  Te  Te191  1  0.00118751  0.00005667  0.82750191  1
  Te  Te192  1  0.00130840  0.34253108  0.16197533  1
  Te  Te193  1  -0.00150566  0.33445484  0.49783759  1
  Te  Te194  1  0.00035952  0.33279308  0.84266551  1
  Te  Te195  1  -0.00411247  0.66621052  0.16670844  1
  Te  Te196  1  -0.00030826  0.66168827  0.50706665  1
  Te  Te197  1  0.00109248  0.66760160  0.83257739  1
  Te  Te198  1  0.34186808  -0.00055162  0.15918258  1
  Te  Te199  1  0.34129091  0.00065819  0.50012163  1
  Te  Te200  1  0.33622401  -0.00224062  0.83781196  1
  Te  Te201  1  0.33278775  0.33167724  0.15806011  1
  Te  Te202  1  0.33094859  0.33261836  0.49988582  1
  Te  Te203  1  0.33529202  0.33512978  0.83672700  1
  Te  Te204  1  0.33300987  0.66667336  0.16951915  1
  Te  Te205  1  0.33261134  0.66686367  0.49286674  1
  Te  Te206  1  0.33378925  0.66445300  0.83432549  1
  Te  Te207  1  0.66506341  -0.00440343  0.16726322  1
  Te  Te208  1  0.66445047  -0.00206825  0.50315903  1
  Te  Te209  1  0.66255496  -0.00167077  0.82979413  1
  Te  Te210  1  0.66674350  0.33598924  0.17116771  1
  Te  Te211  1  0.67028732  0.33632259  0.50162628  1
  Te  Te212  1  0.66989073  0.33568343  0.82954966  1
  Te  Te213  1  0.66974221  0.66717386  0.16324239  1
  Te  Te214  1  0.66680442  0.66772252  0.50442244  1
  Te  Te215  1  0.66618828  0.66766504  0.84122004  1
