# generated using pymatgen
data_AgSbTe2
_symmetry_space_group_name_H-M   'P 1'
_cell_length_a   18.33677991
_cell_length_b   18.34450432
_cell_length_c   18.34725403
_cell_angle_alpha   89.99858146
_cell_angle_beta   89.99712457
_cell_angle_gamma   90.00065832
_symmetry_Int_Tables_number   1
_chemical_formula_structural   AgSbTe2
_chemical_formula_sum   'Ag54 Sb54 Te108'
_cell_volume   6171.63348909
_cell_formula_units_Z   54
loop_
 _symmetry_equiv_pos_site_id
 _symmetry_equiv_pos_as_xyz
  1  'x, y, z'
loop_
 _atom_site_type_symbol
 _atom_site_label
 _atom_site_symmetry_multiplicity
 _atom_site_fract_x
 _atom_site_fract_y
 _atom_site_fract_z
 _atom_site_occupancy
  Ag  Ag0  1  0.50133475  0.50013875  0.00560713  1
  Ag  Ag1  1  0.00120146  0.50693655  0.17236180  1
  Ag  Ag2  1  0.84179007  0.50297613  0.65759235  1
  Ag  Ag3  1  0.51303092  0.00187112  0.84706833  1
  Ag  Ag4  1  0.66602171  0.00250330  0.67754949  1
  Ag  Ag5  1  0.15748050  0.49733119  0.33703014  1
  Ag  Ag6  1  0.00109731  0.66392417  0.65236967  1
  Ag  Ag7  1  0.67075220  0.16088926  0.84248915  1
  Ag  Ag8  1  0.50710936  0.84105593  0.01223579  1
  Ag  Ag9  1  0.16382296  0.17136915  0.65966635  1
  Ag  Ag10  1  0.50270010  0.50619965  0.33496106  1
  Ag  Ag11  1  0.16656729  0.49457002  0.65758951  1
  Ag  Ag12  1  0.00304558  0.83589623  0.49021043  1
  Ag  Ag13  1  0.16125218  0.00831291  0.83413614  1
  Ag  Ag14  1  0.00159748  0.33743584  0.33148382  1
  Ag  Ag15  1  0.66768992  0.84026871  0.16630684  1
  Ag  Ag16  1  0.51379505  -0.00937445  0.16323793  1
  Ag  Ag17  1  0.82969670  0.15688986  -0.00152836  1
  Ag  Ag18  1  -0.00434277  0.83746695  0.17100131  1
  Ag  Ag19  1  0.16885115  0.32999891  0.50277435  1
  Ag  Ag20  1  0.49754230  0.49960802  0.65313328  1
  Ag  Ag21  1  0.82719852  0.84526639  0.00418869  1
  Ag  Ag22  1  0.82960494  0.00301349  0.84656585  1
  Ag  Ag23  1  0.32982012  0.33316254  -0.00471434  1
  Ag  Ag24  1  0.16199436  0.00946332  0.49615106  1
  Ag  Ag25  1  0.50953076  0.15736955  0.00058688  1
  Ag  Ag26  1  -0.00317694  0.66201980  0.33414607  1
  Ag  Ag27  1  0.66900546  0.33236207  0.33513879  1
  Ag  Ag28  1  0.50502093  0.65968631  0.48868991  1
  Ag  Ag29  1  0.66567384  0.15385760  0.16558765  1
  Ag  Ag30  1  -0.00100226  -0.00150545  0.32644954  1
  Ag  Ag31  1  -0.01192031  0.00346898  0.01017472  1
  Ag  Ag32  1  0.50544209  0.82518326  0.32983450  1
  Ag  Ag33  1  0.32766562  0.33545340  0.66491844  1
  Ag  Ag34  1  0.32959803  0.82809545  0.49801422  1
  Ag  Ag35  1  0.66132652  0.66577597  0.32978574  1
  Ag  Ag36  1  0.16533671  0.32945238  0.82334262  1
  Ag  Ag37  1  0.15940595  -0.00232990  0.16958299  1
  Ag  Ag38  1  0.33530644  0.50047595  0.50074021  1
  Ag  Ag39  1  0.16252857  0.66109677  0.83440276  1
  Ag  Ag40  1  0.67116703  0.16437078  0.49411964  1
  Ag  Ag41  1  0.83958484  0.50381795  0.33578043  1
  Ag  Ag42  1  0.67076341  0.00202077  0.32053603  1
  Ag  Ag43  1  0.83336391  0.66569713  0.49536057  1
  Ag  Ag44  1  0.16168084  0.66941364  0.16824720  1
  Ag  Ag45  1  0.15917629  0.16816144  0.34017882  1
  Ag  Ag46  1  0.49197226  0.34033320  0.49845165  1
  Ag  Ag47  1  0.82835936  -0.00149778  0.16146205  1
  Ag  Ag48  1  0.00321223  0.32336728  0.00610779  1
  Ag  Ag49  1  0.67405089  0.00043310  0.00538582  1
  Ag  Ag50  1  0.00119693  0.16294493  0.83353669  1
  Ag  Ag51  1  0.00477451  0.16204443  0.49790333  1
  Ag  Ag52  1  0.50790571  0.67198817  0.17202021  1
  Ag  Ag53  1  0.66394958  0.68245504  0.01163619  1
  Sb  Sb54  1  0.00363607  0.49954684  0.49432860  1
  Sb  Sb55  1  0.33958978  0.66291673  0.00098142  1
  Sb  Sb56  1  0.16400199  0.33130879  0.17041905  1
  Sb  Sb57  1  0.00065867  0.84025716  0.83702454  1
  Sb  Sb58  1  0.83669362  0.33666192  0.49804849  1
  Sb  Sb59  1  0.33144004  0.33547156  0.33580643  1
  Sb  Sb60  1  0.33260419  0.49856416  0.82793906  1
  Sb  Sb61  1  0.83607004  0.16932498  0.66885335  1
  Sb  Sb62  1  0.33035767  0.16984040  0.50005814  1
  Sb  Sb63  1  0.16484007  0.83244941  0.33308555  1
  Sb  Sb64  1  -0.00427118  0.67095871  0.00543042  1
  Sb  Sb65  1  0.32760797  0.66075065  0.66360602  1
  Sb  Sb66  1  0.33081897  -0.00025496  0.33431997  1
  Sb  Sb67  1  0.16473673  0.66399010  0.49684430  1
  Sb  Sb68  1  0.50095019  0.33534866  0.16958242  1
  Sb  Sb69  1  0.16912457  0.49822418  0.00259608  1
  Sb  Sb70  1  0.16743500  0.83509341  0.00228780  1
  Sb  Sb71  1  0.66642954  0.84069559  0.84372308  1
  Sb  Sb72  1  0.32931803  0.16711028  0.83452867  1
  Sb  Sb73  1  0.50282854  0.16678726  0.33076857  1
  Sb  Sb74  1  0.16496383  0.83396608  0.66440369  1
  Sb  Sb75  1  0.66242766  0.32943329  0.66019231  1
  Sb  Sb76  1  0.83910875  0.32741326  0.83414772  1
  Sb  Sb77  1  0.49967309  0.00016744  0.49530870  1
  Sb  Sb78  1  0.66673523  0.32593004  0.00568534  1
  Sb  Sb79  1  0.83742950  0.67115194  0.83103344  1
  Sb  Sb80  1  0.83646179  -0.00300960  0.49656548  1
  Sb  Sb81  1  0.33723781  0.00350094  -0.00002734  1
  Sb  Sb82  1  -0.00260488  -0.00147657  0.66545450  1
  Sb  Sb83  1  0.66607381  0.49382180  0.83375196  1
  Sb  Sb84  1  0.16264265  0.16566837  0.00116444  1
  Sb  Sb85  1  0.83513873  0.16762159  0.32985870  1
  Sb  Sb86  1  0.33686516  0.16582800  0.16486882  1
  Sb  Sb87  1  0.83176254  0.50022607  0.00426753  1
  Sb  Sb88  1  0.66938868  0.66856776  0.66138642  1
  Sb  Sb89  1  0.33476816  0.66623824  0.33470446  1
  Sb  Sb90  1  0.49679964  0.32890406  0.83250049  1
  Sb  Sb91  1  0.00544737  0.33618099  0.66221212  1
  Sb  Sb92  1  0.66819146  0.83712210  0.49153122  1
  Sb  Sb93  1  0.33384292  0.83481926  0.83067473  1
  Sb  Sb94  1  0.33117225  0.50055590  0.17229427  1
  Sb  Sb95  1  0.49930642  0.67003060  0.83651124  1
  Sb  Sb96  1  0.50170432  0.83025303  0.66180800  1
  Sb  Sb97  1  0.83286185  0.83108612  0.32851840  1
  Sb  Sb98  1  0.66907133  0.50169507  0.16998364  1
  Sb  Sb99  1  0.00203407  0.49564432  0.83590573  1
  Sb  Sb100  1  0.49872913  0.16969178  0.66920197  1
  Sb  Sb101  1  0.83221105  0.67173695  0.17171010  1
  Sb  Sb102  1  0.33459715  0.00479498  0.66525346  1
  Sb  Sb103  1  0.83430706  0.83282152  0.66915632  1
  Sb  Sb104  1  0.33734069  0.83386981  0.17109323  1
  Sb  Sb105  1  -0.00322462  0.16037868  0.16788065  1
  Sb  Sb106  1  0.83468011  0.32780413  0.16776224  1
  Sb  Sb107  1  0.66209821  0.49576032  0.49650318  1
  Te  Te108  1  0.16789791  0.16214117  0.17102416  1
  Te  Te109  1  0.16647627  0.16863216  0.50012950  1
  Te  Te110  1  0.16331751  0.16904026  0.83530414  1
  Te  Te111  1  0.16338766  0.50253086  0.17150118  1
  Te  Te112  1  0.16979636  0.49926766  0.49873089  1
  Te  Te113  1  0.16635520  0.49857229  0.83164574  1
  Te  Te114  1  0.16508663  0.83269302  0.16717499  1
  Te  Te115  1  0.16473020  0.83359750  0.49941360  1
  Te  Te116  1  0.16737310  0.83365403  0.83342970  1
  Te  Te117  1  0.50389351  0.16498412  0.16286567  1
  Te  Te118  1  0.50182091  0.17016195  0.50021450  1
  Te  Te119  1  0.50279777  0.16149712  0.83625853  1
  Te  Te120  1  0.49892665  0.50522649  0.17004117  1
  Te  Te121  1  0.50011622  0.49969052  0.49666568  1
  Te  Te122  1  0.50026659  0.49987193  0.83862560  1
  Te  Te123  1  0.49968027  0.83156125  0.16845765  1
  Te  Te124  1  0.49966625  0.83099149  0.49550654  1
  Te  Te125  1  0.49897956  0.84023536  0.83313132  1
  Te  Te126  1  0.82782515  0.16113500  0.16218996  1
  Te  Te127  1  0.83418484  0.16674423  0.50061454  1
  Te  Te128  1  0.83656689  0.16306113  0.83531179  1
  Te  Te129  1  0.83924761  0.49945359  0.17265582  1
  Te  Te130  1  0.83305357  0.50406013  0.49844845  1
  Te  Te131  1  0.83318959  0.50060687  0.82944338  1
  Te  Te132  1  0.83393858  0.83692866  0.16299349  1
  Te  Te133  1  0.83981657  0.82756697  0.50164023  1
  Te  Te134  1  0.83397500  0.83973884  0.84044791  1
  Te  Te135  1  0.16866295  0.00018076  -0.00093533  1
  Te  Te136  1  0.16397291  -0.00165999  0.33593743  1
  Te  Te137  1  0.16623192  0.00376110  0.66650022  1
  Te  Te138  1  0.16402340  0.33286716  0.00034110  1
  Te  Te139  1  0.16462512  0.33557938  0.33595465  1
  Te  Te140  1  0.16612858  0.33414376  0.66445261  1
  Te  Te141  1  0.16650460  0.66680498  0.00053819  1
  Te  Te142  1  0.16282395  0.66371724  0.33042586  1
  Te  Te143  1  0.16160863  0.66330182  0.66760227  1
  Te  Te144  1  0.49860789  0.00045732  0.00285100  1
  Te  Te145  1  0.50265874  0.00118086  0.32765626  1
  Te  Te146  1  0.50339320  0.00019889  0.66697429  1
  Te  Te147  1  0.49986060  0.33799975  0.00099799  1
  Te  Te148  1  0.50100212  0.33505409  0.33696243  1
  Te  Te149  1  0.49453531  0.33799662  0.66384123  1
  Te  Te150  1  0.50523301  0.66354522  0.00058686  1
  Te  Te151  1  0.49939712  0.66616314  0.33181128  1
  Te  Te152  1  0.50004954  0.66107247  0.66750317  1
  Te  Te153  1  0.83358820  0.00105363  0.00173075  1
  Te  Te154  1  0.83370536  0.00012964  0.33032251  1
  Te  Te155  1  0.82790029  0.00068159  0.66766537  1
  Te  Te156  1  0.84106935  0.33191852  -0.00000903  1
  Te  Te157  1  0.83440185  0.33944586  0.33346353  1
  Te  Te158  1  0.83269376  0.34282439  0.66681276  1
  Te  Te159  1  0.82557691  0.66733811  -0.00095147  1
  Te  Te160  1  0.83549306  0.66438395  0.33576107  1
  Te  Te161  1  0.83753960  0.66285929  0.66300568  1
  Te  Te162  1  -0.00171285  0.16401718  0.00058715  1
  Te  Te163  1  -0.00018167  0.16347207  0.33455152  1
  Te  Te164  1  0.00291245  0.16720720  0.66510643  1
  Te  Te165  1  -0.00042223  0.49887904  0.00644064  1
  Te  Te166  1  -0.00031502  0.50024802  0.33291729  1
  Te  Te167  1  0.00215458  0.50273471  0.66820314  1
  Te  Te168  1  -0.00077310  0.83933379  0.00538549  1
  Te  Te169  1  -0.00021283  0.83717761  0.33208554  1
  Te  Te170  1  -0.00105781  0.82563516  0.66284607  1
  Te  Te171  1  0.34221675  0.17346157  -0.00016864  1
  Te  Te172  1  0.32232013  0.16796677  0.33227143  1
  Te  Te173  1  0.32655335  0.17334316  0.66713641  1
  Te  Te174  1  0.33812016  0.49499341  0.00066432  1
  Te  Te175  1  0.33777648  0.49939102  0.33952723  1
  Te  Te176  1  0.33223101  0.49562010  0.66225851  1
  Te  Te177  1  0.34334920  0.83138695  -0.00113251  1
  Te  Te178  1  0.34226264  0.83347101  0.33923103  1
  Te  Te179  1  0.33355413  0.83326019  0.65778355  1
  Te  Te180  1  0.66836074  0.16557689  0.00165560  1
  Te  Te181  1  0.66824574  0.16526871  0.33280731  1
  Te  Te182  1  0.66735022  0.16285638  0.66356409  1
  Te  Te183  1  0.66310409  0.49506095  0.00103300  1
  Te  Te184  1  0.66435556  0.50181126  0.33353169  1
  Te  Te185  1  0.66120146  0.49908300  0.66718661  1
  Te  Te186  1  0.66534933  0.83808216  0.00476367  1
  Te  Te187  1  0.66574562  0.83346779  0.32831286  1
  Te  Te188  1  0.66796153  0.83998331  0.66554519  1
  Te  Te189  1  0.00060519  -0.00065141  0.16692179  1
  Te  Te190  1  0.00192001  0.00011351  0.49927413  1
  Te  Te191  1  0.00248307  0.00342538  0.83163256  1
  Te  Te192  1  0.00030484  0.33586097  0.16979247  1
  Te  Te193  1  0.00392548  0.32805346  0.49478602  1
  Te  Te194  1  0.00508884  0.32819178  0.83660870  1
  Te  Te195  1  -0.00035237  0.66900445  0.16983220  1
  Te  Te196  1  -0.00026325  0.66689115  0.49502563  1
  Te  Te197  1  0.00371945  0.66780788  0.83687312  1
  Te  Te198  1  0.31987059  -0.00021449  0.16714689  1
  Te  Te199  1  0.32769835  -0.00361458  0.50095557  1
  Te  Te200  1  0.32190706  -0.00055344  0.83166541  1
  Te  Te201  1  0.33288492  0.33378401  0.15704810  1
  Te  Te202  1  0.33187718  0.33600334  0.50143996  1
  Te  Te203  1  0.32750126  0.33324283  0.83246374  1
  Te  Te204  1  0.32482191  0.66675869  0.16579912  1
  Te  Te205  1  0.33906100  0.66537365  0.50076924  1
  Te  Te206  1  0.32293013  0.66726231  0.83273512  1
  Te  Te207  1  0.66802724  -0.00193103  0.16517340  1
  Te  Te208  1  0.66704722  0.00376602  0.49606144  1
  Te  Te209  1  0.66878615  0.00335536  0.83697541  1
  Te  Te210  1  0.66693556  0.33064627  0.17499654  1
  Te  Te211  1  0.66611161  0.32645377  0.49457922  1
  Te  Te212  1  0.66734060  0.32314034  0.83281940  1
  Te  Te213  1  0.66582869  0.66741360  0.16914322  1
  Te  Te214  1  0.66675049  0.66914310  0.49518762  1
  Te  Te215  1  0.66741802  0.66540926  0.83344215  1
