# generated using pymatgen
data_AgSbTe2
_symmetry_space_group_name_H-M   'P 1'
_cell_length_a   18.35483425
_cell_length_b   18.35987850
_cell_length_c   18.35404535
_cell_angle_alpha   89.99577888
_cell_angle_beta   90.00195636
_cell_angle_gamma   90.00097389
_symmetry_Int_Tables_number   1
_chemical_formula_structural   AgSbTe2
_chemical_formula_sum   'Ag54 Sb54 Te108'
_cell_volume   6185.17609597
_cell_formula_units_Z   54
loop_
 _symmetry_equiv_pos_site_id
 _symmetry_equiv_pos_as_xyz
  1  'x, y, z'
loop_
 _atom_site_type_symbol
 _atom_site_label
 _atom_site_symmetry_multiplicity
 _atom_site_fract_x
 _atom_site_fract_y
 _atom_site_fract_z
 _atom_site_occupancy
  Ag  Ag0  1  -0.00215519  0.83283969  0.81894208  1
  Ag  Ag1  1  0.66565629  0.67062935  -0.00352912  1
  Ag  Ag2  1  0.66475393  0.50524084  0.84037186  1
  Ag  Ag3  1  0.66851709  0.34872912  0.00952309  1
  Ag  Ag4  1  0.15728132  0.83163190  0.66642287  1
  Ag  Ag5  1  0.15970443  0.32854550  0.16937913  1
  Ag  Ag6  1  -0.00459447  0.32565216  0.33068556  1
  Ag  Ag7  1  0.33046943  0.67329470  0.67057152  1
  Ag  Ag8  1  0.83662960  0.50541205  0.32924432  1
  Ag  Ag9  1  0.66917347  0.50855394  0.16024162  1
  Ag  Ag10  1  0.49747258  0.51383353  0.66645844  1
  Ag  Ag11  1  -0.00085226  0.67972767  0.33896390  1
  Ag  Ag12  1  0.83502466  0.67115458  0.83288980  1
  Ag  Ag13  1  0.50713967  0.83329497  -0.00058101  1
  Ag  Ag14  1  -0.00218313  -0.00551245  0.01465761  1
  Ag  Ag15  1  0.16589993  -0.00444755  0.16686943  1
  Ag  Ag16  1  0.33262200  0.15993258  0.83164665  1
  Ag  Ag17  1  0.34508646  -0.00916219  0.00461738  1
  Ag  Ag18  1  0.66954916  0.83471218  0.15985590  1
  Ag  Ag19  1  0.49263488  -0.00323670  0.49825853  1
  Ag  Ag20  1  0.00375422  0.15205924  0.49129070  1
  Ag  Ag21  1  0.00877135  0.67728923  0.66250559  1
  Ag  Ag22  1  0.49858676  0.83160154  0.66620992  1
  Ag  Ag23  1  0.16529836  0.67685317  0.16312624  1
  Ag  Ag24  1  0.33323786  -0.01321089  0.65274724  1
  Ag  Ag25  1  0.49395464  -0.00373664  0.16297903  1
  Ag  Ag26  1  0.33084409  0.83687408  0.16579050  1
  Ag  Ag27  1  0.49977727  0.68064747  0.50643810  1
  Ag  Ag28  1  0.00172397  0.83445728  0.50386249  1
  Ag  Ag29  1  0.83465818  0.33840292  0.17008424  1
  Ag  Ag30  1  0.84370784  -0.00449405  0.49805140  1
  Ag  Ag31  1  0.00464492  -0.01241596  0.65264355  1
  Ag  Ag32  1  0.67497498  0.32904771  0.32698075  1
  Ag  Ag33  1  0.66189319  0.67208202  0.67335370  1
  Ag  Ag34  1  0.33325869  0.83683305  0.51408687  1
  Ag  Ag35  1  0.49951041  0.14953035  0.00129675  1
  Ag  Ag36  1  -0.00144324  0.83522495  0.17128183  1
  Ag  Ag37  1  0.66939395  -0.00266962  0.33192815  1
  Ag  Ag38  1  0.84427620  0.83176088  0.66366246  1
  Ag  Ag39  1  0.00206421  0.15154577  0.17451339  1
  Ag  Ag40  1  0.32972497  0.15286867  0.50257229  1
  Ag  Ag41  1  0.83859645  0.83396056  0.33192933  1
  Ag  Ag42  1  0.82784373  0.51303015  0.00652714  1
  Ag  Ag43  1  0.33582443  0.50654000  0.83107842  1
  Ag  Ag44  1  0.16099777  0.16184442  0.33068343  1
  Ag  Ag45  1  0.66114023  -0.01081893  0.66367006  1
  Ag  Ag46  1  -0.00120484  0.51607859  0.49639311  1
  Ag  Ag47  1  0.33760674  0.67492130  -0.01144556  1
  Ag  Ag48  1  0.16952715  0.51356403  0.66858155  1
  Ag  Ag49  1  0.82865945  0.83146991  0.00442520  1
  Ag  Ag50  1  -0.00070113  -0.00275136  0.33355864  1
  Ag  Ag51  1  0.66389905  -0.01073499  0.00961481  1
  Ag  Ag52  1  0.16577579  0.66932942  0.82664373  1
  Ag  Ag53  1  0.33006396  -0.00319861  0.33648441  1
  Sb  Sb54  1  0.50729777  0.50171287  0.33701251  1
  Sb  Sb55  1  0.33200666  0.33518863  0.66671980  1
  Sb  Sb56  1  0.16891117  -0.00697110  0.83733636  1
  Sb  Sb57  1  0.15870560  0.49882584  0.33617980  1
  Sb  Sb58  1  -0.00475639  0.50502328  0.17103187  1
  Sb  Sb59  1  -0.00063492  0.50987361  0.82885987  1
  Sb  Sb60  1  0.66869400  0.33938909  0.66739377  1
  Sb  Sb61  1  0.49927578  -0.00284464  0.83617558  1
  Sb  Sb62  1  0.16785917  0.15838106  0.66090200  1
  Sb  Sb63  1  0.32674642  0.67637283  0.33622019  1
  Sb  Sb64  1  0.32983612  0.50622683  0.50480036  1
  Sb  Sb65  1  0.67205592  0.50287721  0.49880635  1
  Sb  Sb66  1  0.50043700  0.32769475  0.49908288  1
  Sb  Sb67  1  0.16080008  0.50443848  -0.00121526  1
  Sb  Sb68  1  0.83263338  0.67449473  0.50334787  1
  Sb  Sb69  1  0.00492591  0.15540019  0.83287988  1
  Sb  Sb70  1  0.33972764  0.33265636  0.00182906  1
  Sb  Sb71  1  0.49996457  0.33502985  0.83469106  1
  Sb  Sb72  1  0.32899277  0.83192363  0.83176251  1
  Sb  Sb73  1  0.67181056  0.16184684  0.16641649  1
  Sb  Sb74  1  0.66748452  0.16008628  0.49777609  1
  Sb  Sb75  1  0.15972622  0.83795600  0.33273086  1
  Sb  Sb76  1  0.16610306  0.83352525  0.00084623  1
  Sb  Sb77  1  0.83554782  0.32925071  0.49167258  1
  Sb  Sb78  1  0.66684125  0.83579897  0.50180767  1
  Sb  Sb79  1  0.49859165  0.67481350  0.16941007  1
  Sb  Sb80  1  0.00002436  0.33589793  0.65834574  1
  Sb  Sb81  1  0.83570422  0.66739573  0.16325312  1
  Sb  Sb82  1  0.49758841  0.15776450  0.66946305  1
  Sb  Sb83  1  0.32782119  0.15540388  0.16694272  1
  Sb  Sb84  1  0.49948278  0.66828373  0.82620915  1
  Sb  Sb85  1  -0.00183024  0.67412384  -0.00144141  1
  Sb  Sb86  1  0.16701327  -0.00293907  0.49256330  1
  Sb  Sb87  1  0.50586331  0.50822245  -0.00454762  1
  Sb  Sb88  1  0.67209642  0.82803851  0.83460970  1
  Sb  Sb89  1  0.83487455  -0.00287125  0.17098225  1
  Sb  Sb90  1  0.33703566  0.50862422  0.16227989  1
  Sb  Sb91  1  0.83470585  0.15264738  0.66478507  1
  Sb  Sb92  1  0.82932708  0.15939201  0.00195237  1
  Sb  Sb93  1  0.17072599  0.16368472  0.00499524  1
  Sb  Sb94  1  0.83362891  0.34475266  0.84174033  1
  Sb  Sb95  1  0.83303041  -0.00861551  0.83113425  1
  Sb  Sb96  1  0.50382242  0.32684334  0.16594685  1
  Sb  Sb97  1  -0.00700409  0.32795785  0.01079391  1
  Sb  Sb98  1  0.50367338  0.83646156  0.33403084  1
  Sb  Sb99  1  0.16459015  0.33226806  0.49552931  1
  Sb  Sb100  1  0.83401377  0.51079809  0.66628406  1
  Sb  Sb101  1  0.16539598  0.67024151  0.50259834  1
  Sb  Sb102  1  0.16543423  0.33940469  0.83936916  1
  Sb  Sb103  1  0.32998747  0.32495548  0.33066203  1
  Sb  Sb104  1  0.84030814  0.16125793  0.33086175  1
  Sb  Sb105  1  0.66223951  0.16804500  0.83648342  1
  Sb  Sb106  1  0.67265067  0.67222264  0.33200944  1
  Sb  Sb107  1  0.49626144  0.16043177  0.32947366  1
  Te  Te108  1  0.16199426  0.16573174  0.16952125  1
  Te  Te109  1  0.16623911  0.16702833  0.49477973  1
  Te  Te110  1  0.17295406  0.17071104  0.83300470  1
  Te  Te111  1  0.16849118  0.50089050  0.16742103  1
  Te  Te112  1  0.16097497  0.49962985  0.50588557  1
  Te  Te113  1  0.16873148  0.50631126  0.82999532  1
  Te  Te114  1  0.16893855  0.83613414  0.16767468  1
  Te  Te115  1  0.16985719  0.83194588  0.50548516  1
  Te  Te116  1  0.15949226  0.82757960  0.82811405  1
  Te  Te117  1  0.49880223  0.15893826  0.16181614  1
  Te  Te118  1  0.49386111  0.16025323  0.50063407  1
  Te  Te119  1  0.49298377  0.16856492  0.83981008  1
  Te  Te120  1  0.50668579  0.49959507  0.16817911  1
  Te  Te121  1  0.49925688  0.49615636  0.50550183  1
  Te  Te122  1  0.49921488  0.50075919  0.82798196  1
  Te  Te123  1  0.50099010  0.83722548  0.16577066  1
  Te  Te124  1  0.49934643  0.83809578  0.49962628  1
  Te  Te125  1  0.50065291  0.83331519  0.83746096  1
  Te  Te126  1  0.84219298  0.17650736  0.16465552  1
  Te  Te127  1  0.83973801  0.15843420  0.49926688  1
  Te  Te128  1  0.83461874  0.17125224  0.83285906  1
  Te  Te129  1  0.82903010  0.50070927  0.16724662  1
  Te  Te130  1  0.83903321  0.49853764  0.49619732  1
  Te  Te131  1  0.82976005  0.50941032  0.83554233  1
  Te  Te132  1  0.83138516  0.83204876  0.16663272  1
  Te  Te133  1  0.83464558  0.83668568  0.49988180  1
  Te  Te134  1  0.83833087  0.82853371  0.83422886  1
  Te  Te135  1  0.16086537  0.00068179  0.00585915  1
  Te  Te136  1  0.16775881  0.00169657  0.32583202  1
  Te  Te137  1  0.16976277  -0.00536761  0.67008132  1
  Te  Te138  1  0.16581827  0.33457674  0.00832224  1
  Te  Te139  1  0.16247342  0.32959152  0.32826990  1
  Te  Te140  1  0.16561071  0.33716546  0.66854161  1
  Te  Te141  1  0.17175795  0.66589820  0.00136988  1
  Te  Te142  1  0.15975678  0.66547776  0.32715957  1
  Te  Te143  1  0.16805875  0.67066274  0.66527298  1
  Te  Te144  1  0.50256446  -0.00695337  0.00075794  1
  Te  Te145  1  0.50222703  0.00021479  0.33461354  1
  Te  Te146  1  0.49676187  -0.00344139  0.66491504  1
  Te  Te147  1  0.50881343  0.33491797  0.00174659  1
  Te  Te148  1  0.50855745  0.33226666  0.33247891  1
  Te  Te149  1  0.50118232  0.33584982  0.66645549  1
  Te  Te150  1  0.49808433  0.67253903  0.00344400  1
  Te  Te151  1  0.49944092  0.66650680  0.34268665  1
  Te  Te152  1  0.49885678  0.67044730  0.66473134  1
  Te  Te153  1  0.83158963  -0.00607793  -0.00145576  1
  Te  Te154  1  0.83165612  -0.00386610  0.33700741  1
  Te  Te155  1  0.83415789  -0.00865617  0.66313465  1
  Te  Te156  1  0.82622421  0.33181883  0.00634064  1
  Te  Te157  1  0.83378845  0.33367188  0.32971687  1
  Te  Te158  1  0.83307630  0.33283172  0.66747669  1
  Te  Te159  1  0.83184194  0.67035085  -0.00265450  1
  Te  Te160  1  0.83840090  0.66873189  0.33577777  1
  Te  Te161  1  0.83014239  0.67224040  0.66960166  1
  Te  Te162  1  -0.00074855  0.15916107  0.00161035  1
  Te  Te163  1  0.00123824  0.16389753  0.33264580  1
  Te  Te164  1  0.00137987  0.16279894  0.66335571  1
  Te  Te165  1  -0.00952494  0.49778964  -0.00188235  1
  Te  Te166  1  -0.00431992  0.49924510  0.33725767  1
  Te  Te167  1  0.00250863  0.50329639  0.66120924  1
  Te  Te168  1  -0.00092172  0.83556555  0.01175481  1
  Te  Te169  1  -0.00132152  0.83609039  0.33126712  1
  Te  Te170  1  -0.00055921  0.83270110  0.66318824  1
  Te  Te171  1  0.33811393  0.16585537  -0.00238755  1
  Te  Te172  1  0.32874557  0.15966299  0.33662435  1
  Te  Te173  1  0.33259620  0.16545767  0.66648776  1
  Te  Te174  1  0.33420001  0.50226232  -0.00528138  1
  Te  Te175  1  0.33476471  0.49857061  0.33420059  1
  Te  Te176  1  0.33310283  0.50133639  0.66902490  1
  Te  Te177  1  0.33065415  0.83299171  -0.00085116  1
  Te  Te178  1  0.33370131  0.83835112  0.32787496  1
  Te  Te179  1  0.34051905  0.83297692  0.66971245  1
  Te  Te180  1  0.66107165  0.15469140  -0.00103165  1
  Te  Te181  1  0.66651271  0.16339428  0.33290795  1
  Te  Te182  1  0.66617419  0.16583914  0.66706332  1
  Te  Te183  1  0.66811959  0.50576872  0.00084901  1
  Te  Te184  1  0.67401940  0.50177579  0.33033857  1
  Te  Te185  1  0.66416113  0.50467010  0.66745342  1
  Te  Te186  1  0.66763667  0.83188942  -0.00150880  1
  Te  Te187  1  0.67260680  0.83659212  0.32831001  1
  Te  Te188  1  0.65863784  0.83200563  0.66801296  1
  Te  Te189  1  -0.00309215  -0.00403686  0.17171009  1
  Te  Te190  1  0.00348231  -0.00513039  0.49598702  1
  Te  Te191  1  0.00100608  -0.00663787  0.83215279  1
  Te  Te192  1  -0.00012914  0.33891393  0.17177034  1
  Te  Te193  1  -0.00016085  0.32726663  0.49195673  1
  Te  Te194  1  -0.00009969  0.33144736  0.83400780  1
  Te  Te195  1  0.00382796  0.67088271  0.16647437  1
  Te  Te196  1  -0.00111776  0.67329792  0.50073202  1
  Te  Te197  1  0.00191207  0.67140522  0.83106742  1
  Te  Te198  1  0.33461536  -0.00322074  0.16381238  1
  Te  Te199  1  0.33127392  -0.00395364  0.49782547  1
  Te  Te200  1  0.33238629  0.00228928  0.84393538  1
  Te  Te201  1  0.32970080  0.33468939  0.16744419  1
  Te  Te202  1  0.33311910  0.32734658  0.49802546  1
  Te  Te203  1  0.33223421  0.33856354  0.83459139  1
  Te  Te204  1  0.32990876  0.67326863  0.16771012  1
  Te  Te205  1  0.33714869  0.67166958  0.50379659  1
  Te  Te206  1  0.33071920  0.66621987  0.83105501  1
  Te  Te207  1  0.66861879  -0.00292825  0.16791063  1
  Te  Te208  1  0.66364144  0.00050744  0.50184368  1
  Te  Te209  1  0.66690972  0.00318813  0.82441657  1
  Te  Te210  1  0.66835458  0.32929917  0.16756461  1
  Te  Te211  1  0.66757513  0.33155508  0.49286300  1
  Te  Te212  1  0.66743547  0.34093730  0.83696418  1
  Te  Te213  1  0.66564978  0.66958466  0.16468028  1
  Te  Te214  1  0.66138658  0.66651259  0.50393693  1
  Te  Te215  1  0.66667321  0.66338792  0.83407652  1
