# generated using pymatgen
data_AgSbTe2
_symmetry_space_group_name_H-M   'P 1'
_cell_length_a   18.32203034
_cell_length_b   18.32107414
_cell_length_c   18.32449059
_cell_angle_alpha   89.99885806
_cell_angle_beta   90.00082391
_cell_angle_gamma   89.99856253
_symmetry_Int_Tables_number   1
_chemical_formula_structural   AgSbTe2
_chemical_formula_sum   'Ag54 Sb54 Te108'
_cell_volume   6151.15173617
_cell_formula_units_Z   54
loop_
 _symmetry_equiv_pos_site_id
 _symmetry_equiv_pos_as_xyz
  1  'x, y, z'
loop_
 _atom_site_type_symbol
 _atom_site_label
 _atom_site_symmetry_multiplicity
 _atom_site_fract_x
 _atom_site_fract_y
 _atom_site_fract_z
 _atom_site_occupancy
  Ag  Ag0  1  0.50311322  0.82192653  0.33512861  1
  Ag  Ag1  1  0.67421015  0.16325880  0.83631116  1
  Ag  Ag2  1  0.16088380  0.34116406  0.16934366  1
  Ag  Ag3  1  0.33415136  0.66504066  0.33511936  1
  Ag  Ag4  1  0.01033526  0.49762261  0.15995411  1
  Ag  Ag5  1  0.66557379  0.49633409  0.16515400  1
  Ag  Ag6  1  0.50745654  -0.00085394  0.83100419  1
  Ag  Ag7  1  0.50313140  0.17427626  -0.00140611  1
  Ag  Ag8  1  0.00362400  -0.00222290  0.34192182  1
  Ag  Ag9  1  0.66782769  0.49762797  0.83555570  1
  Ag  Ag10  1  0.83683393  0.33436576  0.16504461  1
  Ag  Ag11  1  0.00228593  -0.00163575  0.66760478  1
  Ag  Ag12  1  0.83306045  0.16343371  0.67070629  1
  Ag  Ag13  1  0.65535793  0.49794350  0.49732070  1
  Ag  Ag14  1  -0.00439383  0.15926864  0.83445323  1
  Ag  Ag15  1  0.66836804  0.66282697  -0.00044989  1
  Ag  Ag16  1  0.00059419  0.84181599  0.83295120  1
  Ag  Ag17  1  0.50243792  0.49852660  0.00125861  1
  Ag  Ag18  1  0.15821634  0.50081580  0.00304861  1
  Ag  Ag19  1  0.16038867  -0.00403980  0.82738761  1
  Ag  Ag20  1  0.33077989  0.33489331  0.66392491  1
  Ag  Ag21  1  0.83535733  0.32648565  0.83340424  1
  Ag  Ag22  1  0.16333142  0.00172196  0.16441598  1
  Ag  Ag23  1  0.67526721  -0.00006951  0.67132983  1
  Ag  Ag24  1  -0.00006927  0.49812362  0.84010534  1
  Ag  Ag25  1  0.16501573  0.17274630  0.32847088  1
  Ag  Ag26  1  0.16591027  0.84018452  0.67189805  1
  Ag  Ag27  1  0.66737424  0.17464226  0.15948235  1
  Ag  Ag28  1  0.49737735  0.49836953  0.65442069  1
  Ag  Ag29  1  0.33983482  0.50002184  0.50124525  1
  Ag  Ag30  1  0.84144949  0.00183506  0.50922571  1
  Ag  Ag31  1  0.31952064  0.83737059  0.83181797  1
  Ag  Ag32  1  0.66789009  0.33625752  0.33370164  1
  Ag  Ag33  1  0.00176994  0.34095760  -0.00154947  1
  Ag  Ag34  1  0.16064229  0.83315192  -0.00682421  1
  Ag  Ag35  1  0.00295912  0.83796968  0.50391766  1
  Ag  Ag36  1  0.49686281  0.50399639  0.34216796  1
  Ag  Ag37  1  0.00274065  0.66115374  -0.00029100  1
  Ag  Ag38  1  0.50234545  0.34293369  0.50021355  1
  Ag  Ag39  1  0.16531397  0.16608876  0.00299480  1
  Ag  Ag40  1  0.83336859  0.83676032  0.33163000  1
  Ag  Ag41  1  0.16880425  0.49802873  0.33488928  1
  Ag  Ag42  1  0.16800153  0.65818344  0.16840468  1
  Ag  Ag43  1  0.32132185  0.00146975  0.66872681  1
  Ag  Ag44  1  0.83708436  0.00414228  0.82696415  1
  Ag  Ag45  1  0.84160607  0.83377471  -0.00444749  1
  Ag  Ag46  1  0.16986179  0.65785797  0.49420564  1
  Ag  Ag47  1  0.67180690  0.84547325  0.83388971  1
  Ag  Ag48  1  0.49746285  0.66190339  0.17121765  1
  Ag  Ag49  1  0.16890853  0.50061118  0.65953677  1
  Ag  Ag50  1  0.83404363  0.33174095  0.50010498  1
  Ag  Ag51  1  0.49370759  0.65532307  0.49140060  1
  Ag  Ag52  1  0.15939847  -0.00258759  0.50551405  1
  Ag  Ag53  1  0.16535591  0.34062605  0.49678571  1
  Sb  Sb54  1  0.32610570  0.82807965  0.50396834  1
  Sb  Sb55  1  0.16530213  0.83068461  0.33444831  1
  Sb  Sb56  1  0.49538514  0.83062640  0.66501218  1
  Sb  Sb57  1  0.33288541  0.50340256  0.82768309  1
  Sb  Sb58  1  0.66849764  0.17232406  0.50216355  1
  Sb  Sb59  1  0.16224665  0.16445997  0.66873258  1
  Sb  Sb60  1  0.33195607  0.16774514  0.16563565  1
  Sb  Sb61  1  0.67275614  0.33729685  0.00258007  1
  Sb  Sb62  1  0.50431131  0.16883683  0.67151755  1
  Sb  Sb63  1  0.32717628  0.33574628  -0.00541082  1
  Sb  Sb64  1  0.83514384  0.66113680  0.16483688  1
  Sb  Sb65  1  0.83569629  0.16456570  -0.00602039  1
  Sb  Sb66  1  0.00246489  0.33021969  0.66984921  1
  Sb  Sb67  1  0.00088830  0.16105878  0.50454061  1
  Sb  Sb68  1  0.00013566  0.17112568  0.16040584  1
  Sb  Sb69  1  0.00545495  0.66895105  0.32983736  1
  Sb  Sb70  1  0.66438867  0.66766203  0.67089914  1
  Sb  Sb71  1  0.50546290  0.33164856  0.83145621  1
  Sb  Sb72  1  0.83418866  0.49347586  0.66912628  1
  Sb  Sb73  1  0.32887331  -0.00100645  -0.00670700  1
  Sb  Sb74  1  0.49716925  -0.00199914  0.16207197  1
  Sb  Sb75  1  0.67032498  0.82960621  0.50331567  1
  Sb  Sb76  1  0.49918301  0.82965769  -0.00044598  1
  Sb  Sb77  1  0.33264016  0.33987295  0.33847177  1
  Sb  Sb78  1  0.83548498  0.66676859  0.49780321  1
  Sb  Sb79  1  0.84021014  0.84207255  0.66999837  1
  Sb  Sb80  1  0.16548269  0.67018208  0.83670775  1
  Sb  Sb81  1  0.32557333  -0.00566442  0.34093396  1
  Sb  Sb82  1  0.49809015  0.17111259  0.32890059  1
  Sb  Sb83  1  0.66669070  -0.00153556  -0.00705997  1
  Sb  Sb84  1  0.33146016  0.16183504  0.83231685  1
  Sb  Sb85  1  0.00198024  0.83054496  0.16273062  1
  Sb  Sb86  1  0.83807901  0.00455108  0.16575966  1
  Sb  Sb87  1  0.32983280  0.17296873  0.50125719  1
  Sb  Sb88  1  0.66749200  0.83050139  0.16265405  1
  Sb  Sb89  1  0.33023630  0.66465075  0.00432822  1
  Sb  Sb90  1  0.00258023  -0.00125663  -0.00603656  1
  Sb  Sb91  1  0.83545327  0.50149889  -0.00088844  1
  Sb  Sb92  1  0.33131396  0.50043237  0.17214690  1
  Sb  Sb93  1  0.00419707  0.67034699  0.67141003  1
  Sb  Sb94  1  0.00036294  0.33116896  0.33112492  1
  Sb  Sb95  1  0.00324404  0.50210380  0.50113577  1
  Sb  Sb96  1  0.83378585  0.66997215  0.83555291  1
  Sb  Sb97  1  0.33045713  0.66521469  0.66140845  1
  Sb  Sb98  1  0.33035459  0.83218725  0.16409260  1
  Sb  Sb99  1  0.83389841  0.50090353  0.33212719  1
  Sb  Sb100  1  0.66102147  0.66043478  0.32851632  1
  Sb  Sb101  1  0.50134653  0.66845816  0.83522438  1
  Sb  Sb102  1  0.66570375  0.33182248  0.66450207  1
  Sb  Sb103  1  0.16008522  0.33145453  0.83322987  1
  Sb  Sb104  1  0.67091909  0.00388362  0.33800997  1
  Sb  Sb105  1  0.49959413  -0.00071400  0.50562869  1
  Sb  Sb106  1  0.83853041  0.16524820  0.33542143  1
  Sb  Sb107  1  0.50130458  0.34052942  0.16980959  1
  Te  Te108  1  0.16551190  0.16447623  0.16456830  1
  Te  Te109  1  0.16599528  0.16684733  0.49655159  1
  Te  Te110  1  0.16374142  0.16264583  0.83720140  1
  Te  Te111  1  0.16836931  0.50014564  0.16519896  1
  Te  Te112  1  0.16351672  0.49992167  0.49983917  1
  Te  Te113  1  0.16559364  0.50042841  0.83610806  1
  Te  Te114  1  0.16648485  0.83447549  0.16167225  1
  Te  Te115  1  0.16274664  0.83756189  0.50130907  1
  Te  Te116  1  0.16183972  0.83335715  0.83283562  1
  Te  Te117  1  0.50488740  0.16698808  0.16027691  1
  Te  Te118  1  0.49963925  0.17284041  0.49820339  1
  Te  Te119  1  0.50247806  0.16345951  0.83858353  1
  Te  Te120  1  0.50072035  0.50263975  0.16269640  1
  Te  Te121  1  0.49972877  0.49921629  0.49839764  1
  Te  Te122  1  0.50144716  0.50024171  0.84059685  1
  Te  Te123  1  0.49970324  0.82905540  0.17104871  1
  Te  Te124  1  0.50045085  0.83011728  0.49641096  1
  Te  Te125  1  0.50956010  0.83681242  0.83325857  1
  Te  Te126  1  0.82843163  0.17315290  0.16682066  1
  Te  Te127  1  0.83399787  0.16716181  0.50342128  1
  Te  Te128  1  0.83379846  0.16532655  0.83336695  1
  Te  Te129  1  0.82739304  0.49346267  0.16752671  1
  Te  Te130  1  0.83366327  0.49495759  0.50037914  1
  Te  Te131  1  0.83326148  0.49708880  0.83239363  1
  Te  Te132  1  0.83360242  0.83436594  0.16773241  1
  Te  Te133  1  0.83770013  0.83542263  0.49882639  1
  Te  Te134  1  0.83401968  0.83577585  0.83486018  1
  Te  Te135  1  0.16638040  0.00019722  0.00138395  1
  Te  Te136  1  0.16422464  -0.00146641  0.33635300  1
  Te  Te137  1  0.16312054  0.00161486  0.66701362  1
  Te  Te138  1  0.16284002  0.33591015  0.00079045  1
  Te  Te139  1  0.16673092  0.33555792  0.33423782  1
  Te  Te140  1  0.16931248  0.33394219  0.66334467  1
  Te  Te141  1  0.16506663  0.66377547  0.00381330  1
  Te  Te142  1  0.16980562  0.66352722  0.33192213  1
  Te  Te143  1  0.16728848  0.66306792  0.65981518  1
  Te  Te144  1  0.49823481  0.00203733  -0.00516789  1
  Te  Te145  1  0.49908858  0.00026014  0.33377423  1
  Te  Te146  1  0.50114940  -0.00041152  0.67148524  1
  Te  Te147  1  0.49807193  0.33429612  0.00057394  1
  Te  Te148  1  0.50199148  0.33811868  0.33780873  1
  Te  Te149  1  0.49712480  0.33709086  0.66320831  1
  Te  Te150  1  0.50146556  0.66292279  0.00453521  1
  Te  Te151  1  0.50009371  0.66351176  0.33230937  1
  Te  Te152  1  0.49841666  0.65950534  0.66218875  1
  Te  Te153  1  0.83428058  -0.00638120  -0.00268124  1
  Te  Te154  1  0.83750720  -0.00242531  0.33585766  1
  Te  Te155  1  0.83498341  0.00185374  0.66685615  1
  Te  Te156  1  0.83999442  0.33175465  -0.00062103  1
  Te  Te157  1  0.83050913  0.33277856  0.33567825  1
  Te  Te158  1  0.83370625  0.32664587  0.66613102  1
  Te  Te159  1  0.83403745  0.67469808  0.00127561  1
  Te  Te160  1  0.83309199  0.67552370  0.33223425  1
  Te  Te161  1  0.83403800  0.66658291  0.66582361  1
  Te  Te162  1  0.00420127  0.17090700  -0.00566413  1
  Te  Te163  1  0.00603503  0.16094531  0.33099846  1
  Te  Te164  1  -0.00479210  0.16181037  0.67373055  1
  Te  Te165  1  -0.00086541  0.50071430  0.00054753  1
  Te  Te166  1  0.00425577  0.50010233  0.32795048  1
  Te  Te167  1  0.00461798  0.50106979  0.67122382  1
  Te  Te168  1  0.00129619  0.83144409  -0.00320285  1
  Te  Te169  1  -0.00228633  0.83658909  0.33388107  1
  Te  Te170  1  0.00522594  0.83644997  0.66940375  1
  Te  Te171  1  0.33124922  0.16784324  -0.00039710  1
  Te  Te172  1  0.32511950  0.16526983  0.33315015  1
  Te  Te173  1  0.33536088  0.16447178  0.66697774  1
  Te  Te174  1  0.33629999  0.50012431  -0.00326269  1
  Te  Te175  1  0.33167931  0.50331279  0.33882790  1
  Te  Te176  1  0.33046707  0.49872593  0.66296340  1
  Te  Te177  1  0.32795719  0.83182280  -0.00708951  1
  Te  Te178  1  0.33996150  0.82774349  0.33397968  1
  Te  Te179  1  0.32834947  0.83729832  0.67093443  1
  Te  Te180  1  0.66533073  0.16804891  -0.00162822  1
  Te  Te181  1  0.66617871  0.17222572  0.32990967  1
  Te  Te182  1  0.67043277  0.16252774  0.67130931  1
  Te  Te183  1  0.66842129  0.50128824  -0.00040635  1
  Te  Te184  1  0.66680437  0.49675949  0.33255536  1
  Te  Te185  1  0.66475002  0.49987181  0.67036466  1
  Te  Te186  1  0.66669775  0.82808700  -0.00460523  1
  Te  Te187  1  0.66644108  0.83473510  0.33379155  1
  Te  Te188  1  0.66493408  0.83625888  0.67217530  1
  Te  Te189  1  0.00382571  0.00149908  0.17140776  1
  Te  Te190  1  -0.00091898  -0.00052575  0.50217913  1
  Te  Te191  1  -0.00062742  -0.00011197  0.83262010  1
  Te  Te192  1  0.00008538  0.33679230  0.16493226  1
  Te  Te193  1  0.00016232  0.33292828  0.50006563  1
  Te  Te194  1  -0.00472683  0.33754097  0.83527692  1
  Te  Te195  1  0.00315905  0.66079984  0.16184878  1
  Te  Te196  1  0.00459897  0.67358501  0.49891597  1
  Te  Te197  1  -0.00041267  0.66057200  0.83916005  1
  Te  Te198  1  0.32650215  0.00002693  0.16924839  1
  Te  Te199  1  0.33031698  -0.00003069  0.50821360  1
  Te  Te200  1  0.32915637  -0.00357052  0.82806382  1
  Te  Te201  1  0.32264605  0.33268186  0.16593828  1
  Te  Te202  1  0.32820603  0.33861779  0.50322001  1
  Te  Te203  1  0.33360840  0.33360012  0.82456748  1
  Te  Te204  1  0.33198248  0.66698075  0.17287382  1
  Te  Te205  1  0.33150790  0.66233808  0.49617947  1
  Te  Te206  1  0.33464753  0.67637945  0.83298672  1
  Te  Te207  1  0.66716366  0.00441956  0.16742908  1
  Te  Te208  1  0.66966221  -0.00004501  0.50673136  1
  Te  Te209  1  0.66861501  0.00268569  0.83186801  1
  Te  Te210  1  0.66676080  0.33529475  0.16849493  1
  Te  Te211  1  0.66896636  0.33753519  0.49823931  1
  Te  Te212  1  0.67288828  0.33387927  0.83348846  1
  Te  Te213  1  0.66523957  0.66243770  0.16142910  1
  Te  Te214  1  0.66549581  0.66036356  0.50105214  1
  Te  Te215  1  0.66726293  0.65795169  0.83810005  1
