# generated using pymatgen
data_AgSbTe2
_symmetry_space_group_name_H-M   'P 1'
_cell_length_a   18.33330291
_cell_length_b   18.33700800
_cell_length_c   18.32680222
_cell_angle_alpha   89.99700553
_cell_angle_beta   90.00087778
_cell_angle_gamma   90.00361011
_symmetry_Int_Tables_number   1
_chemical_formula_structural   AgSbTe2
_chemical_formula_sum   'Ag54 Sb54 Te108'
_cell_volume   6161.06626946
_cell_formula_units_Z   54
loop_
 _symmetry_equiv_pos_site_id
 _symmetry_equiv_pos_as_xyz
  1  'x, y, z'
loop_
 _atom_site_type_symbol
 _atom_site_label
 _atom_site_symmetry_multiplicity
 _atom_site_fract_x
 _atom_site_fract_y
 _atom_site_fract_z
 _atom_site_occupancy
  Ag  Ag0  1  0.51158907  0.33434261  0.83512750  1
  Ag  Ag1  1  0.66748197  0.17352361  0.83447029  1
  Ag  Ag2  1  0.50042547  0.66665905  0.16120701  1
  Ag  Ag3  1  -0.00893193  0.33974140  0.32885004  1
  Ag  Ag4  1  0.83211966  0.83353974  0.67373552  1
  Ag  Ag5  1  -0.01083102  0.32594129  -0.00214849  1
  Ag  Ag6  1  0.83036636  0.33479124  0.49923518  1
  Ag  Ag7  1  0.34328567  0.00311012  0.33090435  1
  Ag  Ag8  1  0.16883835  0.49944509  0.66865943  1
  Ag  Ag9  1  -0.00308240  0.50098969  0.49280577  1
  Ag  Ag10  1  0.50637291  0.01035425  0.83704062  1
  Ag  Ag11  1  0.15701852  0.00726315  0.83982527  1
  Ag  Ag12  1  0.83239981  0.49234194  0.00128827  1
  Ag  Ag13  1  0.66506946  0.48752906  0.83292561  1
  Ag  Ag14  1  0.82517298  0.32863296  0.84044213  1
  Ag  Ag15  1  0.66448229  0.66189875  -0.00611071  1
  Ag  Ag16  1  0.66428102  0.66080748  0.33366029  1
  Ag  Ag17  1  0.50427473  0.16457155  -0.00413874  1
  Ag  Ag18  1  0.83456921  0.00855925  0.84083341  1
  Ag  Ag19  1  0.83418933  0.65833774  0.49533743  1
  Ag  Ag20  1  0.66686735  0.33600206  0.33424353  1
  Ag  Ag21  1  0.66594144  0.33636357  0.67912424  1
  Ag  Ag22  1  0.50455456  0.65858663  0.84128223  1
  Ag  Ag23  1  0.15936461  0.66531621  0.49718125  1
  Ag  Ag24  1  0.50913530  0.50157967  0.33640656  1
  Ag  Ag25  1  0.66699418  0.65762511  0.67343776  1
  Ag  Ag26  1  0.15667072  0.16442752  -0.00409633  1
  Ag  Ag27  1  0.67151958  0.33480945  -0.00996118  1
  Ag  Ag28  1  0.33517723  0.16513840  0.16684144  1
  Ag  Ag29  1  0.16405976  0.32928400  0.83445664  1
  Ag  Ag30  1  0.83819938  -0.00156689  0.15657597  1
  Ag  Ag31  1  0.34938093  0.49863018  0.83532678  1
  Ag  Ag32  1  -0.00255720  0.50226949  0.17420073  1
  Ag  Ag33  1  0.16051351  0.00206564  0.16303335  1
  Ag  Ag34  1  0.34637376  0.66515840  0.00327926  1
  Ag  Ag35  1  0.83139406  0.83826431  -0.00423648  1
  Ag  Ag36  1  -0.00262928  0.83217202  0.16295638  1
  Ag  Ag37  1  0.50328571  0.49648519  0.67518210  1
  Ag  Ag38  1  0.34397938  0.33669086  0.33223466  1
  Ag  Ag39  1  -0.00534855  0.84297428  0.84254197  1
  Ag  Ag40  1  0.50624717  0.82713673  0.00086166  1
  Ag  Ag41  1  0.50347042  0.16907322  0.33012578  1
  Ag  Ag42  1  0.83454225  0.00172831  0.49882589  1
  Ag  Ag43  1  -0.01186405  0.16456439  0.83936126  1
  Ag  Ag44  1  0.16020475  0.00066815  0.49832302  1
  Ag  Ag45  1  -0.00630424  0.00690603  -0.00223138  1
  Ag  Ag46  1  0.66398048  0.00777875  0.33511103  1
  Ag  Ag47  1  0.66816859  0.17029169  0.50219780  1
  Ag  Ag48  1  0.83220079  0.49824999  0.33237981  1
  Ag  Ag49  1  -0.00809769  0.65834653  0.33409641  1
  Ag  Ag50  1  0.83436474  0.16957529  -0.00425386  1
  Ag  Ag51  1  0.50188699  0.82462660  0.32549711  1
  Ag  Ag52  1  0.34676963  0.66348947  0.33047912  1
  Ag  Ag53  1  0.50581242  0.17570819  0.68062139  1
  Sb  Sb54  1  0.67178978  0.49571391  0.50056377  1
  Sb  Sb55  1  0.17230564  0.16992740  0.67321674  1
  Sb  Sb56  1  -0.00356277  0.83059574  0.49661559  1
  Sb  Sb57  1  0.82768493  0.66601858  0.83268225  1
  Sb  Sb58  1  0.50097017  0.33642303  0.16549124  1
  Sb  Sb59  1  -0.00755827  0.33462796  0.67126336  1
  Sb  Sb60  1  0.33140616  0.49876952  0.16455041  1
  Sb  Sb61  1  0.50834897  0.83043455  0.67149169  1
  Sb  Sb62  1  0.66970107  0.83307575  0.16582969  1
  Sb  Sb63  1  0.16807744  0.67032739  0.17077840  1
  Sb  Sb64  1  0.50894955  0.33298310  0.50064501  1
  Sb  Sb65  1  0.82946084  0.83164436  0.33129787  1
  Sb  Sb66  1  0.00100331  0.16582123  0.16051823  1
  Sb  Sb67  1  0.33957274  0.33455591  0.66544057  1
  Sb  Sb68  1  0.17029737  0.66473591  0.83002554  1
  Sb  Sb69  1  0.67145017  0.00311260  0.00107574  1
  Sb  Sb70  1  -0.00642866  0.49685074  0.83436490  1
  Sb  Sb71  1  0.67042507  0.50134090  0.16519710  1
  Sb  Sb72  1  0.82795951  0.17034320  0.32897771  1
  Sb  Sb73  1  0.33272545  -0.00053415  0.00290490  1
  Sb  Sb74  1  0.32939500  0.50073934  0.50049357  1
  Sb  Sb75  1  0.50746011  0.50047105  -0.00168891  1
  Sb  Sb76  1  0.33808908  0.16715514  0.49270825  1
  Sb  Sb77  1  0.16462265  0.32881887  0.16256720  1
  Sb  Sb78  1  0.16267724  0.83822361  -0.00072237  1
  Sb  Sb79  1  0.50253012  0.00214742  0.49861832  1
  Sb  Sb80  1  0.82688229  0.16531740  0.67370451  1
  Sb  Sb81  1  0.33281716  0.83259063  0.49636934  1
  Sb  Sb82  1  -0.00447834  0.66670902  0.00375492  1
  Sb  Sb83  1  0.15946885  0.33282653  0.50284623  1
  Sb  Sb84  1  0.33935191  0.66343057  0.66543969  1
  Sb  Sb85  1  -0.00601992  0.66464107  0.66244812  1
  Sb  Sb86  1  0.33269432  0.83064855  0.83659831  1
  Sb  Sb87  1  0.82970852  0.66884206  0.16965907  1
  Sb  Sb88  1  0.16281210  0.50041544  0.33654879  1
  Sb  Sb89  1  0.33450484  0.00188321  0.66446043  1
  Sb  Sb90  1  0.16079914  0.49536730  -0.00503087  1
  Sb  Sb91  1  0.16882568  0.83380291  0.33319782  1
  Sb  Sb92  1  0.33175773  0.83658802  0.16593297  1
  Sb  Sb93  1  -0.00759020  0.16893368  0.50345297  1
  Sb  Sb94  1  0.67090636  0.83565297  0.83515707  1
  Sb  Sb95  1  0.50528583  0.66449099  0.49733797  1
  Sb  Sb96  1  0.66931869  0.83437270  0.49838884  1
  Sb  Sb97  1  0.66816264  0.00467655  0.66509509  1
  Sb  Sb98  1  0.82945322  0.50061338  0.66582638  1
  Sb  Sb99  1  0.15897919  0.83055601  0.66853789  1
  Sb  Sb100  1  0.66378728  0.16684827  0.16331080  1
  Sb  Sb101  1  0.83405822  0.33058929  0.16302732  1
  Sb  Sb102  1  0.33896579  0.17168828  0.83977336  1
  Sb  Sb103  1  0.33646906  0.33525747  0.00010326  1
  Sb  Sb104  1  0.50180499  -0.00215453  0.16511279  1
  Sb  Sb105  1  -0.00323456  0.00104796  0.32773917  1
  Sb  Sb106  1  0.17005020  0.16616772  0.32851662  1
  Sb  Sb107  1  -0.00276857  -0.00008114  0.67494242  1
  Te  Te108  1  0.17035551  0.16137062  0.16029646  1
  Te  Te109  1  0.16461788  0.16209489  0.50355565  1
  Te  Te110  1  0.17276375  0.16631089  0.83629992  1
  Te  Te111  1  0.15914926  0.50103657  0.16440637  1
  Te  Te112  1  0.16108098  0.50129026  0.50578854  1
  Te  Te113  1  0.16243114  0.49783872  0.82827117  1
  Te  Te114  1  0.16015511  0.84104945  0.16587807  1
  Te  Te115  1  0.16467474  0.83583754  0.50200516  1
  Te  Te116  1  0.16071775  0.83903557  0.83248049  1
  Te  Te117  1  0.49695257  0.16616487  0.16905631  1
  Te  Te118  1  0.50643626  0.16639354  0.49082690  1
  Te  Te119  1  0.50055953  0.16904479  0.83616708  1
  Te  Te120  1  0.49764435  0.50580887  0.17496033  1
  Te  Te121  1  0.49734324  0.49966555  0.49719548  1
  Te  Te122  1  0.50528282  0.49812795  0.83535141  1
  Te  Te123  1  0.49921165  0.82997685  0.16477497  1
  Te  Te124  1  0.50049953  0.83394921  0.49609719  1
  Te  Te125  1  0.50024631  0.83364101  0.83759271  1
  Te  Te126  1  0.83319095  0.15858235  0.15903096  1
  Te  Te127  1  0.82896733  0.16762731  0.50050708  1
  Te  Te128  1  0.83070797  0.16758757  0.83499919  1
  Te  Te129  1  0.83742190  0.50114768  0.16803817  1
  Te  Te130  1  0.83688170  0.49917625  0.49874849  1
  Te  Te131  1  0.82641552  0.49638304  0.83524650  1
  Te  Te132  1  0.83737560  0.83708558  0.16260993  1
  Te  Te133  1  0.83399776  0.83862402  0.50170744  1
  Te  Te134  1  0.83577284  0.83255344  0.83539820  1
  Te  Te135  1  0.16595364  0.00299174  -0.00114208  1
  Te  Te136  1  0.16572681  0.00035513  0.33394669  1
  Te  Te137  1  0.16739872  0.00012945  0.66565541  1
  Te  Te138  1  0.16813942  0.32738131  -0.00502350  1
  Te  Te139  1  0.16479840  0.33247472  0.33376055  1
  Te  Te140  1  0.16793311  0.33745350  0.67106640  1
  Te  Te141  1  0.17030371  0.66775884  0.00003711  1
  Te  Te142  1  0.16475998  0.66748316  0.33820931  1
  Te  Te143  1  0.16773478  0.66273661  0.66054197  1
  Te  Te144  1  0.50138804  0.00126593  -0.00190031  1
  Te  Te145  1  0.50163780  0.00281254  0.33257256  1
  Te  Te146  1  0.50048711  0.00020331  0.67233042  1
  Te  Te147  1  0.50421083  0.33147811  -0.00197329  1
  Te  Te148  1  0.50088219  0.33443585  0.33327520  1
  Te  Te149  1  0.50464084  0.33525028  0.66737884  1
  Te  Te150  1  0.50356141  0.66307471  0.00016056  1
  Te  Te151  1  0.50254914  0.66501683  0.33597220  1
  Te  Te152  1  0.50657047  0.66309770  0.66824787  1
  Te  Te153  1  0.83270561  -0.00164392  -0.00215054  1
  Te  Te154  1  0.82927874  -0.00009721  0.33884328  1
  Te  Te155  1  0.83245266  -0.00401878  0.66270086  1
  Te  Te156  1  0.83199177  0.33203650  0.00012861  1
  Te  Te157  1  0.83359960  0.33601976  0.33060643  1
  Te  Te158  1  0.82663647  0.33270879  0.66408566  1
  Te  Te159  1  0.82811264  0.66722714  0.00108928  1
  Te  Te160  1  0.83248258  0.66466677  0.33477240  1
  Te  Te161  1  0.82722615  0.66860404  0.66166389  1
  Te  Te162  1  -0.00121660  0.16682053  -0.00242692  1
  Te  Te163  1  -0.00004883  0.17468642  0.33302328  1
  Te  Te164  1  0.00234004  0.16795722  0.67660694  1
  Te  Te165  1  -0.00650412  0.49805743  0.00203258  1
  Te  Te166  1  -0.00068257  0.49930949  0.33402104  1
  Te  Te167  1  0.00364737  0.49982468  0.66319476  1
  Te  Te168  1  -0.00354802  0.83312958  0.00129935  1
  Te  Te169  1  -0.00059606  0.83088548  0.32752281  1
  Te  Te170  1  -0.00793956  0.83231527  0.67172606  1
  Te  Te171  1  0.34146675  0.16731647  0.00572757  1
  Te  Te172  1  0.33684243  0.16532854  0.32939752  1
  Te  Te173  1  0.34562859  0.16749174  0.66301123  1
  Te  Te174  1  0.32977536  0.50372276  -0.00370292  1
  Te  Te175  1  0.33307281  0.50061728  0.33225946  1
  Te  Te176  1  0.33721067  0.49965081  0.67226724  1
  Te  Te177  1  0.34083786  0.82619358  0.00050383  1
  Te  Te178  1  0.33954548  0.83116072  0.33146012  1
  Te  Te179  1  0.33390219  0.83247831  0.66625172  1
  Te  Te180  1  0.66568444  0.16912676  -0.00243752  1
  Te  Te181  1  0.66469587  0.16642265  0.33164818  1
  Te  Te182  1  0.66316319  0.17092142  0.66671367  1
  Te  Te183  1  0.67170719  0.49835569  -0.00065198  1
  Te  Te184  1  0.66966159  0.50014138  0.33323462  1
  Te  Te185  1  0.66371193  0.49817121  0.66704974  1
  Te  Te186  1  0.66645946  0.82963576  0.00050165  1
  Te  Te187  1  0.66121549  0.83052179  0.33275269  1
  Te  Te188  1  0.67233195  0.82633118  0.66579764  1
  Te  Te189  1  -0.00035023  -0.00031004  0.16266152  1
  Te  Te190  1  -0.00115681  0.00043438  0.49877814  1
  Te  Te191  1  -0.00315849  0.00261424  0.83757467  1
  Te  Te192  1  0.00098227  0.33668523  0.16466092  1
  Te  Te193  1  -0.00712243  0.33653013  0.49964219  1
  Te  Te194  1  -0.00005626  0.33146103  0.83715725  1
  Te  Te195  1  0.00037312  0.66724256  0.17159481  1
  Te  Te196  1  -0.00266008  0.66471847  0.49591707  1
  Te  Te197  1  0.00098720  0.67031367  0.83303262  1
  Te  Te198  1  0.33095854  0.00274884  0.17114491  1
  Te  Te199  1  0.32876737  -0.00007339  0.49262416  1
  Te  Te200  1  0.33419458  -0.00074579  0.83339148  1
  Te  Te201  1  0.33245768  0.33012289  0.17209016  1
  Te  Te202  1  0.32930511  0.33320009  0.49148626  1
  Te  Te203  1  0.32892802  0.33893706  0.83278390  1
  Te  Te204  1  0.33556990  0.66636305  0.16832158  1
  Te  Te205  1  0.32722803  0.66622818  0.49342019  1
  Te  Te206  1  0.33883746  0.66216789  0.83440542  1
  Te  Te207  1  0.67232558  -0.00018414  0.17429401  1
  Te  Te208  1  0.66997233  0.00503627  0.49711885  1
  Te  Te209  1  0.66828691  0.00507216  0.83310459  1
  Te  Te210  1  0.66678281  0.33408970  0.17617086  1
  Te  Te211  1  0.67279858  0.32987701  0.49081715  1
  Te  Te212  1  0.66704114  0.33135634  0.83476703  1
  Te  Te213  1  0.66088229  0.66696642  0.17013863  1
  Te  Te214  1  0.67237532  0.66647740  0.49494782  1
  Te  Te215  1  0.66359340  0.66894424  0.83450944  1
