# generated using pymatgen
data_AgSbTe2
_symmetry_space_group_name_H-M   'P 1'
_cell_length_a   18.33892346
_cell_length_b   18.33023336
_cell_length_c   18.33347619
_cell_angle_alpha   90.00371009
_cell_angle_beta   89.99856643
_cell_angle_gamma   89.99904502
_symmetry_Int_Tables_number   1
_chemical_formula_structural   AgSbTe2
_chemical_formula_sum   'Ag54 Sb54 Te108'
_cell_volume   6162.92169503
_cell_formula_units_Z   54
loop_
 _symmetry_equiv_pos_site_id
 _symmetry_equiv_pos_as_xyz
  1  'x, y, z'
loop_
 _atom_site_type_symbol
 _atom_site_label
 _atom_site_symmetry_multiplicity
 _atom_site_fract_x
 _atom_site_fract_y
 _atom_site_fract_z
 _atom_site_occupancy
  Ag  Ag0  1  0.67052856  0.49968362  0.84422549  1
  Ag  Ag1  1  0.84418129  0.00911327  0.49289195  1
  Ag  Ag2  1  0.00279064  0.67147170  0.32506332  1
  Ag  Ag3  1  0.16579451  0.83079232  0.00048113  1
  Ag  Ag4  1  0.00237405  -0.00669263  0.00239161  1
  Ag  Ag5  1  0.00093733  0.33325211  0.66913705  1
  Ag  Ag6  1  0.16209473  0.33626119  0.83881105  1
  Ag  Ag7  1  0.49523292  0.82552497  -0.00022301  1
  Ag  Ag8  1  0.83829166  0.33767618  0.83566489  1
  Ag  Ag9  1  0.49899333  0.17947791  0.32498058  1
  Ag  Ag10  1  0.84493642  0.83183538  0.33401298  1
  Ag  Ag11  1  0.33195907  0.33400263  0.66515558  1
  Ag  Ag12  1  0.33481624  0.66611665  0.33110734  1
  Ag  Ag13  1  0.83539148  0.17026147  0.65891726  1
  Ag  Ag14  1  0.33645752  0.17002213  0.16602950  1
  Ag  Ag15  1  0.82838957  0.49776164  0.00066011  1
  Ag  Ag16  1  0.50206383  0.66690090  0.84734874  1
  Ag  Ag17  1  0.67485926  0.17023785  0.49730979  1
  Ag  Ag18  1  0.83068402  0.50048260  0.32364606  1
  Ag  Ag19  1  0.49655587  0.83001444  0.33102651  1
  Ag  Ag20  1  -0.00085288  0.66206108  0.00316146  1
  Ag  Ag21  1  0.16231389  0.50350792  0.00136858  1
  Ag  Ag22  1  0.17244383  0.34103532  0.16153119  1
  Ag  Ag23  1  0.16825269  0.66251007  0.16546428  1
  Ag  Ag24  1  0.49387106  -0.00867625  0.84110326  1
  Ag  Ag25  1  0.51326567  0.50443808  0.00458825  1
  Ag  Ag26  1  0.83106769  0.32781253  0.50157105  1
  Ag  Ag27  1  0.16146146  0.83232344  0.33569976  1
  Ag  Ag28  1  0.50364856  0.49066259  0.32073263  1
  Ag  Ag29  1  0.00545040  0.83983688  0.49174406  1
  Ag  Ag30  1  0.83801818  0.00119562  0.17011010  1
  Ag  Ag31  1  0.66304686  0.65695582  0.00026935  1
  Ag  Ag32  1  0.00388102  0.82965896  0.83597259  1
  Ag  Ag33  1  0.65646268  0.33510483  0.32697545  1
  Ag  Ag34  1  0.16065920  -0.00585781  0.49820660  1
  Ag  Ag35  1  0.49329949  0.83297990  0.67271260  1
  Ag  Ag36  1  -0.00378967  0.50076007  0.16102712  1
  Ag  Ag37  1  0.66563612  0.49816051  0.15808874  1
  Ag  Ag38  1  0.16615258  -0.00561608  0.83778034  1
  Ag  Ag39  1  0.34337778  0.33922234  0.33221188  1
  Ag  Ag40  1  0.83454383  0.65644614  0.83996366  1
  Ag  Ag41  1  0.49756865  0.34089032  0.17201537  1
  Ag  Ag42  1  0.33060064  -0.00098706  -0.00070254  1
  Ag  Ag43  1  -0.00777386  0.15721845  0.49808338  1
  Ag  Ag44  1  0.16723036  0.83509156  0.66281134  1
  Ag  Ag45  1  0.83078044  0.17640850  -0.00116752  1
  Ag  Ag46  1  0.49608840  0.65767072  0.16453380  1
  Ag  Ag47  1  -0.00318486  0.50463919  0.84381599  1
  Ag  Ag48  1  0.50393407  0.17303489  0.00556243  1
  Ag  Ag49  1  0.50323029  0.33144834  0.48638194  1
  Ag  Ag50  1  0.33583891  0.49895612  0.83742428  1
  Ag  Ag51  1  0.66498843  0.34425425  0.00432069  1
  Ag  Ag52  1  0.32516028  0.83475940  0.49638034  1
  Ag  Ag53  1  -0.00307144  -0.00852944  0.33464532  1
  Sb  Sb54  1  0.49886782  0.50250485  0.67133030  1
  Sb  Sb55  1  0.16636046  0.66666925  0.84187444  1
  Sb  Sb56  1  0.66592782  0.82635074  0.16623458  1
  Sb  Sb57  1  -0.00359460  0.33887754  -0.00403917  1
  Sb  Sb58  1  0.66589864  0.66604615  0.67653276  1
  Sb  Sb59  1  0.83649869  0.83001897  0.00306281  1
  Sb  Sb60  1  0.66638481  0.00121417  0.66714637  1
  Sb  Sb61  1  0.16645187  0.50174608  0.67707731  1
  Sb  Sb62  1  0.82961289  0.16864391  0.33293148  1
  Sb  Sb63  1  0.16623458  0.32800377  0.50010838  1
  Sb  Sb64  1  0.00105371  0.66473249  0.67091443  1
  Sb  Sb65  1  0.33401107  0.66767824  0.00486867  1
  Sb  Sb66  1  0.66693761  0.00045916  0.00041099  1
  Sb  Sb67  1  -0.00132624  0.16724535  0.83239411  1
  Sb  Sb68  1  0.83521781  0.49366587  0.67446929  1
  Sb  Sb69  1  -0.00095927  0.33605595  0.33579823  1
  Sb  Sb70  1  0.50041641  0.66437460  0.49370787  1
  Sb  Sb71  1  0.66313472  0.17344338  0.16869744  1
  Sb  Sb72  1  0.66734135  0.49275799  0.49514822  1
  Sb  Sb73  1  0.66538283  0.65998712  0.32631548  1
  Sb  Sb74  1  0.66717575  0.33385268  0.66707596  1
  Sb  Sb75  1  0.50208996  0.00015519  0.16270778  1
  Sb  Sb76  1  0.49865615  0.00146336  0.50052144  1
  Sb  Sb77  1  0.49997032  0.33840659  0.83789426  1
  Sb  Sb78  1  0.50298254  0.16550866  0.66740986  1
  Sb  Sb79  1  0.33315611  0.16382360  0.49558617  1
  Sb  Sb80  1  0.33667548  0.33301586  0.00302497  1
  Sb  Sb81  1  0.83758576  0.83794742  0.66346143  1
  Sb  Sb82  1  0.83522782  0.66603339  0.49966597  1
  Sb  Sb83  1  0.33025752  -0.00283281  0.32874597  1
  Sb  Sb84  1  0.33098039  0.82933719  0.83280618  1
  Sb  Sb85  1  0.33493313  0.17060788  0.83841027  1
  Sb  Sb86  1  0.16179043  0.16432582  0.66660859  1
  Sb  Sb87  1  0.16562414  0.16690776  0.00082029  1
  Sb  Sb88  1  0.67013565  0.00390220  0.33256136  1
  Sb  Sb89  1  0.16609920  0.67398756  0.49154896  1
  Sb  Sb90  1  0.33621242  0.49670715  0.16172662  1
  Sb  Sb91  1  0.33093158  0.00229146  0.67114599  1
  Sb  Sb92  1  0.16976392  0.16372830  0.33200964  1
  Sb  Sb93  1  0.16750118  0.50446405  0.32555586  1
  Sb  Sb94  1  0.66800372  0.83834420  0.49677803  1
  Sb  Sb95  1  0.66705896  0.17298666  0.83344053  1
  Sb  Sb96  1  0.00147095  0.00258154  0.66426220  1
  Sb  Sb97  1  0.66683216  0.82836927  0.83600388  1
  Sb  Sb98  1  0.83479440  0.66549918  0.16263761  1
  Sb  Sb99  1  0.33297563  0.66617027  0.66415907  1
  Sb  Sb100  1  0.83710568  0.00137254  0.83568053  1
  Sb  Sb101  1  0.33390881  0.50112363  0.49889618  1
  Sb  Sb102  1  0.00208687  0.17062031  0.16849963  1
  Sb  Sb103  1  0.83133015  0.33419974  0.16557353  1
  Sb  Sb104  1  0.16266299  -0.00285758  0.16454027  1
  Sb  Sb105  1  0.33328976  0.83440624  0.16892360  1
  Sb  Sb106  1  0.00100038  0.82726669  0.16727826  1
  Sb  Sb107  1  -0.00147849  0.50066079  0.49706495  1
  Te  Te108  1  0.17186700  0.17547287  0.16643978  1
  Te  Te109  1  0.16161786  0.15812723  0.50024726  1
  Te  Te110  1  0.16713202  0.16802628  0.83297571  1
  Te  Te111  1  0.16627079  0.50123899  0.16297514  1
  Te  Te112  1  0.16644148  0.49954564  0.50206140  1
  Te  Te113  1  0.16260377  0.49866709  0.83872181  1
  Te  Te114  1  0.16756013  0.82947564  0.16224801  1
  Te  Te115  1  0.16491135  0.83615245  0.49739098  1
  Te  Te116  1  0.16556353  0.83335491  0.83958387  1
  Te  Te117  1  0.49869874  0.16665822  0.16576256  1
  Te  Te118  1  0.50078957  0.16965851  0.49907731  1
  Te  Te119  1  0.50089380  0.16150306  0.83759265  1
  Te  Te120  1  0.49879117  0.49926711  0.16414452  1
  Te  Te121  1  0.50008394  0.49355568  0.49945490  1
  Te  Te122  1  0.49834037  0.50355506  0.83643486  1
  Te  Te123  1  0.49976319  0.83231792  0.16364439  1
  Te  Te124  1  0.49990575  0.83389608  0.49743232  1
  Te  Te125  1  0.49908844  0.83047141  0.83637106  1
  Te  Te126  1  0.83399325  0.16450392  0.16140460  1
  Te  Te127  1  0.83487246  0.16833149  0.49572032  1
  Te  Te128  1  0.83252141  0.17065298  0.83867295  1
  Te  Te129  1  0.83360347  0.49993671  0.16426140  1
  Te  Te130  1  0.83301647  0.49586559  0.49682020  1
  Te  Te131  1  0.83622677  0.49814733  0.83570896  1
  Te  Te132  1  0.83257554  0.83760846  0.17369811  1
  Te  Te133  1  0.83669927  0.83549624  0.49602794  1
  Te  Te134  1  0.83888908  0.83221395  0.83137837  1
  Te  Te135  1  0.16446664  -0.00028830  -0.00108324  1
  Te  Te136  1  0.16229271  -0.00492919  0.33304770  1
  Te  Te137  1  0.16728064  -0.00536058  0.67278418  1
  Te  Te138  1  0.16732516  0.33366936  -0.00070964  1
  Te  Te139  1  0.16994049  0.33393890  0.33068808  1
  Te  Te140  1  0.16656606  0.33281828  0.66917531  1
  Te  Te141  1  0.16586784  0.66838811  0.00450415  1
  Te  Te142  1  0.16541466  0.67089431  0.32646224  1
  Te  Te143  1  0.16741533  0.67545223  0.66590700  1
  Te  Te144  1  0.50032690  -0.00016164  -0.00102785  1
  Te  Te145  1  0.49985262  -0.00832072  0.33222152  1
  Te  Te146  1  0.49859057  -0.00534566  0.67204811  1
  Te  Te147  1  0.50299128  0.33342538  0.00160553  1
  Te  Te148  1  0.49991722  0.33523312  0.33087417  1
  Te  Te149  1  0.49534040  0.33292856  0.66776110  1
  Te  Te150  1  0.49543403  0.66435205  0.00315974  1
  Te  Te151  1  0.49919677  0.66850493  0.32903392  1
  Te  Te152  1  0.49886871  0.67287026  0.66606707  1
  Te  Te153  1  0.83730349  -0.00190324  0.00100619  1
  Te  Te154  1  0.83600669  0.00023470  0.33425533  1
  Te  Te155  1  0.83337351  0.00674663  0.66292844  1
  Te  Te156  1  0.83059811  0.33585314  -0.00078092  1
  Te  Te157  1  0.83347310  0.33815562  0.33527188  1
  Te  Te158  1  0.83406956  0.32944395  0.66621746  1
  Te  Te159  1  0.83832140  0.66489990  -0.00171273  1
  Te  Te160  1  0.83447061  0.66619972  0.33227840  1
  Te  Te161  1  0.83363449  0.66773415  0.67516433  1
  Te  Te162  1  -0.00569650  0.16036868  0.00074248  1
  Te  Te163  1  0.00061169  0.16360687  0.33666083  1
  Te  Te164  1  -0.00479418  0.17165314  0.66250401  1
  Te  Te165  1  0.00139905  0.49976367  0.00033928  1
  Te  Te166  1  -0.00237170  0.50515582  0.33002023  1
  Te  Te167  1  0.00119673  0.49513604  0.66960108  1
  Te  Te168  1  0.00058233  0.83217273  -0.00084267  1
  Te  Te169  1  0.00126375  0.83258482  0.33108321  1
  Te  Te170  1  0.00374562  0.83277465  0.67080077  1
  Te  Te171  1  0.33710418  0.16328127  0.00392640  1
  Te  Te172  1  0.33841859  0.16781009  0.32940671  1
  Te  Te173  1  0.33378231  0.17389190  0.66547411  1
  Te  Te174  1  0.32308035  0.49963545  -0.00448073  1
  Te  Te175  1  0.33675521  0.50125258  0.33400329  1
  Te  Te176  1  0.33262601  0.49497715  0.67051171  1
  Te  Te177  1  0.33348405  0.83736487  -0.00010909  1
  Te  Te178  1  0.33323170  0.83240316  0.33471806  1
  Te  Te179  1  0.33172158  0.83392093  0.66230458  1
  Te  Te180  1  0.66664661  0.16829965  0.00105013  1
  Te  Te181  1  0.66069967  0.17212805  0.33594973  1
  Te  Te182  1  0.67286384  0.16729945  0.66102068  1
  Te  Te183  1  0.66871074  0.50091524  -0.00001005  1
  Te  Te184  1  0.66691521  0.49541522  0.33033052  1
  Te  Te185  1  0.66656923  0.50026018  0.67419512  1
  Te  Te186  1  0.66049927  0.82861284  0.00050224  1
  Te  Te187  1  0.66128650  0.83132085  0.33296098  1
  Te  Te188  1  0.65948285  0.83344065  0.66576038  1
  Te  Te189  1  -0.00119041  0.00301779  0.16741762  1
  Te  Te190  1  0.00070928  -0.00233334  0.50066017  1
  Te  Te191  1  0.00301963  -0.00324774  0.83594846  1
  Te  Te192  1  0.00549837  0.33893208  0.16709217  1
  Te  Te193  1  -0.00278032  0.33248377  0.50431355  1
  Te  Te194  1  0.00011993  0.33355013  0.83119315  1
  Te  Te195  1  0.00058048  0.66115827  0.16522930  1
  Te  Te196  1  -0.00064948  0.67239596  0.49714447  1
  Te  Te197  1  -0.00016885  0.66642608  0.83633115  1
  Te  Te198  1  0.33197724  0.00662203  0.16097457  1
  Te  Te199  1  0.32920245  -0.00441331  0.50029681  1
  Te  Te200  1  0.33181114  -0.00023072  0.83814862  1
  Te  Te201  1  0.33513440  0.33108546  0.16902490  1
  Te  Te202  1  0.33469019  0.33251245  0.49686319  1
  Te  Te203  1  0.32996990  0.33653080  0.83253353  1
  Te  Te204  1  0.33398667  0.66823100  0.17215893  1
  Te  Te205  1  0.33325804  0.67262191  0.49299102  1
  Te  Te206  1  0.33829377  0.66088135  0.83146122  1
  Te  Te207  1  0.67627372  -0.00050401  0.16677216  1
  Te  Te208  1  0.67029949  0.00758185  0.49989636  1
  Te  Te209  1  0.66194056  0.00012299  0.83372073  1
  Te  Te210  1  0.66474457  0.33773962  0.16633769  1
  Te  Te211  1  0.66721878  0.33007574  0.49979301  1
  Te  Te212  1  0.67019639  0.33825324  0.83738536  1
  Te  Te213  1  0.66191739  0.65973912  0.16024536  1
  Te  Te214  1  0.66757138  0.66569093  0.50241723  1
  Te  Te215  1  0.66592351  0.66206990  0.84079087  1
