# generated using pymatgen
data_AgSbTe2
_symmetry_space_group_name_H-M   'P 1'
_cell_length_a   18.33583053
_cell_length_b   18.32566801
_cell_length_c   18.32529476
_cell_angle_alpha   89.99751192
_cell_angle_beta   90.00023994
_cell_angle_gamma   89.99893539
_symmetry_Int_Tables_number   1
_chemical_formula_structural   AgSbTe2
_chemical_formula_sum   'Ag54 Sb54 Te108'
_cell_volume   6157.59852155
_cell_formula_units_Z   54
loop_
 _symmetry_equiv_pos_site_id
 _symmetry_equiv_pos_as_xyz
  1  'x, y, z'
loop_
 _atom_site_type_symbol
 _atom_site_label
 _atom_site_symmetry_multiplicity
 _atom_site_fract_x
 _atom_site_fract_y
 _atom_site_fract_z
 _atom_site_occupancy
  Ag  Ag0  1  0.65872657  0.16129645  0.83273548  1
  Ag  Ag1  1  0.66571474  0.16247171  0.16059328  1
  Ag  Ag2  1  0.66949817  0.66844461  -0.00499393  1
  Ag  Ag3  1  0.66262126  0.15374348  0.50252941  1
  Ag  Ag4  1  0.83332998  0.33380763  0.16278751  1
  Ag  Ag5  1  0.66402813  0.83558980  0.50755830  1
  Ag  Ag6  1  0.34078245  0.83976736  0.83056920  1
  Ag  Ag7  1  0.16255538  -0.00050655  0.16203295  1
  Ag  Ag8  1  -0.00330176  0.00039634  0.33085126  1
  Ag  Ag9  1  0.34026203  0.16252253  0.83275186  1
  Ag  Ag10  1  0.65932486  0.33008671  0.66846294  1
  Ag  Ag11  1  0.50462230  0.66676472  0.82890449  1
  Ag  Ag12  1  0.50507416  0.67239897  0.50871782  1
  Ag  Ag13  1  0.00023501  0.83455732  0.16872434  1
  Ag  Ag14  1  0.82559575  0.66982675  0.82927678  1
  Ag  Ag15  1  0.82281049  -0.00689101  0.49597526  1
  Ag  Ag16  1  0.50264731  0.82945494  0.66539078  1
  Ag  Ag17  1  0.82538562  0.67138907  0.50936847  1
  Ag  Ag18  1  0.66305672  0.50970526  0.50130975  1
  Ag  Ag19  1  -0.00221065  0.33023220  0.33034781  1
  Ag  Ag20  1  0.49752889  0.84282249  0.34536335  1
  Ag  Ag21  1  0.33798047  0.00308534  -0.00088817  1
  Ag  Ag22  1  0.33995939  0.66608726  0.66652791  1
  Ag  Ag23  1  0.66411219  0.00202777  -0.00259292  1
  Ag  Ag24  1  0.17067544  0.83714777  0.33999110  1
  Ag  Ag25  1  0.17248798  0.00403018  0.83736007  1
  Ag  Ag26  1  0.82235957  0.83104364  0.66734917  1
  Ag  Ag27  1  0.17507183  0.16145345  0.67370530  1
  Ag  Ag28  1  0.82828943  -0.00330698  0.83413569  1
  Ag  Ag29  1  0.50245735  0.16028860  0.34405637  1
  Ag  Ag30  1  0.83373426  0.00181460  0.16918016  1
  Ag  Ag31  1  0.34266729  0.50515067  0.50299922  1
  Ag  Ag32  1  0.83350830  0.49883149  0.32863859  1
  Ag  Ag33  1  0.66367962  0.83894968  0.82702341  1
  Ag  Ag34  1  0.50097641  0.16583874  -0.01033415  1
  Ag  Ag35  1  0.83026354  0.50301833  0.00219442  1
  Ag  Ag36  1  0.00091197  0.66871495  0.66899199  1
  Ag  Ag37  1  -0.00141854  0.50308995  0.16405469  1
  Ag  Ag38  1  0.49985946  0.17025169  0.67104560  1
  Ag  Ag39  1  0.50381869  -0.00690960  0.49615319  1
  Ag  Ag40  1  0.17408728  0.16224550  -0.00948397  1
  Ag  Ag41  1  -0.00642587  0.66347542  -0.00434641  1
  Ag  Ag42  1  0.17761747  0.32127916  0.83278606  1
  Ag  Ag43  1  0.33069140  0.49901026  0.16595784  1
  Ag  Ag44  1  0.82712003  0.33384789  0.83488691  1
  Ag  Ag45  1  0.49934583  0.50528363  0.67048507  1
  Ag  Ag46  1  0.17118457  0.66889520  0.50507269  1
  Ag  Ag47  1  0.50194340  0.32617216  0.82948645  1
  Ag  Ag48  1  0.34549418  -0.00139655  0.32923295  1
  Ag  Ag49  1  0.17047436  0.83235037  0.66547064  1
  Ag  Ag50  1  0.34319306  0.33553870  0.67014623  1
  Ag  Ag51  1  0.66471894  0.00113266  0.34223375  1
  Ag  Ag52  1  0.50169163  0.49885958  -0.00977762  1
  Ag  Ag53  1  0.17080961  0.49884803  0.00016288  1
  Sb  Sb54  1  0.33630029  0.49775733  0.83232613  1
  Sb  Sb55  1  0.33105026  0.32994315  0.33812341  1
  Sb  Sb56  1  0.16556052  0.67076533  0.16814118  1
  Sb  Sb57  1  0.16594360  0.83460378  -0.00343095  1
  Sb  Sb58  1  0.83389708  0.66733191  0.16457166  1
  Sb  Sb59  1  0.33475704  0.66808137  -0.00724725  1
  Sb  Sb60  1  0.82893113  0.16175866  0.66911194  1
  Sb  Sb61  1  -0.00559061  0.16420536  0.49980964  1
  Sb  Sb62  1  0.00000151  0.33917533  0.66657080  1
  Sb  Sb63  1  0.66376213  0.00187214  0.66646017  1
  Sb  Sb64  1  0.17370655  0.50198405  0.67122969  1
  Sb  Sb65  1  -0.00200245  0.83279228  0.83358749  1
  Sb  Sb66  1  0.50199997  0.83563797  -0.00418855  1
  Sb  Sb67  1  0.66171927  0.66753374  0.67033928  1
  Sb  Sb68  1  0.33401086  -0.00138868  0.67035832  1
  Sb  Sb69  1  0.33764767  0.16735513  0.16166477  1
  Sb  Sb70  1  0.83101065  0.16798108  -0.00161857  1
  Sb  Sb71  1  0.16369021  0.50403819  0.33022001  1
  Sb  Sb72  1  0.33125614  0.83374381  0.16444896  1
  Sb  Sb73  1  -0.00374125  0.83263294  0.49871579  1
  Sb  Sb74  1  0.66658009  0.33144323  -0.00771654  1
  Sb  Sb75  1  0.00157476  0.16615157  0.83340849  1
  Sb  Sb76  1  0.82982754  0.33470579  0.50207456  1
  Sb  Sb77  1  0.16245442  0.32959581  0.16147823  1
  Sb  Sb78  1  0.49992479  0.66574344  0.16342084  1
  Sb  Sb79  1  0.16791547  0.33714672  0.50656682  1
  Sb  Sb80  1  0.82625907  0.50589963  0.66779681  1
  Sb  Sb81  1  -0.00340608  0.50331891  0.49574129  1
  Sb  Sb82  1  0.16869629  0.66918356  0.82948026  1
  Sb  Sb83  1  0.50137985  0.00087846  0.82837642  1
  Sb  Sb84  1  0.17013578  -0.00522286  0.50075024  1
  Sb  Sb85  1  0.67068923  0.84081732  0.16695187  1
  Sb  Sb86  1  -0.00200541  -0.00381952  0.00310339  1
  Sb  Sb87  1  0.33446704  0.67167701  0.33992937  1
  Sb  Sb88  1  -0.00431599  0.16517546  0.16661601  1
  Sb  Sb89  1  -0.00027111  -0.00487307  0.66402245  1
  Sb  Sb90  1  0.66936147  0.49523801  0.16733139  1
  Sb  Sb91  1  0.50329854  0.49876323  0.33739749  1
  Sb  Sb92  1  0.82652377  0.16614439  0.33300912  1
  Sb  Sb93  1  0.50529377  0.33145360  0.16003811  1
  Sb  Sb94  1  0.66668357  0.67189690  0.33388416  1
  Sb  Sb95  1  0.33362227  0.33031456  -0.00570049  1
  Sb  Sb96  1  0.83212662  0.83446120  0.33831834  1
  Sb  Sb97  1  0.34044944  0.16661760  0.50754701  1
  Sb  Sb98  1  0.83216565  0.82983005  -0.00588815  1
  Sb  Sb99  1  0.50240003  0.33442785  0.50883773  1
  Sb  Sb100  1  0.34097520  0.83116303  0.50756288  1
  Sb  Sb101  1  0.66854801  0.32749006  0.33769407  1
  Sb  Sb102  1  0.17194260  0.15863099  0.33399133  1
  Sb  Sb103  1  0.66462310  0.50092783  0.82996367  1
  Sb  Sb104  1  -0.00167715  0.66989921  0.33404721  1
  Sb  Sb105  1  -0.00093431  0.33825645  0.00260166  1
  Sb  Sb106  1  -0.00089095  0.50161130  0.83840682  1
  Sb  Sb107  1  0.50282806  0.00080586  0.17007161  1
  Te  Te108  1  0.16834453  0.16089734  0.16485650  1
  Te  Te109  1  0.16813530  0.16628138  0.50547219  1
  Te  Te110  1  0.16485922  0.16485551  0.83258253  1
  Te  Te111  1  0.16463532  0.49892649  0.16255761  1
  Te  Te112  1  0.16874647  0.50615119  0.49966124  1
  Te  Te113  1  0.16758395  0.49787816  0.83967254  1
  Te  Te114  1  0.16402184  0.83838809  0.16792271  1
  Te  Te115  1  0.16647342  0.83018850  0.50237654  1
  Te  Te116  1  0.16724380  0.83773071  0.82953553  1
  Te  Te117  1  0.50539777  0.16766635  0.15908290  1
  Te  Te118  1  0.50362997  0.16726408  0.50303681  1
  Te  Te119  1  0.50007565  0.16452818  0.83201274  1
  Te  Te120  1  0.49759478  0.49888602  0.16522271  1
  Te  Te121  1  0.50168664  0.50208476  0.50158500  1
  Te  Te122  1  0.49878055  0.50247847  0.83185197  1
  Te  Te123  1  0.50009374  0.83170198  0.17430247  1
  Te  Te124  1  0.50195382  0.83229988  0.50278803  1
  Te  Te125  1  0.50207216  0.83302408  0.83058712  1
  Te  Te126  1  0.82838603  0.16549514  0.16576071  1
  Te  Te127  1  0.82583182  0.16099028  0.50126131  1
  Te  Te128  1  0.82924683  0.16508111  0.83345550  1
  Te  Te129  1  0.83442633  0.50001419  0.16516753  1
  Te  Te130  1  0.82842777  0.50366193  0.49922785  1
  Te  Te131  1  0.83194797  0.50247458  0.83665702  1
  Te  Te132  1  0.83819148  0.83816148  0.16833722  1
  Te  Te133  1  0.82981357  0.83277155  0.50383797  1
  Te  Te134  1  0.83132582  0.83247824  0.82871349  1
  Te  Te135  1  0.16515593  0.00069405  -0.00169049  1
  Te  Te136  1  0.16113731  -0.00366216  0.33325761  1
  Te  Te137  1  0.16664794  -0.00131253  0.66974490  1
  Te  Te138  1  0.16604831  0.33428947  -0.00619352  1
  Te  Te139  1  0.16190814  0.33250700  0.33336407  1
  Te  Te140  1  0.16630407  0.33201462  0.67335853  1
  Te  Te141  1  0.16567931  0.66189041  -0.00112040  1
  Te  Te142  1  0.16615180  0.67375114  0.33985981  1
  Te  Te143  1  0.16769583  0.66876978  0.66505922  1
  Te  Te144  1  0.50081323  0.00240582  0.00258595  1
  Te  Te145  1  0.50310839  0.00049780  0.33352693  1
  Te  Te146  1  0.49719312  -0.00219877  0.65809026  1
  Te  Te147  1  0.50008166  0.33490452  -0.00780150  1
  Te  Te148  1  0.49915205  0.32768817  0.33036991  1
  Te  Te149  1  0.49922610  0.33080832  0.67067177  1
  Te  Te150  1  0.50340391  0.66460966  -0.00444981  1
  Te  Te151  1  0.50061873  0.66828004  0.33750939  1
  Te  Te152  1  0.49995604  0.66684706  0.66814644  1
  Te  Te153  1  0.83025907  -0.00000546  -0.00152697  1
  Te  Te154  1  0.83055410  -0.00036579  0.33268291  1
  Te  Te155  1  0.83609073  -0.00625179  0.67001279  1
  Te  Te156  1  0.83310197  0.33765579  -0.00080146  1
  Te  Te157  1  0.83606949  0.33561893  0.33235641  1
  Te  Te158  1  0.83349057  0.33365555  0.67265631  1
  Te  Te159  1  0.83190358  0.66392637  -0.00215554  1
  Te  Te160  1  0.83308515  0.66234358  0.33719538  1
  Te  Te161  1  0.83358804  0.66942976  0.66884499  1
  Te  Te162  1  0.00959004  0.16669196  0.00119048  1
  Te  Te163  1  0.00173264  0.16452351  0.33345380  1
  Te  Te164  1  0.00766646  0.16891699  0.66492209  1
  Te  Te165  1  -0.00332742  0.50366163  0.00386942  1
  Te  Te166  1  -0.00391004  0.49993928  0.32790398  1
  Te  Te167  1  0.00096587  0.50767501  0.66536064  1
  Te  Te168  1  -0.00033425  0.82566515  0.00601161  1
  Te  Te169  1  0.00253710  0.83663480  0.32985313  1
  Te  Te170  1  0.00677117  0.82791095  0.66591082  1
  Te  Te171  1  0.33487615  0.16389839  -0.00357409  1
  Te  Te172  1  0.34060902  0.16159614  0.33237177  1
  Te  Te173  1  0.33499547  0.16694274  0.67098885  1
  Te  Te174  1  0.33599016  0.50024656  0.00204724  1
  Te  Te175  1  0.33315301  0.49946068  0.33407491  1
  Te  Te176  1  0.33812191  0.50113555  0.66536045  1
  Te  Te177  1  0.33383552  0.83974818  -0.00569091  1
  Te  Te178  1  0.33291487  0.83823265  0.33116187  1
  Te  Te179  1  0.33422673  0.83230469  0.67120480  1
  Te  Te180  1  0.66519663  0.16523481  -0.00398337  1
  Te  Te181  1  0.66164162  0.16178792  0.33742686  1
  Te  Te182  1  0.66459384  0.16939851  0.66893217  1
  Te  Te183  1  0.66462979  0.50143783  0.00156012  1
  Te  Te184  1  0.67177954  0.49943193  0.33698351  1
  Te  Te185  1  0.66073985  0.49324327  0.66162615  1
  Te  Te186  1  0.66644755  0.83591053  -0.00408546  1
  Te  Te187  1  0.66306035  0.83922758  0.33504506  1
  Te  Te188  1  0.66462535  0.83348254  0.66768712  1
  Te  Te189  1  -0.00201934  -0.00128900  0.16873550  1
  Te  Te190  1  -0.00542922  0.00030543  0.49373225  1
  Te  Te191  1  -0.00578528  -0.00083716  0.83337367  1
  Te  Te192  1  -0.00518029  0.33582831  0.17014279  1
  Te  Te193  1  -0.00056439  0.33366465  0.49258920  1
  Te  Te194  1  -0.00969671  0.33385002  0.83288944  1
  Te  Te195  1  0.00037450  0.66634625  0.16332301  1
  Te  Te196  1  -0.00284410  0.66653184  0.50373901  1
  Te  Te197  1  -0.00295194  0.66752430  0.83356386  1
  Te  Te198  1  0.32856174  -0.00000673  0.16456913  1
  Te  Te199  1  0.33762692  -0.00038020  0.49085051  1
  Te  Te200  1  0.33269771  0.00093330  0.83604192  1
  Te  Te201  1  0.33184537  0.33866344  0.16847012  1
  Te  Te202  1  0.33225605  0.34017877  0.50672741  1
  Te  Te203  1  0.33518772  0.33037419  0.82924898  1
  Te  Te204  1  0.33239748  0.66060108  0.16559376  1
  Te  Te205  1  0.33549669  0.66512571  0.50470756  1
  Te  Te206  1  0.33677412  0.67191654  0.82796038  1
  Te  Te207  1  0.67045713  0.00343363  0.16083742  1
  Te  Te208  1  0.66546268  -0.00313158  0.50195920  1
  Te  Te209  1  0.66677837  -0.00054983  0.83464481  1
  Te  Te210  1  0.67359133  0.32644110  0.16856325  1
  Te  Te211  1  0.66835217  0.33451337  0.50570843  1
  Te  Te212  1  0.66551270  0.33167179  0.82996208  1
  Te  Te213  1  0.66614228  0.66807598  0.15845390  1
  Te  Te214  1  0.66586559  0.66959873  0.49787788  1
  Te  Te215  1  0.66582671  0.66753653  0.83557127  1
