# generated using pymatgen
data_AgSbTe2
_symmetry_space_group_name_H-M   'P 1'
_cell_length_a   18.32404258
_cell_length_b   18.32687454
_cell_length_c   18.31945220
_cell_angle_alpha   89.99769977
_cell_angle_beta   90.00298740
_cell_angle_gamma   89.99877484
_symmetry_Int_Tables_number   1
_chemical_formula_structural   AgSbTe2
_chemical_formula_sum   'Ag54 Sb54 Te108'
_cell_volume   6152.08292673
_cell_formula_units_Z   54
loop_
 _symmetry_equiv_pos_site_id
 _symmetry_equiv_pos_as_xyz
  1  'x, y, z'
loop_
 _atom_site_type_symbol
 _atom_site_label
 _atom_site_symmetry_multiplicity
 _atom_site_fract_x
 _atom_site_fract_y
 _atom_site_fract_z
 _atom_site_occupancy
  Ag  Ag0  1  0.84063522  0.00470539  0.50014400  1
  Ag  Ag1  1  0.15657506  0.16318082  0.33062995  1
  Ag  Ag2  1  0.67725119  0.00228418  0.33367472  1
  Ag  Ag3  1  0.49977360  0.66658331  0.49612724  1
  Ag  Ag4  1  0.15788404  -0.00306097  0.49929402  1
  Ag  Ag5  1  0.83768577  0.16694741  0.66045651  1
  Ag  Ag6  1  0.33084630  0.50459414  0.50223326  1
  Ag  Ag7  1  0.16096540  0.66631212  0.16411558  1
  Ag  Ag8  1  0.16639069  0.32993949  0.84205228  1
  Ag  Ag9  1  0.32818998  -0.00498361  -0.00318789  1
  Ag  Ag10  1  0.00371893  0.82963691  0.83855625  1
  Ag  Ag11  1  0.32586533  0.32895901  0.67778574  1
  Ag  Ag12  1  0.49474881  0.00284669  0.16571521  1
  Ag  Ag13  1  0.83588739  0.50050877  0.66832426  1
  Ag  Ag14  1  -0.00377112  0.16136765  0.48678234  1
  Ag  Ag15  1  0.16948141  0.82834293  0.00022696  1
  Ag  Ag16  1  0.16765382  0.00262031  0.83722682  1
  Ag  Ag17  1  0.49005289  0.82528845  0.00077780  1
  Ag  Ag18  1  0.15965236  0.33382548  0.16125372  1
  Ag  Ag19  1  0.32406432  0.00401965  0.67699085  1
  Ag  Ag20  1  0.00063770  0.32117870  0.32444506  1
  Ag  Ag21  1  0.83858719  0.32967388  0.16476670  1
  Ag  Ag22  1  -0.00126650  0.00940997  0.33662674  1
  Ag  Ag23  1  0.32883557  0.16130277  0.83541170  1
  Ag  Ag24  1  -0.00277360  0.17169947  0.17399041  1
  Ag  Ag25  1  0.84255140  0.16525926  0.33443261  1
  Ag  Ag26  1  0.66890754  0.65917193  0.00631483  1
  Ag  Ag27  1  0.16762514  0.50543057  0.00213019  1
  Ag  Ag28  1  0.16362603  0.00150129  0.16490793  1
  Ag  Ag29  1  0.67121487  0.83368987  0.49783097  1
  Ag  Ag30  1  0.83542012  0.67213552  0.50065067  1
  Ag  Ag31  1  0.16264351  0.67131611  0.49037232  1
  Ag  Ag32  1  0.00259906  0.83000891  0.16209233  1
  Ag  Ag33  1  0.67238967  0.66904852  0.33091047  1
  Ag  Ag34  1  0.67582754  0.50123260  0.84515990  1
  Ag  Ag35  1  0.66356280  0.34282841  0.00535694  1
  Ag  Ag36  1  0.67161258  0.49497421  0.16119075  1
  Ag  Ag37  1  0.00064981  0.66695368  0.32704236  1
  Ag  Ag38  1  0.33018728  0.33520488  -0.00190674  1
  Ag  Ag39  1  0.67708613  0.17269027  0.16993822  1
  Ag  Ag40  1  0.32166669  0.66560327  0.32942824  1
  Ag  Ag41  1  0.50049533  0.50413304  0.00120784  1
  Ag  Ag42  1  0.50796313  0.33206255  0.16257959  1
  Ag  Ag43  1  0.32252637  0.83828666  0.83862272  1
  Ag  Ag44  1  0.83365023  0.16700297  0.01244297  1
  Ag  Ag45  1  0.00006861  0.49908223  0.16272168  1
  Ag  Ag46  1  0.83683130  0.66345707  0.83300028  1
  Ag  Ag47  1  0.00316433  0.66563290  0.00761357  1
  Ag  Ag48  1  0.00356216  0.00537728  0.65746576  1
  Ag  Ag49  1  0.32608157  0.66851128  0.00290013  1
  Ag  Ag50  1  -0.00311339  0.50434233  0.84115983  1
  Ag  Ag51  1  0.00097953  0.32778218  0.66547571  1
  Ag  Ag52  1  0.83630615  0.83253443  0.66342830  1
  Ag  Ag53  1  0.67941741  0.16025832  0.48811338  1
  Sb  Sb54  1  0.83538892  0.49821765  0.33559879  1
  Sb  Sb55  1  0.83440318  0.49802118  -0.00129798  1
  Sb  Sb56  1  0.33047379  0.66692847  0.66908919  1
  Sb  Sb57  1  0.83451208  0.32896792  0.49703698  1
  Sb  Sb58  1  0.00218870  0.49948976  0.49914808  1
  Sb  Sb59  1  0.50084039  0.16909093  0.00333721  1
  Sb  Sb60  1  0.16433023  0.33291490  0.49851151  1
  Sb  Sb61  1  0.00194640  0.33794194  0.00384873  1
  Sb  Sb62  1  0.00553324  -0.00375826  0.00393285  1
  Sb  Sb63  1  0.16298134  0.16716662  0.00478497  1
  Sb  Sb64  1  0.50262747  0.49975358  0.67145721  1
  Sb  Sb65  1  0.50327299  0.66579340  0.83573383  1
  Sb  Sb66  1  0.48991494  -0.00115921  0.84084590  1
  Sb  Sb67  1  0.67088568  0.82884078  0.83251318  1
  Sb  Sb68  1  0.16153856  0.49886225  0.67168218  1
  Sb  Sb69  1  0.16273076  0.83468433  0.32663907  1
  Sb  Sb70  1  0.50274532  0.83399053  0.67022628  1
  Sb  Sb71  1  0.66219457  -0.00114759  0.00658239  1
  Sb  Sb72  1  -0.00328051  0.83791882  0.50000655  1
  Sb  Sb73  1  0.49793072  0.66628826  0.16577877  1
  Sb  Sb74  1  0.16100931  0.66764056  0.84033980  1
  Sb  Sb75  1  0.66756455  0.17065787  0.83839003  1
  Sb  Sb76  1  0.33383275  0.82945729  0.50546558  1
  Sb  Sb77  1  0.00409821  0.16747090  0.83552746  1
  Sb  Sb78  1  0.50294132  0.16603599  0.33018342  1
  Sb  Sb79  1  0.66614253  0.50293802  0.49745139  1
  Sb  Sb80  1  0.83992649  0.33738349  0.83769185  1
  Sb  Sb81  1  0.32860423  0.16709178  0.16311345  1
  Sb  Sb82  1  0.16470465  0.50083639  0.32706299  1
  Sb  Sb83  1  0.83746436  0.83434987  -0.00317901  1
  Sb  Sb84  1  0.32565730  0.33739204  0.32847367  1
  Sb  Sb85  1  0.32710251  -0.00456037  0.33127454  1
  Sb  Sb86  1  0.84222884  -0.00298918  0.82660507  1
  Sb  Sb87  1  0.49996970  0.50270314  0.32625928  1
  Sb  Sb88  1  0.49861628  0.33746182  0.49421555  1
  Sb  Sb89  1  0.32813758  0.16841418  0.50380421  1
  Sb  Sb90  1  0.32704733  0.83311567  0.15902209  1
  Sb  Sb91  1  0.67105166  0.66578958  0.66480398  1
  Sb  Sb92  1  -0.00192697  0.66796249  0.66674614  1
  Sb  Sb93  1  0.67155139  0.33305973  0.67189458  1
  Sb  Sb94  1  0.16010472  0.16544007  0.66350465  1
  Sb  Sb95  1  0.50132127  -0.00419322  0.49485831  1
  Sb  Sb96  1  0.67238257  0.83248424  0.16941439  1
  Sb  Sb97  1  0.83935353  0.00721907  0.17227039  1
  Sb  Sb98  1  0.83935405  0.66155441  0.16722552  1
  Sb  Sb99  1  0.67377461  0.33155152  0.32478630  1
  Sb  Sb100  1  0.50210007  0.16594290  0.66598259  1
  Sb  Sb101  1  0.16084061  0.83604659  0.67246443  1
  Sb  Sb102  1  0.67271660  0.00158168  0.66033017  1
  Sb  Sb103  1  0.32830569  0.50080726  0.83573241  1
  Sb  Sb104  1  0.33017785  0.50069306  0.16447374  1
  Sb  Sb105  1  0.83525314  0.83738682  0.33752953  1
  Sb  Sb106  1  0.49403470  0.33537967  0.84127995  1
  Sb  Sb107  1  0.50047430  0.83158342  0.32740612  1
  Te  Te108  1  0.16347341  0.16596137  0.16955044  1
  Te  Te109  1  0.16154825  0.16341225  0.49418073  1
  Te  Te110  1  0.17023714  0.16615009  0.83316758  1
  Te  Te111  1  0.16390842  0.50010944  0.16204099  1
  Te  Te112  1  0.17014528  0.50305317  0.50070788  1
  Te  Te113  1  0.16071864  0.49735014  0.83898018  1
  Te  Te114  1  0.16203450  0.83313758  0.16079693  1
  Te  Te115  1  0.16610595  0.83550501  0.50104730  1
  Te  Te116  1  0.16453617  0.83401925  0.83799326  1
  Te  Te117  1  0.50292101  0.16641603  0.16615158  1
  Te  Te118  1  0.50551947  0.16665160  0.49889374  1
  Te  Te119  1  0.49299579  0.16689090  0.83301330  1
  Te  Te120  1  0.50239100  0.49755387  0.15992452  1
  Te  Te121  1  0.49700228  0.50512985  0.50105221  1
  Te  Te122  1  0.50771061  0.50039490  0.83967836  1
  Te  Te123  1  0.50301819  0.83741510  0.16014231  1
  Te  Te124  1  0.50623034  0.82757116  0.50118326  1
  Te  Te125  1  0.49922837  0.83294483  0.83974980  1
  Te  Te126  1  0.83542580  0.16796165  0.17043141  1
  Te  Te127  1  0.83556926  0.16658712  0.49839444  1
  Te  Te128  1  0.83275788  0.16617030  0.82659836  1
  Te  Te129  1  0.83516414  0.49399410  0.16832020  1
  Te  Te130  1  0.83290994  0.50447941  0.50638433  1
  Te  Te131  1  0.83611793  0.50175235  0.83084227  1
  Te  Te132  1  0.84174618  0.83463540  0.16573419  1
  Te  Te133  1  0.83162008  0.83266579  0.50320260  1
  Te  Te134  1  0.83863215  0.82881064  0.82814882  1
  Te  Te135  1  0.16993933  0.00046966  0.00116219  1
  Te  Te136  1  0.16343937  0.00051604  0.33138082  1
  Te  Te137  1  0.16525256  0.00024005  0.66537426  1
  Te  Te138  1  0.16804612  0.33275774  0.00102084  1
  Te  Te139  1  0.16082587  0.33078355  0.32824558  1
  Te  Te140  1  0.16659328  0.33271139  0.66832216  1
  Te  Te141  1  0.16489636  0.66631029  0.00118130  1
  Te  Te142  1  0.16516969  0.66727751  0.33028277  1
  Te  Te143  1  0.16595990  0.66727990  0.65510710  1
  Te  Te144  1  0.49418409  -0.00188345  0.00680886  1
  Te  Te145  1  0.49926744  -0.00143614  0.32589108  1
  Te  Te146  1  0.49248651  -0.00038207  0.66597428  1
  Te  Te147  1  0.49968136  0.33637414  0.00490804  1
  Te  Te148  1  0.49657990  0.33423206  0.32399307  1
  Te  Te149  1  0.49379497  0.33345903  0.66607979  1
  Te  Te150  1  0.49998848  0.66502095  0.00065648  1
  Te  Te151  1  0.50474201  0.66669686  0.33626836  1
  Te  Te152  1  0.50000006  0.66670172  0.65824514  1
  Te  Te153  1  0.83152386  0.00559026  -0.00402256  1
  Te  Te154  1  0.83522328  0.00330806  0.33820970  1
  Te  Te155  1  0.83788775  0.00108764  0.66100561  1
  Te  Te156  1  0.83024643  0.32793595  0.00307909  1
  Te  Te157  1  0.84029658  0.32897844  0.32935731  1
  Te  Te158  1  0.83799844  0.33276686  0.66764202  1
  Te  Te159  1  0.83490152  0.66870078  -0.00281936  1
  Te  Te160  1  0.83350200  0.66664969  0.33587685  1
  Te  Te161  1  0.83396502  0.66651706  0.66638723  1
  Te  Te162  1  -0.00558936  0.16588279  0.00394583  1
  Te  Te163  1  0.00059250  0.16584702  0.33211271  1
  Te  Te164  1  -0.00339322  0.16622567  0.66972901  1
  Te  Te165  1  0.00101450  0.50350989  0.00118797  1
  Te  Te166  1  -0.00007365  0.50680678  0.32972268  1
  Te  Te167  1  -0.00395755  0.49566161  0.66711605  1
  Te  Te168  1  0.00276445  0.82954627  0.00016479  1
  Te  Te169  1  -0.00008929  0.82584966  0.32701539  1
  Te  Te170  1  -0.00462707  0.83850624  0.67058422  1
  Te  Te171  1  0.33265897  0.16933361  -0.00364144  1
  Te  Te172  1  0.32908096  0.16664243  0.33481310  1
  Te  Te173  1  0.33405487  0.16758752  0.67000533  1
  Te  Te174  1  0.33142676  0.50015238  -0.00079397  1
  Te  Te175  1  0.33310270  0.50626815  0.33876009  1
  Te  Te176  1  0.33375428  0.49592312  0.66576589  1
  Te  Te177  1  0.33111045  0.83191555  -0.00142211  1
  Te  Te178  1  0.33347322  0.82421573  0.33517236  1
  Te  Te179  1  0.33417033  0.83830437  0.67495689  1
  Te  Te180  1  0.67109752  0.16708454  0.00559240  1
  Te  Te181  1  0.66857834  0.16529331  0.33057055  1
  Te  Te182  1  0.67279520  0.16766156  0.66472674  1
  Te  Te183  1  0.67020181  0.50212173  0.00264889  1
  Te  Te184  1  0.66722510  0.50360646  0.32734459  1
  Te  Te185  1  0.67191765  0.49770474  0.67049336  1
  Te  Te186  1  0.66516960  0.82909648  0.00006714  1
  Te  Te187  1  0.66755158  0.83137396  0.33724793  1
  Te  Te188  1  0.67228186  0.83452190  0.66181044  1
  Te  Te189  1  0.00371600  0.00294555  0.17008572  1
  Te  Te190  1  0.00045761  -0.00033395  0.49818989  1
  Te  Te191  1  0.00729295  -0.00353485  0.83303619  1
  Te  Te192  1  -0.00014640  0.33418565  0.16542593  1
  Te  Te193  1  0.00084402  0.32971376  0.50334323  1
  Te  Te194  1  0.00590802  0.33612659  0.83136916  1
  Te  Te195  1  0.00061050  0.66305003  0.16556151  1
  Te  Te196  1  -0.00055700  0.66784005  0.49805132  1
  Te  Te197  1  -0.00293828  0.66574250  0.83244131  1
  Te  Te198  1  0.32990332  -0.00009076  0.16319913  1
  Te  Te199  1  0.33118605  -0.00066460  0.50152974  1
  Te  Te200  1  0.32852056  -0.00016769  0.83572372  1
  Te  Te201  1  0.32861237  0.33389306  0.16192343  1
  Te  Te202  1  0.33286773  0.33802940  0.50095606  1
  Te  Te203  1  0.32800149  0.33461983  0.83572587  1
  Te  Te204  1  0.32863205  0.66670899  0.16584694  1
  Te  Te205  1  0.32997478  0.66508556  0.50111045  1
  Te  Te206  1  0.33340333  0.67063501  0.83878424  1
  Te  Te207  1  0.66755628  0.00125778  0.17258869  1
  Te  Te208  1  0.66647196  0.00059426  0.49476649  1
  Te  Te209  1  0.66484029  0.00053775  0.83226379  1
  Te  Te210  1  0.66806392  0.33313385  0.16444710  1
  Te  Te211  1  0.66500224  0.32925804  0.49900618  1
  Te  Te212  1  0.66617034  0.33765732  0.84098048  1
  Te  Te213  1  0.66724994  0.66479874  0.16713093  1
  Te  Te214  1  0.67236126  0.66693263  0.49687318  1
  Te  Te215  1  0.67149070  0.66282431  0.83714924  1
