# generated using pymatgen
data_AgSbTe2
_symmetry_space_group_name_H-M   'P 1'
_cell_length_a   18.32185586
_cell_length_b   18.32788326
_cell_length_c   18.32582194
_cell_angle_alpha   90.00090217
_cell_angle_beta   89.99620802
_cell_angle_gamma   89.99871380
_symmetry_Int_Tables_number   1
_chemical_formula_structural   AgSbTe2
_chemical_formula_sum   'Ag54 Sb54 Te108'
_cell_volume   6153.82629800
_cell_formula_units_Z   54
loop_
 _symmetry_equiv_pos_site_id
 _symmetry_equiv_pos_as_xyz
  1  'x, y, z'
loop_
 _atom_site_type_symbol
 _atom_site_label
 _atom_site_symmetry_multiplicity
 _atom_site_fract_x
 _atom_site_fract_y
 _atom_site_fract_z
 _atom_site_occupancy
  Ag  Ag0  1  0.66849452  0.83221119  0.84532841  1
  Ag  Ag1  1  0.49944779  0.33516807  0.16694802  1
  Ag  Ag2  1  0.00595535  0.66717938  0.33313888  1
  Ag  Ag3  1  -0.00186383  0.67104397  -0.00115592  1
  Ag  Ag4  1  0.82172770  0.83369852  0.00562901  1
  Ag  Ag5  1  0.83095155  0.32308102  0.16584988  1
  Ag  Ag6  1  0.32239621  0.16764200  0.17150723  1
  Ag  Ag7  1  0.16844448  0.00084262  0.83456810  1
  Ag  Ag8  1  0.34074562  0.49588579  0.17281586  1
  Ag  Ag9  1  0.32970993  -0.00106609  0.66835515  1
  Ag  Ag10  1  0.50195724  0.67071473  0.83700890  1
  Ag  Ag11  1  0.66758734  0.67671718  0.00016180  1
  Ag  Ag12  1  0.66040600  0.50189127  0.16612488  1
  Ag  Ag13  1  0.01087839  0.66877317  0.66894242  1
  Ag  Ag14  1  0.32847011  0.66470181  0.33744926  1
  Ag  Ag15  1  0.32836005  0.33126337  0.66669884  1
  Ag  Ag16  1  0.50892272  0.83327490  -0.00116951  1
  Ag  Ag17  1  0.67057812  0.16263121  0.49773308  1
  Ag  Ag18  1  0.49869750  0.50236271  0.32859952  1
  Ag  Ag19  1  0.66624839  0.50890540  0.83786025  1
  Ag  Ag20  1  0.50672353  0.00049240  0.16252007  1
  Ag  Ag21  1  0.17051148  0.82620967  0.66668033  1
  Ag  Ag22  1  0.67020918  0.83213779  0.50036275  1
  Ag  Ag23  1  0.17092222  0.51381278  0.66697115  1
  Ag  Ag24  1  0.83712347  0.16168762  0.32847161  1
  Ag  Ag25  1  0.00078994  0.32931885  0.32814993  1
  Ag  Ag26  1  0.16688242  0.67256481  0.82380425  1
  Ag  Ag27  1  0.82620529  0.00482024  0.16986470  1
  Ag  Ag28  1  0.16932390  0.32300999  0.16541178  1
  Ag  Ag29  1  0.66826392  0.16076773  0.16622397  1
  Ag  Ag30  1  0.49682372  0.83165905  0.67380705  1
  Ag  Ag31  1  0.66409322  -0.00898417  0.00282614  1
  Ag  Ag32  1  0.32403290  0.66753705  0.66167947  1
  Ag  Ag33  1  0.16904321  0.00917229  0.16105008  1
  Ag  Ag34  1  0.83518581  0.16641847  0.65942121  1
  Ag  Ag35  1  0.16821912  0.16455963  0.66675402  1
  Ag  Ag36  1  0.16367475  0.32819274  0.83081855  1
  Ag  Ag37  1  0.66270709  0.50578688  0.49790800  1
  Ag  Ag38  1  0.33290037  0.00012465  0.00318070  1
  Ag  Ag39  1  0.83416467  0.83708754  0.33011570  1
  Ag  Ag40  1  0.00980017  0.16778544  0.16892301  1
  Ag  Ag41  1  0.83401126  0.67273910  0.49853454  1
  Ag  Ag42  1  0.50248642  0.66577344  0.16300491  1
  Ag  Ag43  1  0.82790846  -0.00181882  0.49220791  1
  Ag  Ag44  1  0.67043058  0.16409755  0.83933419  1
  Ag  Ag45  1  0.16233002  0.16394357  0.32376129  1
  Ag  Ag46  1  0.16168832  0.83150165  0.33415368  1
  Ag  Ag47  1  -0.00042937  0.82917539  0.83455479  1
  Ag  Ag48  1  0.32957995  0.16831373  0.49892283  1
  Ag  Ag49  1  0.16684975  0.66811209  0.51031266  1
  Ag  Ag50  1  0.83467513  0.32925474  0.83734121  1
  Ag  Ag51  1  0.16744513  0.16261643  0.01166610  1
  Ag  Ag52  1  0.66687468  0.83971228  0.15685984  1
  Ag  Ag53  1  0.33573254  0.50323339  0.49750601  1
  Sb  Sb54  1  0.49725910  -0.00631509  0.83780629  1
  Sb  Sb55  1  0.16835456  0.49757219  -0.00272970  1
  Sb  Sb56  1  0.33519469  0.67204135  0.00044614  1
  Sb  Sb57  1  0.49852483  0.33440441  0.49508340  1
  Sb  Sb58  1  0.83524380  0.49719597  0.66632354  1
  Sb  Sb59  1  0.00022478  0.49651852  0.16847602  1
  Sb  Sb60  1  0.67148415  0.33267853  0.32877227  1
  Sb  Sb61  1  0.33276677  0.83300239  0.83033882  1
  Sb  Sb62  1  0.17118333  0.50168328  0.33639836  1
  Sb  Sb63  1  0.33033667  -0.00167368  0.33158455  1
  Sb  Sb64  1  0.00076012  0.16647775  0.49470440  1
  Sb  Sb65  1  0.33522642  0.50216652  0.83173304  1
  Sb  Sb66  1  0.83381276  0.83638159  0.66577018  1
  Sb  Sb67  1  0.00035649  -0.00363669  0.00188317  1
  Sb  Sb68  1  0.66613025  0.66733918  0.33007153  1
  Sb  Sb69  1  0.33548940  0.83223696  0.50173793  1
  Sb  Sb70  1  0.50358634  -0.00058812  0.49633952  1
  Sb  Sb71  1  0.82944175  0.50125709  0.33285334  1
  Sb  Sb72  1  0.83407386  0.00204791  0.83549032  1
  Sb  Sb73  1  0.00526840  0.33508761  0.66424438  1
  Sb  Sb74  1  0.50291794  0.82853333  0.32993247  1
  Sb  Sb75  1  0.49971188  0.17009437  0.32877182  1
  Sb  Sb76  1  0.66703641  0.33160074  0.00221699  1
  Sb  Sb77  1  -0.00306904  0.83021060  0.50185941  1
  Sb  Sb78  1  -0.00127434  -0.00107748  0.33112996  1
  Sb  Sb79  1  0.83076729  0.50544518  0.00073315  1
  Sb  Sb80  1  0.82836164  0.66932484  0.17028008  1
  Sb  Sb81  1  0.66542574  0.66837756  0.66976291  1
  Sb  Sb82  1  -0.00459799  0.83657357  0.16450188  1
  Sb  Sb83  1  0.16736201  0.83768371  -0.00205314  1
  Sb  Sb84  1  0.66353359  -0.00080046  0.67069014  1
  Sb  Sb85  1  0.17020063  0.66743705  0.16652693  1
  Sb  Sb86  1  0.16894082  0.33552396  0.50043379  1
  Sb  Sb87  1  0.49730214  0.16167248  0.66717391  1
  Sb  Sb88  1  0.66865698  -0.00057395  0.32464263  1
  Sb  Sb89  1  0.50146714  0.50784184  0.00706824  1
  Sb  Sb90  1  0.50031685  0.33737740  0.83813388  1
  Sb  Sb91  1  0.00003195  0.16317752  0.83721990  1
  Sb  Sb92  1  0.49447271  0.50523922  0.66402857  1
  Sb  Sb93  1  0.83293573  0.66620241  0.83108398  1
  Sb  Sb94  1  0.00545578  -0.00401996  0.66844288  1
  Sb  Sb95  1  -0.00033866  0.33535477  0.00392719  1
  Sb  Sb96  1  0.32866864  0.33601742  0.33256141  1
  Sb  Sb97  1  0.83133880  0.33087484  0.49730062  1
  Sb  Sb98  1  0.83531773  0.16078319  0.00706442  1
  Sb  Sb99  1  0.49820669  0.15935177  0.00327383  1
  Sb  Sb100  1  0.33784703  0.83659313  0.16743131  1
  Sb  Sb101  1  0.00189165  0.50455357  0.49953031  1
  Sb  Sb102  1  0.16546457  -0.00277423  0.50130221  1
  Sb  Sb103  1  0.66345109  0.33159538  0.66833002  1
  Sb  Sb104  1  0.33208785  0.16580156  0.83265559  1
  Sb  Sb105  1  0.33122170  0.32732665  0.00141292  1
  Sb  Sb106  1  0.49871280  0.66726006  0.49993992  1
  Sb  Sb107  1  -0.00145550  0.50508776  0.83252564  1
  Te  Te108  1  0.16638829  0.16682082  0.16797156  1
  Te  Te109  1  0.16942785  0.16547108  0.50403520  1
  Te  Te110  1  0.16618035  0.16625753  0.82740069  1
  Te  Te111  1  0.16999260  0.49533744  0.16661544  1
  Te  Te112  1  0.17226951  0.50478035  0.50403867  1
  Te  Te113  1  0.16689588  0.49819006  0.82923872  1
  Te  Te114  1  0.16548431  0.83649956  0.17061223  1
  Te  Te115  1  0.16675246  0.82957783  0.49892609  1
  Te  Te116  1  0.16537442  0.83231109  0.83217609  1
  Te  Te117  1  0.50914203  0.16530226  0.16623743  1
  Te  Te118  1  0.50300387  0.16628715  0.49757828  1
  Te  Te119  1  0.50947818  0.16798655  0.83469935  1
  Te  Te120  1  0.50019526  0.50161076  0.16764099  1
  Te  Te121  1  0.49980464  0.50046047  0.49522451  1
  Te  Te122  1  0.50617280  0.50493880  0.83320988  1
  Te  Te123  1  0.50511321  0.83246105  0.16595676  1
  Te  Te124  1  0.50760642  0.83482475  0.50160772  1
  Te  Te125  1  0.50396513  0.83065069  0.83303901  1
  Te  Te126  1  0.82746188  0.16515681  0.16721775  1
  Te  Te127  1  0.83307701  0.16560016  0.49793346  1
  Te  Te128  1  0.83229853  0.16881452  0.83494820  1
  Te  Te129  1  0.82791714  0.49354238  0.16720648  1
  Te  Te130  1  0.82637352  0.50319444  0.50097312  1
  Te  Te131  1  0.82632777  0.49384813  0.83225224  1
  Te  Te132  1  0.82943103  0.83520687  0.16939015  1
  Te  Te133  1  0.83107105  0.83404841  0.49890001  1
  Te  Te134  1  0.83116777  0.83379814  0.83389861  1
  Te  Te135  1  0.16754297  0.00258935  -0.00093138  1
  Te  Te136  1  0.16513946  -0.00033861  0.33295264  1
  Te  Te137  1  0.17004636  0.00179225  0.66659305  1
  Te  Te138  1  0.16564736  0.32874050  -0.00128892  1
  Te  Te139  1  0.16219127  0.33015769  0.33069624  1
  Te  Te140  1  0.16801541  0.32605809  0.66791922  1
  Te  Te141  1  0.16459273  0.66697360  -0.00342524  1
  Te  Te142  1  0.16753442  0.66815522  0.33181605  1
  Te  Te143  1  0.16710343  0.66940577  0.66727127  1
  Te  Te144  1  0.49929024  -0.00551810  0.00361120  1
  Te  Te145  1  0.49791453  -0.00145308  0.32319949  1
  Te  Te146  1  0.49180772  -0.00653707  0.66641357  1
  Te  Te147  1  0.49865063  0.33326320  0.00768226  1
  Te  Te148  1  0.49886450  0.33948446  0.32520992  1
  Te  Te149  1  0.49042557  0.33284296  0.66883484  1
  Te  Te150  1  0.50160533  0.67266974  -0.00070514  1
  Te  Te151  1  0.49514496  0.66329503  0.32939333  1
  Te  Te152  1  0.49721031  0.67174382  0.67081541  1
  Te  Te153  1  0.83048833  -0.00611046  0.00320200  1
  Te  Te154  1  0.83367111  -0.00062661  0.33163828  1
  Te  Te155  1  0.83356782  0.00605283  0.66652226  1
  Te  Te156  1  0.83437518  0.33326912  -0.00032856  1
  Te  Te157  1  0.83896372  0.32965929  0.32958399  1
  Te  Te158  1  0.83517993  0.32831779  0.67009173  1
  Te  Te159  1  0.83244213  0.67266260  -0.00038996  1
  Te  Te160  1  0.83592320  0.66945412  0.33762177  1
  Te  Te161  1  0.83763803  0.66625263  0.65950516  1
  Te  Te162  1  0.00582404  0.16717352  0.00510913  1
  Te  Te163  1  0.00020538  0.16683149  0.32974143  1
  Te  Te164  1  -0.00138089  0.16704172  0.66726833  1
  Te  Te165  1  -0.00036375  0.51191866  0.00054411  1
  Te  Te166  1  -0.00039377  0.50520485  0.33349938  1
  Te  Te167  1  0.00697392  0.50537043  0.66622876  1
  Te  Te168  1  -0.00039809  0.82940573  -0.00414324  1
  Te  Te169  1  -0.00012147  0.82819854  0.33265991  1
  Te  Te170  1  0.00386144  0.82902631  0.67154923  1
  Te  Te171  1  0.32937555  0.16051867  0.00434431  1
  Te  Te172  1  0.32989193  0.16776021  0.33476812  1
  Te  Te173  1  0.33317000  0.16564903  0.66535318  1
  Te  Te174  1  0.33377964  0.50003885  0.00890696  1
  Te  Te175  1  0.33607497  0.50216111  0.33446130  1
  Te  Te176  1  0.33048974  0.50233503  0.66457202  1
  Te  Te177  1  0.33867554  0.84058600  -0.00004611  1
  Te  Te178  1  0.32882987  0.82674953  0.33491627  1
  Te  Te179  1  0.33168336  0.83237851  0.66498206  1
  Te  Te180  1  0.66726122  0.16336220  0.00026834  1
  Te  Te181  1  0.66995809  0.16678771  0.33450521  1
  Te  Te182  1  0.66909146  0.16664649  0.66425057  1
  Te  Te183  1  0.66668802  0.50448983  -0.00014211  1
  Te  Te184  1  0.66193379  0.49973580  0.33334589  1
  Te  Te185  1  0.66567237  0.49930737  0.66408537  1
  Te  Te186  1  0.66556449  0.83254541  0.00091027  1
  Te  Te187  1  0.67141079  0.83275887  0.34011310  1
  Te  Te188  1  0.66422176  0.83407292  0.66131796  1
  Te  Te189  1  0.00325135  0.00571144  0.16559515  1
  Te  Te190  1  -0.01189618  -0.00073111  0.50165877  1
  Te  Te191  1  0.00725882  -0.00710939  0.83461985  1
  Te  Te192  1  -0.00025074  0.33052163  0.16871073  1
  Te  Te193  1  -0.00038054  0.33626426  0.49138897  1
  Te  Te194  1  0.00130178  0.33444588  0.83330913  1
  Te  Te195  1  -0.00072645  0.66554505  0.16837451  1
  Te  Te196  1  0.00285108  0.66628618  0.49710415  1
  Te  Te197  1  0.00066984  0.66900320  0.83248365  1
  Te  Te198  1  0.32896701  0.00390855  0.16632905  1
  Te  Te199  1  0.33457626  0.00572604  0.50390161  1
  Te  Te200  1  0.32847021  0.00061042  0.83307379  1
  Te  Te201  1  0.33179876  0.33026397  0.16695777  1
  Te  Te202  1  0.33432279  0.33193384  0.50478763  1
  Te  Te203  1  0.32955828  0.33426323  0.82935394  1
  Te  Te204  1  0.33805887  0.66464758  0.16789281  1
  Te  Te205  1  0.33206062  0.66572863  0.50025666  1
  Te  Te206  1  0.33213322  0.66547040  0.83081941  1
  Te  Te207  1  0.66713677  -0.00191880  0.16314115  1
  Te  Te208  1  0.66971906  0.00303037  0.50281002  1
  Te  Te209  1  0.66592250  -0.00110242  0.83877342  1
  Te  Te210  1  0.66742931  0.33580676  0.16597905  1
  Te  Te211  1  0.66574808  0.33207742  0.49986310  1
  Te  Te212  1  0.66837468  0.33021706  0.83473216  1
  Te  Te213  1  0.66397132  0.66421086  0.16384740  1
  Te  Te214  1  0.66796552  0.66562597  0.49985031  1
  Te  Te215  1  0.66599166  0.66898828  0.83592112  1
