# generated using pymatgen
data_AgSbTe2
_symmetry_space_group_name_H-M   'P 1'
_cell_length_a   18.32030267
_cell_length_b   18.31920767
_cell_length_c   18.31554272
_cell_angle_alpha   89.99646335
_cell_angle_beta   90.00020457
_cell_angle_gamma   90.00183452
_symmetry_Int_Tables_number   1
_chemical_formula_structural   AgSbTe2
_chemical_formula_sum   'Ag54 Sb54 Te108'
_cell_volume   6146.94208554
_cell_formula_units_Z   54
loop_
 _symmetry_equiv_pos_site_id
 _symmetry_equiv_pos_as_xyz
  1  'x, y, z'
loop_
 _atom_site_type_symbol
 _atom_site_label
 _atom_site_symmetry_multiplicity
 _atom_site_fract_x
 _atom_site_fract_y
 _atom_site_fract_z
 _atom_site_occupancy
  Ag  Ag0  1  0.67045294  0.49834872  0.83170120  1
  Ag  Ag1  1  0.16035194  0.66291921  0.84075476  1
  Ag  Ag2  1  0.32763380  0.82895338  0.83321449  1
  Ag  Ag3  1  0.32975019  0.17199659  0.83231669  1
  Ag  Ag4  1  -0.00317490  -0.00794284  0.66254045  1
  Ag  Ag5  1  0.67205464  0.33481248  0.66686661  1
  Ag  Ag6  1  0.50240042  0.83016516  0.66841438  1
  Ag  Ag7  1  0.66723692  0.00011465  0.00384892  1
  Ag  Ag8  1  0.32929374  -0.00840727  0.00360254  1
  Ag  Ag9  1  0.32553376  0.66956959  -0.00197944  1
  Ag  Ag10  1  -0.00367434  0.49577141  0.49724229  1
  Ag  Ag11  1  -0.00349229  0.17658312  0.50250438  1
  Ag  Ag12  1  0.67855237  0.33927550  0.34096534  1
  Ag  Ag13  1  0.84192289  -0.00375405  0.16634131  1
  Ag  Ag14  1  0.15300728  0.33417755  0.50551883  1
  Ag  Ag15  1  0.83789103  0.82863534  0.33993884  1
  Ag  Ag16  1  0.32434842  -0.00453856  0.32233769  1
  Ag  Ag17  1  -0.00140132  0.83147290  0.50501467  1
  Ag  Ag18  1  0.33729036  0.33541578  0.66953713  1
  Ag  Ag19  1  0.00063483  0.33903971  -0.00191209  1
  Ag  Ag20  1  0.32469764  0.50447461  0.15837197  1
  Ag  Ag21  1  0.00682588  0.66763513  -0.00575177  1
  Ag  Ag22  1  0.00160949  -0.00424729  0.33123418  1
  Ag  Ag23  1  0.83569861  0.66127423  0.50534633  1
  Ag  Ag24  1  -0.00382400  0.33474887  0.34493678  1
  Ag  Ag25  1  0.49764435  0.83419368  -0.00141709  1
  Ag  Ag26  1  0.49550357  0.67084356  0.16654441  1
  Ag  Ag27  1  0.15975237  0.83422634  0.33400618  1
  Ag  Ag28  1  0.84166110  0.66178097  0.82373001  1
  Ag  Ag29  1  0.83187709  0.17869412  0.66395664  1
  Ag  Ag30  1  0.00196746  0.50251383  0.16625744  1
  Ag  Ag31  1  0.83621259  0.34066421  0.50489099  1
  Ag  Ag32  1  0.16440581  0.50370635  -0.00101589  1
  Ag  Ag33  1  0.83271731  0.49932006  0.66382064  1
  Ag  Ag34  1  0.16523382  -0.00749608  0.16495388  1
  Ag  Ag35  1  -0.00547340  0.67117972  0.67191881  1
  Ag  Ag36  1  0.16875572  0.66799077  0.15893945  1
  Ag  Ag37  1  0.00420645  -0.00330334  0.00408024  1
  Ag  Ag38  1  0.67075353  0.66458204  0.33418605  1
  Ag  Ag39  1  0.83688447  0.34040120  0.82290683  1
  Ag  Ag40  1  0.16464059  0.16974717  -0.00231152  1
  Ag  Ag41  1  0.67772611  0.17103033  0.50320867  1
  Ag  Ag42  1  0.83937925  0.82766940  0.66254469  1
  Ag  Ag43  1  0.49766117  -0.00840166  0.16375379  1
  Ag  Ag44  1  0.16191433  0.34010076  0.83368415  1
  Ag  Ag45  1  0.33099283  0.50281843  0.83580186  1
  Ag  Ag46  1  0.66542126  0.83425265  0.16665383  1
  Ag  Ag47  1  0.50596293  0.66843804  0.50140033  1
  Ag  Ag48  1  0.50671519  0.50201920  0.66761708  1
  Ag  Ag49  1  0.83565069  0.50339504  0.34161005  1
  Ag  Ag50  1  0.00265073  0.82787886  0.82878280  1
  Ag  Ag51  1  0.50597581  0.17141135  0.66672677  1
  Ag  Ag52  1  0.32848366  0.83181943  0.50400947  1
  Ag  Ag53  1  0.67376425  0.33303928  -0.00724858  1
  Sb  Sb54  1  0.16631353  -0.00318286  0.84027649  1
  Sb  Sb55  1  0.50189719  0.16553219  0.33981324  1
  Sb  Sb56  1  0.83316198  0.83326368  -0.00077276  1
  Sb  Sb57  1  -0.00451565  0.33604632  0.66706225  1
  Sb  Sb58  1  0.32867998  0.33520337  -0.00750302  1
  Sb  Sb59  1  0.83532307  0.33128149  0.16896678  1
  Sb  Sb60  1  0.32933578  0.16295337  0.50665389  1
  Sb  Sb61  1  0.66505305  0.17304182  0.82981152  1
  Sb  Sb62  1  0.66701437  0.66665212  0.00228312  1
  Sb  Sb63  1  0.49894080  -0.00173303  0.83758714  1
  Sb  Sb64  1  0.50045677  0.83233126  0.33210878  1
  Sb  Sb65  1  0.16239149  0.49913172  0.67224174  1
  Sb  Sb66  1  0.16901189  0.83032750  0.00307634  1
  Sb  Sb67  1  0.33163003  0.16551014  0.16022244  1
  Sb  Sb68  1  0.83941083  0.49981143  -0.00260568  1
  Sb  Sb69  1  0.83633277  -0.00238403  0.83510019  1
  Sb  Sb70  1  0.67256031  0.66223488  0.66319887  1
  Sb  Sb71  1  -0.00422208  0.66787858  0.33399264  1
  Sb  Sb72  1  0.67112959  -0.00191218  0.32854743  1
  Sb  Sb73  1  0.33524460  0.67125051  0.32851035  1
  Sb  Sb74  1  0.16250916  0.16966443  0.67093791  1
  Sb  Sb75  1  -0.00167509  0.83151771  0.16664083  1
  Sb  Sb76  1  0.49883312  0.66677822  0.83225099  1
  Sb  Sb77  1  0.67111720  0.00367607  0.66983511  1
  Sb  Sb78  1  0.67051127  0.83402265  0.49800264  1
  Sb  Sb79  1  0.32838929  0.33099845  0.33910724  1
  Sb  Sb80  1  0.67520712  0.49680069  0.50499831  1
  Sb  Sb81  1  0.83787311  0.16752108  -0.00645498  1
  Sb  Sb82  1  0.50593066  0.50291680  0.33830737  1
  Sb  Sb83  1  0.15952535  0.50458356  0.32835512  1
  Sb  Sb84  1  0.66653674  0.16268380  0.16849922  1
  Sb  Sb85  1  0.16443583  0.33685969  0.16335703  1
  Sb  Sb86  1  0.16291807  0.00195488  0.49502907  1
  Sb  Sb87  1  0.49974500  0.33491324  0.83110659  1
  Sb  Sb88  1  0.16396069  0.16292556  0.32966507  1
  Sb  Sb89  1  0.32872588  0.50418494  0.50283094  1
  Sb  Sb90  1  0.00280157  0.16494055  0.82960025  1
  Sb  Sb91  1  0.83697363  -0.00081381  0.49821039  1
  Sb  Sb92  1  0.33117207  0.66495299  0.67205877  1
  Sb  Sb93  1  0.00031868  0.16629365  0.16788812  1
  Sb  Sb94  1  0.00021265  0.50549118  0.83358838  1
  Sb  Sb95  1  0.49696126  0.16164480  -0.00546271  1
  Sb  Sb96  1  0.49560363  0.50432194  -0.00346173  1
  Sb  Sb97  1  0.83572109  0.66926048  0.16821062  1
  Sb  Sb98  1  0.33629653  0.83101416  0.16328400  1
  Sb  Sb99  1  0.83522621  0.16774774  0.33997075  1
  Sb  Sb100  1  0.66935318  0.82835878  0.83518393  1
  Sb  Sb101  1  0.16198650  0.83277519  0.66465235  1
  Sb  Sb102  1  0.16077046  0.66442680  0.50058899  1
  Sb  Sb103  1  0.66925677  0.50366176  0.16377708  1
  Sb  Sb104  1  0.49888040  -0.00530066  0.49729424  1
  Sb  Sb105  1  0.50520151  0.33877903  0.50450889  1
  Sb  Sb106  1  0.50121887  0.33706071  0.16524360  1
  Sb  Sb107  1  0.33032840  -0.00027625  0.67023172  1
  Te  Te108  1  0.16738544  0.16210903  0.15867958  1
  Te  Te109  1  0.16131887  0.17347542  0.49962631  1
  Te  Te110  1  0.17000940  0.17071998  0.83758899  1
  Te  Te111  1  0.16505005  0.50325908  0.16220853  1
  Te  Te112  1  0.16055218  0.49550161  0.49843986  1
  Te  Te113  1  0.16863945  0.50100785  0.83710159  1
  Te  Te114  1  0.16745597  0.83163590  0.17291187  1
  Te  Te115  1  0.16470067  0.83305572  0.49538041  1
  Te  Te116  1  0.16638655  0.82831347  0.83187233  1
  Te  Te117  1  0.49835772  0.16161074  0.16665948  1
  Te  Te118  1  0.49850698  0.16580195  0.50748762  1
  Te  Te119  1  0.49383293  0.16600302  0.82565380  1
  Te  Te120  1  0.49883794  0.50626842  0.16696083  1
  Te  Te121  1  0.49755002  0.50764008  0.50600301  1
  Te  Te122  1  0.49618059  0.50120223  0.82816232  1
  Te  Te123  1  0.50245072  0.83189626  0.16556919  1
  Te  Te124  1  0.50104813  0.82843673  0.50300934  1
  Te  Te125  1  0.49862351  0.83208212  0.83251218  1
  Te  Te126  1  0.83258545  0.15722909  0.16613860  1
  Te  Te127  1  0.83625793  0.16609520  0.50525713  1
  Te  Te128  1  0.83357355  0.17255413  0.82547569  1
  Te  Te129  1  0.83805186  0.50039919  0.17098338  1
  Te  Te130  1  0.83575095  0.50082899  0.50110159  1
  Te  Te131  1  0.83334030  0.49991385  0.83177573  1
  Te  Te132  1  0.82883545  0.83626828  0.16862477  1
  Te  Te133  1  0.83540633  0.83171095  0.50063234  1
  Te  Te134  1  0.83684373  0.82878221  0.82842915  1
  Te  Te135  1  0.16660110  -0.00138021  0.00401071  1
  Te  Te136  1  0.16441376  -0.00301595  0.32861285  1
  Te  Te137  1  0.15861918  0.00147416  0.66763669  1
  Te  Te138  1  0.16351392  0.33458575  -0.00306028  1
  Te  Te139  1  0.16051835  0.33361221  0.33574025  1
  Te  Te140  1  0.17044823  0.33372644  0.66962447  1
  Te  Te141  1  0.16666494  0.66624817  0.00079057  1
  Te  Te142  1  0.16655362  0.67242266  0.32948524  1
  Te  Te143  1  0.15945443  0.66582404  0.67080739  1
  Te  Te144  1  0.49751590  -0.00320239  0.00374214  1
  Te  Te145  1  0.49830192  0.00051775  0.32681101  1
  Te  Te146  1  0.50046425  -0.00500864  0.66635118  1
  Te  Te147  1  0.50765511  0.33160165  0.00012844  1
  Te  Te148  1  0.50386008  0.33392193  0.33496786  1
  Te  Te149  1  0.50114154  0.33510004  0.66611535  1
  Te  Te150  1  0.49882792  0.67185948  0.00373548  1
  Te  Te151  1  0.50503888  0.66646946  0.33357742  1
  Te  Te152  1  0.49965343  0.66740528  0.66421845  1
  Te  Te153  1  0.83568729  0.00045985  0.00378806  1
  Te  Te154  1  0.83784339  -0.00283694  0.32874334  1
  Te  Te155  1  0.83725477  -0.00798490  0.66736369  1
  Te  Te156  1  0.83496887  0.33268995  -0.00107508  1
  Te  Te157  1  0.83617663  0.33410541  0.33548729  1
  Te  Te158  1  0.83344023  0.33699857  0.66560677  1
  Te  Te159  1  0.83809679  0.66696850  -0.00330426  1
  Te  Te160  1  0.83088028  0.66719224  0.33435546  1
  Te  Te161  1  0.83340893  0.66636680  0.66539082  1
  Te  Te162  1  0.00435642  0.16409277  -0.00031670  1
  Te  Te163  1  0.00008738  0.16750246  0.33873985  1
  Te  Te164  1  -0.00458772  0.16198545  0.66272739  1
  Te  Te165  1  0.00312393  0.49935688  0.00197419  1
  Te  Te166  1  -0.00433653  0.49909622  0.33404014  1
  Te  Te167  1  -0.00440576  0.50471412  0.66122263  1
  Te  Te168  1  -0.00022448  0.83336489  -0.00279732  1
  Te  Te169  1  -0.00169202  0.83433508  0.33233007  1
  Te  Te170  1  -0.00028254  0.83263826  0.66713862  1
  Te  Te171  1  0.32912585  0.16658332  -0.00706448  1
  Te  Te172  1  0.33308486  0.15984844  0.33421968  1
  Te  Te173  1  0.33522541  0.16794261  0.67191488  1
  Te  Te174  1  0.33073532  0.50191367  -0.00150153  1
  Te  Te175  1  0.33320473  0.49843047  0.32997571  1
  Te  Te176  1  0.33405670  0.49725045  0.66963159  1
  Te  Te177  1  0.33611263  0.83176707  -0.00293185  1
  Te  Te178  1  0.33314972  0.83731001  0.33753975  1
  Te  Te179  1  0.33576560  0.83348255  0.66755400  1
  Te  Te180  1  0.66674709  0.16703387  -0.00091787  1
  Te  Te181  1  0.66716992  0.17258176  0.33924858  1
  Te  Te182  1  0.66797342  0.16963976  0.66445434  1
  Te  Te183  1  0.66583091  0.49581022  -0.00483544  1
  Te  Te184  1  0.67297196  0.49902848  0.33216669  1
  Te  Te185  1  0.66773530  0.49615292  0.67056947  1
  Te  Te186  1  0.66259899  0.83544050  0.00213239  1
  Te  Te187  1  0.67171507  0.83117648  0.33037461  1
  Te  Te188  1  0.66372321  0.83486731  0.66688167  1
  Te  Te189  1  0.00206000  -0.00080692  0.16648292  1
  Te  Te190  1  0.00052923  -0.00755867  0.49728422  1
  Te  Te191  1  0.00042269  -0.00536825  0.83785955  1
  Te  Te192  1  -0.00017455  0.33617206  0.16116915  1
  Te  Te193  1  -0.00316739  0.33429143  0.50291401  1
  Te  Te194  1  0.00049512  0.33294557  0.83573083  1
  Te  Te195  1  0.00301517  0.66423141  0.16227688  1
  Te  Te196  1  -0.00284244  0.67039825  0.50100916  1
  Te  Te197  1  0.00035237  0.66708719  0.83394359  1
  Te  Te198  1  0.33172960  0.00028005  0.16427150  1
  Te  Te199  1  0.33144221  -0.00671756  0.49822825  1
  Te  Te200  1  0.33168184  -0.00700117  0.83911192  1
  Te  Te201  1  0.33355648  0.34032217  0.16872701  1
  Te  Te202  1  0.33218874  0.33338639  0.50566222  1
  Te  Te203  1  0.33138190  0.33645533  0.82984164  1
  Te  Te204  1  0.33282672  0.66468691  0.16326525  1
  Te  Te205  1  0.33167885  0.67240348  0.50024994  1
  Te  Te206  1  0.33202324  0.66699923  0.83718062  1
  Te  Te207  1  0.66259854  -0.00301191  0.16347468  1
  Te  Te208  1  0.66568185  0.00896133  0.49900731  1
  Te  Te209  1  0.66785476  -0.00014519  0.84285802  1
  Te  Te210  1  0.66719397  0.33301766  0.16633915  1
  Te  Te211  1  0.67034941  0.33130127  0.50099780  1
  Te  Te212  1  0.66906028  0.33701891  0.83180374  1
  Te  Te213  1  0.66449864  0.67027454  0.16966452  1
  Te  Te214  1  0.66912643  0.66650365  0.49530982  1
  Te  Te215  1  0.67229615  0.66001522  0.83366201  1
