# generated using pymatgen
data_AgSbTe2
_symmetry_space_group_name_H-M   'P 1'
_cell_length_a   18.34044636
_cell_length_b   18.34008708
_cell_length_c   18.33521550
_cell_angle_alpha   89.99899410
_cell_angle_beta   89.99957769
_cell_angle_gamma   90.00258786
_symmetry_Int_Tables_number   1
_chemical_formula_structural   AgSbTe2
_chemical_formula_sum   'Ag54 Sb54 Te108'
_cell_volume   6167.33178503
_cell_formula_units_Z   54
loop_
 _symmetry_equiv_pos_site_id
 _symmetry_equiv_pos_as_xyz
  1  'x, y, z'
loop_
 _atom_site_type_symbol
 _atom_site_label
 _atom_site_symmetry_multiplicity
 _atom_site_fract_x
 _atom_site_fract_y
 _atom_site_fract_z
 _atom_site_occupancy
  Ag  Ag0  1  0.66971996  0.51217022  0.83482482  1
  Ag  Ag1  1  -0.00134746  0.16497985  0.50410485  1
  Ag  Ag2  1  0.17109906  0.49708760  0.66877436  1
  Ag  Ag3  1  -0.00777740  0.32635677  -0.00472147  1
  Ag  Ag4  1  -0.00174241  0.16926622  0.82795383  1
  Ag  Ag5  1  0.82296273  0.83871339  0.66246608  1
  Ag  Ag6  1  0.50062248  0.33041364  0.50959553  1
  Ag  Ag7  1  0.17172898  0.00301772  0.16754460  1
  Ag  Ag8  1  0.50680221  0.33682412  0.82829689  1
  Ag  Ag9  1  0.17526904  0.83869979  -0.00089229  1
  Ag  Ag10  1  0.34381440  0.66666988  0.66203767  1
  Ag  Ag11  1  0.67240188  -0.00345796  0.34372995  1
  Ag  Ag12  1  0.83075476  0.50707893  0.33639712  1
  Ag  Ag13  1  0.50966092  0.66571617  0.82410694  1
  Ag  Ag14  1  0.33868749  0.49933824  0.82814723  1
  Ag  Ag15  1  0.50339108  0.83532939  -0.00774139  1
  Ag  Ag16  1  0.66839854  0.33428381  0.33541808  1
  Ag  Ag17  1  0.33264647  0.16622898  0.82422211  1
  Ag  Ag18  1  0.16956534  0.16657655  0.66286711  1
  Ag  Ag19  1  0.82243302  0.67635682  0.50049202  1
  Ag  Ag20  1  0.66990735  0.33730320  -0.00848911  1
  Ag  Ag21  1  0.66824586  0.67056222  0.33958751  1
  Ag  Ag22  1  -0.00458027  0.00285373  0.00188051  1
  Ag  Ag23  1  0.50634983  -0.00520061  0.49886983  1
  Ag  Ag24  1  0.33652251  0.51305807  0.50618330  1
  Ag  Ag25  1  0.50166626  0.67588727  0.17222723  1
  Ag  Ag26  1  0.66484388  0.67308750  -0.01378436  1
  Ag  Ag27  1  0.82978667  0.83460806  0.34186877  1
  Ag  Ag28  1  0.51060789  0.83371417  0.66570006  1
  Ag  Ag29  1  0.66267845  0.67732911  0.67179638  1
  Ag  Ag30  1  0.33787506  -0.00266911  0.33761991  1
  Ag  Ag31  1  0.66594959  -0.00602646  -0.00444769  1
  Ag  Ag32  1  0.50518507  0.67712372  0.50436334  1
  Ag  Ag33  1  0.34289433  0.67388698  0.34510107  1
  Ag  Ag34  1  0.49840134  -0.00478079  0.17378212  1
  Ag  Ag35  1  0.82612851  0.33801493  0.83406567  1
  Ag  Ag36  1  0.66362736  0.83169940  0.50811024  1
  Ag  Ag37  1  0.82178159  0.66401922  0.82532217  1
  Ag  Ag38  1  0.82993719  0.15893708  0.66476536  1
  Ag  Ag39  1  -0.01021719  0.00223772  0.33246470  1
  Ag  Ag40  1  -0.01459236  0.49552024  0.83378240  1
  Ag  Ag41  1  0.82545769  -0.00558970  0.50190566  1
  Ag  Ag42  1  0.33786787  -0.00181841  0.00148693  1
  Ag  Ag43  1  0.16583220  0.32542797  0.16689138  1
  Ag  Ag44  1  0.82949807  0.00128640  0.82378560  1
  Ag  Ag45  1  0.16304075  0.16228247  0.33955981  1
  Ag  Ag46  1  0.33503040  0.16206369  0.50476090  1
  Ag  Ag47  1  -0.01460979  0.67158826  0.33603793  1
  Ag  Ag48  1  0.82999802  0.49834924  -0.01192737  1
  Ag  Ag49  1  0.66680496  0.82349107  0.81952310  1
  Ag  Ag50  1  0.83669437  0.15362631  0.34468678  1
  Ag  Ag51  1  0.34458932  0.83266639  0.50061175  1
  Ag  Ag52  1  0.50125742  0.15986007  0.66515704  1
  Ag  Ag53  1  0.66847680  -0.00921849  0.66277611  1
  Sb  Sb54  1  0.50082780  0.16175972  0.34207923  1
  Sb  Sb55  1  0.50642941  0.50567382  -0.00614499  1
  Sb  Sb56  1  0.33395307  0.50190220  0.16736971  1
  Sb  Sb57  1  0.16784423  0.00240742  0.49591524  1
  Sb  Sb58  1  0.17094286  0.66657348  0.49961996  1
  Sb  Sb59  1  0.83438713  0.33282866  0.16206264  1
  Sb  Sb60  1  0.50665692  0.83371194  0.34058623  1
  Sb  Sb61  1  -0.00957197  0.83525433  0.83329071  1
  Sb  Sb62  1  0.33570318  0.33593501  0.66705749  1
  Sb  Sb63  1  0.00066938  0.16434199  0.16700472  1
  Sb  Sb64  1  -0.00248515  0.33126282  0.67257877  1
  Sb  Sb65  1  0.33183803  0.16180117  0.17053585  1
  Sb  Sb66  1  0.82608022  0.66732687  0.17111695  1
  Sb  Sb67  1  0.82664984  0.32983853  0.50235021  1
  Sb  Sb68  1  0.66668242  0.50209592  0.16227326  1
  Sb  Sb69  1  -0.00085682  0.49988222  0.16317377  1
  Sb  Sb70  1  0.66879973  0.16529370  0.83122636  1
  Sb  Sb71  1  0.49924006  0.33045166  0.16427148  1
  Sb  Sb72  1  0.16408732  0.49628917  0.33760306  1
  Sb  Sb73  1  0.17224582  0.67085901  0.16827685  1
  Sb  Sb74  1  0.83310943  0.50160063  0.66853790  1
  Sb  Sb75  1  0.16853094  0.66560005  0.83328853  1
  Sb  Sb76  1  0.16447106  0.33237820  0.83574642  1
  Sb  Sb77  1  -0.00824296  0.66896561  0.00115625  1
  Sb  Sb78  1  -0.00867320  0.00388327  0.66502495  1
  Sb  Sb79  1  0.83371108  0.16799049  -0.00560418  1
  Sb  Sb80  1  0.17218739  0.32948352  0.49787357  1
  Sb  Sb81  1  0.16216497  0.00159297  0.83745296  1
  Sb  Sb82  1  0.16584310  0.16200019  -0.00075959  1
  Sb  Sb83  1  -0.00625845  0.83872688  0.49810841  1
  Sb  Sb84  1  0.49674294  0.50721401  0.66713014  1
  Sb  Sb85  1  0.33754844  0.83578582  0.17377032  1
  Sb  Sb86  1  0.82670764  0.83191670  -0.00288382  1
  Sb  Sb87  1  0.00099748  0.49676704  0.50406345  1
  Sb  Sb88  1  0.50544163  0.50407668  0.33672768  1
  Sb  Sb89  1  0.50715517  -0.00158327  0.82940709  1
  Sb  Sb90  1  0.66245041  0.50826792  0.50424979  1
  Sb  Sb91  1  0.34093956  0.00052293  0.66347477  1
  Sb  Sb92  1  0.66588258  0.15750559  0.50129958  1
  Sb  Sb93  1  -0.00669191  0.32881467  0.32955801  1
  Sb  Sb94  1  0.00107899  0.83523719  0.16675272  1
  Sb  Sb95  1  0.66390023  0.33401584  0.66734906  1
  Sb  Sb96  1  -0.00496221  0.66606503  0.66327746  1
  Sb  Sb97  1  0.33556405  0.32889477  -0.00406584  1
  Sb  Sb98  1  0.66330529  0.83347056  0.16873349  1
  Sb  Sb99  1  0.33819057  0.33101590  0.33622989  1
  Sb  Sb100  1  0.16179208  0.50215220  -0.00625855  1
  Sb  Sb101  1  0.17096992  0.83629498  0.66963176  1
  Sb  Sb102  1  0.16495502  0.83980243  0.33131648  1
  Sb  Sb103  1  0.50071405  0.15982116  -0.00830983  1
  Sb  Sb104  1  0.34306405  0.67252891  -0.00337877  1
  Sb  Sb105  1  0.66625261  0.16426856  0.16880012  1
  Sb  Sb106  1  0.82926817  0.00015691  0.16984391  1
  Sb  Sb107  1  0.34249278  0.83442807  0.82970277  1
  Te  Te108  1  0.16691360  0.16388814  0.17114216  1
  Te  Te109  1  0.16619799  0.16703245  0.50063203  1
  Te  Te110  1  0.16608270  0.16812483  0.82885518  1
  Te  Te111  1  0.16717534  0.49600883  0.16658151  1
  Te  Te112  1  0.17248177  0.49724401  0.50651427  1
  Te  Te113  1  0.17637381  0.49901028  0.82862784  1
  Te  Te114  1  0.16874520  0.83995479  0.16014870  1
  Te  Te115  1  0.17123293  0.83409904  0.50148538  1
  Te  Te116  1  0.16516681  0.83317262  0.83858015  1
  Te  Te117  1  0.49829120  0.15973880  0.16615824  1
  Te  Te118  1  0.49816621  0.16528710  0.50449721  1
  Te  Te119  1  0.49593816  0.16851806  0.82719407  1
  Te  Te120  1  0.49865893  0.50530940  0.16541773  1
  Te  Te121  1  0.49413464  0.49322839  0.50082758  1
  Te  Te122  1  0.49928219  0.49911311  0.83259296  1
  Te  Te123  1  0.49826543  0.83496003  0.15728757  1
  Te  Te124  1  0.50196903  0.83411514  0.50178047  1
  Te  Te125  1  0.50529080  0.83091534  0.82988998  1
  Te  Te126  1  0.83358658  0.16781073  0.18119331  1
  Te  Te127  1  0.83483622  0.16591268  0.50287480  1
  Te  Te128  1  0.83726350  0.16310861  0.83097925  1
  Te  Te129  1  0.83415812  0.49978510  0.17054098  1
  Te  Te130  1  0.83452586  0.50184340  0.49840243  1
  Te  Te131  1  0.82989429  0.50049301  0.83095089  1
  Te  Te132  1  0.83419808  0.83285919  0.17600937  1
  Te  Te133  1  0.83255685  0.83376145  0.50148874  1
  Te  Te134  1  0.82729469  0.83423795  0.83116144  1
  Te  Te135  1  0.16638163  -0.00191439  0.00393043  1
  Te  Te136  1  0.16932226  0.00272770  0.32948089  1
  Te  Te137  1  0.16558327  0.00555421  0.66720123  1
  Te  Te138  1  0.16431396  0.33385285  0.00478104  1
  Te  Te139  1  0.16521448  0.32767221  0.32870246  1
  Te  Te140  1  0.16600134  0.32898595  0.66623428  1
  Te  Te141  1  0.16611024  0.67332990  0.00222051  1
  Te  Te142  1  0.16943802  0.66698962  0.33137324  1
  Te  Te143  1  0.16782390  0.66618533  0.66711422  1
  Te  Te144  1  0.50153281  -0.00338318  -0.00371143  1
  Te  Te145  1  0.49847667  -0.00082733  0.33477297  1
  Te  Te146  1  0.50476611  -0.00217700  0.66293362  1
  Te  Te147  1  0.50588523  0.33249232  -0.00305839  1
  Te  Te148  1  0.50737791  0.33235707  0.33056089  1
  Te  Te149  1  0.50092326  0.32540040  0.66808733  1
  Te  Te150  1  0.50545196  0.67133235  -0.00336645  1
  Te  Te151  1  0.50046484  0.66773905  0.33765229  1
  Te  Te152  1  0.50129872  0.66851169  0.66441973  1
  Te  Te153  1  0.83233810  0.00027655  0.00307211  1
  Te  Te154  1  0.83172738  -0.00217837  0.33288245  1
  Te  Te155  1  0.83089262  -0.00049707  0.66428920  1
  Te  Te156  1  0.83198347  0.33487401  -0.00384131  1
  Te  Te157  1  0.82810367  0.33793726  0.33317943  1
  Te  Te158  1  0.83104326  0.32760716  0.67264040  1
  Te  Te159  1  0.82695497  0.66327987  0.00010670  1
  Te  Te160  1  0.82909234  0.66726775  0.33382408  1
  Te  Te161  1  0.83137056  0.66763831  0.66546695  1
  Te  Te162  1  -0.00008549  0.16475189  -0.00478737  1
  Te  Te163  1  -0.00010823  0.16444066  0.33520938  1
  Te  Te164  1  -0.00057232  0.16627459  0.66676556  1
  Te  Te165  1  -0.00564281  0.50016913  -0.00608718  1
  Te  Te166  1  -0.00388605  0.50145911  0.33415118  1
  Te  Te167  1  0.00750129  0.49905050  0.67324197  1
  Te  Te168  1  -0.00154294  0.83915265  -0.00044408  1
  Te  Te169  1  -0.00342549  0.83552291  0.33343864  1
  Te  Te170  1  -0.00084107  0.83426208  0.66654502  1
  Te  Te171  1  0.33276362  0.16006565  -0.00477216  1
  Te  Te172  1  0.32988383  0.16323989  0.33780341  1
  Te  Te173  1  0.33411420  0.16603541  0.66591337  1
  Te  Te174  1  0.33191210  0.50138244  -0.00522595  1
  Te  Te175  1  0.33203723  0.50173813  0.33812101  1
  Te  Te176  1  0.33148430  0.50234609  0.66667240  1
  Te  Te177  1  0.33641212  0.83801992  -0.00176507  1
  Te  Te178  1  0.33190001  0.83458388  0.33977133  1
  Te  Te179  1  0.33530549  0.82961518  0.66218717  1
  Te  Te180  1  0.66796092  0.16609942  0.00102901  1
  Te  Te181  1  0.67074244  0.16297371  0.33479753  1
  Te  Te182  1  0.66661343  0.16360353  0.66666180  1
  Te  Te183  1  0.67115823  0.49769470  -0.00372256  1
  Te  Te184  1  0.67087230  0.50245050  0.33367645  1
  Te  Te185  1  0.66706122  0.50447443  0.67376803  1
  Te  Te186  1  0.66385520  0.83287168  0.00157369  1
  Te  Te187  1  0.66983756  0.83573643  0.33530372  1
  Te  Te188  1  0.66736794  0.83487071  0.66463307  1
  Te  Te189  1  0.00391878  0.00083163  0.16657099  1
  Te  Te190  1  -0.00297236  0.00481918  0.49425853  1
  Te  Te191  1  -0.00616431  0.00284469  0.83701118  1
  Te  Te192  1  0.00477052  0.33300175  0.15797448  1
  Te  Te193  1  -0.00055605  0.32723206  0.49907833  1
  Te  Te194  1  -0.00191959  0.33356075  0.83799086  1
  Te  Te195  1  0.00248210  0.66683804  0.17435833  1
  Te  Te196  1  -0.00221320  0.66585657  0.49455361  1
  Te  Te197  1  -0.00299973  0.66228437  0.83415641  1
  Te  Te198  1  0.33536378  -0.00007867  0.16555076  1
  Te  Te199  1  0.33415588  0.00121553  0.49835629  1
  Te  Te200  1  0.33246520  0.00265006  0.83579628  1
  Te  Te201  1  0.32890271  0.33314854  0.16545397  1
  Te  Te202  1  0.34083858  0.32489112  0.49908253  1
  Te  Te203  1  0.33817112  0.33233219  0.83419307  1
  Te  Te204  1  0.34078932  0.66672794  0.17148932  1
  Te  Te205  1  0.33357367  0.66880010  0.50092174  1
  Te  Te206  1  0.33641026  0.66505137  0.82880123  1
  Te  Te207  1  0.66001732  -0.00021134  0.16100752  1
  Te  Te208  1  0.66689961  -0.00342433  0.50092651  1
  Te  Te209  1  0.67078087  -0.00011249  0.83577608  1
  Te  Te210  1  0.66506302  0.33383916  0.16774821  1
  Te  Te211  1  0.66028611  0.33785806  0.49668937  1
  Te  Te212  1  0.66697998  0.33096432  0.83346328  1
  Te  Te213  1  0.65926569  0.66666148  0.17636848  1
  Te  Te214  1  0.66553382  0.66894912  0.50017006  1
  Te  Te215  1  0.66616950  0.66803373  0.83188660  1
