# generated using pymatgen
data_AgSbTe2
_symmetry_space_group_name_H-M   'P 1'
_cell_length_a   18.33048618
_cell_length_b   18.33780459
_cell_length_c   18.33094124
_cell_angle_alpha   89.99668636
_cell_angle_beta   89.99638280
_cell_angle_gamma   89.99712556
_symmetry_Int_Tables_number   1
_chemical_formula_structural   AgSbTe2
_chemical_formula_sum   'Ag54 Sb54 Te108'
_cell_volume   6161.77857155
_cell_formula_units_Z   54
loop_
 _symmetry_equiv_pos_site_id
 _symmetry_equiv_pos_as_xyz
  1  'x, y, z'
loop_
 _atom_site_type_symbol
 _atom_site_label
 _atom_site_symmetry_multiplicity
 _atom_site_fract_x
 _atom_site_fract_y
 _atom_site_fract_z
 _atom_site_occupancy
  Ag  Ag0  1  0.00402086  0.49895613  0.83505221  1
  Ag  Ag1  1  0.49294069  -0.00563822  0.17565427  1
  Ag  Ag2  1  0.00682788  0.33658031  0.00441104  1
  Ag  Ag3  1  0.16525408  0.49957419  0.33431803  1
  Ag  Ag4  1  0.33176895  0.33144445  0.66669446  1
  Ag  Ag5  1  0.32564819  0.33330926  -0.00179391  1
  Ag  Ag6  1  0.32570988  0.15469538  0.16494059  1
  Ag  Ag7  1  0.33206609  0.83656811  0.84199389  1
  Ag  Ag8  1  0.67248841  0.50007025  0.82679461  1
  Ag  Ag9  1  0.82934428  0.49663172  0.65923620  1
  Ag  Ag10  1  0.16104249  0.15636791  0.32731660  1
  Ag  Ag11  1  0.83189372  -0.00500261  0.17307917  1
  Ag  Ag12  1  -0.00042497  0.32726194  0.32910424  1
  Ag  Ag13  1  0.17312075  0.67346419  0.16322768  1
  Ag  Ag14  1  0.00906461  0.16487066  0.17041249  1
  Ag  Ag15  1  0.00922063  0.00625058  0.32963181  1
  Ag  Ag16  1  0.83669848  0.84617825  0.32905087  1
  Ag  Ag17  1  0.50298802  0.33503487  0.50072288  1
  Ag  Ag18  1  0.33754170  0.00008399  0.65719573  1
  Ag  Ag19  1  0.66829412  0.00125749  0.01099754  1
  Ag  Ag20  1  0.82660212  0.33393142  0.49762690  1
  Ag  Ag21  1  0.83622413  0.83253384  0.01156533  1
  Ag  Ag22  1  0.49054617  0.67139833  0.17012105  1
  Ag  Ag23  1  0.66311926  0.49910383  0.49858507  1
  Ag  Ag24  1  0.49819038  -0.00653099  0.49505714  1
  Ag  Ag25  1  0.01151920  0.66304679  0.00321313  1
  Ag  Ag26  1  0.66855361  -0.00055158  0.33358533  1
  Ag  Ag27  1  0.33845419  0.84036125  0.49706568  1
  Ag  Ag28  1  0.65997000  -0.00303227  0.65510114  1
  Ag  Ag29  1  0.50093655  0.67397244  0.49618965  1
  Ag  Ag30  1  0.83905167  0.16086486  0.33313864  1
  Ag  Ag31  1  0.83508563  0.49755167  0.33564832  1
  Ag  Ag32  1  0.16774772  0.50053018  0.66455084  1
  Ag  Ag33  1  0.16581219  0.84456207  0.32756696  1
  Ag  Ag34  1  0.33239752  0.50563630  0.17101735  1
  Ag  Ag35  1  0.17946651  -0.00035845  0.48355285  1
  Ag  Ag36  1  0.17314212  -0.00303982  0.17023293  1
  Ag  Ag37  1  0.83339304  0.67455596  0.16737489  1
  Ag  Ag38  1  0.66751055  0.33242304  0.00028888  1
  Ag  Ag39  1  0.66589950  0.50332436  0.17143544  1
  Ag  Ag40  1  0.32920475  0.16394403  0.83920836  1
  Ag  Ag41  1  0.16866301  0.66117500  0.84539022  1
  Ag  Ag42  1  0.49741573  0.83508168  0.65890056  1
  Ag  Ag43  1  0.66530863  0.66305704  0.66251075  1
  Ag  Ag44  1  0.33681420  0.50134726  0.49556959  1
  Ag  Ag45  1  0.32819717  0.66648226  0.00548524  1
  Ag  Ag46  1  0.83046952  0.16993906  0.65590369  1
  Ag  Ag47  1  0.66820040  0.16069357  0.49875588  1
  Ag  Ag48  1  0.32845803  0.83569839  0.16779357  1
  Ag  Ag49  1  0.16925998  0.16336250  0.01151168  1
  Ag  Ag50  1  0.16942063  0.33944374  0.83682479  1
  Ag  Ag51  1  0.32299607  -0.00090104  0.33477866  1
  Ag  Ag52  1  0.65833759  0.84258345  0.49883631  1
  Ag  Ag53  1  0.16929334  0.83071169  0.00965048  1
  Sb  Sb54  1  0.66328918  0.33494847  0.66583030  1
  Sb  Sb55  1  0.33512659  -0.00039479  0.00702154  1
  Sb  Sb56  1  0.49899426  0.50009975  0.33509541  1
  Sb  Sb57  1  0.83334247  0.33259630  0.17157020  1
  Sb  Sb58  1  0.00258140  0.49767211  0.16498010  1
  Sb  Sb59  1  -0.00340484  0.66359293  0.67248767  1
  Sb  Sb60  1  0.50097000  0.16170580  0.66279456  1
  Sb  Sb61  1  0.49415732  0.33538447  0.82982121  1
  Sb  Sb62  1  0.00150757  0.83512866  0.49671674  1
  Sb  Sb63  1  0.82569101  0.00367363  0.49197887  1
  Sb  Sb64  1  0.49817790  0.16271685  0.33444401  1
  Sb  Sb65  1  0.49979670  0.50013296  0.00196560  1
  Sb  Sb66  1  0.66458317  0.66773771  0.00113094  1
  Sb  Sb67  1  0.16727859  0.50141232  0.00261691  1
  Sb  Sb68  1  0.17454729  0.82984217  0.66530935  1
  Sb  Sb69  1  0.00613486  0.17162774  0.84010897  1
  Sb  Sb70  1  0.49571980  0.83651520  0.33713228  1
  Sb  Sb71  1  0.00256692  0.33415426  0.66643181  1
  Sb  Sb72  1  0.50043615  0.50404951  0.66224175  1
  Sb  Sb73  1  0.67223215  0.33174353  0.33426879  1
  Sb  Sb74  1  0.00564510  0.83738388  0.16693687  1
  Sb  Sb75  1  0.83163817  -0.00074304  0.83653706  1
  Sb  Sb76  1  0.82606002  0.66241596  0.49449499  1
  Sb  Sb77  1  0.49824494  0.33332728  0.17036197  1
  Sb  Sb78  1  0.16810542  0.33088262  0.16279892  1
  Sb  Sb79  1  -0.00505269  0.16696950  0.49058760  1
  Sb  Sb80  1  0.00769154  0.82855516  0.83842015  1
  Sb  Sb81  1  0.32692183  0.32995457  0.33262876  1
  Sb  Sb82  1  0.33675411  0.66749110  0.66824882  1
  Sb  Sb83  1  0.16789655  0.33117049  0.50010465  1
  Sb  Sb84  1  0.82487327  0.83300324  0.66134762  1
  Sb  Sb85  1  0.66313019  0.17038194  0.82987411  1
  Sb  Sb86  1  0.49426618  0.16553434  0.00242408  1
  Sb  Sb87  1  0.00016751  0.66674105  0.32672611  1
  Sb  Sb88  1  0.49546391  0.66609406  0.83386491  1
  Sb  Sb89  1  0.16607038  0.16870135  0.66519814  1
  Sb  Sb90  1  0.83757246  0.16419887  0.00546646  1
  Sb  Sb91  1  0.00007409  0.49915961  0.50071187  1
  Sb  Sb92  1  0.17523380  0.66888801  0.49577092  1
  Sb  Sb93  1  0.83636697  0.66510087  0.83877978  1
  Sb  Sb94  1  0.66769975  0.66994974  0.33691512  1
  Sb  Sb95  1  0.66564824  0.16520398  0.17100932  1
  Sb  Sb96  1  0.32917598  0.50033137  0.83282270  1
  Sb  Sb97  1  0.33151505  0.67254401  0.32680324  1
  Sb  Sb98  1  0.66196180  0.83045865  0.83002473  1
  Sb  Sb99  1  0.49706900  0.83449024  0.00108240  1
  Sb  Sb100  1  0.83313321  0.50285790  0.00420936  1
  Sb  Sb101  1  -0.00090587  -0.00010578  0.00798643  1
  Sb  Sb102  1  0.83678277  0.33586187  0.83007378  1
  Sb  Sb103  1  0.66503196  0.83245167  0.17256765  1
  Sb  Sb104  1  0.00031738  0.00243756  0.65669620  1
  Sb  Sb105  1  0.17040090  -0.00097756  0.83759053  1
  Sb  Sb106  1  0.49769502  -0.00141484  0.83165628  1
  Sb  Sb107  1  0.33633623  0.16378122  0.49702789  1
  Te  Te108  1  0.16883449  0.16768118  0.16738149  1
  Te  Te109  1  0.16666903  0.16231359  0.49641183  1
  Te  Te110  1  0.17090418  0.17035647  0.83352543  1
  Te  Te111  1  0.16918952  0.50353144  0.17084363  1
  Te  Te112  1  0.16994963  0.50000584  0.50064545  1
  Te  Te113  1  0.16648326  0.50069475  0.83074676  1
  Te  Te114  1  0.16731266  0.83308431  0.16749183  1
  Te  Te115  1  0.17181092  0.83689704  0.49656012  1
  Te  Te116  1  0.17328237  0.82856998  0.83496649  1
  Te  Te117  1  0.49368896  0.16065728  0.16814971  1
  Te  Te118  1  0.50701265  0.16803915  0.49975852  1
  Te  Te119  1  0.48983660  0.16721877  0.83284158  1
  Te  Te120  1  0.49969646  0.50361402  0.16868217  1
  Te  Te121  1  0.49861571  0.49993581  0.49979513  1
  Te  Te122  1  0.51134938  0.50104520  0.83182130  1
  Te  Te123  1  0.49620051  0.83334258  0.16746390  1
  Te  Te124  1  0.49959205  0.83307218  0.49872380  1
  Te  Te125  1  0.49248548  0.83149992  0.82755657  1
  Te  Te126  1  0.83306964  0.16224830  0.17146094  1
  Te  Te127  1  0.82923426  0.16922982  0.49710065  1
  Te  Te128  1  0.83377440  0.16698409  0.83137363  1
  Te  Te129  1  0.83134350  0.50017200  0.17110658  1
  Te  Te130  1  0.83310907  0.49761250  0.49882024  1
  Te  Te131  1  0.83227724  0.50081447  0.82884440  1
  Te  Te132  1  0.83040825  0.83424733  0.16890244  1
  Te  Te133  1  0.83010757  0.83127820  0.49357954  1
  Te  Te134  1  0.83322263  0.83247388  0.83627595  1
  Te  Te135  1  0.16642905  -0.00137176  0.00548034  1
  Te  Te136  1  0.16682949  0.00035849  0.32859119  1
  Te  Te137  1  0.17001015  -0.00038308  0.66737568  1
  Te  Te138  1  0.16700324  0.33298165  -0.00189561  1
  Te  Te139  1  0.16086666  0.33967383  0.33448845  1
  Te  Te140  1  0.17045145  0.33703323  0.66932021  1
  Te  Te141  1  0.16813965  0.66635674  0.00266047  1
  Te  Te142  1  0.16488599  0.65956588  0.32791887  1
  Te  Te143  1  0.16605829  0.66097237  0.66703344  1
  Te  Te144  1  0.50762712  -0.00035759  0.00375017  1
  Te  Te145  1  0.50833421  0.00068013  0.33471105  1
  Te  Te146  1  0.49953514  -0.00328528  0.66471020  1
  Te  Te147  1  0.50183322  0.33233240  -0.00004386  1
  Te  Te148  1  0.49956790  0.33079089  0.34075964  1
  Te  Te149  1  0.49284371  0.33306607  0.66187184  1
  Te  Te150  1  0.49401026  0.66774915  0.00672134  1
  Te  Te151  1  0.50022219  0.66730613  0.33164374  1
  Te  Te152  1  0.50430366  0.67197793  0.66434538  1
  Te  Te153  1  0.83097195  -0.00416190  0.00447946  1
  Te  Te154  1  0.82922321  0.00156947  0.33268996  1
  Te  Te155  1  0.83096369  0.00243089  0.66603896  1
  Te  Te156  1  0.83247707  0.33308640  -0.00047363  1
  Te  Te157  1  0.83720292  0.33532783  0.33688997  1
  Te  Te158  1  0.83319108  0.33473109  0.66236891  1
  Te  Te159  1  0.83263962  0.67165079  0.00589555  1
  Te  Te160  1  0.83453310  0.65978791  0.32717830  1
  Te  Te161  1  0.82782377  0.66233755  0.66686335  1
  Te  Te162  1  0.00561991  0.17075096  0.00623939  1
  Te  Te163  1  0.00010203  0.16714930  0.32959669  1
  Te  Te164  1  -0.00803180  0.16715210  0.66802983  1
  Te  Te165  1  -0.00130177  0.49813824  -0.00356846  1
  Te  Te166  1  -0.00077828  0.49752212  0.33304904  1
  Te  Te167  1  0.00050150  0.49955792  0.67174509  1
  Te  Te168  1  0.00080189  0.82925474  0.00041478  1
  Te  Te169  1  0.00033859  0.83621742  0.33365146  1
  Te  Te170  1  -0.00198766  0.83374458  0.66846125  1
  Te  Te171  1  0.32877755  0.16787689  0.00185126  1
  Te  Te172  1  0.32827877  0.16244893  0.32850192  1
  Te  Te173  1  0.33258646  0.16657405  0.66769769  1
  Te  Te174  1  0.33466918  0.49861908  0.00240654  1
  Te  Te175  1  0.33131267  0.49768168  0.33397565  1
  Te  Te176  1  0.33139934  0.49836043  0.66510012  1
  Te  Te177  1  0.33089471  0.83329609  0.00229255  1
  Te  Te178  1  0.32866466  0.83780952  0.33316459  1
  Te  Te179  1  0.33661748  0.83530013  0.65879390  1
  Te  Te180  1  0.66798652  0.16628319  -0.00051428  1
  Te  Te181  1  0.67147982  0.16497233  0.33693592  1
  Te  Te182  1  0.67043876  0.16437802  0.66478935  1
  Te  Te183  1  0.66719580  0.49767823  0.00545269  1
  Te  Te184  1  0.66969749  0.49896543  0.33386291  1
  Te  Te185  1  0.66787832  0.49984176  0.66223959  1
  Te  Te186  1  0.66925673  0.83709043  -0.00170864  1
  Te  Te187  1  0.67329225  0.83610568  0.33828598  1
  Te  Te188  1  0.66235802  0.83590325  0.66281892  1
  Te  Te189  1  -0.00278859  0.00434472  0.17049254  1
  Te  Te190  1  0.00957813  -0.00003885  0.49130232  1
  Te  Te191  1  0.00092251  0.00065882  0.83228494  1
  Te  Te192  1  -0.00045235  0.32950920  0.16527471  1
  Te  Te193  1  -0.00514542  0.33361552  0.49519332  1
  Te  Te194  1  0.00575521  0.33791833  0.83705222  1
  Te  Te195  1  -0.00335540  0.66506458  0.16123205  1
  Te  Te196  1  0.00073952  0.66759866  0.50159031  1
  Te  Te197  1  0.00569076  0.66154470  0.83988273  1
  Te  Te198  1  0.33399042  -0.00308000  0.16826235  1
  Te  Te199  1  0.33790223  0.00167892  0.49761700  1
  Te  Te200  1  0.33312592  -0.00143143  0.82818139  1
  Te  Te201  1  0.33613063  0.34127965  0.16260539  1
  Te  Te202  1  0.33513353  0.33437996  0.50115406  1
  Te  Te203  1  0.33016436  0.33283282  0.83580976  1
  Te  Te204  1  0.33265092  0.66670896  0.16605129  1
  Te  Te205  1  0.34002675  0.66262063  0.49979693  1
  Te  Te206  1  0.33000636  0.66960484  0.83789003  1
  Te  Te207  1  0.66707735  -0.00035134  0.16892802  1
  Te  Te208  1  0.66489049  0.00080680  0.49853136  1
  Te  Te209  1  0.66569028  0.00031003  0.83188723  1
  Te  Te210  1  0.66469301  0.33692052  0.16219222  1
  Te  Te211  1  0.66627844  0.33779428  0.50074674  1
  Te  Te212  1  0.66567912  0.33766851  0.83751242  1
  Te  Te213  1  0.66907183  0.66372880  0.16658410  1
  Te  Te214  1  0.66162829  0.66073103  0.50252081  1
  Te  Te215  1  0.66554490  0.66180034  0.82988050  1
