# generated using pymatgen
data_AgSbTe2
_symmetry_space_group_name_H-M   'P 1'
_cell_length_a   18.33908585
_cell_length_b   18.33399961
_cell_length_c   18.33075869
_cell_angle_alpha   90.00033419
_cell_angle_beta   89.99999532
_cell_angle_gamma   90.00231717
_symmetry_Int_Tables_number   1
_chemical_formula_structural   AgSbTe2
_chemical_formula_sum   'Ag54 Sb54 Te108'
_cell_volume   6163.32886204
_cell_formula_units_Z   54
loop_
 _symmetry_equiv_pos_site_id
 _symmetry_equiv_pos_as_xyz
  1  'x, y, z'
loop_
 _atom_site_type_symbol
 _atom_site_label
 _atom_site_symmetry_multiplicity
 _atom_site_fract_x
 _atom_site_fract_y
 _atom_site_fract_z
 _atom_site_occupancy
  Ag  Ag0  1  0.50231524  0.49766200  0.00005064  1
  Ag  Ag1  1  0.50885105  0.33943193  0.49996044  1
  Ag  Ag2  1  0.66801100  0.49546118  0.50411244  1
  Ag  Ag3  1  0.83072476  0.17840276  -0.00234980  1
  Ag  Ag4  1  0.50595584  0.65899731  0.49447124  1
  Ag  Ag5  1  0.82574613  0.33762992  0.50743439  1
  Ag  Ag6  1  0.66977276  0.33187752  0.67082404  1
  Ag  Ag7  1  -0.00259334  0.00798671  0.66298139  1
  Ag  Ag8  1  0.50575771  0.82562045  0.33643489  1
  Ag  Ag9  1  -0.00040780  0.00194542  0.34503455  1
  Ag  Ag10  1  0.16624519  0.65449162  0.84195909  1
  Ag  Ag11  1  0.65921416  0.00496646  -0.00996794  1
  Ag  Ag12  1  0.00101633  0.48864594  0.83039893  1
  Ag  Ag13  1  0.50222543  -0.00068544  0.82437484  1
  Ag  Ag14  1  0.65995586  0.82995539  0.16823342  1
  Ag  Ag15  1  0.67012887  0.17699561  0.83143136  1
  Ag  Ag16  1  0.33498581  0.49668429  0.84071415  1
  Ag  Ag17  1  0.33348987  0.16976443  0.16167317  1
  Ag  Ag18  1  0.82401012  0.83492499  0.66051390  1
  Ag  Ag19  1  -0.00018731  0.17130754  0.50671871  1
  Ag  Ag20  1  0.34146944  0.82526691  0.16529076  1
  Ag  Ag21  1  0.82503221  0.50319581  0.34264220  1
  Ag  Ag22  1  0.66250506  0.00563420  0.66914233  1
  Ag  Ag23  1  0.82118926  0.49479862  -0.00097276  1
  Ag  Ag24  1  0.33940791  0.00866770  -0.00286868  1
  Ag  Ag25  1  0.49890145  0.66182319  0.17385349  1
  Ag  Ag26  1  0.33382448  0.16474125  0.49839204  1
  Ag  Ag27  1  0.50350145  0.50106381  0.66203783  1
  Ag  Ag28  1  0.15200692  0.33706989  0.83784904  1
  Ag  Ag29  1  0.33519153  0.33551559  -0.00163512  1
  Ag  Ag30  1  0.33838105  0.49811411  0.16004849  1
  Ag  Ag31  1  0.66526113  0.49423663  0.83700929  1
  Ag  Ag32  1  0.16683214  0.66386197  0.49761379  1
  Ag  Ag33  1  0.16899280  0.17682866  0.00035519  1
  Ag  Ag34  1  0.49911002  0.00217892  0.50553109  1
  Ag  Ag35  1  0.66325177  0.66415414  0.33259583  1
  Ag  Ag36  1  -0.00382699  0.17717438  0.82769715  1
  Ag  Ag37  1  0.82488203  0.82529817  0.33910294  1
  Ag  Ag38  1  0.50393077  0.84011324  0.65943241  1
  Ag  Ag39  1  0.66513187  0.65291324  0.00290853  1
  Ag  Ag40  1  0.49870369  0.34489879  0.16418155  1
  Ag  Ag41  1  0.66649396  0.17575897  0.50610452  1
  Ag  Ag42  1  -0.01249986  0.49225165  0.50525132  1
  Ag  Ag43  1  0.83889304  0.33460898  0.83181810  1
  Ag  Ag44  1  0.34707005  0.00108657  0.66753403  1
  Ag  Ag45  1  0.17670456  0.66454019  0.16467383  1
  Ag  Ag46  1  0.50585947  0.50526031  0.33574309  1
  Ag  Ag47  1  0.16936985  0.00858531  0.50083116  1
  Ag  Ag48  1  -0.00242626  0.33457680  -0.00892334  1
  Ag  Ag49  1  0.82440264  0.65651217  0.49794814  1
  Ag  Ag50  1  0.66843893  0.33637731  -0.01004657  1
  Ag  Ag51  1  -0.00923715  0.33063085  0.67764544  1
  Ag  Ag52  1  0.16665722  0.16592115  0.33584357  1
  Ag  Ag53  1  0.17151374  0.49474607  -0.00610201  1
  Sb  Sb54  1  0.83135485  0.00349304  0.50282438  1
  Sb  Sb55  1  0.66831828  -0.00391800  0.33823513  1
  Sb  Sb56  1  0.66075345  0.16526688  0.16340590  1
  Sb  Sb57  1  0.82749781  0.66380625  0.17125936  1
  Sb  Sb58  1  0.34052871  0.66638908  0.33211280  1
  Sb  Sb59  1  -0.00117695  0.83513204  0.83081182  1
  Sb  Sb60  1  0.17005662  0.49973819  0.67320902  1
  Sb  Sb61  1  0.33234538  0.00148211  0.33574720  1
  Sb  Sb62  1  0.66570154  0.83033405  0.49796817  1
  Sb  Sb63  1  0.16923892  0.83569738  0.66460345  1
  Sb  Sb64  1  -0.00494642  0.66824737  0.33663658  1
  Sb  Sb65  1  0.00057245  0.01158189  -0.00488001  1
  Sb  Sb66  1  -0.00097490  0.83220643  0.16918206  1
  Sb  Sb67  1  0.33543876  0.83098260  0.83728849  1
  Sb  Sb68  1  0.16787320  0.49694946  0.33180098  1
  Sb  Sb69  1  0.00461234  0.49811713  0.16471071  1
  Sb  Sb70  1  0.50501027  0.33417142  0.83254325  1
  Sb  Sb71  1  0.49752880  0.16761522  0.33759339  1
  Sb  Sb72  1  0.82868088  0.83007900  -0.00004775  1
  Sb  Sb73  1  0.50015658  0.17214751  0.00015202  1
  Sb  Sb74  1  -0.00231815  0.83618551  0.50108465  1
  Sb  Sb75  1  0.33830135  0.49523673  0.50074443  1
  Sb  Sb76  1  0.33731941  0.33042576  0.67015770  1
  Sb  Sb77  1  0.17407568  0.33685390  0.15713177  1
  Sb  Sb78  1  0.50085361  0.83001282  0.00317665  1
  Sb  Sb79  1  0.16563538  0.33205020  0.50558385  1
  Sb  Sb80  1  0.83638255  0.16996195  0.33284745  1
  Sb  Sb81  1  -0.00103089  0.33093377  0.33695374  1
  Sb  Sb82  1  0.83547680  0.65724657  0.82907536  1
  Sb  Sb83  1  0.83296204  0.16760562  0.67040323  1
  Sb  Sb84  1  0.33556383  0.66885483  0.66620022  1
  Sb  Sb85  1  0.65839208  0.50263498  0.16482590  1
  Sb  Sb86  1  0.33735620  0.65922112  0.00204701  1
  Sb  Sb87  1  0.16865165  0.83471425  0.33404961  1
  Sb  Sb88  1  0.17017095  -0.00175486  0.16915616  1
  Sb  Sb89  1  -0.00289460  0.65599201  -0.00145144  1
  Sb  Sb90  1  0.17036737  0.00433021  0.82911624  1
  Sb  Sb91  1  0.49846871  0.66400863  0.83313638  1
  Sb  Sb92  1  0.16947814  0.83027484  0.00190442  1
  Sb  Sb93  1  0.66575630  0.66377558  0.66531143  1
  Sb  Sb94  1  0.33499479  0.33276023  0.32805817  1
  Sb  Sb95  1  0.83154048  -0.00022951  0.16679731  1
  Sb  Sb96  1  0.82728477  0.00758847  0.83094045  1
  Sb  Sb97  1  0.33476914  0.17060072  0.83428123  1
  Sb  Sb98  1  0.66524351  0.83185385  0.83395619  1
  Sb  Sb99  1  0.49812388  -0.00275260  0.16846464  1
  Sb  Sb100  1  0.82512534  0.33607155  0.16149643  1
  Sb  Sb101  1  0.16405660  0.16691813  0.66730748  1
  Sb  Sb102  1  0.33832747  0.83757340  0.49683120  1
  Sb  Sb103  1  -0.00079706  0.66236916  0.66424110  1
  Sb  Sb104  1  0.00600782  0.16875617  0.16512266  1
  Sb  Sb105  1  0.50326671  0.16621598  0.66560098  1
  Sb  Sb106  1  0.66565293  0.33962642  0.33738428  1
  Sb  Sb107  1  0.82876936  0.49908290  0.66535906  1
  Te  Te108  1  0.17285092  0.16637679  0.16518318  1
  Te  Te109  1  0.16346515  0.16632617  0.49932534  1
  Te  Te110  1  0.16467095  0.16959909  0.83887886  1
  Te  Te111  1  0.17219781  0.50414162  0.16422704  1
  Te  Te112  1  0.16949842  0.50132569  0.50019857  1
  Te  Te113  1  0.16535897  0.49739643  0.83391546  1
  Te  Te114  1  0.17182364  0.82655769  0.16829687  1
  Te  Te115  1  0.16783841  0.82961189  0.49866284  1
  Te  Te116  1  0.16676471  0.82489501  0.83311873  1
  Te  Te117  1  0.49252769  0.16827553  0.16973433  1
  Te  Te118  1  0.50131118  0.16716609  0.49931865  1
  Te  Te119  1  0.50573250  0.15900883  0.83361828  1
  Te  Te120  1  0.49827695  0.50165133  0.16616355  1
  Te  Te121  1  0.49968351  0.49943788  0.49817393  1
  Te  Te122  1  0.50295231  0.50103918  0.83655123  1
  Te  Te123  1  0.49985256  0.83125425  0.16918160  1
  Te  Te124  1  0.50004651  0.83287036  0.49918532  1
  Te  Te125  1  0.49919010  0.83621273  0.82656451  1
  Te  Te126  1  0.83319160  0.16743077  0.15928947  1
  Te  Te127  1  0.83386307  0.17291933  0.49745874  1
  Te  Te128  1  0.83139367  0.17193314  0.83783970  1
  Te  Te129  1  0.83645239  0.50057372  0.16494904  1
  Te  Te130  1  0.83113111  0.49836104  0.50210853  1
  Te  Te131  1  0.83188127  0.49581707  0.83454879  1
  Te  Te132  1  0.82967725  0.83211279  0.17239004  1
  Te  Te133  1  0.83271383  0.83042700  0.49867673  1
  Te  Te134  1  0.83354845  0.82980131  0.82801289  1
  Te  Te135  1  0.16995903  0.00169006  -0.00093864  1
  Te  Te136  1  0.16306128  0.00233900  0.33885130  1
  Te  Te137  1  0.16040731  -0.00001780  0.66080976  1
  Te  Te138  1  0.17048799  0.33440631  -0.00248168  1
  Te  Te139  1  0.16661252  0.32689906  0.33121781  1
  Te  Te140  1  0.16561475  0.33354351  0.67509941  1
  Te  Te141  1  0.16604549  0.66250820  0.00139472  1
  Te  Te142  1  0.16470640  0.66639167  0.33530835  1
  Te  Te143  1  0.16731895  0.66809905  0.65906641  1
  Te  Te144  1  0.49926785  -0.00169308  0.00127871  1
  Te  Te145  1  0.50045338  -0.00469181  0.34080799  1
  Te  Te146  1  0.50323919  0.00156312  0.66344311  1
  Te  Te147  1  0.49889546  0.33633633  -0.00073736  1
  Te  Te148  1  0.50001211  0.33811680  0.33560360  1
  Te  Te149  1  0.50376202  0.33847150  0.66241025  1
  Te  Te150  1  0.50465907  0.66263035  0.00121406  1
  Te  Te151  1  0.50314631  0.66616764  0.33371126  1
  Te  Te152  1  0.50007488  0.66523262  0.66265093  1
  Te  Te153  1  0.83027023  0.00011427  -0.00118246  1
  Te  Te154  1  0.83752739  -0.00221003  0.33433118  1
  Te  Te155  1  0.83257289  -0.00591170  0.66667940  1
  Te  Te156  1  0.82903833  0.33622521  -0.00044257  1
  Te  Te157  1  0.83327688  0.33997857  0.33441201  1
  Te  Te158  1  0.83139378  0.33346172  0.66683440  1
  Te  Te159  1  0.82781258  0.66103946  -0.00017953  1
  Te  Te160  1  0.82882604  0.66462728  0.33696049  1
  Te  Te161  1  0.83329776  0.67410756  0.66002075  1
  Te  Te162  1  0.00105433  0.17230056  -0.00206144  1
  Te  Te163  1  0.00383216  0.16320797  0.33506078  1
  Te  Te164  1  -0.00138395  0.16955647  0.66679881  1
  Te  Te165  1  0.00424761  0.49447704  -0.00281949  1
  Te  Te166  1  -0.00118259  0.49910292  0.33854196  1
  Te  Te167  1  0.00044121  0.49531926  0.66628686  1
  Te  Te168  1  -0.00090483  0.83534477  0.00046062  1
  Te  Te169  1  -0.00396863  0.84046536  0.33333935  1
  Te  Te170  1  -0.00150254  0.83823282  0.66686010  1
  Te  Te171  1  0.33236185  0.16917839  -0.00124791  1
  Te  Te172  1  0.32790097  0.16662368  0.33704678  1
  Te  Te173  1  0.33218365  0.16150847  0.66336133  1
  Te  Te174  1  0.33388915  0.49856465  -0.00043267  1
  Te  Te175  1  0.33724250  0.49921964  0.32713932  1
  Te  Te176  1  0.34207938  0.49943670  0.67082293  1
  Te  Te177  1  0.33372243  0.84162663  0.00544174  1
  Te  Te178  1  0.33858791  0.83464828  0.32524925  1
  Te  Te179  1  0.33918322  0.84096393  0.66782902  1
  Te  Te180  1  0.66731991  0.16439037  -0.00129125  1
  Te  Te181  1  0.66796343  0.16591333  0.33743138  1
  Te  Te182  1  0.66868816  0.16832034  0.66672072  1
  Te  Te183  1  0.66419649  0.49650611  0.00111474  1
  Te  Te184  1  0.66604183  0.50372564  0.33516389  1
  Te  Te185  1  0.66335062  0.49824334  0.66453258  1
  Te  Te186  1  0.66711725  0.84147444  0.00448582  1
  Te  Te187  1  0.66641611  0.83031695  0.33140532  1
  Te  Te188  1  0.66417172  0.83567082  0.66747909  1
  Te  Te189  1  0.00070489  -0.00014158  0.16928494  1
  Te  Te190  1  -0.00110801  0.00294458  0.50314371  1
  Te  Te191  1  0.00023195  0.00480107  0.82630049  1
  Te  Te192  1  -0.00109669  0.33330489  0.16141549  1
  Te  Te193  1  0.00071651  0.33253435  0.50168487  1
  Te  Te194  1  -0.00431117  0.33304643  0.83456683  1
  Te  Te195  1  0.00817297  0.66702076  0.16697965  1
  Te  Te196  1  0.00116582  0.66110768  0.49996759  1
  Te  Te197  1  0.00576123  0.66268231  0.83206680  1
  Te  Te198  1  0.33266044  0.00727470  0.16279615  1
  Te  Te199  1  0.33273606  0.00324257  0.50253558  1
  Te  Te200  1  0.33691476  0.00012179  0.83229696  1
  Te  Te201  1  0.33871697  0.33360250  0.16181034  1
  Te  Te202  1  0.33477496  0.32637384  0.50093318  1
  Te  Te203  1  0.33583765  0.33678315  0.83626329  1
  Te  Te204  1  0.33697514  0.66593695  0.16594318  1
  Te  Te205  1  0.33296224  0.66658488  0.49977755  1
  Te  Te206  1  0.32759933  0.66095940  0.83407085  1
  Te  Te207  1  0.66559969  -0.00446513  0.16556666  1
  Te  Te208  1  0.66377571  0.00445386  0.50433562  1
  Te  Te209  1  0.66311297  -0.00159741  0.83085920  1
  Te  Te210  1  0.65775651  0.33045843  0.16008719  1
  Te  Te211  1  0.66648177  0.33480113  0.49956791  1
  Te  Te212  1  0.66518680  0.33359646  0.83097615  1
  Te  Te213  1  0.66320575  0.66939804  0.16618969  1
  Te  Te214  1  0.66566244  0.66300275  0.49918296  1
  Te  Te215  1  0.66707659  0.66089513  0.83897628  1
