# generated using pymatgen
data_AgSbTe2
_symmetry_space_group_name_H-M   'P 1'
_cell_length_a   18.31440726
_cell_length_b   18.30552996
_cell_length_c   18.31081721
_cell_angle_alpha   89.99879225
_cell_angle_beta   89.99901666
_cell_angle_gamma   89.99629620
_symmetry_Int_Tables_number   1
_chemical_formula_structural   AgSbTe2
_chemical_formula_sum   'Ag54 Sb54 Te108'
_cell_volume   6138.79174195
_cell_formula_units_Z   54
loop_
 _symmetry_equiv_pos_site_id
 _symmetry_equiv_pos_as_xyz
  1  'x, y, z'
loop_
 _atom_site_type_symbol
 _atom_site_label
 _atom_site_symmetry_multiplicity
 _atom_site_fract_x
 _atom_site_fract_y
 _atom_site_fract_z
 _atom_site_occupancy
  Ag  Ag0  1  0.49322614  0.16710162  0.66671369  1
  Ag  Ag1  1  0.67355644  0.66521227  0.00967588  1
  Ag  Ag2  1  0.50028133  0.50628617  0.33304790  1
  Ag  Ag3  1  0.66711343  0.50839916  0.17052393  1
  Ag  Ag4  1  0.67229449  0.50125061  0.48999542  1
  Ag  Ag5  1  0.49955332  0.00217685  0.49824273  1
  Ag  Ag6  1  0.33032425  0.16643000  0.49857014  1
  Ag  Ag7  1  0.65844656  0.16297645  0.16267946  1
  Ag  Ag8  1  0.32943008  0.83718478  0.16869625  1
  Ag  Ag9  1  0.66816568  0.15952541  0.83751224  1
  Ag  Ag10  1  0.16879781  0.50060920  0.32797248  1
  Ag  Ag11  1  0.16904241  0.33103364  0.49941826  1
  Ag  Ag12  1  0.49830269  0.49568347  0.65975626  1
  Ag  Ag13  1  0.50568640  0.66617340  0.17135817  1
  Ag  Ag14  1  0.83163174  -0.00654576  0.16833020  1
  Ag  Ag15  1  0.33219112  0.65928321  0.66094587  1
  Ag  Ag16  1  -0.00429222  0.50034763  0.49896662  1
  Ag  Ag17  1  0.83112729  0.82607440  0.33085795  1
  Ag  Ag18  1  0.17227483  -0.00040721  0.16834971  1
  Ag  Ag19  1  0.82823909  0.00020205  0.83620878  1
  Ag  Ag20  1  0.16703474  0.83759461  0.66605085  1
  Ag  Ag21  1  0.33206427  0.50120054  0.83049932  1
  Ag  Ag22  1  0.83301580  0.65932824  0.48786637  1
  Ag  Ag23  1  0.00406689  0.83384426  0.16491446  1
  Ag  Ag24  1  0.33084227  0.33998850  0.33330543  1
  Ag  Ag25  1  0.66431788  0.00293149  0.67195760  1
  Ag  Ag26  1  0.16544217  0.16906335  0.00016410  1
  Ag  Ag27  1  0.82596017  0.66719970  0.17166005  1
  Ag  Ag28  1  0.33802188  0.66057020  0.33062039  1
  Ag  Ag29  1  0.16238627  0.49925253  0.00772081  1
  Ag  Ag30  1  -0.00086687  -0.00194884  0.33075698  1
  Ag  Ag31  1  0.17254496  0.16710062  0.66786656  1
  Ag  Ag32  1  0.83298667  -0.00305933  0.49580971  1
  Ag  Ag33  1  0.17093164  0.33632908  0.16898164  1
  Ag  Ag34  1  0.50676286  0.00122519  0.83413171  1
  Ag  Ag35  1  0.16697859  0.66540031  0.84001355  1
  Ag  Ag36  1  0.66429262  0.00040234  0.00182818  1
  Ag  Ag37  1  0.00132833  0.83747993  0.83840947  1
  Ag  Ag38  1  0.00926559  0.33393732  0.66963045  1
  Ag  Ag39  1  0.33491652  0.16169412  0.16967242  1
  Ag  Ag40  1  0.16806817  0.00642037  0.49637694  1
  Ag  Ag41  1  0.33551879  0.00248910  0.00634207  1
  Ag  Ag42  1  0.49251639  0.33194520  0.16957973  1
  Ag  Ag43  1  0.32908226  0.33416512  0.66098000  1
  Ag  Ag44  1  0.16676157  0.66493729  0.16485689  1
  Ag  Ag45  1  0.50182834  0.82783663  0.32903344  1
  Ag  Ag46  1  0.66666853  0.66322146  0.32674028  1
  Ag  Ag47  1  0.83897489  0.50468699  0.00526316  1
  Ag  Ag48  1  0.00441086  0.33970217  -0.00100215  1
  Ag  Ag49  1  0.49788887  0.00016934  0.16695961  1
  Ag  Ag50  1  0.82885286  0.50836300  0.33489916  1
  Ag  Ag51  1  0.00007657  0.16199912  0.83383570  1
  Ag  Ag52  1  0.83076026  0.50145503  0.65888406  1
  Ag  Ag53  1  0.00001831  0.66127056  0.00264271  1
  Sb  Sb54  1  0.00066797  0.83156349  0.49696991  1
  Sb  Sb55  1  0.66525331  0.83153256  0.16809850  1
  Sb  Sb56  1  0.33223809  0.83737019  0.49406500  1
  Sb  Sb57  1  0.00618836  0.16881806  0.50444107  1
  Sb  Sb58  1  0.83813355  0.83156830  0.66196238  1
  Sb  Sb59  1  0.66716206  0.83080507  0.49814372  1
  Sb  Sb60  1  0.83382794  0.16799293  0.66710061  1
  Sb  Sb61  1  0.67088051  0.33268408  0.00343327  1
  Sb  Sb62  1  0.83466619  0.82988548  0.00957013  1
  Sb  Sb63  1  0.66248792  0.16699909  0.49840339  1
  Sb  Sb64  1  0.33357757  0.49996190  0.16764577  1
  Sb  Sb65  1  -0.00210100  0.66829557  0.32635111  1
  Sb  Sb66  1  0.33524920  0.00209897  0.66731451  1
  Sb  Sb67  1  0.33285955  0.49648335  0.50021707  1
  Sb  Sb68  1  0.49802559  0.33018282  0.83519342  1
  Sb  Sb69  1  0.33083550  0.66781770  0.00629886  1
  Sb  Sb70  1  0.83758629  0.67065453  0.83759119  1
  Sb  Sb71  1  0.66324264  0.66741739  0.66632453  1
  Sb  Sb72  1  0.00500891  0.16148367  0.16218223  1
  Sb  Sb73  1  0.49414900  0.83517646  0.66183889  1
  Sb  Sb74  1  -0.00063297  -0.00119253  0.00354020  1
  Sb  Sb75  1  0.83718465  0.16723899  0.00039756  1
  Sb  Sb76  1  0.50236448  0.66667384  0.49202597  1
  Sb  Sb77  1  0.00427340  0.66269461  0.67046975  1
  Sb  Sb78  1  0.66836769  -0.00525696  0.32971832  1
  Sb  Sb79  1  0.16964643  0.16920911  0.33176288  1
  Sb  Sb80  1  0.33182959  -0.00121318  0.32775814  1
  Sb  Sb81  1  0.32906989  0.83165354  0.83660287  1
  Sb  Sb82  1  0.16633835  -0.00232835  0.83574981  1
  Sb  Sb83  1  0.49942838  0.83553587  0.00792124  1
  Sb  Sb84  1  0.49306193  0.33138459  0.49586541  1
  Sb  Sb85  1  0.32687801  0.33077308  0.00416244  1
  Sb  Sb86  1  0.49837014  0.50034149  0.00517119  1
  Sb  Sb87  1  0.66446949  0.33070015  0.66535799  1
  Sb  Sb88  1  0.83537896  0.33123984  0.83361606  1
  Sb  Sb89  1  0.16350637  0.66411903  0.49659064  1
  Sb  Sb90  1  0.16862515  0.49717143  0.66539998  1
  Sb  Sb91  1  0.49816740  0.16570475  0.33222664  1
  Sb  Sb92  1  0.49599466  0.67020554  0.83770083  1
  Sb  Sb93  1  0.16676359  0.33669585  0.83383277  1
  Sb  Sb94  1  0.66434131  0.49739462  0.83628067  1
  Sb  Sb95  1  0.33190665  0.16873511  0.83341035  1
  Sb  Sb96  1  -0.00081223  0.50563164  0.16801935  1
  Sb  Sb97  1  0.65932114  0.34257217  0.33109828  1
  Sb  Sb98  1  0.84049451  0.33726488  0.49956046  1
  Sb  Sb99  1  -0.00114647  0.00354440  0.66481509  1
  Sb  Sb100  1  0.16504096  0.83219373  0.00167146  1
  Sb  Sb101  1  0.49652705  0.16398098  -0.00004863  1
  Sb  Sb102  1  0.00669564  0.33391882  0.33160338  1
  Sb  Sb103  1  0.16661771  0.83008743  0.33202097  1
  Sb  Sb104  1  0.67264614  0.84004253  0.83376489  1
  Sb  Sb105  1  0.00295503  0.49985477  0.83372094  1
  Sb  Sb106  1  0.83581654  0.33649891  0.16738143  1
  Sb  Sb107  1  0.83276550  0.16461872  0.33124289  1
  Te  Te108  1  0.16979286  0.16346545  0.16501273  1
  Te  Te109  1  0.16993389  0.16640707  0.50113306  1
  Te  Te110  1  0.16387618  0.16635308  0.83361176  1
  Te  Te111  1  0.16616840  0.50084328  0.16692474  1
  Te  Te112  1  0.16325213  0.49655628  0.49592928  1
  Te  Te113  1  0.16916315  0.50525659  0.83577179  1
  Te  Te114  1  0.16616421  0.83515979  0.16754083  1
  Te  Te115  1  0.16632035  0.83872895  0.50430208  1
  Te  Te116  1  0.16281185  0.82876616  0.82967227  1
  Te  Te117  1  0.49756022  0.16330549  0.16625952  1
  Te  Te118  1  0.49519442  0.16327343  0.50387692  1
  Te  Te119  1  0.50145749  0.16257060  0.82968118  1
  Te  Te120  1  0.50162768  0.50280224  0.16978636  1
  Te  Te121  1  0.50336493  0.49933145  0.49913064  1
  Te  Te122  1  0.49609297  0.50068882  0.82942536  1
  Te  Te123  1  0.49662752  0.83428454  0.17092407  1
  Te  Te124  1  0.49985134  0.84086932  0.49303571  1
  Te  Te125  1  0.49876048  0.84008844  0.83160724  1
  Te  Te126  1  0.83021966  0.16339197  0.16601161  1
  Te  Te127  1  0.83324447  0.15990500  0.49992799  1
  Te  Te128  1  0.83364068  0.16099633  0.83308051  1
  Te  Te129  1  0.83201891  0.50185088  0.16677075  1
  Te  Te130  1  0.83351158  0.49946711  0.49865486  1
  Te  Te131  1  0.83175699  0.50085123  0.83418698  1
  Te  Te132  1  0.83665053  0.83333316  0.17157587  1
  Te  Te133  1  0.83396776  0.83704423  0.49442956  1
  Te  Te134  1  0.84073906  0.83930721  0.83028727  1
  Te  Te135  1  0.16744304  0.00276113  0.00394065  1
  Te  Te136  1  0.16429378  -0.00125092  0.33197591  1
  Te  Te137  1  0.16716837  0.00294741  0.66514914  1
  Te  Te138  1  0.16365235  0.33443603  0.00183432  1
  Te  Te139  1  0.17003281  0.33720561  0.33116338  1
  Te  Te140  1  0.16803468  0.33032682  0.66669668  1
  Te  Te141  1  0.16605253  0.66447951  0.00344949  1
  Te  Te142  1  0.16829795  0.66237518  0.32946515  1
  Te  Te143  1  0.17205457  0.66641398  0.66455985  1
  Te  Te144  1  0.50242063  0.00107836  0.00500333  1
  Te  Te145  1  0.49995218  -0.00318538  0.33161066  1
  Te  Te146  1  0.50165816  0.00052068  0.66408671  1
  Te  Te147  1  0.49864975  0.33253717  0.00886560  1
  Te  Te148  1  0.49281121  0.33842095  0.32875860  1
  Te  Te149  1  0.49611806  0.33311286  0.66671489  1
  Te  Te150  1  0.50400006  0.66722244  0.00706778  1
  Te  Te151  1  0.49937896  0.66588385  0.33138571  1
  Te  Te152  1  0.49360022  0.66456290  0.66742375  1
  Te  Te153  1  0.83062010  -0.00032979  0.00264379  1
  Te  Te154  1  0.83419882  -0.00094699  0.33075029  1
  Te  Te155  1  0.82987934  -0.00045474  0.66476810  1
  Te  Te156  1  0.84126934  0.34157611  0.00087290  1
  Te  Te157  1  0.83588723  0.34072958  0.33328990  1
  Te  Te158  1  0.83585439  0.33952609  0.66590726  1
  Te  Te159  1  0.83358573  0.66351519  0.00281595  1
  Te  Te160  1  0.83470424  0.66581157  0.33141087  1
  Te  Te161  1  0.83203140  0.66244640  0.66636121  1
  Te  Te162  1  0.00447702  0.17000846  -0.00489444  1
  Te  Te163  1  -0.00004928  0.15986132  0.33392221  1
  Te  Te164  1  0.00319256  0.17220722  0.67157793  1
  Te  Te165  1  0.00180209  0.50089993  0.00030423  1
  Te  Te166  1  0.00230114  0.50010037  0.33638891  1
  Te  Te167  1  -0.00242645  0.49558469  0.66536703  1
  Te  Te168  1  -0.00028196  0.82769593  0.00062697  1
  Te  Te169  1  -0.00350359  0.83705937  0.32971946  1
  Te  Te170  1  0.00638136  0.83204639  0.66993928  1
  Te  Te171  1  0.32718192  0.16365256  0.00332335  1
  Te  Te172  1  0.33444507  0.17255147  0.33255369  1
  Te  Te173  1  0.33279117  0.16829107  0.66603364  1
  Te  Te174  1  0.32931569  0.49925336  -0.00627923  1
  Te  Te175  1  0.33275401  0.50047347  0.33395388  1
  Te  Te176  1  0.33563090  0.49950944  0.66543581  1
  Te  Te177  1  0.33221441  0.83988358  0.00703766  1
  Te  Te178  1  0.33604963  0.82769862  0.32733735  1
  Te  Te179  1  0.32667418  0.83001744  0.66718676  1
  Te  Te180  1  0.66787996  0.16461728  0.00174874  1
  Te  Te181  1  0.66533169  0.16986052  0.32602564  1
  Te  Te182  1  0.66323760  0.16300792  0.66694976  1
  Te  Te183  1  0.66834398  0.50135414  0.00364908  1
  Te  Te184  1  0.66676875  0.50352227  0.33076830  1
  Te  Te185  1  0.66509430  0.49969239  0.66805995  1
  Te  Te186  1  0.66737497  0.83414773  -0.00083023  1
  Te  Te187  1  0.66699494  0.82450224  0.33424713  1
  Te  Te188  1  0.66613433  0.84106933  0.66600538  1
  Te  Te189  1  -0.00165414  -0.00399488  0.16834976  1
  Te  Te190  1  0.00096515  0.00011149  0.49681633  1
  Te  Te191  1  -0.00249098  -0.00042462  0.83380199  1
  Te  Te192  1  0.00665752  0.33054786  0.16286215  1
  Te  Te193  1  0.00761844  0.33624370  0.50210052  1
  Te  Te194  1  0.00022050  0.32832918  0.83361044  1
  Te  Te195  1  0.00363284  0.67151475  0.16266602  1
  Te  Te196  1  -0.00553047  0.66229885  0.50183023  1
  Te  Te197  1  0.00514594  0.67020760  0.83838919  1
  Te  Te198  1  0.33247411  0.00125106  0.16732956  1
  Te  Te199  1  0.33143903  0.00486286  0.49862498  1
  Te  Te200  1  0.33765772  -0.00004106  0.84065154  1
  Te  Te201  1  0.33098665  0.33179235  0.16908524  1
  Te  Te202  1  0.32857174  0.32947765  0.50015170  1
  Te  Te203  1  0.33431956  0.33873136  0.82626561  1
  Te  Te204  1  0.33036868  0.66739121  0.16960976  1
  Te  Te205  1  0.33307152  0.66817317  0.49851566  1
  Te  Te206  1  0.32949245  0.66444961  0.83411378  1
  Te  Te207  1  0.66637888  -0.00043634  0.16511762  1
  Te  Te208  1  0.66620623  0.00147563  0.49835474  1
  Te  Te209  1  0.66644866  0.00220134  0.83607774  1
  Te  Te210  1  0.66394698  0.32869012  0.16618995  1
  Te  Te211  1  0.66731538  0.33936154  0.49919778  1
  Te  Te212  1  0.66657694  0.32266967  0.83467089  1
  Te  Te213  1  0.66749710  0.66714522  0.16626169  1
  Te  Te214  1  0.67171817  0.66127755  0.49938474  1
  Te  Te215  1  0.66612841  0.66783061  0.83865795  1
