# generated using pymatgen
data_AgSbTe2
_symmetry_space_group_name_H-M   'P 1'
_cell_length_a   18.33002359
_cell_length_b   18.34051482
_cell_length_c   18.33548123
_cell_angle_alpha   89.99843143
_cell_angle_beta   89.99915355
_cell_angle_gamma   90.00356424
_symmetry_Int_Tables_number   1
_chemical_formula_structural   AgSbTe2
_chemical_formula_sum   'Ag54 Sb54 Te108'
_cell_volume   6164.06000301
_cell_formula_units_Z   54
loop_
 _symmetry_equiv_pos_site_id
 _symmetry_equiv_pos_as_xyz
  1  'x, y, z'
loop_
 _atom_site_type_symbol
 _atom_site_label
 _atom_site_symmetry_multiplicity
 _atom_site_fract_x
 _atom_site_fract_y
 _atom_site_fract_z
 _atom_site_occupancy
  Ag  Ag0  1  0.16449226  -0.00897678  0.17803026  1
  Ag  Ag1  1  0.50011435  -0.00185728  0.83139982  1
  Ag  Ag2  1  -0.00096802  0.50267098  0.17836870  1
  Ag  Ag3  1  0.65735021  0.17066429  0.49800654  1
  Ag  Ag4  1  0.82739287  0.34030286  0.49808790  1
  Ag  Ag5  1  0.50606251  0.83284631  -0.00103470  1
  Ag  Ag6  1  0.83243382  0.83202241  -0.00079715  1
  Ag  Ag7  1  0.00625064  0.82636045  0.50164848  1
  Ag  Ag8  1  0.16161980  -0.00727744  0.83483651  1
  Ag  Ag9  1  0.00698414  0.33470405  0.33732126  1
  Ag  Ag10  1  0.66476487  0.33990781  0.00270079  1
  Ag  Ag11  1  0.66534513  0.82495568  0.16437182  1
  Ag  Ag12  1  0.65463503  0.49908782  0.49139540  1
  Ag  Ag13  1  0.49626631  0.33594163  0.49684064  1
  Ag  Ag14  1  0.66606080  0.16309778  0.83218856  1
  Ag  Ag15  1  0.16231601  0.67175603  0.18025576  1
  Ag  Ag16  1  0.66635254  -0.00578883  0.00529570  1
  Ag  Ag17  1  0.33278711  0.16689369  0.17996510  1
  Ag  Ag18  1  0.50461272  0.50261132  0.00656082  1
  Ag  Ag19  1  0.50179754  0.83005200  0.66515166  1
  Ag  Ag20  1  0.50081009  0.33666288  0.17967351  1
  Ag  Ag21  1  0.00483585  0.66798193  0.66018289  1
  Ag  Ag22  1  0.16315019  0.67418116  0.83125449  1
  Ag  Ag23  1  0.32830959  0.66014834  0.33755306  1
  Ag  Ag24  1  0.00232338  -0.00514485  0.00097123  1
  Ag  Ag25  1  0.49224100  0.17408349  0.33802127  1
  Ag  Ag26  1  0.16198138  0.83384054  0.00479944  1
  Ag  Ag27  1  0.16769319  0.67212026  0.49715709  1
  Ag  Ag28  1  0.49729832  0.50344749  0.65338512  1
  Ag  Ag29  1  0.49506800  0.49495160  0.33652350  1
  Ag  Ag30  1  0.83545091  0.82914533  0.66612792  1
  Ag  Ag31  1  0.66480467  0.50833914  0.17482507  1
  Ag  Ag32  1  0.16685032  -0.00701326  0.49225606  1
  Ag  Ag33  1  0.66540190  -0.00370124  0.33174341  1
  Ag  Ag34  1  0.00376544  0.51210952  0.83076958  1
  Ag  Ag35  1  0.00391938  0.16566742  0.49764489  1
  Ag  Ag36  1  0.83326577  0.66732761  0.17308267  1
  Ag  Ag37  1  0.17420383  0.16131434  0.33634533  1
  Ag  Ag38  1  0.32795614  0.66530080  0.65426397  1
  Ag  Ag39  1  0.17155522  0.50848487  0.33441468  1
  Ag  Ag40  1  0.01112689  0.00234388  0.33568781  1
  Ag  Ag41  1  0.32544196  0.82320364  0.49910950  1
  Ag  Ag42  1  0.66656613  0.67296426  0.00976480  1
  Ag  Ag43  1  0.00456650  0.83396847  0.83035457  1
  Ag  Ag44  1  0.49509697  0.00421443  0.49805086  1
  Ag  Ag45  1  0.33622039  0.34057620  0.65138756  1
  Ag  Ag46  1  0.33840335  0.50020677  0.49668773  1
  Ag  Ag47  1  0.66196546  0.66673140  0.32960105  1
  Ag  Ag48  1  0.84061040  0.66363057  0.49505475  1
  Ag  Ag49  1  0.16697297  0.83337135  0.33624278  1
  Ag  Ag50  1  0.00235768  0.15912496  0.82792119  1
  Ag  Ag51  1  0.00308116  0.50685767  0.49661500  1
  Ag  Ag52  1  0.33695442  0.17341072  0.49639281  1
  Ag  Ag53  1  0.33495999  0.33410717  0.33576462  1
  Sb  Sb54  1  -0.00524948  0.33023814  0.00413114  1
  Sb  Sb55  1  0.33203562  0.16431226  0.82746901  1
  Sb  Sb56  1  0.00469604  0.66493050  0.33887005  1
  Sb  Sb57  1  0.33368540  0.83551364  0.17283637  1
  Sb  Sb58  1  0.00628910  0.16802201  0.17411968  1
  Sb  Sb59  1  0.34023913  0.33556177  0.00620741  1
  Sb  Sb60  1  0.50220398  0.66273563  0.16803761  1
  Sb  Sb61  1  0.16486947  0.15689364  0.00510870  1
  Sb  Sb62  1  0.16623608  0.83096023  0.66140973  1
  Sb  Sb63  1  0.33363713  -0.00500436  0.65970912  1
  Sb  Sb64  1  0.66175167  0.16764415  0.17079037  1
  Sb  Sb65  1  0.83127982  0.16057210  -0.00134889  1
  Sb  Sb66  1  0.49782991  0.00288340  0.17023841  1
  Sb  Sb67  1  0.16389000  0.33341022  0.83365547  1
  Sb  Sb68  1  0.66782119  0.83755240  0.84070256  1
  Sb  Sb69  1  0.00422582  0.33926068  0.65755536  1
  Sb  Sb70  1  0.66111256  0.33583286  0.33371031  1
  Sb  Sb71  1  0.83478083  0.16126107  0.66294664  1
  Sb  Sb72  1  0.49656750  0.67041568  0.83300119  1
  Sb  Sb73  1  0.82801082  0.34168867  0.17343719  1
  Sb  Sb74  1  0.66445895  -0.00162195  0.66425719  1
  Sb  Sb75  1  0.32789341  0.83319626  0.82672190  1
  Sb  Sb76  1  0.66231554  0.33473326  0.66386188  1
  Sb  Sb77  1  0.83768174  0.83007093  0.33364441  1
  Sb  Sb78  1  0.32985878  0.50187268  0.82544981  1
  Sb  Sb79  1  0.33261147  -0.00198123  0.00024326  1
  Sb  Sb80  1  0.33665413  0.49929129  0.17667818  1
  Sb  Sb81  1  0.16656296  0.16570401  0.65607463  1
  Sb  Sb82  1  -0.00270235  0.67201760  -0.00116361  1
  Sb  Sb83  1  0.17073768  0.33527704  0.17149426  1
  Sb  Sb84  1  0.33120104  0.00320151  0.33615537  1
  Sb  Sb85  1  0.16958291  0.50888964  0.00645372  1
  Sb  Sb86  1  0.17153131  0.33514234  0.49511553  1
  Sb  Sb87  1  0.00025273  0.82913862  0.16911202  1
  Sb  Sb88  1  0.83172493  0.50503995  0.66210852  1
  Sb  Sb89  1  0.49527886  0.66486296  0.49908311  1
  Sb  Sb90  1  0.49905579  0.16654312  0.65802908  1
  Sb  Sb91  1  0.83735394  0.66924647  0.83193632  1
  Sb  Sb92  1  0.49626934  0.83322265  0.33602738  1
  Sb  Sb93  1  0.83322195  0.16726208  0.33592475  1
  Sb  Sb94  1  0.83323449  0.33380151  0.82844937  1
  Sb  Sb95  1  0.50148603  0.16479228  0.00386173  1
  Sb  Sb96  1  0.82991655  0.50616411  0.00114591  1
  Sb  Sb97  1  0.83514346  -0.00239147  0.83453412  1
  Sb  Sb98  1  0.66691317  0.49832298  0.83443942  1
  Sb  Sb99  1  0.83323091  0.50190846  0.33710464  1
  Sb  Sb100  1  0.83685882  -0.00637761  0.16680243  1
  Sb  Sb101  1  0.83598661  -0.00328471  0.49764056  1
  Sb  Sb102  1  0.50053104  0.32958291  0.83026910  1
  Sb  Sb103  1  0.66662637  0.83130018  0.49458597  1
  Sb  Sb104  1  0.00213329  -0.00738245  0.66395153  1
  Sb  Sb105  1  0.17044712  0.50454884  0.65572441  1
  Sb  Sb106  1  0.66606878  0.66715031  0.66208974  1
  Sb  Sb107  1  0.33552049  0.66806435  0.00429003  1
  Te  Te108  1  0.17136187  0.16460395  0.17232562  1
  Te  Te109  1  0.16461632  0.16272653  0.49555082  1
  Te  Te110  1  0.16295086  0.16383816  0.83422762  1
  Te  Te111  1  0.16387036  0.50478724  0.17172849  1
  Te  Te112  1  0.16375995  0.50320316  0.49388015  1
  Te  Te113  1  0.16170096  0.50156116  0.83666864  1
  Te  Te114  1  0.16714912  0.83250265  0.16755180  1
  Te  Te115  1  0.16638328  0.83363816  0.49911312  1
  Te  Te116  1  0.16428991  0.83314432  0.83286181  1
  Te  Te117  1  0.49528033  0.17101493  0.17209394  1
  Te  Te118  1  0.49954366  0.16505585  0.49814691  1
  Te  Te119  1  0.50187531  0.16065454  0.83226946  1
  Te  Te120  1  0.50293727  0.49709162  0.16776649  1
  Te  Te121  1  0.49879096  0.50092895  0.49720491  1
  Te  Te122  1  0.49912534  0.49923068  0.83680392  1
  Te  Te123  1  0.50258033  0.83486084  0.16323915  1
  Te  Te124  1  0.50018737  0.83834323  0.50220699  1
  Te  Te125  1  0.49881666  0.83770276  0.83408655  1
  Te  Te126  1  0.83449782  0.16929079  0.16629530  1
  Te  Te127  1  0.83600204  0.16955313  0.50128512  1
  Te  Te128  1  0.83324850  0.16635435  0.83083519  1
  Te  Te129  1  0.83157364  0.50739002  0.16599702  1
  Te  Te130  1  0.83864633  0.50162493  0.50218693  1
  Te  Te131  1  0.84252965  0.50019186  0.83136876  1
  Te  Te132  1  0.82953604  0.82719607  0.16340799  1
  Te  Te133  1  0.83596688  0.82873385  0.50193395  1
  Te  Te134  1  0.84032228  0.83208984  0.83473736  1
  Te  Te135  1  0.16465522  -0.00638596  -0.00512889  1
  Te  Te136  1  0.16781570  -0.00084440  0.33513940  1
  Te  Te137  1  0.16736004  -0.00027118  0.67457530  1
  Te  Te138  1  0.16641631  0.33339611  0.00270038  1
  Te  Te139  1  0.16755743  0.33067571  0.33119912  1
  Te  Te140  1  0.17597439  0.33471487  0.66802226  1
  Te  Te141  1  0.16739176  0.67358117  -0.00517425  1
  Te  Te142  1  0.16604831  0.66764351  0.33650973  1
  Te  Te143  1  0.16659856  0.66646307  0.66627808  1
  Te  Te144  1  0.50214429  -0.00296258  0.00022560  1
  Te  Te145  1  0.50404077  0.00078248  0.33617556  1
  Te  Te146  1  0.49970468  -0.00460297  0.66530723  1
  Te  Te147  1  0.50583549  0.33520741  -0.00217890  1
  Te  Te148  1  0.50039109  0.33357429  0.33679501  1
  Te  Te149  1  0.49558950  0.33817962  0.66231586  1
  Te  Te150  1  0.50345055  0.66845233  0.00007537  1
  Te  Te151  1  0.50083407  0.66376435  0.33235649  1
  Te  Te152  1  0.49693295  0.66708067  0.66776191  1
  Te  Te153  1  0.83395372  -0.00728255  0.00107278  1
  Te  Te154  1  0.82670496  -0.00111143  0.33203038  1
  Te  Te155  1  0.83281438  -0.01170247  0.66610473  1
  Te  Te156  1  0.82539074  0.33249044  0.00052869  1
  Te  Te157  1  0.84172480  0.33346110  0.34000443  1
  Te  Te158  1  0.83417150  0.33343086  0.65700568  1
  Te  Te159  1  0.82852129  0.67243473  0.00247699  1
  Te  Te160  1  0.82615597  0.66773137  0.33350751  1
  Te  Te161  1  0.83604647  0.67145569  0.66174349  1
  Te  Te162  1  -0.00152803  0.16090613  -0.00352002  1
  Te  Te163  1  0.00069856  0.16306919  0.33689231  1
  Te  Te164  1  -0.00020064  0.16901921  0.66654852  1
  Te  Te165  1  0.00003223  0.49748778  -0.00258943  1
  Te  Te166  1  0.00092075  0.49980118  0.33557907  1
  Te  Te167  1  0.00072428  0.50577382  0.66505231  1
  Te  Te168  1  0.00177574  0.83630333  0.00237168  1
  Te  Te169  1  0.00423536  0.83966206  0.33619338  1
  Te  Te170  1  -0.00103913  0.82861000  0.66444209  1
  Te  Te171  1  0.33269383  0.16837014  0.00188597  1
  Te  Te172  1  0.33358295  0.16702508  0.33725644  1
  Te  Te173  1  0.33340592  0.17288865  0.65923927  1
  Te  Te174  1  0.34188213  0.50033168  -0.00039086  1
  Te  Te175  1  0.33330097  0.49891582  0.33611658  1
  Te  Te176  1  0.33628838  0.50283946  0.66087382  1
  Te  Te177  1  0.33556202  0.83269379  0.00003520  1
  Te  Te178  1  0.32955365  0.82711809  0.33858378  1
  Te  Te179  1  0.33971183  0.82826052  0.65997321  1
  Te  Te180  1  0.66649914  0.15853704  -0.00135468  1
  Te  Te181  1  0.66427279  0.16471776  0.33775099  1
  Te  Te182  1  0.66726005  0.16676987  0.66578467  1
  Te  Te183  1  0.66419460  0.50088841  -0.00130677  1
  Te  Te184  1  0.66548152  0.50085868  0.33346566  1
  Te  Te185  1  0.65969757  0.50053002  0.66471770  1
  Te  Te186  1  0.66654794  0.83397674  0.00154911  1
  Te  Te187  1  0.66589110  0.83266077  0.32835083  1
  Te  Te188  1  0.66353026  0.83169067  0.66835449  1
  Te  Te189  1  0.00419652  0.00027475  0.16746989  1
  Te  Te190  1  0.00217479  0.00216745  0.49779057  1
  Te  Te191  1  0.00096237  -0.00250322  0.83265788  1
  Te  Te192  1  -0.00216250  0.33996778  0.17222508  1
  Te  Te193  1  0.00338488  0.33177844  0.49685444  1
  Te  Te194  1  -0.00157545  0.32757062  0.83333892  1
  Te  Te195  1  0.00053059  0.66259724  0.16591219  1
  Te  Te196  1  0.00139456  0.66744073  0.49930830  1
  Te  Te197  1  0.00265687  0.66996353  0.83229382  1
  Te  Te198  1  0.32653923  0.00425305  0.16629677  1
  Te  Te199  1  0.33235013  0.00179087  0.50037378  1
  Te  Te200  1  0.33610372  0.00119087  0.83132394  1
  Te  Te201  1  0.33926606  0.32946892  0.17242886  1
  Te  Te202  1  0.33506133  0.33474161  0.49539541  1
  Te  Te203  1  0.33265350  0.33227462  0.83261869  1
  Te  Te204  1  0.32433848  0.66713229  0.17226525  1
  Te  Te205  1  0.33216655  0.66483902  0.49792906  1
  Te  Te206  1  0.32541896  0.66648989  0.83155067  1
  Te  Te207  1  0.66679711  -0.00015067  0.16744335  1
  Te  Te208  1  0.66676771  0.00131580  0.49658070  1
  Te  Te209  1  0.66408153  0.00342018  0.83609560  1
  Te  Te210  1  0.66261347  0.33600655  0.16372953  1
  Te  Te211  1  0.66533871  0.33483164  0.49939700  1
  Te  Te212  1  0.66791075  0.32682997  0.83771971  1
  Te  Te213  1  0.66451326  0.66573986  0.16747559  1
  Te  Te214  1  0.66968412  0.66240146  0.49633296  1
  Te  Te215  1  0.66665466  0.66586375  0.83722456  1
