# generated using pymatgen
data_AgSbTe2
_symmetry_space_group_name_H-M   'P 1'
_cell_length_a   18.36439938
_cell_length_b   18.35950728
_cell_length_c   18.36229570
_cell_angle_alpha   90.00092893
_cell_angle_beta   90.00004932
_cell_angle_gamma   90.00136291
_symmetry_Int_Tables_number   1
_chemical_formula_structural   AgSbTe2
_chemical_formula_sum   'Ag54 Sb54 Te108'
_cell_volume   6191.05593147
_cell_formula_units_Z   54
loop_
 _symmetry_equiv_pos_site_id
 _symmetry_equiv_pos_as_xyz
  1  'x, y, z'
loop_
 _atom_site_type_symbol
 _atom_site_label
 _atom_site_symmetry_multiplicity
 _atom_site_fract_x
 _atom_site_fract_y
 _atom_site_fract_z
 _atom_site_occupancy
  Ag  Ag0  1  0.16345578  0.83970975  -0.01199990  1
  Ag  Ag1  1  0.32213922  0.01282798  0.66692580  1
  Ag  Ag2  1  0.16638230  0.15972941  -0.01483239  1
  Ag  Ag3  1  0.16853864  0.14963054  0.67217741  1
  Ag  Ag4  1  0.49545417  0.33445569  0.82717527  1
  Ag  Ag5  1  0.16654881  0.01113456  0.51585788  1
  Ag  Ag6  1  0.66945438  0.33644276  0.35194288  1
  Ag  Ag7  1  0.66637513  0.65417494  0.67032237  1
  Ag  Ag8  1  0.83993566  0.66069747  0.50821961  1
  Ag  Ag9  1  0.66771091  0.82088903  0.83442579  1
  Ag  Ag10  1  0.82567552  0.49703453  0.67098181  1
  Ag  Ag11  1  0.00792986  0.16614822  0.51284687  1
  Ag  Ag12  1  0.16660819  0.33166296  0.83072866  1
  Ag  Ag13  1  0.17365718  0.33392633  0.51414894  1
  Ag  Ag14  1  0.32534278  0.50036758  0.15857068  1
  Ag  Ag15  1  0.32342110  0.66245401  0.67051980  1
  Ag  Ag16  1  0.32130374  0.16961422  0.82869115  1
  Ag  Ag17  1  0.16441806  -0.00037318  0.15471680  1
  Ag  Ag18  1  0.48849628  0.17491616  0.66647025  1
  Ag  Ag19  1  0.16084804  0.49925504  0.34930531  1
  Ag  Ag20  1  0.16462359  0.01516782  0.82920618  1
  Ag  Ag21  1  0.84473607  0.17777317  0.66689770  1
  Ag  Ag22  1  0.32838010  0.34123800  -0.00199901  1
  Ag  Ag23  1  0.67527693  0.50081071  0.82757006  1
  Ag  Ag24  1  0.83628040  0.00481220  0.16012474  1
  Ag  Ag25  1  0.32196875  0.49634575  0.50803885  1
  Ag  Ag26  1  0.67884767  -0.00876114  -0.00039800  1
  Ag  Ag27  1  0.00656679  0.17263774  0.83120941  1
  Ag  Ag28  1  0.32454246  0.66148231  -0.01003789  1
  Ag  Ag29  1  0.66796366  0.66929884  -0.00925140  1
  Ag  Ag30  1  0.51125430  0.49181303  0.66697413  1
  Ag  Ag31  1  0.66002968  0.33886334  0.66802204  1
  Ag  Ag32  1  0.66558239  0.49678031  0.51276796  1
  Ag  Ag33  1  0.00451565  0.49956027  0.15551694  1
  Ag  Ag34  1  0.82687792  0.82771413  -0.00087683  1
  Ag  Ag35  1  0.16445966  0.50009604  -0.00931369  1
  Ag  Ag36  1  0.16468015  0.65321611  0.51543108  1
  Ag  Ag37  1  0.83820102  0.49736825  0.34383752  1
  Ag  Ag38  1  0.49216913  0.83198622  0.66874559  1
  Ag  Ag39  1  0.00970591  0.66182504  0.66918352  1
  Ag  Ag40  1  0.49976394  -0.00030620  0.16305765  1
  Ag  Ag41  1  0.16546970  0.51448983  0.67044399  1
  Ag  Ag42  1  0.83845379  0.50121660  -0.00774800  1
  Ag  Ag43  1  0.66707715  0.83637249  0.15442214  1
  Ag  Ag44  1  0.49784945  0.33276817  0.50918733  1
  Ag  Ag45  1  0.16782249  0.66053707  0.82948565  1
  Ag  Ag46  1  0.00470096  -0.00035622  -0.00650666  1
  Ag  Ag47  1  0.00146804  0.49538433  0.83393731  1
  Ag  Ag48  1  0.83564043  0.33765891  0.83205225  1
  Ag  Ag49  1  0.83180403  0.33864047  0.15858763  1
  Ag  Ag50  1  0.32524382  0.17948960  0.50988267  1
  Ag  Ag51  1  0.16891844  0.83377036  0.67105091  1
  Ag  Ag52  1  0.66733229  0.17910417  0.50800450  1
  Ag  Ag53  1  0.00934669  0.00983443  0.67428792  1
  Sb  Sb54  1  0.00118673  0.66566235  -0.00637986  1
  Sb  Sb55  1  0.83810565  0.00330213  0.83513087  1
  Sb  Sb56  1  0.83335274  0.66169810  0.16425513  1
  Sb  Sb57  1  0.49868747  0.66009227  0.82951878  1
  Sb  Sb58  1  0.00177264  0.49446100  0.51010003  1
  Sb  Sb59  1  0.16687945  0.66526898  0.16040578  1
  Sb  Sb60  1  0.16558216  0.17255118  0.34121979  1
  Sb  Sb61  1  0.16304768  0.33543284  0.16241407  1
  Sb  Sb62  1  0.66589157  0.33624085  -0.00803843  1
  Sb  Sb63  1  0.33238599  0.83039366  0.50596686  1
  Sb  Sb64  1  0.83685077  0.00070295  0.49960642  1
  Sb  Sb65  1  0.49556958  0.00809703  0.50318638  1
  Sb  Sb66  1  0.00141702  0.83318812  0.83294829  1
  Sb  Sb67  1  0.33056525  0.00161664  0.33867155  1
  Sb  Sb68  1  0.83233426  0.17398987  0.33822605  1
  Sb  Sb69  1  -0.00450647  0.33693993  0.33454460  1
  Sb  Sb70  1  0.66720377  0.82758028  0.50873352  1
  Sb  Sb71  1  0.66844407  0.00448078  0.32746992  1
  Sb  Sb72  1  0.50096975  0.66853029  0.16292661  1
  Sb  Sb73  1  0.50229711  0.83432224  -0.00571845  1
  Sb  Sb74  1  0.83776762  0.16913380  -0.00578195  1
  Sb  Sb75  1  0.00226876  0.83593730  0.50483005  1
  Sb  Sb76  1  -0.00278625  0.83076529  0.16098569  1
  Sb  Sb77  1  0.00426426  0.33418433  -0.00422365  1
  Sb  Sb78  1  0.66850600  0.17064532  0.82704033  1
  Sb  Sb79  1  0.83128967  0.82771420  0.32669781  1
  Sb  Sb80  1  0.33457961  0.33517203  0.33387218  1
  Sb  Sb81  1  0.33006561  0.66131835  0.33916700  1
  Sb  Sb82  1  0.49852231  0.49950967  -0.00776857  1
  Sb  Sb83  1  0.50274619  0.83546776  0.33724166  1
  Sb  Sb84  1  0.66762109  0.16360414  0.16816246  1
  Sb  Sb85  1  0.66906282  0.50260296  0.16379689  1
  Sb  Sb86  1  0.83553131  0.82925270  0.67268089  1
  Sb  Sb87  1  0.33088201  0.16969299  0.16229787  1
  Sb  Sb88  1  0.32668051  0.49332086  0.82961554  1
  Sb  Sb89  1  0.49743419  0.00396555  0.83400467  1
  Sb  Sb90  1  0.00333988  0.33160644  0.66810173  1
  Sb  Sb91  1  0.49495694  0.16653563  -0.00676749  1
  Sb  Sb92  1  0.33403042  0.33345310  0.67186810  1
  Sb  Sb93  1  0.50339004  0.33180140  0.16514469  1
  Sb  Sb94  1  0.83286233  0.33702722  0.50861811  1
  Sb  Sb95  1  0.32741834  -0.00151183  -0.00552801  1
  Sb  Sb96  1  0.33565398  0.83040314  0.16033555  1
  Sb  Sb97  1  0.49973498  0.49770783  0.34024229  1
  Sb  Sb98  1  0.66937454  0.66023636  0.33683015  1
  Sb  Sb99  1  0.49607615  0.65869111  0.50787633  1
  Sb  Sb100  1  0.00132583  0.16901710  0.16181063  1
  Sb  Sb101  1  0.33188569  0.83509651  0.83014930  1
  Sb  Sb102  1  0.00206421  0.00127985  0.33275082  1
  Sb  Sb103  1  0.16651036  0.82899408  0.33600992  1
  Sb  Sb104  1  0.83564629  0.65970622  0.82874115  1
  Sb  Sb105  1  0.00029216  0.66067890  0.34240764  1
  Sb  Sb106  1  0.50119528  0.16908458  0.34082202  1
  Sb  Sb107  1  0.66773760  0.00234670  0.67168403  1
  Te  Te108  1  0.16649492  0.16262059  0.17218290  1
  Te  Te109  1  0.16766507  0.16915103  0.50203324  1
  Te  Te110  1  0.16439139  0.16967767  0.83145914  1
  Te  Te111  1  0.16607374  0.50082973  0.15585717  1
  Te  Te112  1  0.16284988  0.49594678  0.50370686  1
  Te  Te113  1  0.16661357  0.49890548  0.83052777  1
  Te  Te114  1  0.16666654  0.83656946  0.16776404  1
  Te  Te115  1  0.16735569  0.83681485  0.50073022  1
  Te  Te116  1  0.16711190  0.82561829  0.83226909  1
  Te  Te117  1  0.49872639  0.16114847  0.16714815  1
  Te  Te118  1  0.50350514  0.17147333  0.50609017  1
  Te  Te119  1  0.49913444  0.17197361  0.82686376  1
  Te  Te120  1  0.49391766  0.49972437  0.16806075  1
  Te  Te121  1  0.50366840  0.49368816  0.50418417  1
  Te  Te122  1  0.50743344  0.49449043  0.82703315  1
  Te  Te123  1  0.50431688  0.83848901  0.16721992  1
  Te  Te124  1  0.50091294  0.83533270  0.50539698  1
  Te  Te125  1  0.50488782  0.83584118  0.82810148  1
  Te  Te126  1  0.83431310  0.16723456  0.16773112  1
  Te  Te127  1  0.83050954  0.16564421  0.50590328  1
  Te  Te128  1  0.83794111  0.17243007  0.82783084  1
  Te  Te129  1  0.83317197  0.49757807  0.15784170  1
  Te  Te130  1  0.83588207  0.50053295  0.50357539  1
  Te  Te131  1  0.83593269  0.49987070  0.83101378  1
  Te  Te132  1  0.83002369  0.83403568  0.15988686  1
  Te  Te133  1  0.83314520  0.82710192  0.49665624  1
  Te  Te134  1  0.82901651  0.83561245  0.84041090  1
  Te  Te135  1  0.16712723  -0.00058709  -0.00393149  1
  Te  Te136  1  0.16650837  -0.00087516  0.32888837  1
  Te  Te137  1  0.16654182  -0.00475260  0.66926443  1
  Te  Te138  1  0.16947360  0.33836862  -0.00030650  1
  Te  Te139  1  0.16702227  0.34148254  0.32932122  1
  Te  Te140  1  0.16742540  0.33443263  0.67021132  1
  Te  Te141  1  0.16664961  0.66268299  -0.00428806  1
  Te  Te142  1  0.16616778  0.66005930  0.33801818  1
  Te  Te143  1  0.16670406  0.67256034  0.66828080  1
  Te  Te144  1  0.49722086  0.00018328  0.00397060  1
  Te  Te145  1  0.49980147  0.00075812  0.32441189  1
  Te  Te146  1  0.49822218  -0.00471008  0.66663023  1
  Te  Te147  1  0.49321298  0.33175460  -0.00354598  1
  Te  Te148  1  0.50955680  0.33324522  0.33331341  1
  Te  Te149  1  0.49790134  0.33435422  0.66654149  1
  Te  Te150  1  0.50203231  0.66761120  -0.00144263  1
  Te  Te151  1  0.49978935  0.66804858  0.33378829  1
  Te  Te152  1  0.50818227  0.67158167  0.66578575  1
  Te  Te153  1  0.83524823  0.00444716  0.00227462  1
  Te  Te154  1  0.83388165  -0.00055593  0.32576566  1
  Te  Te155  1  0.83839265  -0.00129122  0.66475884  1
  Te  Te156  1  0.83286969  0.33739718  -0.00411542  1
  Te  Te157  1  0.82952541  0.33881201  0.33046080  1
  Te  Te158  1  0.83059846  0.33580657  0.66980403  1
  Te  Te159  1  0.83054879  0.66639852  -0.00142301  1
  Te  Te160  1  0.83323223  0.65898126  0.34095877  1
  Te  Te161  1  0.82509259  0.66568080  0.66496476  1
  Te  Te162  1  0.00527716  0.16175607  -0.00376107  1
  Te  Te163  1  -0.00156085  0.16713122  0.33716304  1
  Te  Te164  1  0.00194150  0.16831755  0.66923166  1
  Te  Te165  1  -0.00113606  0.50077092  -0.00366932  1
  Te  Te166  1  -0.00084851  0.50071044  0.32561024  1
  Te  Te167  1  0.00552283  0.50104680  0.67166960  1
  Te  Te168  1  0.00278853  0.83663119  -0.00020115  1
  Te  Te169  1  -0.00140376  0.83126433  0.33152741  1
  Te  Te170  1  0.00357007  0.83210763  0.66661444  1
  Te  Te171  1  0.32693152  0.16792110  -0.00367094  1
  Te  Te172  1  0.33371698  0.16687945  0.34164909  1
  Te  Te173  1  0.33035509  0.16924690  0.66573687  1
  Te  Te174  1  0.33390974  0.50244222  -0.00170511  1
  Te  Te175  1  0.32936651  0.50009534  0.33471062  1
  Te  Te176  1  0.32581015  0.50266743  0.66657205  1
  Te  Te177  1  0.32710969  0.82626200  -0.00175994  1
  Te  Te178  1  0.33521069  0.83198370  0.33133990  1
  Te  Te179  1  0.33252189  0.82468505  0.66594599  1
  Te  Te180  1  0.66509564  0.16197865  0.00067269  1
  Te  Te181  1  0.66718810  0.17342975  0.34000197  1
  Te  Te182  1  0.66688290  0.16549818  0.66409927  1
  Te  Te183  1  0.66663153  0.50441479  -0.00449087  1
  Te  Te184  1  0.67044861  0.49583213  0.33152803  1
  Te  Te185  1  0.66698665  0.49784010  0.66679784  1
  Te  Te186  1  0.66495385  0.83274585  -0.00423266  1
  Te  Te187  1  0.66683333  0.83312605  0.33059928  1
  Te  Te188  1  0.66774594  0.83421491  0.67358923  1
  Te  Te189  1  0.00013965  -0.00034797  0.16361170  1
  Te  Te190  1  0.00469339  0.00501566  0.50116494  1
  Te  Te191  1  0.00348632  -0.00132376  0.83327407  1
  Te  Te192  1  -0.00778059  0.33721935  0.16702249  1
  Te  Te193  1  0.00670967  0.32644302  0.49818141  1
  Te  Te194  1  0.00029185  0.33268481  0.83545647  1
  Te  Te195  1  -0.00035207  0.65991121  0.16883655  1
  Te  Te196  1  0.00169715  0.66679759  0.50902395  1
  Te  Te197  1  0.00408726  0.66334453  0.82814529  1
  Te  Te198  1  0.32979249  -0.00046926  0.16825403  1
  Te  Te199  1  0.32815871  -0.00123695  0.50553670  1
  Te  Te200  1  0.32928013  0.00447484  0.82780993  1
  Te  Te201  1  0.33510270  0.33757319  0.16198908  1
  Te  Te202  1  0.33478804  0.33619669  0.49379512  1
  Te  Te203  1  0.33235924  0.33017497  0.83828242  1
  Te  Te204  1  0.33452278  0.66069177  0.16589049  1
  Te  Te205  1  0.32801695  0.66016341  0.50624835  1
  Te  Te206  1  0.33214272  0.66855874  0.83204131  1
  Te  Te207  1  0.67090070  -0.00219644  0.16281758  1
  Te  Te208  1  0.66578372  -0.00227040  0.49725329  1
  Te  Te209  1  0.66613330  0.00128026  0.84004431  1
  Te  Te210  1  0.67114792  0.33287968  0.16058401  1
  Te  Te211  1  0.67169672  0.33625594  0.50746334  1
  Te  Te212  1  0.66976523  0.33691495  0.82890498  1
  Te  Te213  1  0.66661992  0.67330228  0.16612799  1
  Te  Te214  1  0.66629048  0.66052297  0.50388914  1
  Te  Te215  1  0.66486772  0.66390547  0.83305053  1
