# generated using pymatgen
data_AgSbTe2
_symmetry_space_group_name_H-M   'P 1'
_cell_length_a   18.34729260
_cell_length_b   18.34710798
_cell_length_c   18.34384003
_cell_angle_alpha   90.00371402
_cell_angle_beta   90.00002331
_cell_angle_gamma   90.00018145
_symmetry_Int_Tables_number   1
_chemical_formula_structural   AgSbTe2
_chemical_formula_sum   'Ag54 Sb54 Te108'
_cell_volume   6174.89898934
_cell_formula_units_Z   54
loop_
 _symmetry_equiv_pos_site_id
 _symmetry_equiv_pos_as_xyz
  1  'x, y, z'
loop_
 _atom_site_type_symbol
 _atom_site_label
 _atom_site_symmetry_multiplicity
 _atom_site_fract_x
 _atom_site_fract_y
 _atom_site_fract_z
 _atom_site_occupancy
  Ag  Ag0  1  0.67358786  -0.01207631  0.00358316  1
  Ag  Ag1  1  0.33001001  0.50794630  0.83831374  1
  Ag  Ag2  1  0.83242629  -0.00581004  0.49780150  1
  Ag  Ag3  1  0.16590398  0.66651719  0.16176347  1
  Ag  Ag4  1  0.82986798  0.16985268  0.66188025  1
  Ag  Ag5  1  0.66894238  0.82098028  0.49018827  1
  Ag  Ag6  1  0.66148131  0.66548778  0.00520881  1
  Ag  Ag7  1  0.66708385  0.66692956  0.33460755  1
  Ag  Ag8  1  0.66765555  0.34628084  0.00489470  1
  Ag  Ag9  1  0.00558506  0.82731087  0.84460420  1
  Ag  Ag10  1  0.32782288  -0.00603686  0.33327920  1
  Ag  Ag11  1  0.00602671  0.66861133  -0.00065367  1
  Ag  Ag12  1  0.17976247  0.67060488  0.84189172  1
  Ag  Ag13  1  0.31953914  0.82157188  0.84500877  1
  Ag  Ag14  1  0.50794175  0.82548252  0.32402530  1
  Ag  Ag15  1  -0.00850345  0.50145679  0.50171842  1
  Ag  Ag16  1  0.66838674  0.17031958  0.16733397  1
  Ag  Ag17  1  0.82663890  0.82661471  0.33288053  1
  Ag  Ag18  1  0.51139090  0.17624491  0.66614768  1
  Ag  Ag19  1  0.00240133  0.82956337  0.16237799  1
  Ag  Ag20  1  0.00449063  0.51010630  0.83276456  1
  Ag  Ag21  1  0.00165449  0.16513505  0.83206653  1
  Ag  Ag22  1  0.50249912  0.50325928  0.66403707  1
  Ag  Ag23  1  0.67050780  0.50238309  0.16672163  1
  Ag  Ag24  1  0.82636890  0.66604179  0.16899467  1
  Ag  Ag25  1  0.50607279  0.50764760  0.00171132  1
  Ag  Ag26  1  0.16673852  0.50299108  0.33033699  1
  Ag  Ag27  1  0.16518781  0.82778233  0.68015630  1
  Ag  Ag28  1  0.50539120  0.50623590  0.33363758  1
  Ag  Ag29  1  0.66729883  0.82133165  0.16819724  1
  Ag  Ag30  1  0.34305675  0.66478126  0.67905616  1
  Ag  Ag31  1  0.00047601  -0.00431073  0.32904140  1
  Ag  Ag32  1  0.33775839  0.66794534  -0.00413918  1
  Ag  Ag33  1  -0.00250386  -0.01268596  0.00013123  1
  Ag  Ag34  1  0.15847072  0.34905923  0.16392825  1
  Ag  Ag35  1  0.49481296  0.66627920  0.83644866  1
  Ag  Ag36  1  0.33358892  0.82399517  0.16230938  1
  Ag  Ag37  1  0.66122600  0.65975926  0.65168758  1
  Ag  Ag38  1  -0.00812225  0.17000288  0.50682367  1
  Ag  Ag39  1  0.83405332  0.34707334  0.16424679  1
  Ag  Ag40  1  0.50858684  0.66508521  0.50498254  1
  Ag  Ag41  1  -0.00699992  0.33432004  0.66761504  1
  Ag  Ag42  1  0.82487782  0.50443694  0.00851632  1
  Ag  Ag43  1  0.67227847  0.16680053  0.50067522  1
  Ag  Ag44  1  0.49624272  0.82602962  0.00520210  1
  Ag  Ag45  1  0.66654238  0.50668039  0.49099364  1
  Ag  Ag46  1  0.16399104  -0.01586790  0.83706936  1
  Ag  Ag47  1  0.82496720  0.66527457  0.49157383  1
  Ag  Ag48  1  0.16363695  0.83072900  -0.00240694  1
  Ag  Ag49  1  0.67076227  0.34222511  0.66802028  1
  Ag  Ag50  1  0.33974730  0.50632815  0.16788824  1
  Ag  Ag51  1  0.82831139  0.50650849  0.32864282  1
  Ag  Ag52  1  0.16236315  0.15765214  0.00059848  1
  Ag  Ag53  1  0.34670008  0.50440610  0.49438257  1
  Sb  Sb54  1  -0.00673086  0.66837923  0.32776603  1
  Sb  Sb55  1  0.34217602  0.66752030  0.32769587  1
  Sb  Sb56  1  -0.00138973  0.33800164  -0.00244153  1
  Sb  Sb57  1  0.16583126  0.66492871  0.49891328  1
  Sb  Sb58  1  0.66572391  0.50372885  0.83609186  1
  Sb  Sb59  1  0.83505349  0.17041413  -0.00114213  1
  Sb  Sb60  1  0.16479126  0.33641560  0.49754022  1
  Sb  Sb61  1  0.50438916  0.34375047  0.50116842  1
  Sb  Sb62  1  0.33840064  0.82588074  0.49747823  1
  Sb  Sb63  1  0.33062976  -0.01071322  0.00289024  1
  Sb  Sb64  1  0.49597066  -0.00719789  0.83476445  1
  Sb  Sb65  1  -0.00437748  0.83066181  0.49730319  1
  Sb  Sb66  1  -0.00342939  0.16276167  0.16511445  1
  Sb  Sb67  1  0.66707646  -0.00172704  0.66792063  1
  Sb  Sb68  1  0.83378675  0.33554221  0.83544278  1
  Sb  Sb69  1  0.66997680  0.16631798  0.83335633  1
  Sb  Sb70  1  0.50366493  0.66608518  0.16292987  1
  Sb  Sb71  1  0.83164946  -0.00631492  0.17007760  1
  Sb  Sb72  1  0.50550524  -0.00653845  0.49968033  1
  Sb  Sb73  1  0.83319923  0.66514670  0.83663680  1
  Sb  Sb74  1  0.66754304  0.83019876  0.83743817  1
  Sb  Sb75  1  0.16083667  -0.00097765  0.50212959  1
  Sb  Sb76  1  0.49948207  0.82480615  0.66856608  1
  Sb  Sb77  1  0.16669271  0.50907988  0.00370987  1
  Sb  Sb78  1  0.50493655  0.33967538  0.16538891  1
  Sb  Sb79  1  -0.00002264  0.00162970  0.66997190  1
  Sb  Sb80  1  0.16652737  0.82734534  0.32852631  1
  Sb  Sb81  1  -0.00160104  0.33546105  0.33536204  1
  Sb  Sb82  1  0.33587757  0.34274917  0.66696690  1
  Sb  Sb83  1  0.83036958  0.49939121  0.66569257  1
  Sb  Sb84  1  0.16641110  -0.00617143  0.16218867  1
  Sb  Sb85  1  0.33490409  0.34402133  0.00207172  1
  Sb  Sb86  1  0.50133812  0.16692681  -0.00328731  1
  Sb  Sb87  1  0.16463987  0.16902168  0.32830194  1
  Sb  Sb88  1  0.83485426  0.82521475  0.00608958  1
  Sb  Sb89  1  0.50363809  0.16427281  0.33677725  1
  Sb  Sb90  1  0.83494300  0.83210788  0.66108637  1
  Sb  Sb91  1  0.83186644  0.16471856  0.33578710  1
  Sb  Sb92  1  -0.00160053  0.66337403  0.67064727  1
  Sb  Sb93  1  0.66848826  0.34319262  0.33234096  1
  Sb  Sb94  1  0.33216235  0.33796127  0.33086660  1
  Sb  Sb95  1  0.16230041  0.16416724  0.67129357  1
  Sb  Sb96  1  0.33580103  0.16730266  0.16441716  1
  Sb  Sb97  1  0.16890699  0.50474391  0.66456753  1
  Sb  Sb98  1  0.32932455  0.16400263  0.83390268  1
  Sb  Sb99  1  0.16413502  0.33923579  0.83761463  1
  Sb  Sb100  1  0.50107604  0.34266098  0.83280668  1
  Sb  Sb101  1  0.50163079  -0.00442863  0.16658983  1
  Sb  Sb102  1  0.33308086  -0.00876163  0.66465902  1
  Sb  Sb103  1  0.83864939  -0.00007033  0.83184246  1
  Sb  Sb104  1  0.83196576  0.33797070  0.49664309  1
  Sb  Sb105  1  0.33585037  0.16912724  0.50121489  1
  Sb  Sb106  1  -0.00365807  0.50742530  0.16629082  1
  Sb  Sb107  1  0.66922532  -0.00830330  0.33058895  1
  Te  Te108  1  0.16722304  0.16463535  0.16061857  1
  Te  Te109  1  0.16402808  0.16736788  0.49853966  1
  Te  Te110  1  0.16293098  0.17173904  0.83846929  1
  Te  Te111  1  0.16285299  0.50403659  0.16912908  1
  Te  Te112  1  0.16059690  0.49837304  0.49458412  1
  Te  Te113  1  0.16674376  0.50688260  0.83193364  1
  Te  Te114  1  0.16701975  0.82834951  0.16278255  1
  Te  Te115  1  0.16797029  0.83452313  0.50038293  1
  Te  Te116  1  0.16268614  0.82792655  0.83653156  1
  Te  Te117  1  0.50675388  0.16837941  0.16704500  1
  Te  Te118  1  0.50141448  0.16479603  0.50545433  1
  Te  Te119  1  0.49798567  0.16505203  0.82609616  1
  Te  Te120  1  0.49883405  0.49983663  0.16624703  1
  Te  Te121  1  0.50563571  0.50392346  0.50019136  1
  Te  Te122  1  0.49737796  0.50528203  0.83424906  1
  Te  Te123  1  0.50067809  0.83361100  0.16511929  1
  Te  Te124  1  0.50691696  0.82782191  0.49924156  1
  Te  Te125  1  0.49941010  0.82839947  0.83792836  1
  Te  Te126  1  0.82750557  0.16699679  0.16577906  1
  Te  Te127  1  0.83443134  0.17176693  0.50056696  1
  Te  Te128  1  0.83999836  0.16640683  0.82775302  1
  Te  Te129  1  0.83305992  0.50389593  0.16680434  1
  Te  Te130  1  0.82921069  0.50354963  0.49970325  1
  Te  Te131  1  0.84364336  0.49973779  0.83633273  1
  Te  Te132  1  0.83014903  0.82923874  0.17216568  1
  Te  Te133  1  0.82922659  0.83087695  0.49601155  1
  Te  Te134  1  0.84109298  0.83456494  0.83049353  1
  Te  Te135  1  0.16475856  -0.00364799  -0.00253672  1
  Te  Te136  1  0.16367235  0.00054012  0.33409659  1
  Te  Te137  1  0.16794179  -0.00468892  0.67235929  1
  Te  Te138  1  0.16790831  0.33065911  0.00552077  1
  Te  Te139  1  0.16581788  0.33800847  0.32574487  1
  Te  Te140  1  0.16336220  0.33286421  0.66734324  1
  Te  Te141  1  0.16552653  0.66818682  0.00074114  1
  Te  Te142  1  0.16492189  0.66206795  0.33049767  1
  Te  Te143  1  0.16540566  0.67017944  0.66763195  1
  Te  Te144  1  0.50399851  -0.00263454  -0.00128433  1
  Te  Te145  1  0.49660517  -0.00509496  0.33454190  1
  Te  Te146  1  0.49818354  0.00576316  0.66733087  1
  Te  Te147  1  0.50627382  0.33540983  -0.00105936  1
  Te  Te148  1  0.49946361  0.33941410  0.33339124  1
  Te  Te149  1  0.50344255  0.33602757  0.66705232  1
  Te  Te150  1  0.49915379  0.66708399  -0.00038149  1
  Te  Te151  1  0.50334690  0.66683413  0.33814986  1
  Te  Te152  1  0.50167201  0.66518204  0.66607094  1
  Te  Te153  1  0.83491941  0.00127749  0.00027372  1
  Te  Te154  1  0.83723851  -0.00221877  0.33757164  1
  Te  Te155  1  0.83297553  0.00441067  0.66071554  1
  Te  Te156  1  0.82903851  0.33766889  0.00348632  1
  Te  Te157  1  0.83358657  0.34008045  0.32528831  1
  Te  Te158  1  0.83219794  0.33020628  0.66689602  1
  Te  Te159  1  0.83147549  0.66230951  0.00235870  1
  Te  Te160  1  0.83284430  0.66675010  0.33226013  1
  Te  Te161  1  0.82610228  0.66683588  0.66355387  1
  Te  Te162  1  0.00285486  0.16912739  -0.00226865  1
  Te  Te163  1  -0.00004681  0.16178018  0.33689506  1
  Te  Te164  1  -0.00071088  0.16874069  0.66628366  1
  Te  Te165  1  -0.00071249  0.50442583  -0.00402016  1
  Te  Te166  1  -0.00103542  0.49930424  0.33797870  1
  Te  Te167  1  -0.00037224  0.49546526  0.66641953  1
  Te  Te168  1  -0.00273616  0.83095773  0.00254575  1
  Te  Te169  1  -0.00115231  0.83724776  0.33067955  1
  Te  Te170  1  0.00402493  0.83271343  0.66631351  1
  Te  Te171  1  0.33071139  0.16648499  -0.00069230  1
  Te  Te172  1  0.33429038  0.16167532  0.33308827  1
  Te  Te173  1  0.33503787  0.16918878  0.66679871  1
  Te  Te174  1  0.33604386  0.50599346  0.00379378  1
  Te  Te175  1  0.33357679  0.50078828  0.33058946  1
  Te  Te176  1  0.33667781  0.50480954  0.66407139  1
  Te  Te177  1  0.33521152  0.83087531  0.00214667  1
  Te  Te178  1  0.33463004  0.83520899  0.32924150  1
  Te  Te179  1  0.33111376  0.82624418  0.66549580  1
  Te  Te180  1  0.66579155  0.16935216  0.00264464  1
  Te  Te181  1  0.66540796  0.16705436  0.33235176  1
  Te  Te182  1  0.66892531  0.16357265  0.66719685  1
  Te  Te183  1  0.66567311  0.50235345  -0.00139183  1
  Te  Te184  1  0.66637537  0.50314982  0.33252764  1
  Te  Te185  1  0.66378459  0.49996375  0.67002777  1
  Te  Te186  1  0.66730443  0.83079654  0.00454356  1
  Te  Te187  1  0.66623683  0.83180996  0.33076024  1
  Te  Te188  1  0.66693159  0.82878469  0.66526754  1
  Te  Te189  1  -0.00077734  -0.00388061  0.16476373  1
  Te  Te190  1  -0.00617412  0.00010758  0.49899872  1
  Te  Te191  1  0.00377515  0.00070517  0.83714306  1
  Te  Te192  1  -0.00162337  0.33106153  0.16618189  1
  Te  Te193  1  -0.00115353  0.33394582  0.50402543  1
  Te  Te194  1  0.00005396  0.32966469  0.82904723  1
  Te  Te195  1  0.00065361  0.67103077  0.16254648  1
  Te  Te196  1  -0.00269662  0.66046114  0.50155935  1
  Te  Te197  1  -0.00184967  0.66744986  0.83605505  1
  Te  Te198  1  0.33375992  -0.00025082  0.17276810  1
  Te  Te199  1  0.33377129  0.00041389  0.49389755  1
  Te  Te200  1  0.32530702  -0.00595831  0.83185352  1
  Te  Te201  1  0.32690357  0.33561557  0.16615652  1
  Te  Te202  1  0.33271152  0.34272803  0.49946644  1
  Te  Te203  1  0.33260799  0.34121633  0.83398082  1
  Te  Te204  1  0.33056109  0.66558350  0.16511246  1
  Te  Te205  1  0.33213337  0.66033153  0.49997571  1
  Te  Te206  1  0.33596379  0.66440845  0.83416241  1
  Te  Te207  1  0.66681978  0.00483412  0.16269536  1
  Te  Te208  1  0.67240012  0.00715338  0.50067794  1
  Te  Te209  1  0.66547157  -0.00131129  0.84250174  1
  Te  Te210  1  0.66985938  0.33904710  0.16527329  1
  Te  Te211  1  0.66703919  0.32619985  0.50494236  1
  Te  Te212  1  0.66669640  0.33241834  0.82978544  1
  Te  Te213  1  0.66605344  0.66340838  0.16608095  1
  Te  Te214  1  0.66776664  0.66465606  0.49648805  1
  Te  Te215  1  0.66545853  0.66825674  0.83979579  1
