# generated using pymatgen
data_AgSbTe2
_symmetry_space_group_name_H-M   'P 1'
_cell_length_a   18.35571142
_cell_length_b   18.35387718
_cell_length_c   18.35210084
_cell_angle_alpha   90.00108286
_cell_angle_beta   90.00271745
_cell_angle_gamma   89.99985927
_symmetry_Int_Tables_number   1
_chemical_formula_structural   AgSbTe2
_chemical_formula_sum   'Ag54 Sb54 Te108'
_cell_volume   6182.79473971
_cell_formula_units_Z   54
loop_
 _symmetry_equiv_pos_site_id
 _symmetry_equiv_pos_as_xyz
  1  'x, y, z'
loop_
 _atom_site_type_symbol
 _atom_site_label
 _atom_site_symmetry_multiplicity
 _atom_site_fract_x
 _atom_site_fract_y
 _atom_site_fract_z
 _atom_site_occupancy
  Ag  Ag0  1  0.83233149  0.17212527  0.32493096  1
  Ag  Ag1  1  0.15282195  0.82837045  -0.00334717  1
  Ag  Ag2  1  0.83118139  0.66502876  0.83423812  1
  Ag  Ag3  1  0.67105132  0.82151318  0.16536645  1
  Ag  Ag4  1  0.66556971  0.34272680  -0.00317753  1
  Ag  Ag5  1  -0.01278861  0.67041679  0.67393232  1
  Ag  Ag6  1  0.16614091  0.82962124  0.67120371  1
  Ag  Ag7  1  0.33607437  -0.00963999  0.66520658  1
  Ag  Ag8  1  -0.01207564  0.16671643  0.83470185  1
  Ag  Ag9  1  -0.01275992  0.50617735  0.83338979  1
  Ag  Ag10  1  0.82702316  0.16835813  -0.00124637  1
  Ag  Ag11  1  0.34778905  0.34153665  0.00003963  1
  Ag  Ag12  1  0.50850331  0.17783878  -0.00500272  1
  Ag  Ag13  1  0.49944312  0.82363116  0.66829199  1
  Ag  Ag14  1  0.83025988  0.50804754  0.32929380  1
  Ag  Ag15  1  0.66568532  0.34634168  0.67760040  1
  Ag  Ag16  1  0.50122518  0.16701855  0.67584435  1
  Ag  Ag17  1  0.15438260  0.66875466  0.16374156  1
  Ag  Ag18  1  0.50985277  0.33348446  0.15641791  1
  Ag  Ag19  1  0.66764215  0.49979032  0.83710751  1
  Ag  Ag20  1  -0.00950347  0.66936042  -0.00057132  1
  Ag  Ag21  1  0.82320796  0.50889939  -0.00311024  1
  Ag  Ag22  1  0.83090497  -0.00565239  0.83523279  1
  Ag  Ag23  1  0.33691497  0.67137742  0.66769644  1
  Ag  Ag24  1  0.33572381  0.16157865  0.49716929  1
  Ag  Ag25  1  0.51034778  0.66710837  0.83164728  1
  Ag  Ag26  1  0.82736545  0.34583377  0.16277329  1
  Ag  Ag27  1  0.33405290  0.83038548  0.50550052  1
  Ag  Ag28  1  0.50854866  0.50717270  0.67524460  1
  Ag  Ag29  1  0.16152542  0.66862795  0.50098098  1
  Ag  Ag30  1  -0.00444955  -0.01042272  0.67417009  1
  Ag  Ag31  1  0.67559990  0.65656412  -0.00300921  1
  Ag  Ag32  1  0.50868639  0.49680565  -0.00429012  1
  Ag  Ag33  1  0.66628524  -0.00511091  0.33045706  1
  Ag  Ag34  1  0.50672432  0.33230900  0.50315767  1
  Ag  Ag35  1  -0.00943787  0.82791881  0.15869601  1
  Ag  Ag36  1  0.83475112  0.66293386  0.51789030  1
  Ag  Ag37  1  0.83539126  0.82430195  -0.00423052  1
  Ag  Ag38  1  0.67127508  0.66351632  0.67775949  1
  Ag  Ag39  1  0.33816793  -0.00379775  0.34162369  1
  Ag  Ag40  1  0.83131966  0.66447437  0.15101102  1
  Ag  Ag41  1  0.66859899  0.17230529  0.83538297  1
  Ag  Ag42  1  0.83331964  0.82245740  0.67345495  1
  Ag  Ag43  1  0.66985197  0.50282802  0.15430224  1
  Ag  Ag44  1  0.33552184  0.16670725  0.16672524  1
  Ag  Ag45  1  -0.01155327  0.66821715  0.32361541  1
  Ag  Ag46  1  0.33501194  0.66605492  -0.00064283  1
  Ag  Ag47  1  0.33451347  0.66884034  0.33449364  1
  Ag  Ag48  1  0.82669627  0.50735850  0.67982550  1
  Ag  Ag49  1  0.50949613  -0.00226877  0.83131462  1
  Ag  Ag50  1  0.16482927  0.33359929  0.83461391  1
  Ag  Ag51  1  -0.00647557  -0.01238767  -0.00796377  1
  Ag  Ag52  1  0.82624482  0.34346527  0.49770435  1
  Ag  Ag53  1  0.67446059  0.66607970  0.32607221  1
  Sb  Sb54  1  -0.00332411  -0.00477806  0.33345425  1
  Sb  Sb55  1  0.16721396  0.82835971  0.33351226  1
  Sb  Sb56  1  0.33660136  0.50466568  0.50146689  1
  Sb  Sb57  1  0.00000788  0.16614686  0.50542903  1
  Sb  Sb58  1  0.49916634  0.00252363  0.50624880  1
  Sb  Sb59  1  0.33540770  0.83236576  0.16934150  1
  Sb  Sb60  1  -0.00406019  0.83158503  0.83708992  1
  Sb  Sb61  1  -0.00743189  0.33738469  -0.00269105  1
  Sb  Sb62  1  0.16636679  0.16483166  -0.00235902  1
  Sb  Sb63  1  0.16798850  0.33784992  0.50734076  1
  Sb  Sb64  1  0.16278355  0.66591315  0.83406562  1
  Sb  Sb65  1  0.83143915  0.33777222  0.83741064  1
  Sb  Sb66  1  0.67148702  -0.00286441  -0.00107009  1
  Sb  Sb67  1  0.50285191  0.66319306  0.50836143  1
  Sb  Sb68  1  0.34149658  0.33406945  0.67149883  1
  Sb  Sb69  1  0.16564711  0.16599563  0.33287021  1
  Sb  Sb70  1  0.16449393  0.50767910  0.66964198  1
  Sb  Sb71  1  0.50391434  0.16673456  0.33163363  1
  Sb  Sb72  1  0.33878923  0.16757155  0.83494151  1
  Sb  Sb73  1  0.16015737  0.50540520  0.33239748  1
  Sb  Sb74  1  0.66832218  0.33738264  0.33015561  1
  Sb  Sb75  1  0.33544118  0.83118092  0.82632531  1
  Sb  Sb76  1  0.33178324  -0.00261745  -0.00399895  1
  Sb  Sb77  1  0.16753420  -0.00666691  0.16492639  1
  Sb  Sb78  1  0.66606870  0.16913219  0.16261123  1
  Sb  Sb79  1  0.66558526  -0.00405083  0.66843552  1
  Sb  Sb80  1  0.50471257  0.82906179  -0.00464173  1
  Sb  Sb81  1  0.16755941  0.33880986  0.15924738  1
  Sb  Sb82  1  -0.00696441  0.50540792  0.50541217  1
  Sb  Sb83  1  0.50082978  0.00353702  0.16092145  1
  Sb  Sb84  1  0.66906023  0.50039015  0.50558915  1
  Sb  Sb85  1  0.50695919  0.50280492  0.33284786  1
  Sb  Sb86  1  0.33564621  0.33477465  0.32921249  1
  Sb  Sb87  1  0.50188047  0.33514766  0.83568478  1
  Sb  Sb88  1  0.16103777  0.00079167  0.83276400  1
  Sb  Sb89  1  0.16390682  0.50603643  -0.00203775  1
  Sb  Sb90  1  0.66948136  0.82678990  0.83592652  1
  Sb  Sb91  1  0.83173322  -0.00458914  0.16093948  1
  Sb  Sb92  1  0.49958810  0.83214473  0.33818640  1
  Sb  Sb93  1  -0.00891129  0.33734503  0.67054267  1
  Sb  Sb94  1  0.33765177  0.50179211  0.83439957  1
  Sb  Sb95  1  0.66379148  0.16851499  0.50291950  1
  Sb  Sb96  1  0.83204653  -0.00289652  0.50419809  1
  Sb  Sb97  1  0.17146363  0.16240747  0.66872078  1
  Sb  Sb98  1  0.83203998  0.82604697  0.33043820  1
  Sb  Sb99  1  -0.00052726  0.16193097  0.16165536  1
  Sb  Sb100  1  0.33983155  0.49968218  0.16427920  1
  Sb  Sb101  1  0.82881674  0.16852327  0.67160285  1
  Sb  Sb102  1  -0.00669789  0.34145974  0.33228319  1
  Sb  Sb103  1  0.66627945  0.82929461  0.49989211  1
  Sb  Sb104  1  -0.01029770  0.50821298  0.16008041  1
  Sb  Sb105  1  0.50677464  0.66371923  0.15903191  1
  Sb  Sb106  1  0.00117910  0.82799163  0.50178465  1
  Sb  Sb107  1  0.17002597  -0.00768257  0.50219024  1
  Te  Te108  1  0.17219512  0.16830049  0.16679229  1
  Te  Te109  1  0.17361244  0.16936296  0.49995566  1
  Te  Te110  1  0.16437472  0.16968729  0.83303184  1
  Te  Te111  1  0.16737032  0.50806361  0.16647254  1
  Te  Te112  1  0.16533852  0.50626055  0.50042977  1
  Te  Te113  1  0.16257439  0.49495477  0.83310160  1
  Te  Te114  1  0.16894310  0.82601458  0.16263147  1
  Te  Te115  1  0.17010677  0.82676831  0.50441089  1
  Te  Te116  1  0.16767486  0.83367217  0.83401200  1
  Te  Te117  1  0.49706739  0.17097684  0.16398953  1
  Te  Te118  1  0.49633301  0.16999338  0.49892531  1
  Te  Te119  1  0.50245734  0.16700277  0.83533146  1
  Te  Te120  1  0.50642833  0.49388123  0.16415422  1
  Te  Te121  1  0.50049710  0.49181893  0.50232473  1
  Te  Te122  1  0.50299646  0.50453716  0.83432931  1
  Te  Te123  1  0.50690703  0.83509139  0.16756302  1
  Te  Te124  1  0.49576120  0.83487616  0.50750632  1
  Te  Te125  1  0.50185116  0.83374751  0.82749011  1
  Te  Te126  1  0.83550027  0.16446260  0.16569719  1
  Te  Te127  1  0.83497442  0.16691023  0.49888884  1
  Te  Te128  1  0.83020722  0.17043320  0.83543189  1
  Te  Te129  1  0.83097504  0.50268533  0.16245522  1
  Te  Te130  1  0.83366807  0.50194804  0.49474135  1
  Te  Te131  1  0.83011303  0.49828116  0.83632762  1
  Te  Te132  1  0.83187829  0.83050551  0.16371410  1
  Te  Te133  1  0.83347655  0.82807748  0.50752398  1
  Te  Te134  1  0.83244158  0.83621666  0.83460616  1
  Te  Te135  1  0.16078089  -0.00746844  0.00062421  1
  Te  Te136  1  0.17215156  -0.00013065  0.33356802  1
  Te  Te137  1  0.16977790  -0.00638708  0.66622333  1
  Te  Te138  1  0.16652376  0.33292646  -0.00259288  1
  Te  Te139  1  0.16456628  0.33599339  0.33523602  1
  Te  Te140  1  0.16675086  0.33400020  0.67062636  1
  Te  Te141  1  0.17485754  0.66990863  0.00163807  1
  Te  Te142  1  0.17366392  0.66641030  0.33507694  1
  Te  Te143  1  0.17586363  0.67021355  0.66526407  1
  Te  Te144  1  0.49867608  0.00049273  -0.00764405  1
  Te  Te145  1  0.49920738  0.00027575  0.33147435  1
  Te  Te146  1  0.49885059  0.00373135  0.67116377  1
  Te  Te147  1  0.50340334  0.33413813  -0.00097921  1
  Te  Te148  1  0.49963993  0.33459633  0.33621835  1
  Te  Te149  1  0.50449922  0.33160589  0.66563762  1
  Te  Te150  1  0.49603036  0.66509722  -0.00584841  1
  Te  Te151  1  0.49557248  0.66639975  0.33465082  1
  Te  Te152  1  0.49916439  0.66534546  0.66812069  1
  Te  Te153  1  0.83642055  0.00801355  -0.00416627  1
  Te  Te154  1  0.83152010  0.00000541  0.33554899  1
  Te  Te155  1  0.83660048  0.00063926  0.67191492  1
  Te  Te156  1  0.82906547  0.32810089  0.00386953  1
  Te  Te157  1  0.83385346  0.33160038  0.33454269  1
  Te  Te158  1  0.82609607  0.33614579  0.65957263  1
  Te  Te159  1  0.83294499  0.66743067  -0.00412448  1
  Te  Te160  1  0.83206996  0.66820070  0.33010242  1
  Te  Te161  1  0.83144858  0.66528847  0.67352658  1
  Te  Te162  1  -0.00028454  0.16873356  -0.00411414  1
  Te  Te163  1  -0.00644767  0.16401716  0.33429975  1
  Te  Te164  1  0.00280080  0.16675850  0.67301588  1
  Te  Te165  1  -0.00280048  0.50434690  -0.00646193  1
  Te  Te166  1  -0.00782399  0.50872209  0.33357958  1
  Te  Te167  1  -0.00419562  0.50567978  0.67230405  1
  Te  Te168  1  -0.00287443  0.83127705  0.00006487  1
  Te  Te169  1  0.00103161  0.82921680  0.32858723  1
  Te  Te170  1  -0.00137881  0.83155387  0.66558867  1
  Te  Te171  1  0.33396416  0.16396968  0.00356182  1
  Te  Te172  1  0.33219193  0.16560988  0.33278468  1
  Te  Te173  1  0.33898942  0.16830119  0.66347200  1
  Te  Te174  1  0.33405978  0.49984911  0.00086971  1
  Te  Te175  1  0.33302081  0.50542341  0.33294934  1
  Te  Te176  1  0.33625219  0.50360143  0.66686013  1
  Te  Te177  1  0.33535774  0.82825106  0.00185857  1
  Te  Te178  1  0.33362123  0.83476892  0.33887559  1
  Te  Te179  1  0.33547353  0.83329164  0.66523763  1
  Te  Te180  1  0.66545413  0.16247599  -0.00238690  1
  Te  Te181  1  0.67237844  0.16659530  0.33325430  1
  Te  Te182  1  0.66087163  0.16224270  0.67007371  1
  Te  Te183  1  0.66541994  0.49934571  -0.00117256  1
  Te  Te184  1  0.67152926  0.50462145  0.33031316  1
  Te  Te185  1  0.66656207  0.50186509  0.66800827  1
  Te  Te186  1  0.67162467  0.82997845  0.00542493  1
  Te  Te187  1  0.66575306  0.83102457  0.32984923  1
  Te  Te188  1  0.66777994  0.82707461  0.66646580  1
  Te  Te189  1  0.00135074  -0.00769396  0.16435542  1
  Te  Te190  1  0.00153849  -0.00050868  0.50568297  1
  Te  Te191  1  -0.00312883  0.00390939  0.83269907  1
  Te  Te192  1  -0.00264158  0.33189266  0.16713166  1
  Te  Te193  1  -0.00193823  0.33330636  0.50100843  1
  Te  Te194  1  0.00323650  0.32872527  0.83247224  1
  Te  Te195  1  -0.00327019  0.66848510  0.16262650  1
  Te  Te196  1  -0.00221677  0.66646347  0.50341064  1
  Te  Te197  1  -0.00093308  0.66473524  0.83382077  1
  Te  Te198  1  0.33314157  0.00424920  0.16892813  1
  Te  Te199  1  0.33404184  0.00034091  0.50127527  1
  Te  Te200  1  0.33390618  0.00236957  0.82658171  1
  Te  Te201  1  0.33311591  0.33054506  0.16084571  1
  Te  Te202  1  0.33426813  0.33062862  0.50037611  1
  Te  Te203  1  0.32810719  0.33377693  0.83959992  1
  Te  Te204  1  0.33868510  0.66698570  0.16810765  1
  Te  Te205  1  0.33659845  0.66872104  0.50081942  1
  Te  Te206  1  0.33288747  0.66549964  0.83318541  1
  Te  Te207  1  0.66543972  -0.00029193  0.17233097  1
  Te  Te208  1  0.66671007  -0.00051236  0.48992878  1
  Te  Te209  1  0.66911882  0.00602132  0.83295175  1
  Te  Te210  1  0.66875098  0.33425284  0.16377356  1
  Te  Te211  1  0.66804099  0.33187757  0.49938932  1
  Te  Te212  1  0.66653356  0.33389347  0.83515083  1
  Te  Te213  1  0.66702197  0.66372987  0.16262178  1
  Te  Te214  1  0.67186542  0.66701386  0.49363049  1
  Te  Te215  1  0.66781499  0.66636952  0.83670734  1
