# generated using pymatgen
data_AgSbTe2
_symmetry_space_group_name_H-M   'P 1'
_cell_length_a   18.31836882
_cell_length_b   18.32507891
_cell_length_c   18.32325363
_cell_angle_alpha   89.99877126
_cell_angle_beta   90.00280884
_cell_angle_gamma   90.00236944
_symmetry_Int_Tables_number   1
_chemical_formula_structural   AgSbTe2
_chemical_formula_sum   'Ag54 Sb54 Te108'
_cell_volume   6150.85153177
_cell_formula_units_Z   54
loop_
 _symmetry_equiv_pos_site_id
 _symmetry_equiv_pos_as_xyz
  1  'x, y, z'
loop_
 _atom_site_type_symbol
 _atom_site_label
 _atom_site_symmetry_multiplicity
 _atom_site_fract_x
 _atom_site_fract_y
 _atom_site_fract_z
 _atom_site_occupancy
  Ag  Ag0  1  0.83114357  0.66862271  0.49585645  1
  Ag  Ag1  1  0.17171077  0.32497166  0.17385637  1
  Ag  Ag2  1  0.17170972  0.00886782  0.16737196  1
  Ag  Ag3  1  0.17683509  0.16796272  0.33153981  1
  Ag  Ag4  1  0.66254372  0.65896678  0.00110301  1
  Ag  Ag5  1  0.49965916  0.83633737  0.66774015  1
  Ag  Ag6  1  0.66248180  0.00788113  0.33742359  1
  Ag  Ag7  1  0.17378641  0.83941705  0.33442218  1
  Ag  Ag8  1  0.50367779  0.50302161  -0.00128009  1
  Ag  Ag9  1  0.32993043  0.17059737  0.17533040  1
  Ag  Ag10  1  0.17017214  0.67281653  0.83765132  1
  Ag  Ag11  1  0.33206732  0.17713216  0.49331382  1
  Ag  Ag12  1  0.33469447  0.83650723  0.83141130  1
  Ag  Ag13  1  0.33249358  0.00604353  0.33040474  1
  Ag  Ag14  1  0.49814444  0.17164160  0.66709452  1
  Ag  Ag15  1  0.82857100  0.16637478  0.33198489  1
  Ag  Ag16  1  0.66544554  0.33946426  0.00154142  1
  Ag  Ag17  1  0.82217158  -0.00118931  0.83293544  1
  Ag  Ag18  1  0.82849861  0.33619059  0.17083849  1
  Ag  Ag19  1  0.33367644  0.49554770  0.17583312  1
  Ag  Ag20  1  0.50388767  0.49191960  0.66136325  1
  Ag  Ag21  1  0.82193194  0.49946309  0.66782531  1
  Ag  Ag22  1  0.83478640  0.66210550  0.16675915  1
  Ag  Ag23  1  0.17661311  0.16635151  0.66440378  1
  Ag  Ag24  1  0.49473640  0.33721644  0.50135433  1
  Ag  Ag25  1  0.33719021  0.67120923  0.00609808  1
  Ag  Ag26  1  0.33273329  -0.00433425  0.00211797  1
  Ag  Ag27  1  0.66271012  0.16977345  0.17029888  1
  Ag  Ag28  1  0.34191899  0.48834814  0.49325512  1
  Ag  Ag29  1  -0.00253935  0.83170364  0.50007372  1
  Ag  Ag30  1  0.33356612  0.33031380  0.34035009  1
  Ag  Ag31  1  0.66544773  0.16735659  0.83285048  1
  Ag  Ag32  1  -0.00009116  0.67204460  0.66391570  1
  Ag  Ag33  1  0.17217846  0.16437104  0.01109805  1
  Ag  Ag34  1  0.34395951  0.33109387  0.65539194  1
  Ag  Ag35  1  0.17980196  0.33142615  0.49089921  1
  Ag  Ag36  1  0.33610376  0.83275089  0.49922535  1
  Ag  Ag37  1  0.66480931  0.49566603  0.83087665  1
  Ag  Ag38  1  0.49950280  -0.00210250  0.83073622  1
  Ag  Ag39  1  0.83311121  0.83503344  0.33579896  1
  Ag  Ag40  1  0.33022327  0.66111152  0.33002191  1
  Ag  Ag41  1  0.66308899  0.32915774  0.33367372  1
  Ag  Ag42  1  0.17396142  -0.00121867  0.83552246  1
  Ag  Ag43  1  0.82205446  0.50680604  -0.00079429  1
  Ag  Ag44  1  0.66382184  0.00442696  0.66680580  1
  Ag  Ag45  1  0.49682513  0.49646903  0.34159781  1
  Ag  Ag46  1  0.66467240  0.82986621  0.50055111  1
  Ag  Ag47  1  0.66181361  0.33675052  0.66197651  1
  Ag  Ag48  1  -0.00311111  -0.00304694  0.66706627  1
  Ag  Ag49  1  0.01197517  0.33085382  0.33376195  1
  Ag  Ag50  1  0.82526282  0.82722579  0.00434343  1
  Ag  Ag51  1  0.49928316  0.82931115  -0.00643933  1
  Ag  Ag52  1  0.66072712  0.49884471  0.50485216  1
  Ag  Ag53  1  0.17217561  0.66690602  0.16681585  1
  Sb  Sb54  1  0.49827557  0.16807559  -0.00499578  1
  Sb  Sb55  1  0.16940460  0.32918046  0.83475432  1
  Sb  Sb56  1  0.33642651  0.16072541  0.83206234  1
  Sb  Sb57  1  -0.00385311  0.33330802  0.00711624  1
  Sb  Sb58  1  0.82795733  0.33070735  0.83776388  1
  Sb  Sb59  1  0.66184764  0.83419390  0.83031370  1
  Sb  Sb60  1  0.83287864  0.16622772  0.00464486  1
  Sb  Sb61  1  0.82869370  0.16924038  0.66171052  1
  Sb  Sb62  1  0.83611292  0.00172625  0.16544741  1
  Sb  Sb63  1  0.16747963  0.66456307  0.49715373  1
  Sb  Sb64  1  0.00294174  0.66494020  0.33608408  1
  Sb  Sb65  1  0.49740919  0.17056748  0.33870050  1
  Sb  Sb66  1  0.66132320  0.00042077  -0.00112400  1
  Sb  Sb67  1  0.82872590  0.33809296  0.49376883  1
  Sb  Sb68  1  0.00467001  0.16744986  0.17032206  1
  Sb  Sb69  1  -0.00107651  0.33192728  0.65859971  1
  Sb  Sb70  1  0.82572394  0.49954667  0.33214821  1
  Sb  Sb71  1  0.00113249  0.66786314  -0.00246870  1
  Sb  Sb72  1  0.17116267  0.49785894  0.00161458  1
  Sb  Sb73  1  0.66060428  0.16976797  0.49988063  1
  Sb  Sb74  1  0.66484486  0.66506907  0.33014682  1
  Sb  Sb75  1  0.00675709  0.16334307  0.49849776  1
  Sb  Sb76  1  0.33704044  0.00371323  0.66575584  1
  Sb  Sb77  1  -0.00259539  0.16429068  0.83090510  1
  Sb  Sb78  1  0.50201466  0.66080980  0.50028986  1
  Sb  Sb79  1  0.82896955  0.83091186  0.66405034  1
  Sb  Sb80  1  0.00385017  0.83434424  0.82767681  1
  Sb  Sb81  1  0.34039001  0.50469718  0.83250672  1
  Sb  Sb82  1  0.33214124  0.83380100  0.16840395  1
  Sb  Sb83  1  0.17570715  0.49511869  0.33304900  1
  Sb  Sb84  1  0.33885998  0.33384293  0.00331219  1
  Sb  Sb85  1  0.49653449  0.67076466  0.83530112  1
  Sb  Sb86  1  0.33121654  0.66452088  0.66405865  1
  Sb  Sb87  1  0.17068091  0.49593870  0.66623358  1
  Sb  Sb88  1  0.49808850  0.66490875  0.16453448  1
  Sb  Sb89  1  0.66769528  0.83687981  0.17007263  1
  Sb  Sb90  1  0.83448322  0.67003634  0.83454746  1
  Sb  Sb91  1  0.17065360  0.83754046  0.66254351  1
  Sb  Sb92  1  0.83123315  -0.00419237  0.50161022  1
  Sb  Sb93  1  0.16996124  0.83583098  0.00357398  1
  Sb  Sb94  1  -0.00164178  0.50271676  0.49984286  1
  Sb  Sb95  1  0.50195132  0.33074377  0.82633424  1
  Sb  Sb96  1  -0.00616498  0.50211445  0.83116588  1
  Sb  Sb97  1  0.49956008  0.33398677  0.17347409  1
  Sb  Sb98  1  0.00095411  0.83300830  0.17296280  1
  Sb  Sb99  1  0.17075792  0.00355344  0.49928696  1
  Sb  Sb100  1  0.66275950  0.49534147  0.16547784  1
  Sb  Sb101  1  0.00287907  0.00161009  0.33812915  1
  Sb  Sb102  1  0.00524286  -0.00135449  -0.00495449  1
  Sb  Sb103  1  0.66827849  0.66282340  0.66853038  1
  Sb  Sb104  1  0.49758746  0.83063264  0.33690127  1
  Sb  Sb105  1  0.49938430  0.00252493  0.50423830  1
  Sb  Sb106  1  0.00333423  0.49910209  0.16810874  1
  Sb  Sb107  1  0.49438281  0.00198874  0.16411816  1
  Te  Te108  1  0.16898826  0.16753518  0.17007687  1
  Te  Te109  1  0.17194467  0.17004588  0.49826592  1
  Te  Te110  1  0.16565615  0.16172356  0.82856725  1
  Te  Te111  1  0.17241814  0.50448283  0.16504104  1
  Te  Te112  1  0.17157404  0.49442685  0.50172345  1
  Te  Te113  1  0.16600698  0.50462680  0.83431098  1
  Te  Te114  1  0.16541526  0.82867739  0.17219498  1
  Te  Te115  1  0.17084161  0.83241324  0.49489077  1
  Te  Te116  1  0.17110169  0.83526722  0.83315088  1
  Te  Te117  1  0.50094306  0.16711183  0.16346523  1
  Te  Te118  1  0.49315438  0.17122152  0.50728703  1
  Te  Te119  1  0.50519136  0.16075292  0.82800593  1
  Te  Te120  1  0.49330000  0.49951534  0.16226998  1
  Te  Te121  1  0.50013748  0.49888339  0.50192790  1
  Te  Te122  1  0.50618992  0.50099639  0.83384947  1
  Te  Te123  1  0.50118315  0.83349133  0.15599552  1
  Te  Te124  1  0.50158580  0.83258046  0.50313641  1
  Te  Te125  1  0.49616043  0.83658658  0.83312026  1
  Te  Te126  1  0.83096079  0.16943604  0.17119814  1
  Te  Te127  1  0.83414682  0.16731302  0.49223258  1
  Te  Te128  1  0.82734366  0.16035034  0.83311069  1
  Te  Te129  1  0.83365032  0.50020801  0.16468682  1
  Te  Te130  1  0.83016531  0.50571359  0.50186446  1
  Te  Te131  1  0.82672227  0.50043676  0.83407126  1
  Te  Te132  1  0.83411054  0.83219323  0.16891006  1
  Te  Te133  1  0.82946465  0.82985777  0.49779204  1
  Te  Te134  1  0.83398249  0.83808645  0.83476250  1
  Te  Te135  1  0.17128097  0.00178453  -0.00035056  1
  Te  Te136  1  0.16797860  0.00080080  0.33216995  1
  Te  Te137  1  0.16739142  0.00425421  0.66858511  1
  Te  Te138  1  0.16598175  0.32886979  0.00519250  1
  Te  Te139  1  0.17249200  0.33175613  0.33094105  1
  Te  Te140  1  0.16524847  0.32769687  0.66653944  1
  Te  Te141  1  0.16965331  0.66710725  0.00177730  1
  Te  Te142  1  0.16934023  0.67003343  0.32968662  1
  Te  Te143  1  0.16295044  0.66608967  0.66858619  1
  Te  Te144  1  0.49333184  -0.00206869  -0.00454210  1
  Te  Te145  1  0.50148231  -0.00139992  0.33260023  1
  Te  Te146  1  0.50334559  -0.00188519  0.66942698  1
  Te  Te147  1  0.50633643  0.33699681  -0.00214531  1
  Te  Te148  1  0.49904294  0.33615174  0.33895893  1
  Te  Te149  1  0.50290753  0.33309278  0.66485384  1
  Te  Te150  1  0.49922198  0.66660447  -0.00038633  1
  Te  Te151  1  0.49282847  0.66130688  0.33175016  1
  Te  Te152  1  0.49981610  0.67052073  0.66770481  1
  Te  Te153  1  0.83445413  -0.00339891  -0.00368074  1
  Te  Te154  1  0.83196376  -0.00104695  0.33267667  1
  Te  Te155  1  0.82937957  0.00055958  0.67026626  1
  Te  Te156  1  0.82855477  0.33483010  0.00638370  1
  Te  Te157  1  0.82244715  0.33244656  0.32925634  1
  Te  Te158  1  0.82923681  0.33813617  0.66622903  1
  Te  Te159  1  0.83453429  0.66751645  0.00140824  1
  Te  Te160  1  0.83393894  0.66944053  0.33144881  1
  Te  Te161  1  0.83648426  0.66340175  0.66662649  1
  Te  Te162  1  0.00882310  0.16734374  -0.00100258  1
  Te  Te163  1  -0.00447104  0.16971151  0.33415809  1
  Te  Te164  1  0.00061999  0.16175106  0.66476845  1
  Te  Te165  1  -0.01007199  0.49950446  -0.00082931  1
  Te  Te166  1  -0.00164209  0.49212278  0.33443736  1
  Te  Te167  1  -0.00333261  0.50214118  0.66598468  1
  Te  Te168  1  -0.00978484  0.83329576  -0.00052341  1
  Te  Te169  1  -0.00388835  0.83333744  0.34025733  1
  Te  Te170  1  0.00049646  0.83451901  0.66052949  1
  Te  Te171  1  0.33092465  0.16536893  0.00097915  1
  Te  Te172  1  0.33529131  0.16624366  0.33388662  1
  Te  Te173  1  0.33526923  0.16912067  0.66628582  1
  Te  Te174  1  0.33862530  0.50365710  0.00013538  1
  Te  Te175  1  0.33591099  0.49979115  0.33425760  1
  Te  Te176  1  0.33918195  0.49639861  0.66375796  1
  Te  Te177  1  0.33398244  0.83301334  -0.00063932  1
  Te  Te178  1  0.33385391  0.83558180  0.33472944  1
  Te  Te179  1  0.33748816  0.83315728  0.66659152  1
  Te  Te180  1  0.66726222  0.16971564  -0.00128106  1
  Te  Te181  1  0.66375437  0.16630998  0.33333084  1
  Te  Te182  1  0.66442355  0.16509945  0.66738086  1
  Te  Te183  1  0.66533331  0.49908789  0.00370714  1
  Te  Te184  1  0.65904229  0.49758304  0.33578314  1
  Te  Te185  1  0.66458525  0.50096595  0.66634072  1
  Te  Te186  1  0.66545886  0.83293729  -0.00042260  1
  Te  Te187  1  0.66707652  0.83345042  0.33775619  1
  Te  Te188  1  0.66218335  0.83441488  0.66322792  1
  Te  Te189  1  0.01048425  -0.00024291  0.16586135  1
  Te  Te190  1  0.00067793  -0.00691985  0.50639979  1
  Te  Te191  1  0.00504530  -0.00048274  0.82687832  1
  Te  Te192  1  0.00031462  0.33353610  0.17436358  1
  Te  Te193  1  0.00174241  0.33393304  0.49312883  1
  Te  Te194  1  -0.00113460  0.33361515  0.83251269  1
  Te  Te195  1  -0.00142418  0.66592609  0.16704521  1
  Te  Te196  1  -0.00345538  0.66999205  0.50320321  1
  Te  Te197  1  0.00764806  0.66714627  0.82654506  1
  Te  Te198  1  0.32982715  0.00279580  0.16830414  1
  Te  Te199  1  0.33450156  -0.00726990  0.49407373  1
  Te  Te200  1  0.33407535  -0.00307394  0.83348161  1
  Te  Te201  1  0.33228503  0.33226805  0.16752307  1
  Te  Te202  1  0.33460852  0.33315490  0.50042407  1
  Te  Te203  1  0.33325208  0.33441086  0.82973364  1
  Te  Te204  1  0.33250092  0.66601937  0.16682347  1
  Te  Te205  1  0.33309457  0.67268528  0.49573838  1
  Te  Te206  1  0.32875817  0.67176457  0.83527488  1
  Te  Te207  1  0.66756493  0.00732187  0.17115903  1
  Te  Te208  1  0.66571737  -0.00209216  0.49883596  1
  Te  Te209  1  0.66387087  0.00069807  0.83218015  1
  Te  Te210  1  0.66609985  0.33044747  0.16985696  1
  Te  Te211  1  0.66430817  0.33629938  0.50065270  1
  Te  Te212  1  0.66719944  0.33254164  0.83211635  1
  Te  Te213  1  0.67266715  0.66760905  0.16189297  1
  Te  Te214  1  0.67123098  0.66612144  0.49884862  1
  Te  Te215  1  0.66800150  0.66294426  0.84067894  1
