# generated using pymatgen
data_AgSbTe2
_symmetry_space_group_name_H-M   'P 1'
_cell_length_a   18.33166035
_cell_length_b   18.33589220
_cell_length_c   18.33507253
_cell_angle_alpha   89.99957220
_cell_angle_beta   90.00064495
_cell_angle_gamma   90.00186940
_symmetry_Int_Tables_number   1
_chemical_formula_structural   AgSbTe2
_chemical_formula_sum   'Ag54 Sb54 Te108'
_cell_volume   6162.91929942
_cell_formula_units_Z   54
loop_
 _symmetry_equiv_pos_site_id
 _symmetry_equiv_pos_as_xyz
  1  'x, y, z'
loop_
 _atom_site_type_symbol
 _atom_site_label
 _atom_site_symmetry_multiplicity
 _atom_site_fract_x
 _atom_site_fract_y
 _atom_site_fract_z
 _atom_site_occupancy
  Ag  Ag0  1  0.33102698  0.83643110  0.50048991  1
  Ag  Ag1  1  0.67676130  0.00014133  0.33472275  1
  Ag  Ag2  1  0.83467564  0.33404489  0.49679769  1
  Ag  Ag3  1  0.16347651  0.33051092  0.49896672  1
  Ag  Ag4  1  0.00441534  0.67306345  0.66326286  1
  Ag  Ag5  1  -0.00044032  0.00341550  -0.00015708  1
  Ag  Ag6  1  -0.00314296  0.16795878  0.17715541  1
  Ag  Ag7  1  0.16568741  0.83064149  0.34367386  1
  Ag  Ag8  1  0.00570966  0.00139520  0.66196037  1
  Ag  Ag9  1  0.32855953  0.16481493  0.82687186  1
  Ag  Ag10  1  -0.00327493  0.67214161  -0.00351108  1
  Ag  Ag11  1  0.83292328  0.83961137  0.33315864  1
  Ag  Ag12  1  0.00518618  0.16916257  0.49656110  1
  Ag  Ag13  1  0.16310450  0.00237317  0.81946351  1
  Ag  Ag14  1  0.49787874  0.67696347  0.49568522  1
  Ag  Ag15  1  0.50947045  0.33183497  0.17669898  1
  Ag  Ag16  1  0.16537338  0.67045022  0.49972462  1
  Ag  Ag17  1  0.32608125  0.16701224  0.50073246  1
  Ag  Ag18  1  0.66479781  0.49510852  0.49216093  1
  Ag  Ag19  1  0.32192720  0.33546920  0.33507321  1
  Ag  Ag20  1  0.33155544  0.49461053  0.17153808  1
  Ag  Ag21  1  0.00325494  0.83722909  0.83063054  1
  Ag  Ag22  1  0.66855394  0.33245861  0.65249454  1
  Ag  Ag23  1  0.16383707  0.49547781  0.00482977  1
  Ag  Ag24  1  0.16404616  0.16738530  0.66327151  1
  Ag  Ag25  1  0.16622440  0.00324899  0.50253555  1
  Ag  Ag26  1  0.66312632  0.48825092  0.17576726  1
  Ag  Ag27  1  0.67114571  0.17152572  0.16886314  1
  Ag  Ag28  1  0.49362320  -0.00623885  0.49823016  1
  Ag  Ag29  1  0.33358783  0.66459664  0.33682180  1
  Ag  Ag30  1  0.16568599  0.33469731  0.17846059  1
  Ag  Ag31  1  0.16508556  0.32674650  0.82278138  1
  Ag  Ag32  1  0.83512145  0.66608323  0.49751590  1
  Ag  Ag33  1  0.66195154  0.16640009  0.83926898  1
  Ag  Ag34  1  0.00262074  0.32598333  0.33929315  1
  Ag  Ag35  1  0.66712548  0.33372500  0.33338180  1
  Ag  Ag36  1  0.66472673  0.66630267  0.33633334  1
  Ag  Ag37  1  0.66947211  0.83835322  0.83344564  1
  Ag  Ag38  1  0.83551700  0.00173629  0.17158322  1
  Ag  Ag39  1  0.49079339  0.83425664  0.65556508  1
  Ag  Ag40  1  0.83570340  0.83275347  0.00321228  1
  Ag  Ag41  1  0.32492976  0.83765978  0.82377647  1
  Ag  Ag42  1  0.50088540  0.83240149  0.33866175  1
  Ag  Ag43  1  0.16783735  0.49182301  0.33691249  1
  Ag  Ag44  1  0.67041738  0.33265938  0.00896793  1
  Ag  Ag45  1  0.00778913  0.32960227  0.65723995  1
  Ag  Ag46  1  0.16658629  0.83818799  0.66215008  1
  Ag  Ag47  1  0.50258253  0.33091317  0.49425449  1
  Ag  Ag48  1  -0.00347793  0.00675371  0.33604540  1
  Ag  Ag49  1  0.00192948  0.32945414  0.00226377  1
  Ag  Ag50  1  0.83504496  0.16465828  0.33280659  1
  Ag  Ag51  1  0.67041934  0.66236832  0.00684676  1
  Ag  Ag52  1  0.16532403  0.48893934  0.65501020  1
  Ag  Ag53  1  0.50389805  0.16825464  0.00014598  1
  Sb  Sb54  1  0.83726970  0.00037577  0.49326057  1
  Sb  Sb55  1  0.16510184  0.65961814  0.17334096  1
  Sb  Sb56  1  0.32649624  0.00134488  -0.00272152  1
  Sb  Sb57  1  0.83970923  0.49858478  0.66181532  1
  Sb  Sb58  1  0.32950410  0.33250243  0.65785322  1
  Sb  Sb59  1  0.83461924  0.67041078  0.83035155  1
  Sb  Sb60  1  0.83193149  0.16519390  0.00570399  1
  Sb  Sb61  1  0.16753749  0.17251100  -0.00521476  1
  Sb  Sb62  1  0.49870155  0.49506907  0.00399645  1
  Sb  Sb63  1  0.00062750  0.49196983  0.16739952  1
  Sb  Sb64  1  0.49508497  -0.00013658  0.82701038  1
  Sb  Sb65  1  0.67038290  0.66337591  0.66164077  1
  Sb  Sb66  1  0.33004256  0.00175726  0.33664699  1
  Sb  Sb67  1  0.49878746  0.49928986  0.33468267  1
  Sb  Sb68  1  0.00018243  0.66788016  0.33706402  1
  Sb  Sb69  1  0.83368553  0.49785908  0.33504852  1
  Sb  Sb70  1  0.33165063  0.82852011  0.17561937  1
  Sb  Sb71  1  0.83740857  0.83378866  0.66194251  1
  Sb  Sb72  1  0.50208921  0.66129891  0.17403106  1
  Sb  Sb73  1  0.66772148  0.17223239  0.49662815  1
  Sb  Sb74  1  0.33183583  0.17292786  0.17109001  1
  Sb  Sb75  1  0.15975246  0.16872556  0.34240277  1
  Sb  Sb76  1  -0.00029568  0.83905413  0.16520196  1
  Sb  Sb77  1  0.49669740  0.32981627  0.83163104  1
  Sb  Sb78  1  0.00840349  0.83811916  0.50212645  1
  Sb  Sb79  1  0.49568965  0.50193057  0.66090138  1
  Sb  Sb80  1  0.67187929  0.00221246  0.00427826  1
  Sb  Sb81  1  0.50069494  0.67229799  0.82637972  1
  Sb  Sb82  1  0.15999005  0.82997620  -0.00377389  1
  Sb  Sb83  1  0.50554859  0.16731354  0.33334814  1
  Sb  Sb84  1  0.50576587  0.83726293  -0.00015178  1
  Sb  Sb85  1  0.50609281  0.00648289  0.17406432  1
  Sb  Sb86  1  0.00311799  0.50060110  0.83313428  1
  Sb  Sb87  1  0.32488346  -0.00078715  0.66351477  1
  Sb  Sb88  1  0.83264707  0.32798041  0.17428013  1
  Sb  Sb89  1  0.67156167  0.00318759  0.66217004  1
  Sb  Sb90  1  0.66549452  0.49614838  0.83393560  1
  Sb  Sb91  1  0.32697339  0.66986071  0.65725187  1
  Sb  Sb92  1  0.16519460  0.66946080  0.82665834  1
  Sb  Sb93  1  0.00197154  0.49357591  0.49946471  1
  Sb  Sb94  1  0.32699493  0.49661259  0.83777123  1
  Sb  Sb95  1  0.33276312  0.66717402  0.00436755  1
  Sb  Sb96  1  0.33241793  0.49965703  0.49305991  1
  Sb  Sb97  1  0.00201148  0.16371577  0.83121836  1
  Sb  Sb98  1  0.83664501  0.50268264  0.00262157  1
  Sb  Sb99  1  0.83879582  -0.00057500  0.83831561  1
  Sb  Sb100  1  0.66758240  0.83480669  0.16893037  1
  Sb  Sb101  1  0.16001946  0.00806003  0.17265065  1
  Sb  Sb102  1  0.83872746  0.16800981  0.65950404  1
  Sb  Sb103  1  0.83678987  0.32982629  0.82952205  1
  Sb  Sb104  1  0.83342705  0.67089525  0.17146656  1
  Sb  Sb105  1  0.49647084  0.16340764  0.66483182  1
  Sb  Sb106  1  0.66179540  0.83056888  0.49972606  1
  Sb  Sb107  1  0.33102594  0.33267251  0.00550791  1
  Te  Te108  1  0.16331611  0.17469228  0.16340349  1
  Te  Te109  1  0.16599717  0.16632587  0.50239386  1
  Te  Te110  1  0.16764035  0.16447232  0.82895632  1
  Te  Te111  1  0.16676974  0.49433450  0.17033096  1
  Te  Te112  1  0.16780679  0.49939912  0.49749902  1
  Te  Te113  1  0.16726253  0.49386781  0.83553366  1
  Te  Te114  1  0.16811962  0.83362997  0.17044464  1
  Te  Te115  1  0.16861979  0.83255148  0.50121912  1
  Te  Te116  1  0.16543297  0.83614515  0.83129287  1
  Te  Te117  1  0.50166681  0.17268656  0.16376455  1
  Te  Te118  1  0.49448471  0.16970781  0.50042158  1
  Te  Te119  1  0.49938109  0.16489208  0.83532611  1
  Te  Te120  1  0.50120907  0.49207943  0.16683934  1
  Te  Te121  1  0.50423634  0.49403448  0.50124758  1
  Te  Te122  1  0.49603006  0.50247313  0.83252737  1
  Te  Te123  1  0.49847940  0.83451260  0.17316210  1
  Te  Te124  1  0.49856178  0.83407047  0.49858660  1
  Te  Te125  1  0.49975601  0.83534309  0.83153518  1
  Te  Te126  1  0.83473780  0.16300532  0.17139603  1
  Te  Te127  1  0.83818867  0.17049279  0.49366217  1
  Te  Te128  1  0.82354403  0.16544429  0.83322506  1
  Te  Te129  1  0.82313030  0.50265078  0.16778816  1
  Te  Te130  1  0.82571938  0.49994611  0.49929255  1
  Te  Te131  1  0.83320997  0.50054368  0.83257202  1
  Te  Te132  1  0.83333460  0.83876492  0.16847244  1
  Te  Te133  1  0.83238523  0.83012976  0.49440068  1
  Te  Te134  1  0.83393433  0.83395651  0.83651495  1
  Te  Te135  1  0.15918923  -0.00061020  0.00349990  1
  Te  Te136  1  0.16273544  -0.00477221  0.33795655  1
  Te  Te137  1  0.16209922  -0.00145878  0.66387985  1
  Te  Te138  1  0.16499976  0.33569076  0.00006979  1
  Te  Te139  1  0.16391963  0.33167393  0.33715814  1
  Te  Te140  1  0.16737445  0.33127357  0.66317644  1
  Te  Te141  1  0.16381163  0.66088008  0.00035949  1
  Te  Te142  1  0.16651522  0.67023837  0.33769438  1
  Te  Te143  1  0.16234595  0.67217634  0.66214196  1
  Te  Te144  1  0.50087393  0.00563535  0.00063001  1
  Te  Te145  1  0.50073505  -0.00316486  0.33815169  1
  Te  Te146  1  0.50432800  -0.00544834  0.65925448  1
  Te  Te147  1  0.50355496  0.33008580  -0.00043730  1
  Te  Te148  1  0.50750544  0.33315176  0.33356931  1
  Te  Te149  1  0.50402507  0.33307913  0.66291583  1
  Te  Te150  1  0.50596940  0.66734341  0.00080751  1
  Te  Te151  1  0.50271847  0.66902560  0.33737495  1
  Te  Te152  1  0.50095645  0.67200681  0.65801069  1
  Te  Te153  1  0.83920165  -0.00464884  0.00512819  1
  Te  Te154  1  0.83466065  0.00027204  0.33277388  1
  Te  Te155  1  0.84353032  0.00027915  0.66646430  1
  Te  Te156  1  0.83447761  0.33431679  -0.00159628  1
  Te  Te157  1  0.83447211  0.33186537  0.33781808  1
  Te  Te158  1  0.83334646  0.33374755  0.66042320  1
  Te  Te159  1  0.83279494  0.67049173  -0.00013602  1
  Te  Te160  1  0.83135959  0.66923088  0.33790204  1
  Te  Te161  1  0.84144811  0.66570024  0.65887394  1
  Te  Te162  1  -0.00116496  0.16710396  -0.00113875  1
  Te  Te163  1  -0.00123148  0.16678932  0.33499458  1
  Te  Te164  1  0.00354211  0.16884249  0.66478732  1
  Te  Te165  1  0.00360822  0.49614592  0.00021413  1
  Te  Te166  1  0.00568142  0.49705536  0.33217328  1
  Te  Te167  1  0.00703175  0.49529925  0.66668661  1
  Te  Te168  1  -0.00366313  0.83309753  -0.00150815  1
  Te  Te169  1  -0.00024115  0.83500790  0.33252149  1
  Te  Te170  1  0.00223745  0.83351019  0.66919564  1
  Te  Te171  1  0.33983076  0.16623248  -0.00283177  1
  Te  Te172  1  0.33614491  0.17233575  0.33909643  1
  Te  Te173  1  0.32877074  0.16643694  0.66622120  1
  Te  Te174  1  0.32733082  0.50121159  0.00803640  1
  Te  Te175  1  0.33009768  0.49824700  0.33045093  1
  Te  Te176  1  0.32427442  0.50228761  0.66977804  1
  Te  Te177  1  0.33463587  0.83286792  -0.00334742  1
  Te  Te178  1  0.33218407  0.83237333  0.33860597  1
  Te  Te179  1  0.33251095  0.83379850  0.66461183  1
  Te  Te180  1  0.66641424  0.16833902  0.00235685  1
  Te  Te181  1  0.67047797  0.16810997  0.33104592  1
  Te  Te182  1  0.66696605  0.17158623  0.66938728  1
  Te  Te183  1  0.66718232  0.50007340  0.00140734  1
  Te  Te184  1  0.66768465  0.50099415  0.33350608  1
  Te  Te185  1  0.66559878  0.49355518  0.66529042  1
  Te  Te186  1  0.66996773  0.83234980  -0.00244468  1
  Te  Te187  1  0.66729716  0.83213730  0.33370966  1
  Te  Te188  1  0.66904087  0.83358690  0.67264110  1
  Te  Te189  1  -0.00301093  0.00546446  0.16876624  1
  Te  Te190  1  0.00256993  0.00378563  0.49832034  1
  Te  Te191  1  0.00372191  -0.00213448  0.83442028  1
  Te  Te192  1  -0.00024052  0.32906026  0.16492273  1
  Te  Te193  1  0.00115846  0.33278631  0.49918326  1
  Te  Te194  1  0.00435242  0.33227775  0.83599250  1
  Te  Te195  1  -0.00068067  0.66501875  0.15796653  1
  Te  Te196  1  0.00132085  0.66560531  0.50235059  1
  Te  Te197  1  0.00034778  0.67262315  0.83534741  1
  Te  Te198  1  0.33379246  0.00108768  0.16661966  1
  Te  Te199  1  0.33227385  0.00048927  0.49843394  1
  Te  Te200  1  0.32658505  0.00022404  0.83276473  1
  Te  Te201  1  0.33041299  0.33538644  0.17249773  1
  Te  Te202  1  0.33389698  0.33331420  0.49548120  1
  Te  Te203  1  0.32777981  0.32792936  0.83333889  1
  Te  Te204  1  0.33403083  0.65925446  0.17516442  1
  Te  Te205  1  0.33340934  0.66684853  0.49432250  1
  Te  Te206  1  0.33367104  0.67351763  0.83474978  1
  Te  Te207  1  0.67175266  0.00559835  0.17235467  1
  Te  Te208  1  0.66532021  0.00168670  0.49537896  1
  Te  Te209  1  0.66620904  0.00016860  0.83271509  1
  Te  Te210  1  0.66932572  0.33147337  0.16743933  1
  Te  Te211  1  0.66673655  0.33266578  0.49595626  1
  Te  Te212  1  0.66665829  0.32966432  0.84013342  1
  Te  Te213  1  0.66651174  0.66590516  0.16749818  1
  Te  Te214  1  0.66592153  0.66413404  0.49836220  1
  Te  Te215  1  0.66703817  0.66966544  0.83449899  1
