# generated using pymatgen
data_AgSbTe2
_symmetry_space_group_name_H-M   'P 1'
_cell_length_a   18.32055175
_cell_length_b   18.32647648
_cell_length_c   18.32281302
_cell_angle_alpha   89.99835440
_cell_angle_beta   89.99776663
_cell_angle_gamma   90.00359157
_symmetry_Int_Tables_number   1
_chemical_formula_structural   AgSbTe2
_chemical_formula_sum   'Ag54 Sb54 Te108'
_cell_volume   6151.90572152
_cell_formula_units_Z   54
loop_
 _symmetry_equiv_pos_site_id
 _symmetry_equiv_pos_as_xyz
  1  'x, y, z'
loop_
 _atom_site_type_symbol
 _atom_site_label
 _atom_site_symmetry_multiplicity
 _atom_site_fract_x
 _atom_site_fract_y
 _atom_site_fract_z
 _atom_site_occupancy
  Ag  Ag0  1  0.66005505  0.66822813  0.66664908  1
  Ag  Ag1  1  0.17000120  0.16810268  -0.00190450  1
  Ag  Ag2  1  0.33182759  0.33348362  -0.00068867  1
  Ag  Ag3  1  0.66513551  0.83267417  0.83062005  1
  Ag  Ag4  1  0.49869115  0.83284102  0.66479042  1
  Ag  Ag5  1  0.00416938  0.33134877  0.00708820  1
  Ag  Ag6  1  0.82880573  0.82852652  0.66322112  1
  Ag  Ag7  1  0.00581865  0.17289708  0.84085360  1
  Ag  Ag8  1  0.83779529  0.00765662  0.16941373  1
  Ag  Ag9  1  0.17067167  0.67183729  0.17194803  1
  Ag  Ag10  1  0.50277818  0.33008948  0.17133746  1
  Ag  Ag11  1  0.66662278  0.33415359  0.32744015  1
  Ag  Ag12  1  0.01235882  0.83485494  0.16923961  1
  Ag  Ag13  1  0.83063656  0.33102374  0.49061863  1
  Ag  Ag14  1  0.33311528  0.16636847  0.49798384  1
  Ag  Ag15  1  0.83189893  0.17200767  0.33107884  1
  Ag  Ag16  1  0.16690618  -0.00253443  0.49739337  1
  Ag  Ag17  1  0.17101923  0.82737723  0.32893824  1
  Ag  Ag18  1  0.16727009  -0.00224743  0.16930362  1
  Ag  Ag19  1  0.00104949  0.49138719  0.16751965  1
  Ag  Ag20  1  0.33148895  0.66386315  0.66975754  1
  Ag  Ag21  1  0.00524727  0.66060731  0.33004402  1
  Ag  Ag22  1  0.84033939  0.50303400  0.66539986  1
  Ag  Ag23  1  0.49064677  0.16958698  0.01167507  1
  Ag  Ag24  1  0.00652675  0.17307152  0.16425881  1
  Ag  Ag25  1  0.16876469  0.65603398  0.83101334  1
  Ag  Ag26  1  0.49525401  0.49108464  0.32899939  1
  Ag  Ag27  1  0.16283220  0.00753814  0.83294639  1
  Ag  Ag28  1  0.49085291  0.16785355  0.66457515  1
  Ag  Ag29  1  0.66130285  0.33295387  0.00948154  1
  Ag  Ag30  1  0.33262071  0.83486080  0.17018337  1
  Ag  Ag31  1  0.33535930  0.16572371  0.16635751  1
  Ag  Ag32  1  0.00923714  0.49451566  0.83628963  1
  Ag  Ag33  1  0.66829008  0.49507778  0.16847764  1
  Ag  Ag34  1  0.83948492  0.00045317  0.49914435  1
  Ag  Ag35  1  0.49373435  0.83212285  0.32640452  1
  Ag  Ag36  1  0.49164566  0.00498748  0.16801226  1
  Ag  Ag37  1  0.49663051  0.83620885  0.01221538  1
  Ag  Ag38  1  0.33184337  0.66312076  0.00135957  1
  Ag  Ag39  1  0.33175928  0.33365556  0.67014494  1
  Ag  Ag40  1  0.83944219  0.66724609  0.50230301  1
  Ag  Ag41  1  0.16747807  0.67006206  0.49320099  1
  Ag  Ag42  1  0.83479712  0.32921355  0.17163747  1
  Ag  Ag43  1  0.32688317  0.49930674  0.83053799  1
  Ag  Ag44  1  0.48977655  0.67037968  0.17004219  1
  Ag  Ag45  1  0.16640644  0.33553120  0.83372761  1
  Ag  Ag46  1  0.84046953  -0.00005470  0.83115160  1
  Ag  Ag47  1  0.49929199  0.32896088  0.48848391  1
  Ag  Ag48  1  0.50013511  0.17455440  0.32743380  1
  Ag  Ag49  1  0.33140211  0.83467447  0.49489175  1
  Ag  Ag50  1  0.17138323  0.17206775  0.67420472  1
  Ag  Ag51  1  0.16731455  0.49979703  0.67145502  1
  Ag  Ag52  1  -0.00248895  0.33645713  0.32393493  1
  Ag  Ag53  1  0.16614651  0.50574203  0.33297811  1
  Sb  Sb54  1  0.83448150  0.83663103  0.33681810  1
  Sb  Sb55  1  0.00536310  0.66458333  0.66320596  1
  Sb  Sb56  1  0.00082483  -0.00015476  0.66794141  1
  Sb  Sb57  1  0.00509060  0.33481425  0.66675932  1
  Sb  Sb58  1  0.82866560  0.83527047  -0.00140169  1
  Sb  Sb59  1  0.66772554  0.49965245  0.49503466  1
  Sb  Sb60  1  0.33255553  0.00224818  0.66655192  1
  Sb  Sb61  1  0.00009752  0.83282630  0.83883371  1
  Sb  Sb62  1  0.66218142  0.17408217  0.16693888  1
  Sb  Sb63  1  0.66653263  0.00480624  0.33125513  1
  Sb  Sb64  1  0.83672364  0.49336569  0.33542696  1
  Sb  Sb65  1  0.66837111  0.66158799  0.33591183  1
  Sb  Sb66  1  0.83696217  0.16909419  0.00767820  1
  Sb  Sb67  1  0.66748065  0.50282651  0.83599314  1
  Sb  Sb68  1  0.65877045  0.66394724  -0.00157477  1
  Sb  Sb69  1  0.49369085  0.66814970  0.83544997  1
  Sb  Sb70  1  0.32738432  0.66787357  0.33218385  1
  Sb  Sb71  1  0.49760577  -0.00023623  0.83708548  1
  Sb  Sb72  1  0.49416956  0.66547571  0.49575755  1
  Sb  Sb73  1  0.00047710  0.00237715  0.32893240  1
  Sb  Sb74  1  0.49748120  0.49585872  0.00758977  1
  Sb  Sb75  1  0.84058694  0.33012374  0.83408108  1
  Sb  Sb76  1  0.66154100  0.33833790  0.66580795  1
  Sb  Sb77  1  0.16934664  0.83138442  0.66353908  1
  Sb  Sb78  1  0.16805309  0.16707945  0.33027415  1
  Sb  Sb79  1  0.66105291  0.16721344  0.49924556  1
  Sb  Sb80  1  0.66469813  0.00548949  0.00248185  1
  Sb  Sb81  1  0.83923577  0.66944199  0.82599073  1
  Sb  Sb82  1  0.66175862  0.83232585  0.50248426  1
  Sb  Sb83  1  0.00946444  0.66108238  0.00591319  1
  Sb  Sb84  1  0.33487661  0.82851324  0.83564540  1
  Sb  Sb85  1  0.83527370  0.49800783  -0.00118048  1
  Sb  Sb86  1  0.49632150  0.00319780  0.49459069  1
  Sb  Sb87  1  0.83599366  0.16725904  0.66170229  1
  Sb  Sb88  1  0.33206609  -0.00128225  0.33115228  1
  Sb  Sb89  1  0.00044401  0.49961523  0.49642930  1
  Sb  Sb90  1  0.49368104  0.33106738  0.83689316  1
  Sb  Sb91  1  0.66640694  -0.00500732  0.66713984  1
  Sb  Sb92  1  0.67109495  0.16410334  0.83465547  1
  Sb  Sb93  1  0.32505299  0.17185951  0.83549734  1
  Sb  Sb94  1  0.83814682  0.66517327  0.17248123  1
  Sb  Sb95  1  0.32977470  0.49988357  0.16354950  1
  Sb  Sb96  1  0.16623607  0.33248418  0.16300565  1
  Sb  Sb97  1  0.00240029  0.00533690  0.00286810  1
  Sb  Sb98  1  0.33400248  0.33253072  0.33182426  1
  Sb  Sb99  1  0.66005515  0.82899834  0.16369044  1
  Sb  Sb100  1  0.00501508  0.16801191  0.49639947  1
  Sb  Sb101  1  0.16906954  0.33298841  0.50237280  1
  Sb  Sb102  1  0.33103199  0.49961704  0.50319117  1
  Sb  Sb103  1  0.16772212  0.49430150  -0.00187123  1
  Sb  Sb104  1  0.17217537  0.83620453  0.00654765  1
  Sb  Sb105  1  0.49558630  0.50008740  0.66178959  1
  Sb  Sb106  1  0.33274225  0.00385324  0.00269979  1
  Sb  Sb107  1  0.00532986  0.83236005  0.49420454  1
  Te  Te108  1  0.16822200  0.16440398  0.16625839  1
  Te  Te109  1  0.17180534  0.16382043  0.49985836  1
  Te  Te110  1  0.16446707  0.16720706  0.83314412  1
  Te  Te111  1  0.16312014  0.50355421  0.16870775  1
  Te  Te112  1  0.16659532  0.50389292  0.50107141  1
  Te  Te113  1  0.16605514  0.49850384  0.83366267  1
  Te  Te114  1  0.17046069  0.83478520  0.16779258  1
  Te  Te115  1  0.17048448  0.83402611  0.49674024  1
  Te  Te116  1  0.16558330  0.83760164  0.83433301  1
  Te  Te117  1  0.49841998  0.16626288  0.16797442  1
  Te  Te118  1  0.49481813  0.16751428  0.50104207  1
  Te  Te119  1  0.50187625  0.16372753  0.82741892  1
  Te  Te120  1  0.49706894  0.49844079  0.17049712  1
  Te  Te121  1  0.49940161  0.49436614  0.49235122  1
  Te  Te122  1  0.49798858  0.50033437  0.83234845  1
  Te  Te123  1  0.49803286  0.83240379  0.16784748  1
  Te  Te124  1  0.49371008  0.83497531  0.50125476  1
  Te  Te125  1  0.50306790  0.83520937  0.82511070  1
  Te  Te126  1  0.83501737  0.16822528  0.16968438  1
  Te  Te127  1  0.83428114  0.16722167  0.49677024  1
  Te  Te128  1  0.83981129  0.16084134  0.83218647  1
  Te  Te129  1  0.83641435  0.49667763  0.16734678  1
  Te  Te130  1  0.83406838  0.49962969  0.50512208  1
  Te  Te131  1  0.83618232  0.49995465  0.82667911  1
  Te  Te132  1  0.83225290  0.83531117  0.16758089  1
  Te  Te133  1  0.83415911  0.83455100  0.50310224  1
  Te  Te134  1  0.83187491  0.83789570  0.83045873  1
  Te  Te135  1  0.16669307  0.00603617  0.00291894  1
  Te  Te136  1  0.16533202  -0.00400897  0.33314458  1
  Te  Te137  1  0.16626968  0.00142941  0.66388049  1
  Te  Te138  1  0.16824947  0.32872722  -0.00315115  1
  Te  Te139  1  0.16239755  0.33931208  0.33492084  1
  Te  Te140  1  0.17093477  0.33452265  0.66801227  1
  Te  Te141  1  0.17310886  0.66871092  0.00106754  1
  Te  Te142  1  0.16570130  0.66680164  0.33250118  1
  Te  Te143  1  0.17026546  0.66525497  0.66784224  1
  Te  Te144  1  0.49963478  0.00103061  0.00565807  1
  Te  Te145  1  0.50175473  -0.00118114  0.32777611  1
  Te  Te146  1  0.50036541  -0.00065452  0.66486985  1
  Te  Te147  1  0.49630997  0.33000865  0.00246929  1
  Te  Te148  1  0.49751546  0.33274337  0.33203328  1
  Te  Te149  1  0.49508303  0.33139540  0.66656245  1
  Te  Te150  1  0.49430159  0.66932329  0.00401702  1
  Te  Te151  1  0.50169242  0.66953885  0.32974585  1
  Te  Te152  1  0.49738652  0.66869608  0.66501205  1
  Te  Te153  1  0.83256981  0.00128853  0.00216901  1
  Te  Te154  1  0.83339529  0.00524448  0.33187742  1
  Te  Te155  1  0.83346478  -0.00156981  0.66521740  1
  Te  Te156  1  0.83493065  0.33267779  0.00461463  1
  Te  Te157  1  0.83331693  0.33315192  0.33225195  1
  Te  Te158  1  0.83146074  0.33719182  0.66420981  1
  Te  Te159  1  0.83105208  0.66697345  -0.00033527  1
  Te  Te160  1  0.83749406  0.66689162  0.34114891  1
  Te  Te161  1  0.83732775  0.66666327  0.66250262  1
  Te  Te162  1  0.00281017  0.17122118  0.00224984  1
  Te  Te163  1  -0.00131901  0.17245801  0.32893657  1
  Te  Te164  1  0.00673638  0.16755114  0.66968179  1
  Te  Te165  1  0.00058870  0.49350426  0.00125746  1
  Te  Te166  1  0.00260810  0.49849097  0.33056316  1
  Te  Te167  1  0.00358563  0.49968009  0.67096670  1
  Te  Te168  1  -0.00223884  0.83116488  0.00943895  1
  Te  Te169  1  0.00257656  0.82941435  0.32733967  1
  Te  Te170  1  -0.00736874  0.83205424  0.66820999  1
  Te  Te171  1  0.33199564  0.17028112  0.00224183  1
  Te  Te172  1  0.33714531  0.16661811  0.33188402  1
  Te  Te173  1  0.33160107  0.16833083  0.66781845  1
  Te  Te174  1  0.33392407  0.49867596  -0.00667556  1
  Te  Te175  1  0.33113677  0.50007491  0.33412889  1
  Te  Te176  1  0.33014858  0.49982955  0.66962940  1
  Te  Te177  1  0.33844706  0.82915650  0.00339889  1
  Te  Te178  1  0.33286557  0.83287671  0.33198583  1
  Te  Te179  1  0.33537664  0.83087006  0.66611210  1
  Te  Te180  1  0.65852213  0.17401088  -0.00153636  1
  Te  Te181  1  0.66538744  0.17348967  0.33355110  1
  Te  Te182  1  0.65962608  0.16804554  0.66776491  1
  Te  Te183  1  0.66670645  0.49384543  0.00471261  1
  Te  Te184  1  0.66226966  0.49465299  0.32841625  1
  Te  Te185  1  0.66778019  0.50684119  0.66744490  1
  Te  Te186  1  0.65854820  0.83254524  -0.00575168  1
  Te  Te187  1  0.65978252  0.83160885  0.33362758  1
  Te  Te188  1  0.66627601  0.82898616  0.66829924  1
  Te  Te189  1  0.00159137  0.00072426  0.16685159  1
  Te  Te190  1  0.00088418  -0.00000729  0.49864328  1
  Te  Te191  1  0.00109222  0.00171265  0.83510390  1
  Te  Te192  1  0.00224593  0.33200712  0.16608640  1
  Te  Te193  1  -0.00627527  0.33245035  0.49616019  1
  Te  Te194  1  0.00466920  0.33344727  0.83382374  1
  Te  Te195  1  0.00339196  0.66584620  0.17030254  1
  Te  Te196  1  0.00348441  0.66646669  0.49382494  1
  Te  Te197  1  0.00756489  0.66194999  0.83664099  1
  Te  Te198  1  0.33237730  0.00049815  0.16586393  1
  Te  Te199  1  0.32884092  0.00019260  0.50017139  1
  Te  Te200  1  0.32498556  -0.00136081  0.83426937  1
  Te  Te201  1  0.33576888  0.33028183  0.16266324  1
  Te  Te202  1  0.33672881  0.32909762  0.50311048  1
  Te  Te203  1  0.32895717  0.33728408  0.83278660  1
  Te  Te204  1  0.33174689  0.66632619  0.16427260  1
  Te  Te205  1  0.32858059  0.67011612  0.50540418  1
  Te  Te206  1  0.32867574  0.66237353  0.83184355  1
  Te  Te207  1  0.67345326  -0.00234175  0.16665337  1
  Te  Te208  1  0.67786279  -0.00015442  0.49929851  1
  Te  Te209  1  0.67130159  -0.00550364  0.83472596  1
  Te  Te210  1  0.66557410  0.33534163  0.16741874  1
  Te  Te211  1  0.66635013  0.33314715  0.49717615  1
  Te  Te212  1  0.66907475  0.33398860  0.83743426  1
  Te  Te213  1  0.66563090  0.65830001  0.16657886  1
  Te  Te214  1  0.67099175  0.66663367  0.50587984  1
  Te  Te215  1  0.66788622  0.67027382  0.82899715  1
