# generated using pymatgen
data_AgSbTe2
_symmetry_space_group_name_H-M   'P 1'
_cell_length_a   18.35196241
_cell_length_b   18.35665880
_cell_length_c   18.35108129
_cell_angle_alpha   90.00319532
_cell_angle_beta   90.00244414
_cell_angle_gamma   89.99955348
_symmetry_Int_Tables_number   1
_chemical_formula_structural   AgSbTe2
_chemical_formula_sum   'Ag54 Sb54 Te108'
_cell_volume   6182.12532244
_cell_formula_units_Z   54
loop_
 _symmetry_equiv_pos_site_id
 _symmetry_equiv_pos_as_xyz
  1  'x, y, z'
loop_
 _atom_site_type_symbol
 _atom_site_label
 _atom_site_symmetry_multiplicity
 _atom_site_fract_x
 _atom_site_fract_y
 _atom_site_fract_z
 _atom_site_occupancy
  Ag  Ag0  1  0.00297823  0.16563879  0.82660190  1
  Ag  Ag1  1  0.82884708  0.83166573  0.66454121  1
  Ag  Ag2  1  0.00573506  0.00039897  -0.00060436  1
  Ag  Ag3  1  0.17448543  0.67068605  0.49882689  1
  Ag  Ag4  1  0.17339673  0.67228626  0.17294051  1
  Ag  Ag5  1  0.84397458  0.00382239  0.83134145  1
  Ag  Ag6  1  0.84625582  0.83500297  -0.00803181  1
  Ag  Ag7  1  0.01552255  0.83747373  0.49974666  1
  Ag  Ag8  1  0.65623848  0.67143940  0.34512822  1
  Ag  Ag9  1  0.16855902  0.50494223  0.34392009  1
  Ag  Ag10  1  0.31993250  0.16990456  0.82573298  1
  Ag  Ag11  1  0.16866127  0.15496119  0.65940516  1
  Ag  Ag12  1  0.65602969  0.51093374  0.50002047  1
  Ag  Ag13  1  0.65561746  0.82875708  0.50048615  1
  Ag  Ag14  1  0.33461376  0.66657351  0.65393857  1
  Ag  Ag15  1  0.84432946  0.16324443  0.33673941  1
  Ag  Ag16  1  0.84525644  0.32401877  0.83244703  1
  Ag  Ag17  1  0.17318732  0.83395026  0.33748427  1
  Ag  Ag18  1  0.33314136  0.50571894  0.50115850  1
  Ag  Ag19  1  0.32957480  0.34024325  0.33528909  1
  Ag  Ag20  1  0.49780850  0.82815555  0.65855205  1
  Ag  Ag21  1  0.66591442  -0.00985605  0.65891249  1
  Ag  Ag22  1  0.67362533  0.16414010  0.82956729  1
  Ag  Ag23  1  0.17186781  0.66738650  0.83047805  1
  Ag  Ag24  1  0.48965316  0.83152653  0.33946413  1
  Ag  Ag25  1  0.32865247  0.82749475  0.17192462  1
  Ag  Ag26  1  0.49581698  0.66886981  0.49808646  1
  Ag  Ag27  1  0.00387783  0.32654389  -0.00403870  1
  Ag  Ag28  1  0.16572121  0.00454209  0.83010131  1
  Ag  Ag29  1  0.82633271  0.51042892  0.66503974  1
  Ag  Ag30  1  0.48755993  -0.01075452  0.49798216  1
  Ag  Ag31  1  0.65975733  0.50411050  0.18014056  1
  Ag  Ag32  1  0.16795120  0.14917312  0.34564555  1
  Ag  Ag33  1  0.32562393  0.16907276  0.50100572  1
  Ag  Ag34  1  0.17024822  0.00593818  0.49584984  1
  Ag  Ag35  1  0.49238794  0.66545899  0.17960252  1
  Ag  Ag36  1  0.16840329  0.32100960  0.50147528  1
  Ag  Ag37  1  0.49805163  0.34807673  0.16822475  1
  Ag  Ag38  1  0.48864705  0.50318734  -0.00052250  1
  Ag  Ag39  1  0.32998433  0.66437014  0.00300538  1
  Ag  Ag40  1  0.65571576  0.67194075  0.66169044  1
  Ag  Ag41  1  0.01585583  0.50233028  0.50010172  1
  Ag  Ag42  1  0.16904252  0.83465576  0.65708820  1
  Ag  Ag43  1  0.16526293  0.82988017  0.00165853  1
  Ag  Ag44  1  0.32514296  -0.00895439  0.33748735  1
  Ag  Ag45  1  0.33455367  0.66973825  0.33389495  1
  Ag  Ag46  1  0.33006013  0.50167538  0.82646091  1
  Ag  Ag47  1  0.00991033  0.15983465  0.50230040  1
  Ag  Ag48  1  0.16637042  0.32641079  0.82889037  1
  Ag  Ag49  1  0.16964377  0.51062380  0.00237089  1
  Ag  Ag50  1  0.16676501  -0.00902429  0.18077729  1
  Ag  Ag51  1  0.66612956  -0.00609396  0.34111424  1
  Ag  Ag52  1  0.00970160  0.00195489  0.33840593  1
  Ag  Ag53  1  0.50001549  0.50690980  0.66048575  1
  Sb  Sb54  1  0.00162973  0.49989025  0.17029801  1
  Sb  Sb55  1  0.32609876  -0.00404626  0.00256045  1
  Sb  Sb56  1  0.00758040  0.83481027  0.16988923  1
  Sb  Sb57  1  0.32735185  0.83073079  0.83439164  1
  Sb  Sb58  1  0.84006495  0.33574942  0.50405899  1
  Sb  Sb59  1  0.83012599  0.33430167  0.16389941  1
  Sb  Sb60  1  0.83870355  0.66945489  0.83002638  1
  Sb  Sb61  1  0.00291831  0.16495952  0.16912469  1
  Sb  Sb62  1  0.66027716  0.33471284  0.33376377  1
  Sb  Sb63  1  0.33022860  0.33905222  0.66174193  1
  Sb  Sb64  1  0.49267522  0.16025463  0.33595827  1
  Sb  Sb65  1  0.66770021  0.16273811  0.50248224  1
  Sb  Sb66  1  0.00921205  0.67270565  0.33818672  1
  Sb  Sb67  1  0.66836778  0.33460210  -0.00173836  1
  Sb  Sb68  1  0.00422075  0.33376433  0.66863044  1
  Sb  Sb69  1  0.00209463  -0.00093418  0.66473181  1
  Sb  Sb70  1  0.66187805  0.49833867  0.82802566  1
  Sb  Sb71  1  0.00792334  0.32896273  0.33319189  1
  Sb  Sb72  1  0.66584612  0.16800518  0.16788469  1
  Sb  Sb73  1  0.00689960  0.49521869  0.82844516  1
  Sb  Sb74  1  0.33338456  0.83015904  0.49464999  1
  Sb  Sb75  1  0.83672324  0.50354268  -0.00591641  1
  Sb  Sb76  1  0.00415916  0.83811936  0.82914563  1
  Sb  Sb77  1  0.17020559  0.50455327  0.66272108  1
  Sb  Sb78  1  0.83597359  0.16275767  -0.00023114  1
  Sb  Sb79  1  0.33555307  0.50721698  0.17038809  1
  Sb  Sb80  1  0.17106906  0.33531448  0.16897856  1
  Sb  Sb81  1  0.49503535  0.16487917  0.66569055  1
  Sb  Sb82  1  0.49838674  0.17102318  -0.00183832  1
  Sb  Sb83  1  0.66286174  0.82889058  0.17420069  1
  Sb  Sb84  1  0.49476221  0.82774916  0.00114531  1
  Sb  Sb85  1  0.33272331  -0.00649785  0.65918408  1
  Sb  Sb86  1  0.49581876  0.33562091  0.83467084  1
  Sb  Sb87  1  0.83806795  -0.00224009  0.50302108  1
  Sb  Sb88  1  0.67068655  -0.00299077  -0.00249353  1
  Sb  Sb89  1  0.83832597  -0.00177167  0.16686433  1
  Sb  Sb90  1  0.32853587  0.33954113  0.00208295  1
  Sb  Sb91  1  0.49258547  0.33785904  0.49654876  1
  Sb  Sb92  1  0.01012769  0.67117655  -0.00016722  1
  Sb  Sb93  1  0.83690921  0.16350372  0.66598916  1
  Sb  Sb94  1  0.82973563  0.66679956  0.50136594  1
  Sb  Sb95  1  0.00618900  0.66668015  0.66253285  1
  Sb  Sb96  1  0.66017425  0.66618613  -0.00130016  1
  Sb  Sb97  1  0.49450795  -0.00583651  0.17450654  1
  Sb  Sb98  1  0.83051742  0.66779048  0.16629647  1
  Sb  Sb99  1  0.66740245  0.33462977  0.66550907  1
  Sb  Sb100  1  0.83524968  0.83566859  0.33804885  1
  Sb  Sb101  1  0.66950170  0.83678785  0.82292199  1
  Sb  Sb102  1  0.16568410  0.16491757  -0.00271542  1
  Sb  Sb103  1  0.83576120  0.49775981  0.34030700  1
  Sb  Sb104  1  0.49365932  0.50921825  0.33475967  1
  Sb  Sb105  1  0.33053560  0.16282830  0.17138035  1
  Sb  Sb106  1  0.49707554  -0.00037944  0.82727291  1
  Sb  Sb107  1  0.49230639  0.66567319  0.82617518  1
  Te  Te108  1  0.16784077  0.16413756  0.17176079  1
  Te  Te109  1  0.16683160  0.16443289  0.50072917  1
  Te  Te110  1  0.16309303  0.16790964  0.83662935  1
  Te  Te111  1  0.16415625  0.50355254  0.16197911  1
  Te  Te112  1  0.17228420  0.50924891  0.50331158  1
  Te  Te113  1  0.17042005  0.50033585  0.82994715  1
  Te  Te114  1  0.16717367  0.83264448  0.16636125  1
  Te  Te115  1  0.17151934  0.83237020  0.49897600  1
  Te  Te116  1  0.16577773  0.83252812  0.83723912  1
  Te  Te117  1  0.50018068  0.16761830  0.16585603  1
  Te  Te118  1  0.49787465  0.16811979  0.50172442  1
  Te  Te119  1  0.50247235  0.16772620  0.83279135  1
  Te  Te120  1  0.50164985  0.50446282  0.16801461  1
  Te  Te121  1  0.49678346  0.50286511  0.50172250  1
  Te  Te122  1  0.49388512  0.49912147  0.83859165  1
  Te  Te123  1  0.49536379  0.82647566  0.16916013  1
  Te  Te124  1  0.49980347  0.83280134  0.50082398  1
  Te  Te125  1  0.50050223  0.83453520  0.83067530  1
  Te  Te126  1  0.83169089  0.16682148  0.17395084  1
  Te  Te127  1  0.83565820  0.16841546  0.49692193  1
  Te  Te128  1  0.83603619  0.16521875  0.83336294  1
  Te  Te129  1  0.82724539  0.49981217  0.16528839  1
  Te  Te130  1  0.82990853  0.49882311  0.50673200  1
  Te  Te131  1  0.83366953  0.49985104  0.82671066  1
  Te  Te132  1  0.83249240  0.83298125  0.16026658  1
  Te  Te133  1  0.83249340  0.83271656  0.50545030  1
  Te  Te134  1  0.83598242  0.83760618  0.83090346  1
  Te  Te135  1  0.16407245  -0.00148051  -0.01008589  1
  Te  Te136  1  0.16542331  -0.00534710  0.33608579  1
  Te  Te137  1  0.16813474  -0.00376985  0.66862982  1
  Te  Te138  1  0.16281105  0.33455227  0.00073450  1
  Te  Te139  1  0.17061454  0.34522468  0.33427705  1
  Te  Te140  1  0.16784248  0.32907488  0.66630857  1
  Te  Te141  1  0.16904703  0.66798823  -0.00109028  1
  Te  Te142  1  0.16906348  0.66718346  0.33383078  1
  Te  Te143  1  0.17034136  0.67101546  0.66605523  1
  Te  Te144  1  0.49954103  0.00037701  0.00282995  1
  Te  Te145  1  0.50552723  -0.00613036  0.33786650  1
  Te  Te146  1  0.50306266  -0.00365466  0.65982361  1
  Te  Te147  1  0.50004782  0.34002262  0.00508317  1
  Te  Te148  1  0.49349178  0.33062489  0.32896762  1
  Te  Te149  1  0.49933254  0.34150063  0.66611656  1
  Te  Te150  1  0.49398455  0.66241862  -0.00068989  1
  Te  Te151  1  0.49985088  0.66889404  0.33630871  1
  Te  Te152  1  0.49705650  0.66739893  0.66516722  1
  Te  Te153  1  0.83784022  -0.00460180  -0.00342743  1
  Te  Te154  1  0.82808585  0.00301982  0.33195709  1
  Te  Te155  1  0.82897869  -0.00172484  0.67111620  1
  Te  Te156  1  0.83888413  0.33513574  -0.00625535  1
  Te  Te157  1  0.83407667  0.32658452  0.33316125  1
  Te  Te158  1  0.83431211  0.33212755  0.67332332  1
  Te  Te159  1  0.83325496  0.67354050  -0.00215553  1
  Te  Te160  1  0.82682186  0.66539916  0.33153047  1
  Te  Te161  1  0.83111290  0.66978590  0.66760442  1
  Te  Te162  1  -0.00152970  0.16408743  -0.00103725  1
  Te  Te163  1  0.00414876  0.16362871  0.33518233  1
  Te  Te164  1  0.00523029  0.16713233  0.66417231  1
  Te  Te165  1  0.00519971  0.50053774  -0.00010065  1
  Te  Te166  1  0.00276264  0.49957098  0.33891905  1
  Te  Te167  1  -0.00697999  0.50041555  0.66004244  1
  Te  Te168  1  0.00292670  0.83782156  -0.00050658  1
  Te  Te169  1  0.00063101  0.83962561  0.33895081  1
  Te  Te170  1  0.00385652  0.83278324  0.66025603  1
  Te  Te171  1  0.33490507  0.16707762  -0.00560010  1
  Te  Te172  1  0.32775237  0.16062622  0.33660868  1
  Te  Te173  1  0.32887312  0.16626706  0.66690339  1
  Te  Te174  1  0.33043949  0.50217412  -0.00006969  1
  Te  Te175  1  0.32943835  0.50120617  0.33632616  1
  Te  Te176  1  0.33625512  0.50437076  0.66631334  1
  Te  Te177  1  0.32825392  0.82837685  0.00523609  1
  Te  Te178  1  0.33294909  0.83277063  0.33158831  1
  Te  Te179  1  0.33286849  0.82687148  0.67201562  1
  Te  Te180  1  0.66739377  0.16585170  -0.00592902  1
  Te  Te181  1  0.66559708  0.16531539  0.33291632  1
  Te  Te182  1  0.66501325  0.16407727  0.67070727  1
  Te  Te183  1  0.66740013  0.50040109  -0.00219324  1
  Te  Te184  1  0.66849866  0.50186464  0.33717151  1
  Te  Te185  1  0.66409253  0.50115294  0.66328510  1
  Te  Te186  1  0.66578382  0.83314439  0.00128751  1
  Te  Te187  1  0.66964549  0.83188200  0.33804224  1
  Te  Te188  1  0.66423243  0.83261504  0.66252147  1
  Te  Te189  1  0.00584889  -0.00043529  0.16340387  1
  Te  Te190  1  0.00325662  -0.00068097  0.49808197  1
  Te  Te191  1  0.00087249  0.00332853  0.83214403  1
  Te  Te192  1  -0.00195542  0.33283293  0.15732742  1
  Te  Te193  1  0.00768034  0.33504219  0.49854008  1
  Te  Te194  1  0.00318555  0.33005559  0.83497004  1
  Te  Te195  1  0.00381345  0.66624981  0.16908257  1
  Te  Te196  1  0.00378079  0.66628801  0.49921477  1
  Te  Te197  1  0.00848807  0.66586935  0.83181904  1
  Te  Te198  1  0.32782376  -0.00546946  0.17087672  1
  Te  Te199  1  0.33203071  0.00562135  0.49919795  1
  Te  Te200  1  0.32928523  0.00519119  0.83374300  1
  Te  Te201  1  0.33815729  0.33057948  0.17106089  1
  Te  Te202  1  0.32856289  0.33145059  0.49570410  1
  Te  Te203  1  0.32836066  0.33342446  0.83460256  1
  Te  Te204  1  0.33212828  0.66636772  0.17056905  1
  Te  Te205  1  0.33446633  0.66645832  0.49655408  1
  Te  Te206  1  0.32903785  0.66441700  0.83934415  1
  Te  Te207  1  0.66576251  -0.00069979  0.17045342  1
  Te  Te208  1  0.67166619  -0.00066021  0.50066567  1
  Te  Te209  1  0.66318489  0.00401816  0.83154652  1
  Te  Te210  1  0.66146805  0.33873106  0.16598647  1
  Te  Te211  1  0.66741532  0.33543902  0.49881515  1
  Te  Te212  1  0.66627729  0.32839307  0.83305344  1
  Te  Te213  1  0.66302159  0.66128036  0.16522966  1
  Te  Te214  1  0.66683107  0.66778823  0.50184324  1
  Te  Te215  1  0.66812456  0.66635812  0.82662182  1
