# generated using pymatgen
data_AgSbTe2
_symmetry_space_group_name_H-M   'P 1'
_cell_length_a   18.35814746
_cell_length_b   18.35569638
_cell_length_c   18.35768672
_cell_angle_alpha   89.99497956
_cell_angle_beta   89.99998812
_cell_angle_gamma   90.00011442
_symmetry_Int_Tables_number   1
_chemical_formula_structural   AgSbTe2
_chemical_formula_sum   'Ag54 Sb54 Te108'
_cell_volume   6186.11047731
_cell_formula_units_Z   54
loop_
 _symmetry_equiv_pos_site_id
 _symmetry_equiv_pos_as_xyz
  1  'x, y, z'
loop_
 _atom_site_type_symbol
 _atom_site_label
 _atom_site_symmetry_multiplicity
 _atom_site_fract_x
 _atom_site_fract_y
 _atom_site_fract_z
 _atom_site_occupancy
  Ag  Ag0  1  0.33165762  0.50284393  0.84222683  1
  Ag  Ag1  1  0.67162286  0.83197320  0.16860065  1
  Ag  Ag2  1  0.16317499  0.50089926  0.32981345  1
  Ag  Ag3  1  0.33288680  0.00083703  0.67748334  1
  Ag  Ag4  1  0.00533596  -0.00342447  0.01158960  1
  Ag  Ag5  1  0.84518740  -0.00933336  0.16980404  1
  Ag  Ag6  1  0.16707493  0.50344153  0.01311218  1
  Ag  Ag7  1  -0.00436839  0.83744429  0.84029322  1
  Ag  Ag8  1  0.00028833  0.68027271  0.00163901  1
  Ag  Ag9  1  0.16697522  -0.00083164  0.83602742  1
  Ag  Ag10  1  0.51421367  0.83691028  0.66935487  1
  Ag  Ag11  1  0.15431762  0.84262651  0.33167544  1
  Ag  Ag12  1  0.83301077  0.67278218  0.82922571  1
  Ag  Ag13  1  0.32246732  0.15441676  0.83011657  1
  Ag  Ag14  1  0.67184184  0.50420630  0.49008901  1
  Ag  Ag15  1  -0.00420007  0.83975769  0.48329291  1
  Ag  Ag16  1  0.84310843  0.83290122  0.00412080  1
  Ag  Ag17  1  0.00377663  0.15510154  0.83461675  1
  Ag  Ag18  1  0.83557561  0.33667500  0.83620033  1
  Ag  Ag19  1  0.16397877  0.00144599  0.48598731  1
  Ag  Ag20  1  0.32534217  0.50044096  0.16866816  1
  Ag  Ag21  1  -0.00160629  0.15795759  0.48536980  1
  Ag  Ag22  1  0.49539982  0.15411397  0.66637417  1
  Ag  Ag23  1  0.83134515  0.83099752  0.67505077  1
  Ag  Ag24  1  0.32034785  -0.00073462  0.32740750  1
  Ag  Ag25  1  0.15489265  0.15172475  0.33629858  1
  Ag  Ag26  1  0.67220340  0.67201316  0.66013453  1
  Ag  Ag27  1  0.50383823  0.83361950  0.00761678  1
  Ag  Ag28  1  0.66328283  -0.01089985  0.66581619  1
  Ag  Ag29  1  0.83104909  0.66954498  0.50065252  1
  Ag  Ag30  1  0.49749694  -0.00691299  0.16935833  1
  Ag  Ag31  1  -0.00927806  0.84026025  0.16623510  1
  Ag  Ag32  1  0.32979342  0.67692263  0.00140427  1
  Ag  Ag33  1  0.67526606  0.83230187  0.82731904  1
  Ag  Ag34  1  0.50127945  0.67577575  0.16803714  1
  Ag  Ag35  1  0.50244427  0.83179268  0.32386936  1
  Ag  Ag36  1  -0.00143552  0.15096147  0.17597682  1
  Ag  Ag37  1  0.83106533  0.51176752  0.66035208  1
  Ag  Ag38  1  0.84394221  0.15985008  0.33206263  1
  Ag  Ag39  1  0.15864878  -0.00206012  0.17353674  1
  Ag  Ag40  1  0.32561160  0.32804741  0.33027100  1
  Ag  Ag41  1  0.67524521  0.16505820  0.49934584  1
  Ag  Ag42  1  -0.00062546  0.50187377  0.16938039  1
  Ag  Ag43  1  0.67024602  0.66777627  0.33412420  1
  Ag  Ag44  1  0.83704048  0.33344634  0.17049529  1
  Ag  Ag45  1  0.33232009  0.83861920  0.83710331  1
  Ag  Ag46  1  0.16703097  0.15936746  0.66030748  1
  Ag  Ag47  1  0.00703689  0.00655330  0.32258511  1
  Ag  Ag48  1  0.50906278  0.50769614  0.32949478  1
  Ag  Ag49  1  0.00060481  0.31899306  0.32923837  1
  Ag  Ag50  1  0.83360833  0.50376436  0.32929670  1
  Ag  Ag51  1  0.83692370  0.83508352  0.32883744  1
  Ag  Ag52  1  0.32459457  -0.00587982  0.00047919  1
  Ag  Ag53  1  0.66952894  0.51332005  0.17251801  1
  Sb  Sb54  1  0.32934046  0.83546320  0.50018452  1
  Sb  Sb55  1  0.83534068  0.16243867  0.66243979  1
  Sb  Sb56  1  0.66806532  -0.00533193  -0.00161653  1
  Sb  Sb57  1  -0.00105597  0.33011438  0.00674368  1
  Sb  Sb58  1  0.32919404  0.16219663  0.50253450  1
  Sb  Sb59  1  0.67431996  0.16012116  0.17510693  1
  Sb  Sb60  1  0.83043841  0.67065643  0.16903573  1
  Sb  Sb61  1  0.00166436  0.50243523  0.83880245  1
  Sb  Sb62  1  0.49296695  -0.00528245  0.83287575  1
  Sb  Sb63  1  0.49823825  -0.00233869  0.49936010  1
  Sb  Sb64  1  0.33837906  0.66986196  0.32684075  1
  Sb  Sb65  1  0.33300353  0.32786604  0.66495279  1
  Sb  Sb66  1  0.32847814  0.16422207  0.16565857  1
  Sb  Sb67  1  0.83856782  -0.00522436  0.49551687  1
  Sb  Sb68  1  0.67030616  -0.00712775  0.33610600  1
  Sb  Sb69  1  0.33244299  0.33322371  0.00394797  1
  Sb  Sb70  1  0.49315791  0.50977673  0.00967160  1
  Sb  Sb71  1  0.50394490  0.33437944  0.16978096  1
  Sb  Sb72  1  0.16381267  0.83484999  0.00595535  1
  Sb  Sb73  1  0.00223757  -0.00112639  0.66481008  1
  Sb  Sb74  1  0.50097723  0.33227176  0.49670915  1
  Sb  Sb75  1  0.16352704  0.49565810  0.66413761  1
  Sb  Sb76  1  0.49635856  0.15404953  -0.00389475  1
  Sb  Sb77  1  0.50556071  0.50559195  0.66335686  1
  Sb  Sb78  1  0.15650390  0.67352549  0.49592035  1
  Sb  Sb79  1  0.16347915  0.67387403  0.83540894  1
  Sb  Sb80  1  0.16317164  0.84022564  0.66460042  1
  Sb  Sb81  1  0.50425115  0.67143591  0.83947753  1
  Sb  Sb82  1  0.33486048  0.83482348  0.16308509  1
  Sb  Sb83  1  0.67244797  0.34036716  0.33258337  1
  Sb  Sb84  1  0.16009203  0.33187249  0.17019908  1
  Sb  Sb85  1  0.66986357  0.67170300  0.00368047  1
  Sb  Sb86  1  0.16850179  0.66976128  0.16601952  1
  Sb  Sb87  1  0.67035413  0.33595924  0.00226683  1
  Sb  Sb88  1  0.50215312  0.33298801  0.83314685  1
  Sb  Sb89  1  0.84020786  -0.00505007  0.83658706  1
  Sb  Sb90  1  0.67309823  0.83264132  0.49910076  1
  Sb  Sb91  1  0.16436830  0.16433264  0.00419692  1
  Sb  Sb92  1  0.66693748  0.50694543  0.83493122  1
  Sb  Sb93  1  0.34119990  0.67615354  0.67598223  1
  Sb  Sb94  1  -0.00602304  0.50299103  0.49085517  1
  Sb  Sb95  1  0.33684717  0.50166924  0.49129866  1
  Sb  Sb96  1  0.83574639  0.15974228  0.00525184  1
  Sb  Sb97  1  0.66943157  0.15746993  0.82604184  1
  Sb  Sb98  1  -0.00782220  0.67030772  0.67127176  1
  Sb  Sb99  1  -0.00292788  0.33008179  0.66239341  1
  Sb  Sb100  1  0.83506387  0.33609567  0.49445179  1
  Sb  Sb101  1  0.49852932  0.16308032  0.33630970  1
  Sb  Sb102  1  0.83823990  0.50814812  0.00501912  1
  Sb  Sb103  1  -0.00667712  0.67401537  0.32516044  1
  Sb  Sb104  1  0.16378211  0.32609634  0.49356777  1
  Sb  Sb105  1  0.50675064  0.66919770  0.49327823  1
  Sb  Sb106  1  0.16264285  0.32746918  0.83411400  1
  Sb  Sb107  1  0.66994357  0.33392441  0.66640097  1
  Te  Te108  1  0.16102643  0.16325752  0.17205012  1
  Te  Te109  1  0.16282420  0.16091786  0.49787203  1
  Te  Te110  1  0.16542764  0.16429123  0.83732415  1
  Te  Te111  1  0.16745245  0.49940940  0.17053735  1
  Te  Te112  1  0.16495456  0.50030069  0.49696631  1
  Te  Te113  1  0.17083525  0.49945036  0.82852823  1
  Te  Te114  1  0.16385978  0.83600619  0.17304641  1
  Te  Te115  1  0.15990292  0.83894632  0.49514550  1
  Te  Te116  1  0.16865004  0.83719084  0.83190603  1
  Te  Te117  1  0.50169036  0.16265735  0.16580363  1
  Te  Te118  1  0.50218058  0.16546093  0.50604806  1
  Te  Te119  1  0.50010088  0.16715686  0.82649253  1
  Te  Te120  1  0.50619981  0.49935906  0.17153962  1
  Te  Te121  1  0.50795246  0.50067533  0.49408116  1
  Te  Te122  1  0.49451139  0.50053193  0.83404055  1
  Te  Te123  1  0.49558541  0.83466722  0.16723264  1
  Te  Te124  1  0.49839018  0.83285959  0.50358688  1
  Te  Te125  1  0.49716718  0.83210206  0.82868492  1
  Te  Te126  1  0.83852012  0.16830993  0.17099035  1
  Te  Te127  1  0.83714345  0.16696542  0.49617970  1
  Te  Te128  1  0.83626123  0.16813985  0.83325330  1
  Te  Te129  1  0.83142396  0.50264327  0.16796732  1
  Te  Te130  1  0.83076429  0.50285503  0.50022760  1
  Te  Te131  1  0.83309231  0.50140096  0.83520088  1
  Te  Te132  1  0.83137069  0.83192613  0.16691454  1
  Te  Te133  1  0.83710647  0.83097086  0.49326205  1
  Te  Te134  1  0.83370980  0.83400666  0.83519015  1
  Te  Te135  1  0.16555780  0.00117358  -0.00184667  1
  Te  Te136  1  0.16564168  -0.00308722  0.32944239  1
  Te  Te137  1  0.17062211  0.00285499  0.67605339  1
  Te  Te138  1  0.16663834  0.34394829  0.00059591  1
  Te  Te139  1  0.16453335  0.34195756  0.33235072  1
  Te  Te140  1  0.16582354  0.32216733  0.66519689  1
  Te  Te141  1  0.16715613  0.66160395  -0.00004660  1
  Te  Te142  1  0.17005399  0.66186875  0.33369784  1
  Te  Te143  1  0.16939474  0.66498042  0.66549259  1
  Te  Te144  1  0.49655389  -0.00750195  0.00485323  1
  Te  Te145  1  0.50220612  -0.00352833  0.33150186  1
  Te  Te146  1  0.49709510  -0.00362337  0.66561440  1
  Te  Te147  1  0.50120418  0.33093508  0.00034813  1
  Te  Te148  1  0.49246328  0.33516662  0.33259384  1
  Te  Te149  1  0.50075221  0.33176118  0.66555321  1
  Te  Te150  1  0.49496343  0.67413092  0.00594783  1
  Te  Te151  1  0.50463652  0.66786546  0.32849318  1
  Te  Te152  1  0.50859624  0.67222719  0.66592581  1
  Te  Te153  1  0.83652616  -0.00637004  0.00632632  1
  Te  Te154  1  0.83458628  -0.00092040  0.33023188  1
  Te  Te155  1  0.82869309  -0.00523591  0.66575028  1
  Te  Te156  1  0.83436040  0.33401239  0.00045816  1
  Te  Te157  1  0.83816605  0.33710193  0.33047791  1
  Te  Te158  1  0.83395453  0.33535449  0.67236878  1
  Te  Te159  1  0.83654527  0.67342326  -0.00575094  1
  Te  Te160  1  0.82987766  0.66765231  0.33523863  1
  Te  Te161  1  0.83135058  0.66958228  0.66781246  1
  Te  Te162  1  -0.00036507  0.16139577  -0.00508636  1
  Te  Te163  1  -0.00043492  0.16412891  0.33037422  1
  Te  Te164  1  0.00352172  0.16569051  0.67527344  1
  Te  Te165  1  0.00505178  0.49774443  0.00482029  1
  Te  Te166  1  -0.00419834  0.50817736  0.33047978  1
  Te  Te167  1  -0.00595938  0.49908112  0.66510880  1
  Te  Te168  1  0.00196020  0.83646318  0.00171643  1
  Te  Te169  1  -0.00249705  0.83325398  0.32769495  1
  Te  Te170  1  -0.00443280  0.83347719  0.67840046  1
  Te  Te171  1  0.33231644  0.16239562  -0.00704066  1
  Te  Te172  1  0.33124624  0.16434136  0.33298121  1
  Te  Te173  1  0.33238793  0.16282238  0.66945173  1
  Te  Te174  1  0.33043925  0.49909180  0.00253354  1
  Te  Te175  1  0.33317305  0.50244483  0.32968522  1
  Te  Te176  1  0.33456749  0.49932739  0.66632797  1
  Te  Te177  1  0.32964926  0.83506651  -0.00252552  1
  Te  Te178  1  0.33949611  0.83694287  0.33364377  1
  Te  Te179  1  0.33134955  0.84018597  0.67042136  1
  Te  Te180  1  0.66569531  0.16588424  -0.00085342  1
  Te  Te181  1  0.66787246  0.16882590  0.34003792  1
  Te  Te182  1  0.66590403  0.16570935  0.66103698  1
  Te  Te183  1  0.66413313  0.50285989  0.00760807  1
  Te  Te184  1  0.66953680  0.50136910  0.33121592  1
  Te  Te185  1  0.67122870  0.50475223  0.66722312  1
  Te  Te186  1  0.66248945  0.83334243  0.00258467  1
  Te  Te187  1  0.66411429  0.82971768  0.33285530  1
  Te  Te188  1  0.67068811  0.83234122  0.66357466  1
  Te  Te189  1  -0.00033901  -0.00406839  0.16661685  1
  Te  Te190  1  0.00294923  -0.00081600  0.49999809  1
  Te  Te191  1  0.00247611  -0.00261764  0.83061311  1
  Te  Te192  1  -0.00468193  0.34239284  0.17123575  1
  Te  Te193  1  -0.00061791  0.32571708  0.49161461  1
  Te  Te194  1  -0.00470056  0.33400537  0.83385332  1
  Te  Te195  1  0.00213612  0.66230916  0.16009803  1
  Te  Te196  1  -0.00760457  0.67402549  0.50292808  1
  Te  Te197  1  -0.00385024  0.66976972  0.84043912  1
  Te  Te198  1  0.33394992  0.00205784  0.16541957  1
  Te  Te199  1  0.32570932  -0.00084649  0.49189685  1
  Te  Te200  1  0.33256799  -0.00160170  0.83604839  1
  Te  Te201  1  0.33479965  0.33571179  0.17122697  1
  Te  Te202  1  0.33252892  0.33284749  0.49140063  1
  Te  Te203  1  0.33360957  0.33643504  0.83404468  1
  Te  Te204  1  0.33736792  0.66072552  0.16154849  1
  Te  Te205  1  0.33250909  0.66688785  0.50440287  1
  Te  Te206  1  0.33329598  0.66584791  0.84025070  1
  Te  Te207  1  0.66111636  -0.00571229  0.16625869  1
  Te  Te208  1  0.66693739  0.00387135  0.50520935  1
  Te  Te209  1  0.66680225  -0.00770754  0.82811510  1
  Te  Te210  1  0.67522332  0.33155490  0.16712199  1
  Te  Te211  1  0.66782848  0.33353364  0.50023492  1
  Te  Te212  1  0.67318163  0.33391181  0.83469171  1
  Te  Te213  1  0.66341887  0.67120630  0.16887624  1
  Te  Te214  1  0.67146840  0.66457437  0.49785814  1
  Te  Te215  1  0.67116985  0.67249635  0.83179522  1
