# generated using pymatgen
data_AgSbTe2
_symmetry_space_group_name_H-M   'P 1'
_cell_length_a   18.33749391
_cell_length_b   18.33317509
_cell_length_c   18.33693068
_cell_angle_alpha   89.99762555
_cell_angle_beta   89.99855716
_cell_angle_gamma   90.00026207
_symmetry_Int_Tables_number   1
_chemical_formula_structural   AgSbTe2
_chemical_formula_sum   'Ag54 Sb54 Te108'
_cell_volume   6164.59161855
_cell_formula_units_Z   54
loop_
 _symmetry_equiv_pos_site_id
 _symmetry_equiv_pos_as_xyz
  1  'x, y, z'
loop_
 _atom_site_type_symbol
 _atom_site_label
 _atom_site_symmetry_multiplicity
 _atom_site_fract_x
 _atom_site_fract_y
 _atom_site_fract_z
 _atom_site_occupancy
  Ag  Ag0  1  0.48961054  -0.00209112  0.17136788  1
  Ag  Ag1  1  0.32315658  0.83558381  0.84135862  1
  Ag  Ag2  1  0.67092597  0.49653956  0.49981715  1
  Ag  Ag3  1  0.00546206  -0.00134719  -0.00173518  1
  Ag  Ag4  1  0.83583662  0.00553557  0.50357804  1
  Ag  Ag5  1  0.32575530  0.50688315  0.16668860  1
  Ag  Ag6  1  0.49417294  0.66911407  0.16473361  1
  Ag  Ag7  1  0.33957849  0.33186529  0.66902981  1
  Ag  Ag8  1  0.66505113  0.66645812  0.00537016  1
  Ag  Ag9  1  0.49966381  0.49376486  0.66658482  1
  Ag  Ag10  1  0.00850894  0.50532567  0.16878700  1
  Ag  Ag11  1  0.16111430  0.66496062  0.84135984  1
  Ag  Ag12  1  0.32920674  0.00011670  0.32429242  1
  Ag  Ag13  1  0.00188354  0.16575942  0.83061219  1
  Ag  Ag14  1  0.49887642  0.33668952  0.82317395  1
  Ag  Ag15  1  0.84149778  -0.00003839  0.82886525  1
  Ag  Ag16  1  0.32441654  0.83608547  0.16300902  1
  Ag  Ag17  1  0.00321464  0.33911322  0.33991028  1
  Ag  Ag18  1  0.17171005  -0.01130987  0.16778059  1
  Ag  Ag19  1  0.16564567  0.83494608  0.00759386  1
  Ag  Ag20  1  0.50380312  0.00716006  0.48980923  1
  Ag  Ag21  1  -0.00126835  0.49125153  0.49577649  1
  Ag  Ag22  1  0.16393165  0.83459855  0.32118958  1
  Ag  Ag23  1  0.00510892  0.83643546  0.83947180  1
  Ag  Ag24  1  0.66865766  0.67176896  0.32774793  1
  Ag  Ag25  1  0.16218793  0.50663155  0.32362404  1
  Ag  Ag26  1  0.00158010  0.49708790  0.83468538  1
  Ag  Ag27  1  0.83961617  0.33196258  0.50664719  1
  Ag  Ag28  1  0.00816120  0.66329090  0.33034238  1
  Ag  Ag29  1  -0.00116512  0.33099110  0.66764363  1
  Ag  Ag30  1  0.32329537  -0.00152892  0.00767491  1
  Ag  Ag31  1  0.84396712  0.33570583  0.82662948  1
  Ag  Ag32  1  0.49943004  0.66213941  0.84112663  1
  Ag  Ag33  1  0.16689683  0.15658931  0.00368716  1
  Ag  Ag34  1  0.16737696  0.67490587  0.16493896  1
  Ag  Ag35  1  0.00829573  0.00024783  0.33204944  1
  Ag  Ag36  1  0.33264578  0.00169967  0.66699242  1
  Ag  Ag37  1  0.16479293  0.16067657  0.32667750  1
  Ag  Ag38  1  0.66524079  0.00297921  0.65859617  1
  Ag  Ag39  1  0.49427785  0.16623561  0.00387443  1
  Ag  Ag40  1  0.00127383  0.16932935  0.50034889  1
  Ag  Ag41  1  0.16333083  0.50593523  0.00679393  1
  Ag  Ag42  1  0.66279102  0.33227035  0.66515677  1
  Ag  Ag43  1  0.66026612  -0.00345477  0.33631238  1
  Ag  Ag44  1  0.84559640  0.50085747  -0.00433188  1
  Ag  Ag45  1  0.50504012  0.33011276  0.50499584  1
  Ag  Ag46  1  0.00028292  0.00519977  0.67165053  1
  Ag  Ag47  1  0.15835030  0.33847753  0.83385406  1
  Ag  Ag48  1  0.16215247  0.66351035  0.48193277  1
  Ag  Ag49  1  0.84539750  0.66203721  0.83706122  1
  Ag  Ag50  1  0.01070043  0.83185473  0.16499953  1
  Ag  Ag51  1  0.49548110  0.16177130  0.33075162  1
  Ag  Ag52  1  0.66180338  0.83039912  0.16743372  1
  Ag  Ag53  1  0.49851484  0.33061388  0.16857816  1
  Sb  Sb54  1  0.83996184  0.83413504  0.33180457  1
  Sb  Sb55  1  0.49581017  0.49645219  0.33434000  1
  Sb  Sb56  1  0.83740334  0.66619545  0.16185370  1
  Sb  Sb57  1  0.49747463  0.66418542  0.49604291  1
  Sb  Sb58  1  0.66497254  0.33848929  -0.00506250  1
  Sb  Sb59  1  0.49351226  0.83686578  0.00273810  1
  Sb  Sb60  1  0.00115827  0.66547463  0.66757912  1
  Sb  Sb61  1  0.00292534  0.33340241  -0.00398279  1
  Sb  Sb62  1  0.32909787  0.67181690  0.32870736  1
  Sb  Sb63  1  0.32815999  0.16329868  0.83455884  1
  Sb  Sb64  1  0.16328693  0.16612073  0.66953105  1
  Sb  Sb65  1  0.66527106  0.50496354  0.17018178  1
  Sb  Sb66  1  0.66631904  0.66511732  0.66639081  1
  Sb  Sb67  1  0.33266314  0.32878481  -0.00253798  1
  Sb  Sb68  1  0.32892845  0.16602210  0.49966920  1
  Sb  Sb69  1  0.67008441  0.49993642  0.83014944  1
  Sb  Sb70  1  0.66596145  0.83440258  0.49379134  1
  Sb  Sb71  1  0.33073296  0.83686001  0.49724450  1
  Sb  Sb72  1  0.83738399  -0.00172826  0.16733105  1
  Sb  Sb73  1  0.00207825  0.83671258  0.49805048  1
  Sb  Sb74  1  0.83851032  0.16488784  0.33536218  1
  Sb  Sb75  1  0.16151406  0.33509607  0.50260557  1
  Sb  Sb76  1  0.00353550  0.16519710  0.16716710  1
  Sb  Sb77  1  0.83776389  0.16957862  -0.00381379  1
  Sb  Sb78  1  0.32961409  0.49742396  0.49736840  1
  Sb  Sb79  1  0.84181430  0.50019573  0.33109182  1
  Sb  Sb80  1  0.83552174  0.16763135  0.66627068  1
  Sb  Sb81  1  0.66763548  -0.00491910  0.00245932  1
  Sb  Sb82  1  0.49829249  0.17089525  0.66613419  1
  Sb  Sb83  1  0.16775000  0.49813922  0.66785287  1
  Sb  Sb84  1  0.16592709  0.83561048  0.66993591  1
  Sb  Sb85  1  0.49998536  0.00164728  0.83456546  1
  Sb  Sb86  1  0.33312480  0.67226157  0.00115421  1
  Sb  Sb87  1  0.83260685  0.49637409  0.67006458  1
  Sb  Sb88  1  0.83836683  0.66422120  0.50260812  1
  Sb  Sb89  1  0.33242030  0.66629909  0.67027866  1
  Sb  Sb90  1  0.66799825  0.33239321  0.33880254  1
  Sb  Sb91  1  0.83480786  0.83801183  0.66864665  1
  Sb  Sb92  1  0.49594126  0.49858322  -0.00186467  1
  Sb  Sb93  1  0.66920873  0.16855986  0.49941494  1
  Sb  Sb94  1  0.17021145  0.33649224  0.16391164  1
  Sb  Sb95  1  0.32838633  0.50156621  0.83774753  1
  Sb  Sb96  1  0.16475012  -0.00202080  0.49195667  1
  Sb  Sb97  1  0.65976793  0.16025547  0.16907107  1
  Sb  Sb98  1  0.32929116  0.32914941  0.33514931  1
  Sb  Sb99  1  0.83361966  0.33752763  0.16662136  1
  Sb  Sb100  1  0.33275046  0.16323743  0.16644343  1
  Sb  Sb101  1  0.66842963  0.83203051  0.83762584  1
  Sb  Sb102  1  0.84127824  0.82913620  -0.00117067  1
  Sb  Sb103  1  0.16075212  -0.00139683  0.84178316  1
  Sb  Sb104  1  0.00219186  0.66739726  0.00265647  1
  Sb  Sb105  1  0.49474824  0.84023547  0.32853804  1
  Sb  Sb106  1  0.66920104  0.16735431  0.83313715  1
  Sb  Sb107  1  0.49868818  0.83327281  0.66912642  1
  Te  Te108  1  0.16625955  0.16790377  0.16483251  1
  Te  Te109  1  0.16059726  0.16699843  0.49301921  1
  Te  Te110  1  0.16190497  0.17158013  0.83766050  1
  Te  Te111  1  0.16549684  0.49725041  0.16603883  1
  Te  Te112  1  0.16184072  0.50310009  0.49850101  1
  Te  Te113  1  0.16430812  0.50112651  0.83424618  1
  Te  Te114  1  0.16596703  0.83359710  0.16509015  1
  Te  Te115  1  0.16673019  0.82385291  0.49754096  1
  Te  Te116  1  0.16511233  0.83082468  0.83533255  1
  Te  Te117  1  0.49865602  0.16600237  0.16741040  1
  Te  Te118  1  0.49936257  0.16668730  0.49677379  1
  Te  Te119  1  0.50002642  0.17137037  0.83866323  1
  Te  Te120  1  0.49782880  0.50511313  0.16659627  1
  Te  Te121  1  0.50055616  0.49747131  0.50232188  1
  Te  Te122  1  0.49876620  0.49977128  0.83141726  1
  Te  Te123  1  0.50052362  0.83129524  0.16582990  1
  Te  Te124  1  0.49921697  0.83873649  0.50040151  1
  Te  Te125  1  0.49805356  0.82842530  0.83505095  1
  Te  Te126  1  0.83039591  0.16892290  0.16504080  1
  Te  Te127  1  0.84049880  0.16728069  0.49906119  1
  Te  Te128  1  0.83941349  0.16878253  0.83425417  1
  Te  Te129  1  0.84024285  0.49989896  0.15828572  1
  Te  Te130  1  0.83582421  0.49701183  0.50009409  1
  Te  Te131  1  0.83594744  0.49926290  0.83564005  1
  Te  Te132  1  0.82941005  0.83318709  0.16542404  1
  Te  Te133  1  0.83320573  0.84050091  0.50059325  1
  Te  Te134  1  0.83914298  0.83388261  0.83459208  1
  Te  Te135  1  0.16505767  -0.00146324  0.00204802  1
  Te  Te136  1  0.16802411  -0.00033384  0.33071634  1
  Te  Te137  1  0.16624068  0.00129855  0.66258973  1
  Te  Te138  1  0.16792489  0.33400538  -0.00568165  1
  Te  Te139  1  0.16288727  0.33020771  0.33418249  1
  Te  Te140  1  0.16399120  0.33269526  0.67191104  1
  Te  Te141  1  0.16778783  0.66606654  0.00178094  1
  Te  Te142  1  0.16663043  0.66637353  0.32597055  1
  Te  Te143  1  0.16715525  0.66692069  0.67708662  1
  Te  Te144  1  0.50069570  0.00457228  0.00463451  1
  Te  Te145  1  0.49931755  0.00126459  0.33130053  1
  Te  Te146  1  0.50071496  0.00138218  0.66647348  1
  Te  Te147  1  0.50022792  0.32934712  0.00535990  1
  Te  Te148  1  0.49904537  0.32805125  0.33231643  1
  Te  Te149  1  0.50158185  0.33284985  0.66468616  1
  Te  Te150  1  0.50258775  0.66625714  0.00209896  1
  Te  Te151  1  0.50356453  0.66597436  0.32990448  1
  Te  Te152  1  0.50015568  0.66081896  0.66627318  1
  Te  Te153  1  0.83758705  0.00095720  -0.00536835  1
  Te  Te154  1  0.83119298  0.00039170  0.33688590  1
  Te  Te155  1  0.83689880  0.00174372  0.66684407  1
  Te  Te156  1  0.83199332  0.33829513  -0.00632342  1
  Te  Te157  1  0.83886180  0.33246271  0.33914365  1
  Te  Te158  1  0.83490903  0.33313367  0.66674736  1
  Te  Te159  1  0.82849916  0.66278848  -0.00540252  1
  Te  Te160  1  0.83024343  0.66676057  0.33506894  1
  Te  Te161  1  0.83229508  0.66745442  0.67629884  1
  Te  Te162  1  0.00413698  0.16258925  -0.00280758  1
  Te  Te163  1  0.00297870  0.16188676  0.33359729  1
  Te  Te164  1  0.00080014  0.16731662  0.66757820  1
  Te  Te165  1  0.00321472  0.49946321  -0.00232953  1
  Te  Te166  1  0.00215785  0.50133245  0.33360083  1
  Te  Te167  1  0.00007993  0.49712880  0.66808573  1
  Te  Te168  1  0.00457592  0.83602222  0.00135179  1
  Te  Te169  1  0.00423536  0.83342936  0.33102178  1
  Te  Te170  1  0.00027308  0.83846665  0.67233397  1
  Te  Te171  1  0.33114571  0.15956922  -0.00047222  1
  Te  Te172  1  0.33168956  0.16131676  0.33385208  1
  Te  Te173  1  0.33093587  0.16636353  0.66713475  1
  Te  Te174  1  0.32712276  0.49822102  0.00586295  1
  Te  Te175  1  0.32595697  0.49854598  0.32884977  1
  Te  Te176  1  0.33812746  0.49482095  0.66645297  1
  Te  Te177  1  0.32832701  0.83858136  0.00113689  1
  Te  Te178  1  0.32653427  0.83907918  0.32926206  1
  Te  Te179  1  0.33377316  0.83881100  0.67103776  1
  Te  Te180  1  0.66198491  0.16632033  0.00094534  1
  Te  Te181  1  0.65960106  0.16081256  0.33429774  1
  Te  Te182  1  0.66534445  0.16439664  0.66683349  1
  Te  Te183  1  0.66607539  0.50606788  0.00126566  1
  Te  Te184  1  0.66712719  0.50133426  0.33839297  1
  Te  Te185  1  0.66241436  0.49699740  0.66129034  1
  Te  Te186  1  0.66717114  0.82741470  0.00505337  1
  Te  Te187  1  0.66683070  0.83373624  0.32904678  1
  Te  Te188  1  0.66600524  0.84119030  0.66659907  1
  Te  Te189  1  0.00191053  -0.00210992  0.16929635  1
  Te  Te190  1  -0.00182502  0.00116302  0.49776584  1
  Te  Te191  1  0.00133384  -0.00003673  0.83243892  1
  Te  Te192  1  -0.00114978  0.33813355  0.17239159  1
  Te  Te193  1  0.00023847  0.33245569  0.50196894  1
  Te  Te194  1  0.00060894  0.33497724  0.83413109  1
  Te  Te195  1  0.00302825  0.66791260  0.16934978  1
  Te  Te196  1  0.00199525  0.66462536  0.49736084  1
  Te  Te197  1  0.00157587  0.66530916  0.83329463  1
  Te  Te198  1  0.33294328  -0.00160238  0.16557897  1
  Te  Te199  1  0.33863098  0.00022501  0.50535648  1
  Te  Te200  1  0.33410610  -0.00352929  0.82944778  1
  Te  Te201  1  0.33954102  0.33897573  0.16724137  1
  Te  Te202  1  0.34015090  0.33312667  0.50615890  1
  Te  Te203  1  0.33913465  0.33298889  0.82949174  1
  Te  Te204  1  0.33343504  0.66920143  0.16682394  1
  Te  Te205  1  0.32614895  0.66704663  0.50070371  1
  Te  Te206  1  0.33632632  0.67110314  0.83391104  1
  Te  Te207  1  0.66628977  -0.00634348  0.17040437  1
  Te  Te208  1  0.66684280  0.00053288  0.49887986  1
  Te  Te209  1  0.67279176  -0.00074514  0.83092656  1
  Te  Te210  1  0.66078844  0.33513053  0.16757603  1
  Te  Te211  1  0.66653630  0.33508158  0.50357620  1
  Te  Te212  1  0.66096108  0.33365834  0.82677828  1
  Te  Te213  1  0.66862018  0.66843041  0.16777763  1
  Te  Te214  1  0.66757487  0.66210542  0.49601873  1
  Te  Te215  1  0.65878764  0.66732523  0.83483418  1
