# generated using pymatgen
data_AgSbTe2
_symmetry_space_group_name_H-M   'P 1'
_cell_length_a   18.33634324
_cell_length_b   18.34530458
_cell_length_c   18.34685798
_cell_angle_alpha   89.99598580
_cell_angle_beta   90.00066170
_cell_angle_gamma   89.99674755
_symmetry_Int_Tables_number   1
_chemical_formula_structural   AgSbTe2
_chemical_formula_sum   'Ag54 Sb54 Te108'
_cell_volume   6171.62250179
_cell_formula_units_Z   54
loop_
 _symmetry_equiv_pos_site_id
 _symmetry_equiv_pos_as_xyz
  1  'x, y, z'
loop_
 _atom_site_type_symbol
 _atom_site_label
 _atom_site_symmetry_multiplicity
 _atom_site_fract_x
 _atom_site_fract_y
 _atom_site_fract_z
 _atom_site_occupancy
  Ag  Ag0  1  0.16672254  0.50635082  0.00110971  1
  Ag  Ag1  1  0.83275789  0.32310790  0.82567971  1
  Ag  Ag2  1  0.67290862  0.83225172  0.82590671  1
  Ag  Ag3  1  0.66607343  0.67611467  0.34701261  1
  Ag  Ag4  1  0.16154498  0.16844239  0.33653132  1
  Ag  Ag5  1  -0.00561371  0.32672775  0.66343294  1
  Ag  Ag6  1  0.66851875  0.67033589  -0.00849745  1
  Ag  Ag7  1  0.32952829  0.83751437  0.17351588  1
  Ag  Ag8  1  0.66961841  0.82969090  0.49960706  1
  Ag  Ag9  1  0.83534739  0.17179725  0.66781659  1
  Ag  Ag10  1  -0.00177354  -0.00198326  0.66125841  1
  Ag  Ag11  1  0.33709936  -0.00434106  0.33149491  1
  Ag  Ag12  1  0.00076500  0.15800797  0.17475705  1
  Ag  Ag13  1  -0.00391269  0.15766053  0.50386488  1
  Ag  Ag14  1  0.16257741  0.33484164  0.49665902  1
  Ag  Ag15  1  0.16399563  0.66802982  0.17428880  1
  Ag  Ag16  1  -0.00470739  0.83943574  0.50138629  1
  Ag  Ag17  1  0.82780385  0.67311815  0.50424033  1
  Ag  Ag18  1  0.16212291  0.66943332  0.49845365  1
  Ag  Ag19  1  0.51366734  0.67104273  0.49756049  1
  Ag  Ag20  1  0.83604037  0.16271346  -0.01488419  1
  Ag  Ag21  1  0.32694087  -0.00377148  0.00444633  1
  Ag  Ag22  1  0.83380936  0.50012946  0.66708000  1
  Ag  Ag23  1  0.67677302  0.16177423  0.82486805  1
  Ag  Ag24  1  0.83676847  -0.00092927  0.17314861  1
  Ag  Ag25  1  0.50211520  -0.00422754  0.16614017  1
  Ag  Ag26  1  0.66681263  0.51596748  0.50376360  1
  Ag  Ag27  1  0.16294486  0.33722864  0.17821574  1
  Ag  Ag28  1  0.33774557  0.83455724  0.49414789  1
  Ag  Ag29  1  0.50878501  0.83366472  0.33833393  1
  Ag  Ag30  1  0.50232202  -0.00332023  0.83593432  1
  Ag  Ag31  1  -0.00895349  0.67079545  0.66294990  1
  Ag  Ag32  1  0.67716253  0.16239072  0.50477199  1
  Ag  Ag33  1  0.00363277  0.83851509  0.16911320  1
  Ag  Ag34  1  0.16776970  0.49630870  0.33825516  1
  Ag  Ag35  1  0.83025041  0.66750607  0.82038192  1
  Ag  Ag36  1  0.66542833  -0.00693586  0.33794377  1
  Ag  Ag37  1  0.15704049  0.50134913  0.65618711  1
  Ag  Ag38  1  0.16519587  0.83366135  0.00358751  1
  Ag  Ag39  1  0.82891857  0.83666620  0.33938651  1
  Ag  Ag40  1  -0.00702743  0.83882048  0.82493039  1
  Ag  Ag41  1  0.83669483  -0.00720233  0.49763016  1
  Ag  Ag42  1  0.67643455  0.34141187  0.66453694  1
  Ag  Ag43  1  0.32832404  0.16249197  0.83375472  1
  Ag  Ag44  1  0.15464723  -0.00541139  0.49790324  1
  Ag  Ag45  1  -0.00395298  0.15918397  0.82588788  1
  Ag  Ag46  1  0.50522864  0.33848053  0.49958619  1
  Ag  Ag47  1  0.66946167  0.51508962  0.82067033  1
  Ag  Ag48  1  0.50520375  0.83325097  0.65537506  1
  Ag  Ag49  1  0.67416027  0.66413755  0.66079183  1
  Ag  Ag50  1  0.49917778  0.50866043  0.33851712  1
  Ag  Ag51  1  -0.00009351  -0.00125968  -0.00371991  1
  Ag  Ag52  1  0.00383045  0.32982634  0.34576141  1
  Ag  Ag53  1  0.50004509  0.83726619  0.00116095  1
  Sb  Sb54  1  0.83233680  -0.00176590  0.82793166  1
  Sb  Sb55  1  0.83307817  0.50475781  0.34330095  1
  Sb  Sb56  1  0.32598110  0.32800787  0.33565657  1
  Sb  Sb57  1  0.49760119  0.16086614  0.33640051  1
  Sb  Sb58  1  0.15933149  0.33326993  0.82939001  1
  Sb  Sb59  1  0.33499199  0.83804615  0.83306599  1
  Sb  Sb60  1  0.50872082  0.32783041  0.82436758  1
  Sb  Sb61  1  0.00215639  0.50163348  0.16702914  1
  Sb  Sb62  1  0.15951334  0.66724592  0.83110279  1
  Sb  Sb63  1  0.50819833  0.16056057  0.66541653  1
  Sb  Sb64  1  0.83082719  0.83015017  0.66047713  1
  Sb  Sb65  1  -0.00292962  0.67492911  -0.00477149  1
  Sb  Sb66  1  0.66696466  0.33638604  -0.01012410  1
  Sb  Sb67  1  0.84082116  0.32571087  0.16343322  1
  Sb  Sb68  1  0.49541055  0.32794943  0.17491167  1
  Sb  Sb69  1  0.16434644  0.82934472  0.66441666  1
  Sb  Sb70  1  0.32991718  0.32447841  0.00046484  1
  Sb  Sb71  1  0.67223868  0.33293401  0.34462876  1
  Sb  Sb72  1  -0.00122191  0.66637673  0.34033725  1
  Sb  Sb73  1  0.83840393  0.16142538  0.33955677  1
  Sb  Sb74  1  0.00088989  0.32605782  -0.00412219  1
  Sb  Sb75  1  0.83650394  0.67395182  0.17007491  1
  Sb  Sb76  1  0.33003093  0.15999609  0.50263386  1
  Sb  Sb77  1  0.83581122  0.33236446  0.50665266  1
  Sb  Sb78  1  0.67371671  -0.00365759  0.66166186  1
  Sb  Sb79  1  0.32946791  0.50760348  0.16879459  1
  Sb  Sb80  1  0.33582704  0.67382271  0.33630732  1
  Sb  Sb81  1  0.66650409  0.83448305  0.17116492  1
  Sb  Sb82  1  -0.00070158  0.50044733  0.50338588  1
  Sb  Sb83  1  0.50987820  0.67613001  0.82539671  1
  Sb  Sb84  1  0.67393805  0.16302854  0.16839610  1
  Sb  Sb85  1  0.66647990  0.50257845  0.17261651  1
  Sb  Sb86  1  0.33040803  0.33175954  0.66412462  1
  Sb  Sb87  1  0.49752672  0.67649783  0.17262386  1
  Sb  Sb88  1  -0.00096910  0.00165009  0.33574294  1
  Sb  Sb89  1  0.33403504  0.66808166  0.66468295  1
  Sb  Sb90  1  0.50388739  -0.00581782  0.49954223  1
  Sb  Sb91  1  0.50583074  0.15933331  -0.00230912  1
  Sb  Sb92  1  0.32589521  0.15787992  0.16472817  1
  Sb  Sb93  1  0.66982993  -0.00432408  0.00005816  1
  Sb  Sb94  1  0.16323464  -0.00317857  0.17162751  1
  Sb  Sb95  1  0.50635212  0.50423269  0.66095629  1
  Sb  Sb96  1  0.15991058  0.16199299  0.00335024  1
  Sb  Sb97  1  0.33396183  0.67648196  0.00156366  1
  Sb  Sb98  1  0.33811117  0.49385385  0.83318055  1
  Sb  Sb99  1  0.16524440  0.83383923  0.33376840  1
  Sb  Sb100  1  0.16455382  -0.00052574  0.83026176  1
  Sb  Sb101  1  0.83386020  0.83880004  0.00198988  1
  Sb  Sb102  1  -0.00604600  0.50044057  0.82962388  1
  Sb  Sb103  1  0.33010613  -0.00178241  0.66473240  1
  Sb  Sb104  1  0.83692728  0.49829463  -0.00794745  1
  Sb  Sb105  1  0.15706791  0.16984901  0.66071119  1
  Sb  Sb106  1  0.49886176  0.50997820  0.00405194  1
  Sb  Sb107  1  0.33412187  0.50559707  0.49947331  1
  Te  Te108  1  0.16021248  0.16997189  0.17027119  1
  Te  Te109  1  0.16472801  0.16796885  0.49708945  1
  Te  Te110  1  0.16299638  0.16743123  0.83392019  1
  Te  Te111  1  0.16690037  0.50222230  0.16838089  1
  Te  Te112  1  0.16804256  0.49912023  0.49846773  1
  Te  Te113  1  0.16880527  0.49967965  0.83820096  1
  Te  Te114  1  0.16506701  0.83232347  0.16685127  1
  Te  Te115  1  0.16051860  0.83385635  0.50044239  1
  Te  Te116  1  0.16297862  0.83311090  0.83816976  1
  Te  Te117  1  0.49920834  0.15956442  0.16666745  1
  Te  Te118  1  0.49923701  0.17166136  0.50053554  1
  Te  Te119  1  0.50479369  0.16103639  0.83309484  1
  Te  Te120  1  0.49772362  0.49828861  0.17504306  1
  Te  Te121  1  0.50113481  0.50221766  0.49752920  1
  Te  Te122  1  0.50775876  0.49812881  0.83422099  1
  Te  Te123  1  0.49801015  0.83796614  0.16670244  1
  Te  Te124  1  0.50377635  0.83290525  0.49752175  1
  Te  Te125  1  0.50045188  0.83698414  0.84014773  1
  Te  Te126  1  0.84151369  0.16118475  0.16830995  1
  Te  Te127  1  0.83651834  0.16710120  0.50352905  1
  Te  Te128  1  0.83487399  0.16230043  0.82858866  1
  Te  Te129  1  0.83350884  0.49856532  0.16560758  1
  Te  Te130  1  0.82825742  0.50645082  0.50526427  1
  Te  Te131  1  0.82774465  0.50491796  0.82877174  1
  Te  Te132  1  0.83845155  0.83808808  0.17221440  1
  Te  Te133  1  0.83324317  0.83331051  0.49954366  1
  Te  Te134  1  0.83333345  0.83127845  0.83598854  1
  Te  Te135  1  0.16429788  -0.00449473  -0.00024160  1
  Te  Te136  1  0.17082262  0.00174937  0.33801927  1
  Te  Te137  1  0.16130981  -0.00029772  0.66007899  1
  Te  Te138  1  0.16701095  0.33667081  0.00034091  1
  Te  Te139  1  0.16418882  0.33376447  0.33565383  1
  Te  Te140  1  0.16224804  0.33922875  0.66226606  1
  Te  Te141  1  0.16611193  0.66915925  -0.00043202  1
  Te  Te142  1  0.16633872  0.66305089  0.33375635  1
  Te  Te143  1  0.16432133  0.66195613  0.66354436  1
  Te  Te144  1  0.50256360  -0.00345728  0.00147109  1
  Te  Te145  1  0.50055029  -0.00424452  0.33245538  1
  Te  Te146  1  0.49840818  -0.00615630  0.67202607  1
  Te  Te147  1  0.49865584  0.33595669  0.00349714  1
  Te  Te148  1  0.49967144  0.33392420  0.33869078  1
  Te  Te149  1  0.50130512  0.33396582  0.65949117  1
  Te  Te150  1  0.50391788  0.67354382  0.00160444  1
  Te  Te151  1  0.50250033  0.66917452  0.33656996  1
  Te  Te152  1  0.50281459  0.67154556  0.65915383  1
  Te  Te153  1  0.83715550  0.00354604  0.00519386  1
  Te  Te154  1  0.83021762  -0.00214282  0.33567618  1
  Te  Te155  1  0.83914599  0.00766194  0.66122298  1
  Te  Te156  1  0.83286864  0.32769148  -0.00743331  1
  Te  Te157  1  0.84122644  0.33521686  0.33121007  1
  Te  Te158  1  0.83399631  0.33539323  0.66767656  1
  Te  Te159  1  0.82875996  0.66568022  0.00184966  1
  Te  Te160  1  0.82841891  0.67049366  0.33708217  1
  Te  Te161  1  0.83354508  0.66706755  0.66458963  1
  Te  Te162  1  -0.00304488  0.16074290  -0.00442141  1
  Te  Te163  1  0.00285910  0.16933850  0.33647584  1
  Te  Te164  1  -0.00231794  0.16658863  0.66469182  1
  Te  Te165  1  0.00640342  0.50123442  -0.00163772  1
  Te  Te166  1  0.00438327  0.49375342  0.33270353  1
  Te  Te167  1  -0.00266120  0.50223982  0.66899741  1
  Te  Te168  1  0.00128914  0.83771202  0.00220034  1
  Te  Te169  1  -0.00358028  0.83174268  0.33602030  1
  Te  Te170  1  0.00073727  0.83393318  0.66556533  1
  Te  Te171  1  0.33303184  0.15710212  -0.00412582  1
  Te  Te172  1  0.32729018  0.15828221  0.33357941  1
  Te  Te173  1  0.33438584  0.16533805  0.67394292  1
  Te  Te174  1  0.32890422  0.49983079  0.00026155  1
  Te  Te175  1  0.33288245  0.49879978  0.33380414  1
  Te  Te176  1  0.32444115  0.49968708  0.66815300  1
  Te  Te177  1  0.33283325  0.83898745  0.00010201  1
  Te  Te178  1  0.33267429  0.83754446  0.33407721  1
  Te  Te179  1  0.33949233  0.83324823  0.66202793  1
  Te  Te180  1  0.67352056  0.16744294  -0.00280377  1
  Te  Te181  1  0.66681212  0.16453059  0.33770582  1
  Te  Te182  1  0.67084261  0.16284663  0.66553109  1
  Te  Te183  1  0.66669026  0.50474901  -0.00143177  1
  Te  Te184  1  0.66421321  0.50131290  0.34029965  1
  Te  Te185  1  0.66701897  0.50077048  0.66398820  1
  Te  Te186  1  0.66538833  0.83116292  -0.00116606  1
  Te  Te187  1  0.66721165  0.83326498  0.33361822  1
  Te  Te188  1  0.66519452  0.83188634  0.66660832  1
  Te  Te189  1  -0.00034379  -0.00120218  0.16794678  1
  Te  Te190  1  -0.00208841  -0.00080080  0.49955377  1
  Te  Te191  1  -0.00038651  -0.00143567  0.83382186  1
  Te  Te192  1  0.00492533  0.33101958  0.16364046  1
  Te  Te193  1  0.00180108  0.33485496  0.50375387  1
  Te  Te194  1  -0.00637680  0.33001211  0.82802385  1
  Te  Te195  1  0.00446176  0.67232260  0.16610835  1
  Te  Te196  1  0.00289430  0.66663897  0.50318136  1
  Te  Te197  1  -0.00679202  0.67106692  0.82765318  1
  Te  Te198  1  0.33308608  -0.00429835  0.16564238  1
  Te  Te199  1  0.33404471  -0.00559425  0.49702613  1
  Te  Te200  1  0.33494133  0.00283653  0.83552125  1
  Te  Te201  1  0.32593462  0.33148935  0.16702832  1
  Te  Te202  1  0.33085582  0.33181091  0.50025028  1
  Te  Te203  1  0.33621439  0.32450503  0.83289609  1
  Te  Te204  1  0.32629540  0.67668985  0.16768064  1
  Te  Te205  1  0.32215078  0.67465561  0.50074766  1
  Te  Te206  1  0.33563270  0.66389401  0.83369997  1
  Te  Te207  1  0.66764555  0.00078205  0.17263859  1
  Te  Te208  1  0.66899228  0.00141470  0.49772186  1
  Te  Te209  1  0.66491368  -0.00336476  0.83221886  1
  Te  Te210  1  0.66534580  0.33242832  0.16667226  1
  Te  Te211  1  0.66777901  0.32389023  0.50506067  1
  Te  Te212  1  0.67204404  0.32456116  0.82566174  1
  Te  Te213  1  0.66683996  0.66610691  0.16301312  1
  Te  Te214  1  0.66846079  0.67042573  0.50208754  1
  Te  Te215  1  0.66924428  0.67168818  0.83076355  1
