# generated using pymatgen
data_AgSbTe2
_symmetry_space_group_name_H-M   'P 1'
_cell_length_a   18.33332074
_cell_length_b   18.33323016
_cell_length_c   18.32990818
_cell_angle_alpha   89.99795818
_cell_angle_beta   89.99652679
_cell_angle_gamma   89.99794311
_symmetry_Int_Tables_number   1
_chemical_formula_structural   AgSbTe2
_chemical_formula_sum   'Ag54 Sb54 Te108'
_cell_volume   6160.84688020
_cell_formula_units_Z   54
loop_
 _symmetry_equiv_pos_site_id
 _symmetry_equiv_pos_as_xyz
  1  'x, y, z'
loop_
 _atom_site_type_symbol
 _atom_site_label
 _atom_site_symmetry_multiplicity
 _atom_site_fract_x
 _atom_site_fract_y
 _atom_site_fract_z
 _atom_site_occupancy
  Ag  Ag0  1  0.16518349  0.17007240  -0.00240771  1
  Ag  Ag1  1  0.83378227  0.65982310  0.16485355  1
  Ag  Ag2  1  0.33054665  0.32571334  0.33632506  1
  Ag  Ag3  1  0.00189986  0.84994901  0.49632206  1
  Ag  Ag4  1  -0.00165194  0.48953980  0.83041964  1
  Ag  Ag5  1  0.33619637  0.00066992  0.33102157  1
  Ag  Ag6  1  -0.00256319  0.00352870  0.65236357  1
  Ag  Ag7  1  0.16293468  0.49506287  0.66217073  1
  Ag  Ag8  1  -0.00104856  0.32886649  0.33571058  1
  Ag  Ag9  1  0.83519750  0.49188307  0.33294094  1
  Ag  Ag10  1  0.50386912  0.16504834  0.33684288  1
  Ag  Ag11  1  -0.00408763  0.33219807  -0.00612346  1
  Ag  Ag12  1  0.32963661  0.84268611  0.49215217  1
  Ag  Ag13  1  0.00181456  0.49367460  0.49845790  1
  Ag  Ag14  1  0.84215882  0.00620367  0.49740419  1
  Ag  Ag15  1  0.16446625  0.32964085  0.50196567  1
  Ag  Ag16  1  0.15798737  0.33239556  0.83211711  1
  Ag  Ag17  1  0.83552673  0.49408780  0.00408228  1
  Ag  Ag18  1  0.50154483  0.49508338  0.33616218  1
  Ag  Ag19  1  -0.00057517  0.01017536  0.33917594  1
  Ag  Ag20  1  0.33326040  0.67268580  0.33161168  1
  Ag  Ag21  1  0.32779890  0.49083696  0.49462372  1
  Ag  Ag22  1  0.67753831  0.33205599  -0.00369256  1
  Ag  Ag23  1  0.66792355  0.32998101  0.66817865  1
  Ag  Ag24  1  0.33069282  0.16902771  0.83114714  1
  Ag  Ag25  1  0.33728412  -0.00107506  0.01224163  1
  Ag  Ag26  1  0.83362630  0.16612476  0.65748194  1
  Ag  Ag27  1  0.33629266  0.67141902  0.00551313  1
  Ag  Ag28  1  0.50545886  0.33041691  0.83577728  1
  Ag  Ag29  1  0.66825841  0.66510135  0.00064831  1
  Ag  Ag30  1  0.17360688  0.00358763  0.17507394  1
  Ag  Ag31  1  0.50040565  0.83634405  0.00729243  1
  Ag  Ag32  1  0.67722192  0.48829736  0.49683385  1
  Ag  Ag33  1  0.49308594  -0.00000080  0.16984634  1
  Ag  Ag34  1  0.67284058  0.16548078  0.17473511  1
  Ag  Ag35  1  0.49547080  0.84622734  0.32861713  1
  Ag  Ag36  1  0.50542601  0.16844625  0.65803148  1
  Ag  Ag37  1  0.00055211  0.17224153  0.83308709  1
  Ag  Ag38  1  -0.00379206  0.16456161  0.49791634  1
  Ag  Ag39  1  -0.00579471  0.16802007  0.18052171  1
  Ag  Ag40  1  0.33614308  0.83895174  0.17532172  1
  Ag  Ag41  1  0.15576843  0.01144374  0.49373177  1
  Ag  Ag42  1  0.15591159  0.48801237  -0.00361733  1
  Ag  Ag43  1  0.32864605  0.16604445  0.49587761  1
  Ag  Ag44  1  0.83266888  0.84293597  0.66523821  1
  Ag  Ag45  1  0.66822904  0.83436152  0.83696528  1
  Ag  Ag46  1  0.66367227  0.00498078  0.00799027  1
  Ag  Ag47  1  0.83551404  0.33319636  0.16417267  1
  Ag  Ag48  1  0.83587914  0.16919703  0.33725916  1
  Ag  Ag49  1  0.83344654  0.65507640  0.83898903  1
  Ag  Ag50  1  0.83958885  0.33494825  0.83990205  1
  Ag  Ag51  1  -0.00181407  0.66392707  0.33410880  1
  Ag  Ag52  1  0.66173437  0.00664369  0.32980483  1
  Ag  Ag53  1  0.67440843  0.16922210  0.49335178  1
  Sb  Sb54  1  0.16741328  0.00847585  0.83303799  1
  Sb  Sb55  1  0.83298640  0.00575544  0.83105210  1
  Sb  Sb56  1  0.49804276  0.49174209  0.66084973  1
  Sb  Sb57  1  0.49832952  0.00461960  0.49123607  1
  Sb  Sb58  1  -0.00259807  0.66777774  0.66162492  1
  Sb  Sb59  1  0.66894223  0.16765452  0.83380529  1
  Sb  Sb60  1  0.16144683  0.83272917  0.66240676  1
  Sb  Sb61  1  0.00299630  0.84002141  0.17432600  1
  Sb  Sb62  1  0.16404511  0.66925966  0.16706752  1
  Sb  Sb63  1  0.16091834  0.32634371  0.16692207  1
  Sb  Sb64  1  0.33247935  0.66548312  0.66372307  1
  Sb  Sb65  1  -0.00200737  0.49192511  0.16934310  1
  Sb  Sb66  1  0.50334910  0.50119403  0.00532569  1
  Sb  Sb67  1  0.32764135  0.00331733  0.65884788  1
  Sb  Sb68  1  0.16360108  0.16519807  0.33366179  1
  Sb  Sb69  1  0.32775700  0.49304061  0.83084550  1
  Sb  Sb70  1  0.49741803  0.33010313  0.49884743  1
  Sb  Sb71  1  0.33130882  0.16166363  0.17124740  1
  Sb  Sb72  1  -0.00470386  0.32759446  0.66630084  1
  Sb  Sb73  1  0.83750799  0.49414234  0.66424512  1
  Sb  Sb74  1  0.66669538  0.66792339  0.32896882  1
  Sb  Sb75  1  0.50322076  0.66112206  0.83739483  1
  Sb  Sb76  1  -0.00591416  0.83495997  0.82963310  1
  Sb  Sb77  1  0.17188140  0.83793170  -0.00029880  1
  Sb  Sb78  1  0.50475741  0.84394565  0.66462797  1
  Sb  Sb79  1  0.66789713  0.83892502  0.50063573  1
  Sb  Sb80  1  0.66323329  0.83987352  0.16291758  1
  Sb  Sb81  1  0.33896252  0.83913151  0.83497967  1
  Sb  Sb82  1  0.16118482  0.65754445  0.83768215  1
  Sb  Sb83  1  0.16198484  0.17149208  0.66601308  1
  Sb  Sb84  1  0.67053524  0.66142066  0.67049555  1
  Sb  Sb85  1  0.33258016  0.50411009  0.17315327  1
  Sb  Sb86  1  0.50163327  0.00646940  0.84007415  1
  Sb  Sb87  1  0.83117544  0.83667107  0.33609018  1
  Sb  Sb88  1  0.16627913  0.66303358  0.49771449  1
  Sb  Sb89  1  0.82740462  0.82796385  -0.00349897  1
  Sb  Sb90  1  0.17323512  0.83755504  0.33454799  1
  Sb  Sb91  1  0.50270798  0.67236946  0.16819103  1
  Sb  Sb92  1  0.50509856  0.32577688  0.16593671  1
  Sb  Sb93  1  0.33061210  0.33131497  0.00370283  1
  Sb  Sb94  1  -0.00327586  0.65854879  0.00475732  1
  Sb  Sb95  1  0.83592843  0.17273495  0.00249999  1
  Sb  Sb96  1  0.00010283  0.00919263  0.00440979  1
  Sb  Sb97  1  0.67293266  0.49753572  0.83196615  1
  Sb  Sb98  1  0.67009783  0.49415427  0.17119911  1
  Sb  Sb99  1  0.83317432  0.00514782  0.17256402  1
  Sb  Sb100  1  0.16380356  0.49696874  0.33369631  1
  Sb  Sb101  1  0.33492502  0.32998916  0.66163582  1
  Sb  Sb102  1  0.83869660  0.32726061  0.49791687  1
  Sb  Sb103  1  0.49859932  0.66530143  0.49645782  1
  Sb  Sb104  1  0.83524022  0.66768678  0.49789471  1
  Sb  Sb105  1  0.49827730  0.16244894  0.00275249  1
  Sb  Sb106  1  0.67006318  0.32675566  0.33466837  1
  Sb  Sb107  1  0.67186815  0.00734325  0.66314212  1
  Te  Te108  1  0.16209626  0.16225331  0.15996800  1
  Te  Te109  1  0.16830052  0.16878116  0.50178445  1
  Te  Te110  1  0.16662797  0.17182371  0.83304586  1
  Te  Te111  1  0.16533049  0.50037925  0.15547976  1
  Te  Te112  1  0.16598383  0.49642426  0.49940797  1
  Te  Te113  1  0.16135159  0.49345049  0.83686059  1
  Te  Te114  1  0.17346866  0.84100395  0.16490588  1
  Te  Te115  1  0.16530966  0.83443947  0.50116222  1
  Te  Te116  1  0.16736058  0.83231755  0.83052664  1
  Te  Te117  1  0.50445044  0.16093624  0.17187946  1
  Te  Te118  1  0.49929606  0.16685963  0.49831548  1
  Te  Te119  1  0.49779859  0.17178194  0.83406588  1
  Te  Te120  1  0.50146979  0.49892538  0.17522173  1
  Te  Te121  1  0.49286757  0.49837073  0.49512596  1
  Te  Te122  1  0.49880555  0.49233933  0.83194735  1
  Te  Te123  1  0.49719283  0.83768066  0.16750282  1
  Te  Te124  1  0.49625916  0.83333438  0.49635561  1
  Te  Te125  1  0.50573338  0.83202864  0.83382649  1
  Te  Te126  1  0.83387959  0.16965991  0.16970112  1
  Te  Te127  1  0.83392664  0.16654502  0.49809908  1
  Te  Te128  1  0.83681988  0.17213313  0.83207822  1
  Te  Te129  1  0.83360386  0.49824459  0.16824383  1
  Te  Te130  1  0.83514870  0.50005421  0.49685309  1
  Te  Te131  1  0.83710608  0.49721263  0.83176124  1
  Te  Te132  1  0.83437025  0.82727385  0.16633561  1
  Te  Te133  1  0.83640575  0.83643007  0.50387272  1
  Te  Te134  1  0.82970423  0.83436605  0.82835559  1
  Te  Te135  1  0.16969549  0.00555627  0.00065596  1
  Te  Te136  1  0.16607119  -0.00023219  0.33481569  1
  Te  Te137  1  0.15974659  0.00023497  0.66149337  1
  Te  Te138  1  0.16451753  0.33125273  -0.00008898  1
  Te  Te139  1  0.16536230  0.33299924  0.33609627  1
  Te  Te140  1  0.16870274  0.33667215  0.66625935  1
  Te  Te141  1  0.17099296  0.66539760  0.00128112  1
  Te  Te142  1  0.16786136  0.66585889  0.33138746  1
  Te  Te143  1  0.16577624  0.65750262  0.66913793  1
  Te  Te144  1  0.50071428  -0.00309080  0.00515848  1
  Te  Te145  1  0.49999092  0.00336685  0.33067457  1
  Te  Te146  1  0.50019323  0.00880188  0.66870661  1
  Te  Te147  1  0.50245113  0.33389385  -0.00211032  1
  Te  Te148  1  0.49710781  0.33163096  0.33176947  1
  Te  Te149  1  0.50405201  0.32784368  0.67275018  1
  Te  Te150  1  0.49981547  0.67040966  0.00136322  1
  Te  Te151  1  0.49577695  0.66069859  0.33199786  1
  Te  Te152  1  0.50073030  0.66831913  0.66855114  1
  Te  Te153  1  0.82780414  -0.00189235  0.00125596  1
  Te  Te154  1  0.83488610  0.00237098  0.33658161  1
  Te  Te155  1  0.83612682  0.00396145  0.66414864  1
  Te  Te156  1  0.83541398  0.33455992  0.00101387  1
  Te  Te157  1  0.83558297  0.33227618  0.33179901  1
  Te  Te158  1  0.82827213  0.32893937  0.67072254  1
  Te  Te159  1  0.83116288  0.66146594  0.00010352  1
  Te  Te160  1  0.83447265  0.66623378  0.33004667  1
  Te  Te161  1  0.83336735  0.66955624  0.67316412  1
  Te  Te162  1  0.00228077  0.17175284  -0.00788321  1
  Te  Te163  1  -0.00024083  0.16836900  0.33654558  1
  Te  Te164  1  -0.00319350  0.16310679  0.66330795  1
  Te  Te165  1  -0.00345572  0.49481697  0.00012410  1
  Te  Te166  1  -0.00315216  0.49754908  0.33455417  1
  Te  Te167  1  0.00254021  0.50116762  0.66592274  1
  Te  Te168  1  0.00134627  0.83315386  0.00097337  1
  Te  Te169  1  -0.00122293  0.82943119  0.33858021  1
  Te  Te170  1  -0.00559974  0.83709656  0.66066342  1
  Te  Te171  1  0.33040376  0.16398810  0.00016704  1
  Te  Te172  1  0.33353876  0.16504941  0.33438272  1
  Te  Te173  1  0.33793159  0.16604854  0.66549846  1
  Te  Te174  1  0.33452241  0.50357766  0.00036926  1
  Te  Te175  1  0.33158229  0.50147603  0.33595688  1
  Te  Te176  1  0.32901597  0.50009552  0.65919740  1
  Te  Te177  1  0.33831850  0.83613823  -0.00150564  1
  Te  Te178  1  0.33625405  0.83382653  0.33466797  1
  Te  Te179  1  0.33466861  0.83379286  0.66044239  1
  Te  Te180  1  0.66633619  0.16644531  0.00125602  1
  Te  Te181  1  0.66767085  0.16690120  0.33436757  1
  Te  Te182  1  0.66826998  0.16979967  0.66613150  1
  Te  Te183  1  0.67123488  0.49834832  0.00014476  1
  Te  Te184  1  0.66859777  0.49993861  0.33827679  1
  Te  Te185  1  0.66616609  0.49384543  0.65818043  1
  Te  Te186  1  0.66259523  0.83313617  -0.00200036  1
  Te  Te187  1  0.65923703  0.83763819  0.33321784  1
  Te  Te188  1  0.67090034  0.83409833  0.67000359  1
  Te  Te189  1  0.00314057  0.00677371  0.17231778  1
  Te  Te190  1  -0.00035888  0.00507732  0.49628510  1
  Te  Te191  1  0.00095676  0.00452503  0.83446827  1
  Te  Te192  1  -0.00372052  0.32713208  0.16980730  1
  Te  Te193  1  0.00343902  0.33308425  0.50024564  1
  Te  Te194  1  -0.00018532  0.33338429  0.83081760  1
  Te  Te195  1  -0.00393705  0.67021928  0.17279968  1
  Te  Te196  1  0.00007083  0.65554933  0.49400082  1
  Te  Te197  1  -0.00639923  0.66577020  0.83459377  1
  Te  Te198  1  0.33298008  -0.00007308  0.16903363  1
  Te  Te199  1  0.33167404  0.00267898  0.49497426  1
  Te  Te200  1  0.33360614  0.00717918  0.83512647  1
  Te  Te201  1  0.33385756  0.33404325  0.17474465  1
  Te  Te202  1  0.33058142  0.33027701  0.49626930  1
  Te  Te203  1  0.33030955  0.32842454  0.83474489  1
  Te  Te204  1  0.33286159  0.67293026  0.16707003  1
  Te  Te205  1  0.33186376  0.66862220  0.49536048  1
  Te  Te206  1  0.33286216  0.66710179  0.83784698  1
  Te  Te207  1  0.66731889  0.00440868  0.16823852  1
  Te  Te208  1  0.67007190  0.00545360  0.49554577  1
  Te  Te209  1  0.66662409  -0.00346706  0.83802400  1
  Te  Te210  1  0.67184185  0.32760330  0.16183435  1
  Te  Te211  1  0.66604429  0.33057083  0.50190025  1
  Te  Te212  1  0.66798245  0.33319525  0.83552666  1
  Te  Te213  1  0.67190226  0.66597382  0.16102645  1
  Te  Te214  1  0.66733434  0.66289401  0.50038505  1
  Te  Te215  1  0.67116988  0.66677453  0.83827380  1
