# generated using pymatgen
data_AgSbTe2
_symmetry_space_group_name_H-M   'P 1'
_cell_length_a   18.31075520
_cell_length_b   18.31503693
_cell_length_c   18.31422357
_cell_angle_alpha   90.00199204
_cell_angle_beta   89.99904483
_cell_angle_gamma   89.99867181
_symmetry_Int_Tables_number   1
_chemical_formula_structural   AgSbTe2
_chemical_formula_sum   'Ag54 Sb54 Te108'
_cell_volume   6141.89752836
_cell_formula_units_Z   54
loop_
 _symmetry_equiv_pos_site_id
 _symmetry_equiv_pos_as_xyz
  1  'x, y, z'
loop_
 _atom_site_type_symbol
 _atom_site_label
 _atom_site_symmetry_multiplicity
 _atom_site_fract_x
 _atom_site_fract_y
 _atom_site_fract_z
 _atom_site_occupancy
  Ag  Ag0  1  0.16832123  0.33774863  0.16066996  1
  Ag  Ag1  1  0.00027581  -0.00364868  -0.00008063  1
  Ag  Ag2  1  0.49819529  0.50108726  -0.00335863  1
  Ag  Ag3  1  0.49915842  0.33773552  0.15768038  1
  Ag  Ag4  1  0.50549583  -0.01190178  0.16272775  1
  Ag  Ag5  1  0.16432643  0.17128050  0.32772970  1
  Ag  Ag6  1  0.00276971  0.49357181  0.83779838  1
  Ag  Ag7  1  0.32905691  0.83729492  0.83347473  1
  Ag  Ag8  1  0.50274859  0.50237780  0.67547499  1
  Ag  Ag9  1  0.15913018  0.50055758  0.32341004  1
  Ag  Ag10  1  0.33401793  -0.00273575  -0.00575116  1
  Ag  Ag11  1  0.33435927  -0.00082750  0.67685106  1
  Ag  Ag12  1  0.16678140  0.16759137  -0.00307332  1
  Ag  Ag13  1  0.16478887  0.83142085  0.32824388  1
  Ag  Ag14  1  0.66426904  0.66750841  0.33276082  1
  Ag  Ag15  1  0.00961019  0.83482001  0.84058516  1
  Ag  Ag16  1  0.83199963  -0.00183281  0.16166622  1
  Ag  Ag17  1  0.00012728  0.50342064  0.16446211  1
  Ag  Ag18  1  -0.00103782  0.17024017  0.83373445  1
  Ag  Ag19  1  0.50414816  -0.00259584  0.49862945  1
  Ag  Ag20  1  0.83895822  0.50032419  0.33267756  1
  Ag  Ag21  1  0.66492007  0.16507419  0.50682095  1
  Ag  Ag22  1  0.00578776  0.33540519  0.67345961  1
  Ag  Ag23  1  0.66953846  0.16487186  0.83255282  1
  Ag  Ag24  1  0.16361334  0.33497196  0.83441756  1
  Ag  Ag25  1  0.66600499  0.50602667  0.16478905  1
  Ag  Ag26  1  0.33181142  0.33362484  0.67154560  1
  Ag  Ag27  1  0.50025481  0.83430259  0.00178383  1
  Ag  Ag28  1  0.17087293  0.33340064  0.50616762  1
  Ag  Ag29  1  0.33135617  0.16322319  0.83298324  1
  Ag  Ag30  1  0.49921361  0.83089330  0.32336194  1
  Ag  Ag31  1  0.82792574  0.00297479  0.50332085  1
  Ag  Ag32  1  0.50169297  0.66661635  0.50683161  1
  Ag  Ag33  1  0.16811476  0.83644987  -0.00300886  1
  Ag  Ag34  1  0.83781187  0.32713957  0.83082210  1
  Ag  Ag35  1  0.66520837  0.00023818  -0.00135239  1
  Ag  Ag36  1  -0.00060462  -0.00629357  0.32385061  1
  Ag  Ag37  1  0.66240185  0.83679147  0.84048114  1
  Ag  Ag38  1  0.65851525  0.83182913  0.16083020  1
  Ag  Ag39  1  0.49968448  0.33898060  0.83342203  1
  Ag  Ag40  1  0.83278197  0.00583124  0.83487096  1
  Ag  Ag41  1  0.65678963  0.66634136  0.66666538  1
  Ag  Ag42  1  0.00051769  0.83409321  0.16296861  1
  Ag  Ag43  1  0.17018740  0.67269199  0.83357270  1
  Ag  Ag44  1  0.16895081  0.83197185  0.68125460  1
  Ag  Ag45  1  0.83177905  0.16909370  0.67168651  1
  Ag  Ag46  1  0.83030520  0.49465460  0.66844184  1
  Ag  Ag47  1  0.33934742  0.66542762  0.67117820  1
  Ag  Ag48  1  0.49843471  0.33588515  0.50745660  1
  Ag  Ag49  1  0.66012967  0.32969245  -0.00335780  1
  Ag  Ag50  1  0.00040813  0.66912321  0.33009846  1
  Ag  Ag51  1  0.49691613  0.66405748  0.83094892  1
  Ag  Ag52  1  0.16760979  0.49590019  -0.00062388  1
  Ag  Ag53  1  0.50424262  0.67183407  0.16439878  1
  Sb  Sb54  1  0.50097553  -0.00256310  0.83457893  1
  Sb  Sb55  1  0.33636531  0.16662381  0.50727607  1
  Sb  Sb56  1  0.82945400  0.66955654  0.16865582  1
  Sb  Sb57  1  0.16530267  -0.00027749  0.16395603  1
  Sb  Sb58  1  0.17006432  0.66370595  0.16269887  1
  Sb  Sb59  1  0.33082252  0.50021083  0.83324589  1
  Sb  Sb60  1  0.83226460  0.83785147  -0.00045697  1
  Sb  Sb61  1  0.83364538  0.83192963  0.33134376  1
  Sb  Sb62  1  0.66691085  0.49982153  0.83815490  1
  Sb  Sb63  1  0.33458697  0.83421346  0.15887342  1
  Sb  Sb64  1  0.49727553  0.16526614  -0.00297764  1
  Sb  Sb65  1  0.83381145  0.33127835  0.16076193  1
  Sb  Sb66  1  0.00122582  0.66299749  0.66717502  1
  Sb  Sb67  1  0.66937217  -0.00435159  0.32885657  1
  Sb  Sb68  1  -0.00120583  0.16665480  0.50547548  1
  Sb  Sb69  1  0.16516769  0.16702547  0.67250768  1
  Sb  Sb70  1  0.66469402  0.33660608  0.67370975  1
  Sb  Sb71  1  0.83264367  0.66623051  0.83171010  1
  Sb  Sb72  1  0.33124976  0.33273917  0.33690187  1
  Sb  Sb73  1  0.66108069  0.66999332  -0.00047100  1
  Sb  Sb74  1  0.00280061  0.33072147  -0.00662768  1
  Sb  Sb75  1  0.66462049  0.49736188  0.49823027  1
  Sb  Sb76  1  0.33493369  0.49881967  0.16505593  1
  Sb  Sb77  1  0.83145729  0.33028357  0.50786087  1
  Sb  Sb78  1  0.16775541  0.49927722  0.67264947  1
  Sb  Sb79  1  0.33511180  0.66868095  0.33721758  1
  Sb  Sb80  1  0.17172011  0.66321289  0.50273503  1
  Sb  Sb81  1  0.49700718  0.16313924  0.33452786  1
  Sb  Sb82  1  0.66512418  0.33691932  0.32905492  1
  Sb  Sb83  1  0.33491268  0.67328248  -0.00810638  1
  Sb  Sb84  1  0.00082689  0.49867748  0.49943825  1
  Sb  Sb85  1  0.16494175  -0.00075065  0.83699570  1
  Sb  Sb86  1  0.00351919  0.33431406  0.33410606  1
  Sb  Sb87  1  0.33155224  -0.00212380  0.33101443  1
  Sb  Sb88  1  0.50067381  0.50540909  0.32983917  1
  Sb  Sb89  1  0.33500411  0.32865730  -0.00823151  1
  Sb  Sb90  1  0.33492668  0.83480754  0.50846965  1
  Sb  Sb91  1  0.66370112  -0.00322517  0.67185448  1
  Sb  Sb92  1  0.33201176  0.16604050  0.15895804  1
  Sb  Sb93  1  0.66499933  0.16373540  0.16173874  1
  Sb  Sb94  1  0.50308967  0.17114289  0.66915180  1
  Sb  Sb95  1  0.00332571  0.67133355  0.00270003  1
  Sb  Sb96  1  0.49615586  0.82726610  0.67395594  1
  Sb  Sb97  1  0.82816175  0.66966996  0.49908458  1
  Sb  Sb98  1  0.00211571  0.16451381  0.16067901  1
  Sb  Sb99  1  0.83380782  0.49626006  -0.00147810  1
  Sb  Sb100  1  0.66238359  0.83633246  0.49978678  1
  Sb  Sb101  1  0.33421084  0.49899807  0.50202297  1
  Sb  Sb102  1  0.83688027  0.16771665  0.33837013  1
  Sb  Sb103  1  0.16755220  0.00380495  0.49900094  1
  Sb  Sb104  1  0.83676379  0.83464597  0.67030406  1
  Sb  Sb105  1  0.83689403  0.16390767  -0.00879192  1
  Sb  Sb106  1  0.00090148  0.83512952  0.49813433  1
  Sb  Sb107  1  0.00198771  0.00195917  0.67297676  1
  Te  Te108  1  0.16657687  0.17300565  0.16481026  1
  Te  Te109  1  0.16767109  0.17296785  0.49690999  1
  Te  Te110  1  0.16584711  0.16934708  0.83580289  1
  Te  Te111  1  0.16414037  0.49906690  0.16274633  1
  Te  Te112  1  0.16683701  0.49370234  0.49666523  1
  Te  Te113  1  0.16341263  0.49725538  0.83631251  1
  Te  Te114  1  0.16397083  0.83175013  0.16512731  1
  Te  Te115  1  0.16746680  0.83304425  0.49148832  1
  Te  Te116  1  0.16671928  0.83414876  0.83676996  1
  Te  Te117  1  0.49927240  0.17584159  0.16821825  1
  Te  Te118  1  0.50380317  0.16741015  0.49983140  1
  Te  Te119  1  0.50228979  0.17293502  0.83298428  1
  Te  Te120  1  0.50240622  0.49651526  0.16444020  1
  Te  Te121  1  0.50034953  0.49927192  0.50022984  1
  Te  Te122  1  0.50029683  0.50046166  0.83545574  1
  Te  Te123  1  0.49869367  0.83178715  0.16307336  1
  Te  Te124  1  0.49981456  0.83342498  0.49446961  1
  Te  Te125  1  0.50204339  0.83099178  0.83865918  1
  Te  Te126  1  0.83372236  0.16004102  0.16881381  1
  Te  Te127  1  0.82881922  0.16258755  0.50594095  1
  Te  Te128  1  0.83233266  0.16650677  0.83090001  1
  Te  Te129  1  0.83448504  0.49855131  0.16794738  1
  Te  Te130  1  0.83273995  0.50000853  0.50207186  1
  Te  Te131  1  0.83746417  0.49780874  0.83078456  1
  Te  Te132  1  0.83711455  0.83807760  0.16684576  1
  Te  Te133  1  0.83207213  0.84301771  0.50137446  1
  Te  Te134  1  0.83024045  0.83760540  0.83242699  1
  Te  Te135  1  0.16609095  -0.00247668  0.00255571  1
  Te  Te136  1  0.16267506  -0.00385992  0.33202781  1
  Te  Te137  1  0.17214529  -0.00520015  0.66345319  1
  Te  Te138  1  0.16823416  0.33479004  -0.00166880  1
  Te  Te139  1  0.16672085  0.33452167  0.33042013  1
  Te  Te140  1  0.16762323  0.33343059  0.67015324  1
  Te  Te141  1  0.16893057  0.66610872  -0.00592523  1
  Te  Te142  1  0.16572534  0.66664644  0.33397566  1
  Te  Te143  1  0.16959721  0.66916115  0.67047453  1
  Te  Te144  1  0.50183079  -0.00118034  0.00142475  1
  Te  Te145  1  0.50042713  -0.00467634  0.33217560  1
  Te  Te146  1  0.49509511  -0.00160411  0.66235498  1
  Te  Te147  1  0.49962996  0.33324835  -0.00163132  1
  Te  Te148  1  0.49862554  0.33416130  0.33560951  1
  Te  Te149  1  0.49883977  0.33748506  0.66837659  1
  Te  Te150  1  0.49887352  0.66458392  -0.00194000  1
  Te  Te151  1  0.50153785  0.66995443  0.33233773  1
  Te  Te152  1  0.49974521  0.66526688  0.66930758  1
  Te  Te153  1  0.83302089  0.00123223  -0.00137573  1
  Te  Te154  1  0.83842518  0.00164386  0.33260708  1
  Te  Te155  1  0.83346608  0.00299959  0.66915540  1
  Te  Te156  1  0.82449398  0.33132281  -0.00794456  1
  Te  Te157  1  0.83437199  0.33951379  0.33431274  1
  Te  Te158  1  0.83191249  0.33424277  0.67168747  1
  Te  Te159  1  0.83313113  0.66490774  -0.00016534  1
  Te  Te160  1  0.83270204  0.66048979  0.33492531  1
  Te  Te161  1  0.83077350  0.66087950  0.66426239  1
  Te  Te162  1  0.00667692  0.16168435  -0.00647616  1
  Te  Te163  1  0.00505143  0.16267635  0.33322144  1
  Te  Te164  1  -0.00396643  0.17007011  0.67337184  1
  Te  Te165  1  0.00298784  0.50053831  -0.00001092  1
  Te  Te166  1  -0.00024215  0.50072353  0.33064861  1
  Te  Te167  1  -0.00240280  0.49658198  0.67130832  1
  Te  Te168  1  0.00152677  0.83638646  0.00140933  1
  Te  Te169  1  0.00058843  0.83288539  0.33114277  1
  Te  Te170  1  0.00673242  0.83241017  0.67070789  1
  Te  Te171  1  0.32718288  0.15932403  -0.00765066  1
  Te  Te172  1  0.32426825  0.16474921  0.33380989  1
  Te  Te173  1  0.33335786  0.16668646  0.67441513  1
  Te  Te174  1  0.33411806  0.50000314  0.00035276  1
  Te  Te175  1  0.32211267  0.50097111  0.33336266  1
  Te  Te176  1  0.33868552  0.49907856  0.66716132  1
  Te  Te177  1  0.33210503  0.83862591  -0.00606944  1
  Te  Te178  1  0.33154508  0.83379813  0.33263438  1
  Te  Te179  1  0.32995783  0.83400048  0.67346568  1
  Te  Te180  1  0.66585590  0.16465185  -0.00504611  1
  Te  Te181  1  0.66698077  0.16665693  0.33762820  1
  Te  Te182  1  0.67051072  0.16513967  0.67032226  1
  Te  Te183  1  0.66317008  0.49845273  0.00565822  1
  Te  Te184  1  0.66874629  0.50450579  0.32759043  1
  Te  Te185  1  0.66487742  0.50491082  0.66642042  1
  Te  Te186  1  0.66427308  0.83633039  0.00123728  1
  Te  Te187  1  0.66428430  0.82823265  0.32880042  1
  Te  Te188  1  0.66730079  0.82727322  0.67155065  1
  Te  Te189  1  -0.00114282  -0.00216792  0.16378337  1
  Te  Te190  1  -0.00314232  0.00119068  0.49750507  1
  Te  Te191  1  -0.00257691  -0.00221795  0.83635438  1
  Te  Te192  1  0.00317184  0.33779309  0.16488374  1
  Te  Te193  1  0.00305098  0.33251422  0.50921932  1
  Te  Te194  1  0.00067802  0.33323160  0.83352473  1
  Te  Te195  1  0.00003254  0.66672289  0.17111836  1
  Te  Te196  1  0.00057866  0.66712300  0.49202784  1
  Te  Te197  1  0.00198077  0.67077600  0.83270534  1
  Te  Te198  1  0.34263544  0.00094130  0.16117294  1
  Te  Te199  1  0.33961512  0.00117451  0.50267907  1
  Te  Te200  1  0.33423823  0.00006510  0.83385392  1
  Te  Te201  1  0.33311154  0.33199691  0.16690760  1
  Te  Te202  1  0.33599434  0.33233473  0.50733122  1
  Te  Te203  1  0.33503578  0.33177884  0.82980830  1
  Te  Te204  1  0.34365474  0.66644055  0.16830387  1
  Te  Te205  1  0.34112537  0.66737053  0.50877902  1
  Te  Te206  1  0.33376564  0.66946639  0.82892546  1
  Te  Te207  1  0.66597692  -0.00260633  0.16243081  1
  Te  Te208  1  0.66482451  0.00307719  0.49989790  1
  Te  Te209  1  0.66822032  -0.00031763  0.83639608  1
  Te  Te210  1  0.66515914  0.33402041  0.16124005  1
  Te  Te211  1  0.66243553  0.32687589  0.49987732  1
  Te  Te212  1  0.66260279  0.33281566  0.83653889  1
  Te  Te213  1  0.66421793  0.66862953  0.16838894  1
  Te  Te214  1  0.66087879  0.66748112  0.49913735  1
  Te  Te215  1  0.66478233  0.66942652  0.83058866  1
