# generated using pymatgen
data_AgSbTe2
_symmetry_space_group_name_H-M   'P 1'
_cell_length_a   18.34330882
_cell_length_b   18.35883859
_cell_length_c   18.34856239
_cell_angle_alpha   89.99950707
_cell_angle_beta   89.99781591
_cell_angle_gamma   89.99815628
_symmetry_Int_Tables_number   1
_chemical_formula_structural   AgSbTe2
_chemical_formula_sum   'Ag54 Sb54 Te108'
_cell_volume   6179.09573242
_cell_formula_units_Z   54
loop_
 _symmetry_equiv_pos_site_id
 _symmetry_equiv_pos_as_xyz
  1  'x, y, z'
loop_
 _atom_site_type_symbol
 _atom_site_label
 _atom_site_symmetry_multiplicity
 _atom_site_fract_x
 _atom_site_fract_y
 _atom_site_fract_z
 _atom_site_occupancy
  Ag  Ag0  1  -0.00003033  0.16971327  0.50298503  1
  Ag  Ag1  1  0.49867305  0.83016183  0.34599642  1
  Ag  Ag2  1  0.67382556  0.65997086  0.66545571  1
  Ag  Ag3  1  0.17013833  0.49365165  0.34039089  1
  Ag  Ag4  1  0.84270576  0.33383779  0.15346247  1
  Ag  Ag5  1  0.49868421  0.17012346  0.66314388  1
  Ag  Ag6  1  0.83312022  0.83335769  0.34133719  1
  Ag  Ag7  1  0.50535865  0.50070419  0.66511656  1
  Ag  Ag8  1  0.00042756  -0.00105459  0.66368980  1
  Ag  Ag9  1  0.66628396  0.49720097  0.50645773  1
  Ag  Ag10  1  -0.00590754  0.65919515  0.66571052  1
  Ag  Ag11  1  0.16941080  0.16962711  0.33431086  1
  Ag  Ag12  1  0.34147320  0.33236491  0.66467391  1
  Ag  Ag13  1  0.34409025  0.00582191  0.66363930  1
  Ag  Ag14  1  0.49712510  0.83065306  0.66346912  1
  Ag  Ag15  1  0.83459859  0.34438447  0.82892954  1
  Ag  Ag16  1  0.32874991  0.00850925  0.00087820  1
  Ag  Ag17  1  0.16320257  0.33934219  0.49978442  1
  Ag  Ag18  1  -0.00010123  0.34248427  0.66512499  1
  Ag  Ag19  1  0.50071324  0.33898388  0.82118308  1
  Ag  Ag20  1  0.32856005  0.17139079  0.16511242  1
  Ag  Ag21  1  0.32897239  0.49839639  0.49985330  1
  Ag  Ag22  1  0.49812057  0.66195466  0.50361622  1
  Ag  Ag23  1  0.49597285  0.66522083  0.17890509  1
  Ag  Ag24  1  0.84072349  0.65843900  0.50705369  1
  Ag  Ag25  1  0.49306303  0.34125317  0.50571911  1
  Ag  Ag26  1  0.16591601  0.16758792  0.00560752  1
  Ag  Ag27  1  0.33083257  -0.00242401  0.34554160  1
  Ag  Ag28  1  0.67084680  0.17196117  0.50274081  1
  Ag  Ag29  1  0.83595123  0.49280950  -0.02001706  1
  Ag  Ag30  1  0.16338005  0.65640223  0.50365730  1
  Ag  Ag31  1  0.15627929  0.66669120  0.82152334  1
  Ag  Ag32  1  0.17119078  0.01187414  0.17433560  1
  Ag  Ag33  1  0.16639934  0.32945726  0.17051452  1
  Ag  Ag34  1  0.83441248  0.00043466  0.82268655  1
  Ag  Ag35  1  0.16608711  0.83937513  -0.00121444  1
  Ag  Ag36  1  -0.00665948  0.50153211  0.82281777  1
  Ag  Ag37  1  0.50046298  0.66288947  0.82048803  1
  Ag  Ag38  1  -0.00114517  0.49734787  0.50663743  1
  Ag  Ag39  1  -0.00036342  0.82465949  0.82257419  1
  Ag  Ag40  1  0.33171292  0.49511565  0.17375051  1
  Ag  Ag41  1  0.83872885  0.65474534  0.82192454  1
  Ag  Ag42  1  0.84169994  0.34013981  0.50860572  1
  Ag  Ag43  1  0.16741662  0.00258464  0.49935570  1
  Ag  Ag44  1  0.32747683  0.33047872  -0.00406987  1
  Ag  Ag45  1  0.49975738  -0.00176650  0.82249365  1
  Ag  Ag46  1  0.68113763  0.50103406  0.82182946  1
  Ag  Ag47  1  -0.00077238  0.33326443  -0.00858129  1
  Ag  Ag48  1  0.33505098  0.66801190  0.33786246  1
  Ag  Ag49  1  0.49253506  -0.00128795  0.50608882  1
  Ag  Ag50  1  -0.00211513  0.83406603  0.50603256  1
  Ag  Ag51  1  0.83929371  0.17585557  -0.00303920  1
  Ag  Ag52  1  0.84221911  0.00029692  0.50532236  1
  Ag  Ag53  1  0.83181575  0.50115079  0.66646677  1
  Sb  Sb54  1  0.00721600  -0.00041255  0.34463650  1
  Sb  Sb55  1  0.16724170  -0.00316712  0.82948520  1
  Sb  Sb56  1  0.00817130  0.16969336  0.16860530  1
  Sb  Sb57  1  0.66545441  -0.00356818  0.66462352  1
  Sb  Sb58  1  0.33270301  0.16668442  0.83566045  1
  Sb  Sb59  1  0.66208424  0.49883656  0.16758115  1
  Sb  Sb60  1  0.33405512  0.66201532  0.66061529  1
  Sb  Sb61  1  0.83981352  0.16504886  0.33641793  1
  Sb  Sb62  1  0.49241134  0.50444435  0.34573323  1
  Sb  Sb63  1  0.00260863  0.33406663  0.34198945  1
  Sb  Sb64  1  0.00184259  0.66038351  -0.01128110  1
  Sb  Sb65  1  0.49097941  0.16208476  0.34244948  1
  Sb  Sb66  1  0.16444645  0.49560515  0.00291571  1
  Sb  Sb67  1  0.00639953  0.66734211  0.34626154  1
  Sb  Sb68  1  0.49710496  0.16857944  -0.00587606  1
  Sb  Sb69  1  0.33040605  0.49899638  0.82775053  1
  Sb  Sb70  1  0.33205726  0.66227872  0.00256759  1
  Sb  Sb71  1  0.84240783  0.00622382  0.16858234  1
  Sb  Sb72  1  0.83990667  0.50262989  0.34332201  1
  Sb  Sb73  1  0.83521760  0.82871228  0.66193509  1
  Sb  Sb74  1  0.49310597  0.83334481  -0.00547251  1
  Sb  Sb75  1  0.66775780  0.83037660  0.50387819  1
  Sb  Sb76  1  0.33039037  0.33378870  0.33737475  1
  Sb  Sb77  1  0.67134010  0.82724183  0.82887058  1
  Sb  Sb78  1  0.66201702  0.66578173  0.34438905  1
  Sb  Sb79  1  0.32980400  0.83279012  0.83072018  1
  Sb  Sb80  1  0.00587345  0.00607498  -0.00770097  1
  Sb  Sb81  1  0.16394983  0.33829590  0.83058295  1
  Sb  Sb82  1  0.33150216  0.83420910  0.16735142  1
  Sb  Sb83  1  0.16837830  0.16670888  0.66434354  1
  Sb  Sb84  1  0.00319283  0.49635866  0.16753189  1
  Sb  Sb85  1  0.16270718  0.49957386  0.66026332  1
  Sb  Sb86  1  0.16891783  0.83443689  0.33503682  1
  Sb  Sb87  1  0.49228493  0.33803725  0.16843005  1
  Sb  Sb88  1  0.84232898  0.83323094  -0.00303315  1
  Sb  Sb89  1  0.66363531  0.16908642  0.17175366  1
  Sb  Sb90  1  0.66772899  0.33458090  0.34061377  1
  Sb  Sb91  1  0.16673926  0.83342848  0.66574119  1
  Sb  Sb92  1  0.66303054  0.00197557  -0.00427054  1
  Sb  Sb93  1  0.66515327  0.83233642  0.16867646  1
  Sb  Sb94  1  -0.00249447  0.17032927  0.82792345  1
  Sb  Sb95  1  0.66107891  -0.00043870  0.33892524  1
  Sb  Sb96  1  0.48987781  -0.00339166  0.16937939  1
  Sb  Sb97  1  0.66713013  0.66423679  -0.00951567  1
  Sb  Sb98  1  0.82872803  0.66013132  0.16928892  1
  Sb  Sb99  1  0.32996892  0.16807744  0.49849698  1
  Sb  Sb100  1  0.00167894  0.83353957  0.16946048  1
  Sb  Sb101  1  0.83036381  0.17202829  0.66638101  1
  Sb  Sb102  1  0.66703948  0.17241423  0.82538906  1
  Sb  Sb103  1  0.33261536  0.83224563  0.50122047  1
  Sb  Sb104  1  0.50175504  0.49847123  -0.00844144  1
  Sb  Sb105  1  0.17008203  0.66322556  0.17118094  1
  Sb  Sb106  1  0.66377366  0.34179908  0.66528181  1
  Sb  Sb107  1  0.67203931  0.33392596  -0.00384302  1
  Te  Te108  1  0.16929930  0.16946751  0.16663382  1
  Te  Te109  1  0.16390515  0.16323988  0.49974129  1
  Te  Te110  1  0.16493365  0.16712070  0.84209003  1
  Te  Te111  1  0.17079826  0.49533253  0.17205188  1
  Te  Te112  1  0.16800653  0.49952183  0.49982862  1
  Te  Te113  1  0.16154368  0.50669587  0.83526447  1
  Te  Te114  1  0.16564814  0.83496768  0.16278840  1
  Te  Te115  1  0.16057864  0.83837488  0.49894954  1
  Te  Te116  1  0.16058072  0.82835494  0.83497407  1
  Te  Te117  1  0.49506244  0.16733057  0.16745426  1
  Te  Te118  1  0.49801269  0.16408175  0.50276803  1
  Te  Te119  1  0.50172478  0.16760657  0.82764477  1
  Te  Te120  1  0.49476713  0.50393456  0.16521768  1
  Te  Te121  1  0.49915992  0.50010593  0.50372746  1
  Te  Te122  1  0.49730029  0.49896317  0.82886127  1
  Te  Te123  1  0.49946871  0.82691362  0.16642265  1
  Te  Te124  1  0.50044139  0.83470393  0.50243658  1
  Te  Te125  1  0.50167302  0.83352687  0.83004445  1
  Te  Te126  1  0.83287864  0.17299461  0.16562135  1
  Te  Te127  1  0.83557046  0.16564723  0.49942142  1
  Te  Te128  1  0.83069720  0.15894921  0.83678168  1
  Te  Te129  1  0.83165550  0.49387808  0.17255695  1
  Te  Te130  1  0.83611135  0.49976263  0.50378766  1
  Te  Te131  1  0.83662699  0.49991126  0.82515063  1
  Te  Te132  1  0.83332808  0.83333669  0.17160994  1
  Te  Te133  1  0.83466336  0.83735733  0.50002196  1
  Te  Te134  1  0.83821893  0.84094266  0.83361012  1
  Te  Te135  1  0.16970756  0.00352480  -0.00367875  1
  Te  Te136  1  0.17192324  0.00015950  0.33461135  1
  Te  Te137  1  0.16508665  0.00049522  0.66243193  1
  Te  Te138  1  0.16724280  0.33143426  -0.00209032  1
  Te  Te139  1  0.16730972  0.33182935  0.33523951  1
  Te  Te140  1  0.16436327  0.33171275  0.66275625  1
  Te  Te141  1  0.16735487  0.66915432  0.00120821  1
  Te  Te142  1  0.17304596  0.66648863  0.33880472  1
  Te  Te143  1  0.16574742  0.66811959  0.66397245  1
  Te  Te144  1  0.49237415  0.00028121  -0.00283021  1
  Te  Te145  1  0.49302009  -0.00599101  0.33705422  1
  Te  Te146  1  0.50243747  0.00081217  0.66500198  1
  Te  Te147  1  0.49309170  0.33303943  -0.00123503  1
  Te  Te148  1  0.49912542  0.33174393  0.34005692  1
  Te  Te149  1  0.50015072  0.33452897  0.66453109  1
  Te  Te150  1  0.49902624  0.66691752  -0.00404005  1
  Te  Te151  1  0.49605011  0.66950723  0.33861019  1
  Te  Te152  1  0.49254871  0.66401329  0.66354750  1
  Te  Te153  1  0.83378559  0.00285595  0.00232350  1
  Te  Te154  1  0.83290485  -0.00358103  0.33535309  1
  Te  Te155  1  0.83311972  0.00044440  0.66421081  1
  Te  Te156  1  0.83487047  0.33401740  -0.00491081  1
  Te  Te157  1  0.83512969  0.33338437  0.33830657  1
  Te  Te158  1  0.83759178  0.33404178  0.66802039  1
  Te  Te159  1  0.83405567  0.66301949  -0.00052644  1
  Te  Te160  1  0.83291012  0.67166781  0.33677851  1
  Te  Te161  1  0.83463565  0.66799475  0.66579097  1
  Te  Te162  1  -0.00010094  0.17229177  -0.00028932  1
  Te  Te163  1  0.00803199  0.16618688  0.34108550  1
  Te  Te164  1  -0.00114646  0.16157241  0.66181392  1
  Te  Te165  1  -0.00428772  0.49380057  0.00028399  1
  Te  Te166  1  0.00849269  0.50142995  0.33849416  1
  Te  Te167  1  0.00067341  0.50057625  0.66478446  1
  Te  Te168  1  0.00647074  0.83396502  -0.00147864  1
  Te  Te169  1  -0.00438655  0.83324424  0.33768331  1
  Te  Te170  1  0.00079410  0.83686420  0.66580805  1
  Te  Te171  1  0.33237593  0.16894584  0.00306536  1
  Te  Te172  1  0.32786880  0.16031717  0.32750763  1
  Te  Te173  1  0.33684459  0.16784378  0.66728586  1
  Te  Te174  1  0.33324553  0.49440823  0.00358790  1
  Te  Te175  1  0.33007682  0.50154645  0.33629911  1
  Te  Te176  1  0.33774547  0.49471295  0.66186607  1
  Te  Te177  1  0.32600325  0.83661118  -0.00091950  1
  Te  Te178  1  0.33700569  0.83370124  0.33337061  1
  Te  Te179  1  0.33781732  0.84331921  0.66680370  1
  Te  Te180  1  0.67257355  0.16671403  0.00217046  1
  Te  Te181  1  0.66656356  0.16655609  0.34092750  1
  Te  Te182  1  0.66061424  0.16427219  0.66017944  1
  Te  Te183  1  0.67433305  0.49971186  -0.00266985  1
  Te  Te184  1  0.66665681  0.50097721  0.34046003  1
  Te  Te185  1  0.66810347  0.50296241  0.66415543  1
  Te  Te186  1  0.66824991  0.83320298  0.00023170  1
  Te  Te187  1  0.66371352  0.83288435  0.33415034  1
  Te  Te188  1  0.65649820  0.82174873  0.66702922  1
  Te  Te189  1  0.01035430  0.00111281  0.16554923  1
  Te  Te190  1  0.00024447  -0.00203229  0.50353439  1
  Te  Te191  1  -0.00141762  0.00036831  0.82748691  1
  Te  Te192  1  0.00236823  0.33307437  0.16046759  1
  Te  Te193  1  0.00163895  0.33489773  0.50380780  1
  Te  Te194  1  -0.00257346  0.33586472  0.82905707  1
  Te  Te195  1  -0.00115995  0.66567933  0.16664311  1
  Te  Te196  1  0.00073307  0.66681564  0.50478912  1
  Te  Te197  1  -0.00202349  0.66547977  0.82851212  1
  Te  Te198  1  0.32824269  0.00130289  0.15988141  1
  Te  Te199  1  0.33318066  0.00034043  0.50254241  1
  Te  Te200  1  0.33759033  -0.00011294  0.82812862  1
  Te  Te201  1  0.32963097  0.33380372  0.16751713  1
  Te  Te202  1  0.33204300  0.33440289  0.50289032  1
  Te  Te203  1  0.33554156  0.33319826  0.83043074  1
  Te  Te204  1  0.33638434  0.66148146  0.17052625  1
  Te  Te205  1  0.33226371  0.66544633  0.49791262  1
  Te  Te206  1  0.33810856  0.66630073  0.83348140  1
  Te  Te207  1  0.66653349  0.00121100  0.16641150  1
  Te  Te208  1  0.66725111  0.00493209  0.49993182  1
  Te  Te209  1  0.66537157  0.00013290  0.83285666  1
  Te  Te210  1  0.67009649  0.33359951  0.16760026  1
  Te  Te211  1  0.66971680  0.33425592  0.50082649  1
  Te  Te212  1  0.66588507  0.33953808  0.83345841  1
  Te  Te213  1  0.65874618  0.66468377  0.16634179  1
  Te  Te214  1  0.66536432  0.66322981  0.50569774  1
  Te  Te215  1  0.66428431  0.66128148  0.82715291  1
