# generated using pymatgen
data_AgSbTe2
_symmetry_space_group_name_H-M   'P 1'
_cell_length_a   18.32677407
_cell_length_b   18.32605981
_cell_length_c   18.32649248
_cell_angle_alpha   90.00062898
_cell_angle_beta   89.99923092
_cell_angle_gamma   89.99670113
_symmetry_Int_Tables_number   1
_chemical_formula_structural   AgSbTe2
_chemical_formula_sum   'Ag54 Sb54 Te108'
_cell_volume   6155.09099873
_cell_formula_units_Z   54
loop_
 _symmetry_equiv_pos_site_id
 _symmetry_equiv_pos_as_xyz
  1  'x, y, z'
loop_
 _atom_site_type_symbol
 _atom_site_label
 _atom_site_symmetry_multiplicity
 _atom_site_fract_x
 _atom_site_fract_y
 _atom_site_fract_z
 _atom_site_occupancy
  Ag  Ag0  1  0.49893186  0.83017098  0.66240340  1
  Ag  Ag1  1  0.50367017  0.50783801  0.67037784  1
  Ag  Ag2  1  0.17647079  0.17574022  -0.00340736  1
  Ag  Ag3  1  0.50212742  0.16057194  0.66834337  1
  Ag  Ag4  1  0.34062158  0.51010179  0.50881266  1
  Ag  Ag5  1  0.84365105  0.82909219  0.66510063  1
  Ag  Ag6  1  0.33967532  0.83712818  0.16303672  1
  Ag  Ag7  1  0.83164927  -0.01138552  0.83084074  1
  Ag  Ag8  1  0.00233337  0.82793828  0.82247944  1
  Ag  Ag9  1  -0.00339990  -0.01240913  0.33799757  1
  Ag  Ag10  1  0.66600497  0.66048270  -0.00483358  1
  Ag  Ag11  1  0.82506229  0.50210202  -0.00771752  1
  Ag  Ag12  1  0.50347788  0.82686857  0.33553682  1
  Ag  Ag13  1  0.17141739  0.66675984  0.50971180  1
  Ag  Ag14  1  0.50058115  0.66845904  0.16810149  1
  Ag  Ag15  1  -0.00120085  0.67383093  0.67099616  1
  Ag  Ag16  1  0.49499497  0.33711238  0.16335073  1
  Ag  Ag17  1  -0.00205590  -0.01160165  0.66625818  1
  Ag  Ag18  1  0.33299414  0.33079925  -0.00137721  1
  Ag  Ag19  1  0.34116064  -0.00644673  0.67317499  1
  Ag  Ag20  1  0.50018371  0.66316568  0.83072924  1
  Ag  Ag21  1  -0.00286101  0.66862483  0.33957051  1
  Ag  Ag22  1  0.66202627  0.82775642  0.50401811  1
  Ag  Ag23  1  0.00151577  0.34142782  0.33440264  1
  Ag  Ag24  1  0.33325140  0.83120490  0.82737101  1
  Ag  Ag25  1  0.65979850  0.50564813  0.50874549  1
  Ag  Ag26  1  0.66379542  0.16623802  0.50964011  1
  Ag  Ag27  1  0.82932044  0.50849725  0.33580204  1
  Ag  Ag28  1  0.82518859  0.50834935  0.67457698  1
  Ag  Ag29  1  0.50235672  0.50093164  -0.00754002  1
  Ag  Ag30  1  0.17669924  0.49568448  -0.00631734  1
  Ag  Ag31  1  -0.00328372  0.66550729  -0.01055821  1
  Ag  Ag32  1  0.33633983  0.16479141  0.15514448  1
  Ag  Ag33  1  0.83267500  0.17170711  -0.00351792  1
  Ag  Ag34  1  0.65829311  0.34335647  -0.00161548  1
  Ag  Ag35  1  0.50391122  0.50910056  0.33588783  1
  Ag  Ag36  1  0.33409050  0.00567539  -0.00781740  1
  Ag  Ag37  1  0.17491805  0.33407954  0.15572278  1
  Ag  Ag38  1  0.34073387  0.50533812  0.83143676  1
  Ag  Ag39  1  0.65956322  0.17072032  0.83171788  1
  Ag  Ag40  1  0.49697992  0.66640608  0.50447889  1
  Ag  Ag41  1  -0.00061567  0.82967002  0.51014111  1
  Ag  Ag42  1  0.66186505  -0.00534482  0.66805819  1
  Ag  Ag43  1  0.33821348  0.82771410  0.51054737  1
  Ag  Ag44  1  0.49727480  -0.01464450  0.16531152  1
  Ag  Ag45  1  0.65634768  0.83167637  0.17125602  1
  Ag  Ag46  1  0.83261580  0.82730213  0.34109454  1
  Ag  Ag47  1  0.66079816  0.50137665  0.83384248  1
  Ag  Ag48  1  0.33771778  0.16557751  0.83752784  1
  Ag  Ag49  1  0.83537405  0.66777979  0.83282059  1
  Ag  Ag50  1  0.15631428  0.83054504  0.66646337  1
  Ag  Ag51  1  0.16539323  0.66542594  0.82965278  1
  Ag  Ag52  1  0.17116292  0.34257114  0.83893445  1
  Ag  Ag53  1  0.16894838  0.34143916  0.50164038  1
  Sb  Sb54  1  0.66106252  -0.00062520  -0.00612196  1
  Sb  Sb55  1  0.66784444  0.66998744  0.67146276  1
  Sb  Sb56  1  0.33077882  0.33577205  0.32814882  1
  Sb  Sb57  1  0.00038807  0.50074334  0.16702611  1
  Sb  Sb58  1  0.50020969  -0.00428141  0.83352470  1
  Sb  Sb59  1  0.83486355  0.33775615  0.49902863  1
  Sb  Sb60  1  0.17167322  0.16208202  0.67158029  1
  Sb  Sb61  1  0.49933192  0.82582887  0.00049053  1
  Sb  Sb62  1  0.83308215  0.16492640  0.33024931  1
  Sb  Sb63  1  0.83211260  0.33483785  0.16359843  1
  Sb  Sb64  1  0.49683434  0.17237935  -0.00550893  1
  Sb  Sb65  1  -0.00277538  0.16281862  0.50063893  1
  Sb  Sb66  1  0.83266291  0.82915915  -0.00535684  1
  Sb  Sb67  1  0.33389397  0.33193352  0.67318789  1
  Sb  Sb68  1  0.33233526  -0.00428579  0.33411372  1
  Sb  Sb69  1  0.49627642  0.34368176  0.49659578  1
  Sb  Sb70  1  0.17382545  0.00214159  0.16461278  1
  Sb  Sb71  1  0.00229173  0.33711839  0.66443388  1
  Sb  Sb72  1  0.33371587  0.67548070  0.66800576  1
  Sb  Sb73  1  0.33605250  0.66376076  -0.00470996  1
  Sb  Sb74  1  0.16634465  -0.00507420  0.50234576  1
  Sb  Sb75  1  0.65880661  0.16344002  0.16162989  1
  Sb  Sb76  1  0.82685276  0.16077775  0.67367574  1
  Sb  Sb77  1  0.33857714  0.16606382  0.50471765  1
  Sb  Sb78  1  0.00017260  0.50825534  0.50049428  1
  Sb  Sb79  1  0.33774284  0.50021404  0.16119831  1
  Sb  Sb80  1  0.16802762  -0.00487911  0.83257336  1
  Sb  Sb81  1  0.00013609  0.50882858  0.83354820  1
  Sb  Sb82  1  0.49561138  0.34054501  0.83725141  1
  Sb  Sb83  1  0.00130952  0.83158064  0.16903526  1
  Sb  Sb84  1  0.33493138  0.66694715  0.33612893  1
  Sb  Sb85  1  0.66478244  0.82895860  0.82883721  1
  Sb  Sb86  1  0.16981468  0.82829881  -0.00680162  1
  Sb  Sb87  1  0.00333933  -0.00458150  -0.00282935  1
  Sb  Sb88  1  0.66746448  0.66683510  0.33188634  1
  Sb  Sb89  1  0.16641354  0.83083257  0.34023162  1
  Sb  Sb90  1  0.50090522  0.16518154  0.33633262  1
  Sb  Sb91  1  0.83202471  0.66800844  0.50559217  1
  Sb  Sb92  1  0.66946253  -0.00548335  0.33878716  1
  Sb  Sb93  1  0.83554186  0.33834798  0.83474100  1
  Sb  Sb94  1  0.00409926  0.33973780  0.00118305  1
  Sb  Sb95  1  0.16880459  0.50046084  0.33294036  1
  Sb  Sb96  1  0.16668450  0.16915858  0.33046410  1
  Sb  Sb97  1  0.82789308  0.66746221  0.16230077  1
  Sb  Sb98  1  0.17099528  0.50768087  0.67053130  1
  Sb  Sb99  1  0.66501123  0.33437034  0.67167508  1
  Sb  Sb100  1  0.50058206  -0.01155096  0.50129305  1
  Sb  Sb101  1  0.00596806  0.16821272  0.16443068  1
  Sb  Sb102  1  0.17148763  0.66323884  0.16322653  1
  Sb  Sb103  1  0.00161115  0.16097229  0.83385675  1
  Sb  Sb104  1  0.66850530  0.33774195  0.32932195  1
  Sb  Sb105  1  0.66228191  0.50557749  0.16063296  1
  Sb  Sb106  1  0.83263154  -0.00507286  0.50752241  1
  Sb  Sb107  1  0.82772569  -0.00320427  0.16148729  1
  Te  Te108  1  0.17328350  0.17170362  0.16193197  1
  Te  Te109  1  0.16789342  0.17182425  0.50105174  1
  Te  Te110  1  0.17071752  0.16766581  0.83698364  1
  Te  Te111  1  0.16946846  0.49469855  0.16139805  1
  Te  Te112  1  0.17084906  0.50342374  0.50139386  1
  Te  Te113  1  0.16804718  0.50278134  0.83466334  1
  Te  Te114  1  0.17520738  0.83266938  0.16636223  1
  Te  Te115  1  0.16883010  0.82857606  0.50493372  1
  Te  Te116  1  0.16947466  0.82853027  0.82920334  1
  Te  Te117  1  0.49553550  0.17303013  0.16829588  1
  Te  Te118  1  0.50427493  0.16806603  0.50497198  1
  Te  Te119  1  0.49955239  0.16591837  0.82834665  1
  Te  Te120  1  0.50012267  0.50334623  0.17101171  1
  Te  Te121  1  0.49985405  0.50428763  0.50065618  1
  Te  Te122  1  0.50026222  0.50119740  0.83168233  1
  Te  Te123  1  0.49918453  0.82890178  0.16376327  1
  Te  Te124  1  0.49976615  0.82889416  0.49907430  1
  Te  Te125  1  0.49625108  0.82831344  0.83084658  1
  Te  Te126  1  0.83058429  0.16578816  0.15843128  1
  Te  Te127  1  0.82573045  0.16728826  0.50051035  1
  Te  Te128  1  0.83168833  0.16983298  0.83762426  1
  Te  Te129  1  0.83146900  0.50016952  0.17185018  1
  Te  Te130  1  0.82895250  0.50153286  0.49577170  1
  Te  Te131  1  0.83204395  0.50368446  0.83353784  1
  Te  Te132  1  0.83092536  0.83388779  0.17340254  1
  Te  Te133  1  0.83195273  0.83281850  0.50134853  1
  Te  Te134  1  0.83229546  0.82967668  0.82943104  1
  Te  Te135  1  0.17184604  0.00715967  0.00003204  1
  Te  Te136  1  0.15718374  0.00050335  0.33318203  1
  Te  Te137  1  0.16378809  -0.00578826  0.66704821  1
  Te  Te138  1  0.16596045  0.33510274  -0.00118845  1
  Te  Te139  1  0.16162402  0.33423170  0.33720574  1
  Te  Te140  1  0.16595281  0.33354282  0.66469052  1
  Te  Te141  1  0.16379543  0.66072724  -0.00352361  1
  Te  Te142  1  0.15957390  0.66521080  0.33439999  1
  Te  Te143  1  0.16184449  0.66992713  0.66763439  1
  Te  Te144  1  0.49436834  0.00129729  0.00354674  1
  Te  Te145  1  0.50084655  -0.00424166  0.32746609  1
  Te  Te146  1  0.50083321  -0.00239584  0.66664581  1
  Te  Te147  1  0.49888556  0.33813171  0.00230140  1
  Te  Te148  1  0.49992696  0.33611447  0.32638633  1
  Te  Te149  1  0.49970958  0.33403548  0.66492733  1
  Te  Te150  1  0.50155453  0.66063953  -0.00467065  1
  Te  Te151  1  0.50066083  0.66787425  0.33312054  1
  Te  Te152  1  0.50072931  0.66614383  0.66754860  1
  Te  Te153  1  0.83362709  0.00100115  -0.00660351  1
  Te  Te154  1  0.83784320  -0.00352253  0.33123183  1
  Te  Te155  1  0.83326312  -0.00357527  0.67243559  1
  Te  Te156  1  0.83379422  0.33700228  0.00033433  1
  Te  Te157  1  0.83980703  0.33596842  0.33125377  1
  Te  Te158  1  0.83560546  0.34178247  0.66630323  1
  Te  Te159  1  0.83328574  0.66364570  -0.00404568  1
  Te  Te160  1  0.83595621  0.66762634  0.33050541  1
  Te  Te161  1  0.83545727  0.66808465  0.67067715  1
  Te  Te162  1  -0.00379205  0.16579536  0.00011762  1
  Te  Te163  1  -0.00165968  0.16645632  0.33304770  1
  Te  Te164  1  -0.00155161  0.16110766  0.66603087  1
  Te  Te165  1  -0.00690511  0.50583409  0.00074433  1
  Te  Te166  1  -0.00211098  0.50256380  0.33411352  1
  Te  Te167  1  -0.00723622  0.50475514  0.66579203  1
  Te  Te168  1  0.00132246  0.82696190  -0.00119545  1
  Te  Te169  1  -0.00104052  0.83027738  0.33428275  1
  Te  Te170  1  -0.00023097  0.83385230  0.66680476  1
  Te  Te171  1  0.33482488  0.16864841  -0.00234720  1
  Te  Te172  1  0.33386145  0.16510923  0.32984740  1
  Te  Te173  1  0.33842733  0.16020952  0.67224385  1
  Te  Te174  1  0.33559193  0.49740159  -0.00421588  1
  Te  Te175  1  0.33923073  0.49982167  0.34121352  1
  Te  Te176  1  0.33782847  0.49793336  0.66890473  1
  Te  Te177  1  0.33255493  0.83784549  -0.00243275  1
  Te  Te178  1  0.33788743  0.83385602  0.33345806  1
  Te  Te179  1  0.34002707  0.83619006  0.66753506  1
  Te  Te180  1  0.66892946  0.16696504  -0.00533334  1
  Te  Te181  1  0.66777026  0.16697953  0.33974627  1
  Te  Te182  1  0.66392262  0.16690459  0.66959327  1
  Te  Te183  1  0.66540223  0.50022914  -0.00138094  1
  Te  Te184  1  0.66589511  0.49979417  0.33639102  1
  Te  Te185  1  0.66539179  0.49933862  0.66868265  1
  Te  Te186  1  0.66736500  0.83006514  0.00297069  1
  Te  Te187  1  0.66538062  0.83314412  0.33683625  1
  Te  Te188  1  0.65994081  0.83582698  0.66430204  1
  Te  Te189  1  -0.00077817  0.00005420  0.16984578  1
  Te  Te190  1  -0.00088927  -0.00505877  0.50063926  1
  Te  Te191  1  -0.00361140  -0.00690724  0.83121726  1
  Te  Te192  1  0.00519540  0.33282548  0.17288605  1
  Te  Te193  1  0.00506804  0.33192520  0.49640495  1
  Te  Te194  1  0.00962234  0.33072329  0.83242399  1
  Te  Te195  1  0.00140610  0.66778488  0.16849161  1
  Te  Te196  1  -0.00026619  0.67158872  0.50015057  1
  Te  Te197  1  0.00007094  0.66959908  0.83183464  1
  Te  Te198  1  0.33776300  -0.00036831  0.16753988  1
  Te  Te199  1  0.33314596  -0.00373019  0.50500812  1
  Te  Te200  1  0.33394140  -0.00138893  0.83305148  1
  Te  Te201  1  0.33366766  0.33368676  0.16237879  1
  Te  Te202  1  0.32823373  0.33355576  0.49981791  1
  Te  Te203  1  0.33018409  0.33337099  0.83756690  1
  Te  Te204  1  0.33893462  0.67174160  0.16635620  1
  Te  Te205  1  0.33265712  0.66771846  0.50008622  1
  Te  Te206  1  0.33334638  0.66571541  0.83356286  1
  Te  Te207  1  0.65964165  -0.00529298  0.16640971  1
  Te  Te208  1  0.66643321  -0.00014979  0.50657200  1
  Te  Te209  1  0.66892941  0.00278939  0.82891420  1
  Te  Te210  1  0.66219974  0.33136149  0.15969582  1
  Te  Te211  1  0.66620837  0.33614131  0.49863517  1
  Te  Te212  1  0.66762690  0.33482735  0.83879300  1
  Te  Te213  1  0.66087105  0.67216364  0.15914828  1
  Te  Te214  1  0.66203794  0.66593123  0.49911109  1
  Te  Te215  1  0.66531610  0.66323721  0.83678302  1
