# generated using pymatgen
data_AgSbTe2
_symmetry_space_group_name_H-M   'P 1'
_cell_length_a   18.33496166
_cell_length_b   18.33126424
_cell_length_c   18.33462906
_cell_angle_alpha   89.99919311
_cell_angle_beta   90.00063945
_cell_angle_gamma   89.99723375
_symmetry_Int_Tables_number   1
_chemical_formula_structural   AgSbTe2
_chemical_formula_sum   'Ag54 Sb54 Te108'
_cell_volume   6162.32431789
_cell_formula_units_Z   54
loop_
 _symmetry_equiv_pos_site_id
 _symmetry_equiv_pos_as_xyz
  1  'x, y, z'
loop_
 _atom_site_type_symbol
 _atom_site_label
 _atom_site_symmetry_multiplicity
 _atom_site_fract_x
 _atom_site_fract_y
 _atom_site_fract_z
 _atom_site_occupancy
  Ag  Ag0  1  0.16273704  0.00458194  0.16216035  1
  Ag  Ag1  1  0.34190642  0.16425839  0.49647500  1
  Ag  Ag2  1  0.67858682  0.50678607  0.17218777  1
  Ag  Ag3  1  0.33245786  0.16563567  0.16390170  1
  Ag  Ag4  1  0.66722316  0.83347326  0.83438128  1
  Ag  Ag5  1  0.83204087  0.82432635  0.66613692  1
  Ag  Ag6  1  0.33302464  0.84128348  0.50665263  1
  Ag  Ag7  1  0.66537874  0.66669890  0.01150330  1
  Ag  Ag8  1  0.16919550  0.84806976  -0.00048114  1
  Ag  Ag9  1  0.83191248  0.33697998  0.16703117  1
  Ag  Ag10  1  0.49948551  0.16921774  0.65924042  1
  Ag  Ag11  1  0.50396098  0.67047157  0.49916779  1
  Ag  Ag12  1  0.66955865  0.16687026  0.82914064  1
  Ag  Ag13  1  0.33821080  0.66868191  -0.00327679  1
  Ag  Ag14  1  -0.01149284  0.65544856  0.66509173  1
  Ag  Ag15  1  0.66456929  0.00477901  0.33211756  1
  Ag  Ag16  1  0.66507676  0.17076869  0.50030636  1
  Ag  Ag17  1  0.67514534  0.33528162  0.66526495  1
  Ag  Ag18  1  0.16189365  0.16604681  0.00295514  1
  Ag  Ag19  1  0.83379617  0.48993047  0.01234437  1
  Ag  Ag20  1  0.50161875  0.16615635  0.33765367  1
  Ag  Ag21  1  0.84164328  0.17290290  0.00713833  1
  Ag  Ag22  1  0.66856507  0.66055385  0.66540448  1
  Ag  Ag23  1  0.00601600  0.01266734  0.00319296  1
  Ag  Ag24  1  0.82294748  0.64997294  0.16530951  1
  Ag  Ag25  1  0.15717759  0.32956818  0.83276741  1
  Ag  Ag26  1  0.50992765  0.33405362  0.16750055  1
  Ag  Ag27  1  0.83331361  0.33217940  0.50074844  1
  Ag  Ag28  1  0.16980063  0.16654922  0.32697620  1
  Ag  Ag29  1  0.66720872  0.66802954  0.32356992  1
  Ag  Ag30  1  0.83756887  0.33071496  0.83337274  1
  Ag  Ag31  1  0.33385642  0.83760263  0.83343675  1
  Ag  Ag32  1  0.32721154  0.32204566  -0.00600566  1
  Ag  Ag33  1  0.67005948  0.49539059  0.49773128  1
  Ag  Ag34  1  0.33818578  0.00634488  0.33039086  1
  Ag  Ag35  1  0.33194147  0.16754448  0.83928713  1
  Ag  Ag36  1  -0.00295041  0.16932822  0.50034820  1
  Ag  Ag37  1  -0.00014402  0.17216848  0.84009393  1
  Ag  Ag38  1  0.51268144  0.66215905  0.16972101  1
  Ag  Ag39  1  -0.00000761  0.83885336  0.50347794  1
  Ag  Ag40  1  0.66945244  0.82016786  0.16285622  1
  Ag  Ag41  1  0.49871292  0.00626621  0.49722366  1
  Ag  Ag42  1  0.83374817  0.49660532  0.66510619  1
  Ag  Ag43  1  -0.00772581  0.33524117  0.67051689  1
  Ag  Ag44  1  0.83037408  0.49002215  0.32363817  1
  Ag  Ag45  1  0.33711324  0.66319709  0.66908293  1
  Ag  Ag46  1  -0.01040717  0.49677268  0.16624455  1
  Ag  Ag47  1  -0.00555459  0.32897381  -0.00348700  1
  Ag  Ag48  1  0.83308371  0.17243042  0.32799310  1
  Ag  Ag49  1  -0.00602671  0.32871353  0.32988881  1
  Ag  Ag50  1  0.15670681  0.49661411  0.66585964  1
  Ag  Ag51  1  0.33309556  0.33020987  0.67144794  1
  Ag  Ag52  1  0.32726248  0.00765417  0.00553072  1
  Ag  Ag53  1  0.83356472  0.00557071  0.16648876  1
  Sb  Sb54  1  0.82702698  0.66154776  0.49938885  1
  Sb  Sb55  1  0.49915318  0.00285753  0.82977874  1
  Sb  Sb56  1  0.49876773  0.16860656  0.00276807  1
  Sb  Sb57  1  0.83207752  0.83504518  0.33534878  1
  Sb  Sb58  1  0.50479595  0.32844544  0.49716208  1
  Sb  Sb59  1  0.34247762  0.67300945  0.33396371  1
  Sb  Sb60  1  0.16583388  0.82706472  0.67067517  1
  Sb  Sb61  1  0.32915256  0.32461185  0.33371011  1
  Sb  Sb62  1  0.16698868  0.67086576  0.16404414  1
  Sb  Sb63  1  0.16991350  0.17269982  0.67013596  1
  Sb  Sb64  1  0.16811540  0.84047436  0.32943221  1
  Sb  Sb65  1  -0.00247769  0.00690279  0.66840307  1
  Sb  Sb66  1  -0.00212135  0.49179649  0.83410856  1
  Sb  Sb67  1  -0.00000797  0.83993097  0.83060823  1
  Sb  Sb68  1  0.17131720  0.00420179  0.49278922  1
  Sb  Sb69  1  0.50189002  0.83926758  0.33397031  1
  Sb  Sb70  1  0.66712550  0.83359203  0.50059125  1
  Sb  Sb71  1  0.16250561  0.32688550  0.16134971  1
  Sb  Sb72  1  0.16094839  0.33020272  0.50658997  1
  Sb  Sb73  1  0.50834816  0.49448228  0.33343889  1
  Sb  Sb74  1  -0.00049553  0.17236231  0.16462447  1
  Sb  Sb75  1  -0.00181637  0.00797600  0.32873401  1
  Sb  Sb76  1  0.33323108  0.00334654  0.66604955  1
  Sb  Sb77  1  0.66636120  -0.00228213  0.00552941  1
  Sb  Sb78  1  0.83194357  0.66227363  0.83420965  1
  Sb  Sb79  1  0.16775810  0.66314978  0.83258002  1
  Sb  Sb80  1  -0.00930860  0.49437392  0.50087942  1
  Sb  Sb81  1  0.49632749  0.83210609  0.00128892  1
  Sb  Sb82  1  0.33857300  0.83847210  0.16261159  1
  Sb  Sb83  1  0.34022265  0.49660845  0.50197125  1
  Sb  Sb84  1  0.50113845  0.00376570  0.17141295  1
  Sb  Sb85  1  0.66735471  0.17095116  0.16935747  1
  Sb  Sb86  1  0.67278470  0.33467584  -0.00227994  1
  Sb  Sb87  1  0.16786616  0.00744792  0.84011075  1
  Sb  Sb88  1  0.50626389  0.49894558  0.00267991  1
  Sb  Sb89  1  0.83231691  0.00789311  0.83775763  1
  Sb  Sb90  1  0.33402335  0.49328066  0.16481394  1
  Sb  Sb91  1  0.17013617  0.66730502  0.50077383  1
  Sb  Sb92  1  -0.00820989  0.66155164  0.33814881  1
  Sb  Sb93  1  -0.00263582  0.66322489  -0.00340492  1
  Sb  Sb94  1  0.50209896  0.83456205  0.66439068  1
  Sb  Sb95  1  0.83550836  0.83483880  -0.00163519  1
  Sb  Sb96  1  0.67079715  0.49859665  0.83272876  1
  Sb  Sb97  1  -0.00589817  0.83115557  0.16911187  1
  Sb  Sb98  1  0.50111836  0.66834774  0.83231254  1
  Sb  Sb99  1  0.50467690  0.49591643  0.66415396  1
  Sb  Sb100  1  0.16278896  0.49351528  -0.00204374  1
  Sb  Sb101  1  0.83032480  0.00700879  0.49543360  1
  Sb  Sb102  1  0.50210147  0.32947373  0.83540046  1
  Sb  Sb103  1  0.15859414  0.49075340  0.33709296  1
  Sb  Sb104  1  0.67437872  0.33198775  0.33725690  1
  Sb  Sb105  1  0.83007949  0.17228817  0.66584390  1
  Sb  Sb106  1  0.33219984  0.49548895  0.83267375  1
  Sb  Sb107  1  0.66762852  0.00349209  0.66202602  1
  Te  Te108  1  0.17001497  0.16408790  0.16463028  1
  Te  Te109  1  0.16287594  0.16676659  0.49640817  1
  Te  Te110  1  0.16955514  0.17095205  0.83675261  1
  Te  Te111  1  0.16190865  0.50035218  0.16818207  1
  Te  Te112  1  0.16728144  0.49882895  0.50535074  1
  Te  Te113  1  0.16578319  0.49218436  0.82688266  1
  Te  Te114  1  0.16626886  0.83940657  0.16146907  1
  Te  Te115  1  0.16909764  0.83531902  0.49956835  1
  Te  Te116  1  0.17095239  0.83290089  0.83843947  1
  Te  Te117  1  0.49716517  0.16961981  0.17170161  1
  Te  Te118  1  0.50200873  0.16756226  0.49818985  1
  Te  Te119  1  0.50020303  0.16611775  0.82797186  1
  Te  Te120  1  0.50223334  0.49951267  0.16802723  1
  Te  Te121  1  0.50837030  0.50701640  0.49862330  1
  Te  Te122  1  0.50115510  0.49938831  0.83366055  1
  Te  Te123  1  0.50701365  0.82633630  0.16767945  1
  Te  Te124  1  0.49505395  0.83237328  0.49983896  1
  Te  Te125  1  0.49929835  0.83536155  0.83266250  1
  Te  Te126  1  0.83269676  0.16730894  0.16617228  1
  Te  Te127  1  0.83221110  0.17001612  0.49869440  1
  Te  Te128  1  0.83207336  0.17055857  0.83327533  1
  Te  Te129  1  0.83373145  0.49472745  0.16773596  1
  Te  Te130  1  0.82790967  0.49538547  0.50559709  1
  Te  Te131  1  0.83283667  0.49294721  0.82602468  1
  Te  Te132  1  0.82901110  0.84029710  0.16682322  1
  Te  Te133  1  0.83666687  0.83427736  0.50380859  1
  Te  Te134  1  0.83100666  0.83422932  0.82946311  1
  Te  Te135  1  0.16741481  0.00503170  0.00259382  1
  Te  Te136  1  0.16918995  0.00661617  0.32507042  1
  Te  Te137  1  0.16474691  -0.00227486  0.66636758  1
  Te  Te138  1  0.16791780  0.32997187  -0.00495838  1
  Te  Te139  1  0.15757982  0.32627815  0.33394059  1
  Te  Te140  1  0.16961935  0.33656886  0.67173524  1
  Te  Te141  1  0.16977122  0.66298203  -0.00127261  1
  Te  Te142  1  0.16601826  0.66573113  0.33243150  1
  Te  Te143  1  0.17435854  0.65939497  0.66668181  1
  Te  Te144  1  0.49230971  0.00019681  0.00144365  1
  Te  Te145  1  0.50061668  0.00526805  0.33653750  1
  Te  Te146  1  0.50008996  0.00689115  0.65839958  1
  Te  Te147  1  0.49226378  0.33465634  0.00696806  1
  Te  Te148  1  0.49723327  0.32780453  0.32773113  1
  Te  Te149  1  0.49680472  0.32954390  0.66564702  1
  Te  Te150  1  0.50217472  0.66547963  0.00324027  1
  Te  Te151  1  0.50629854  0.66517754  0.33358373  1
  Te  Te152  1  0.49898047  0.66671970  0.66437838  1
  Te  Te153  1  0.83454583  0.00333346  0.00499006  1
  Te  Te154  1  0.83009825  0.00416690  0.32873557  1
  Te  Te155  1  0.83358392  -0.01018232  0.66662104  1
  Te  Te156  1  0.83336116  0.33216147  0.00053950  1
  Te  Te157  1  0.83477684  0.33199366  0.33270971  1
  Te  Te158  1  0.83273803  0.33210979  0.66553630  1
  Te  Te159  1  0.83031802  0.66655130  0.00250555  1
  Te  Te160  1  0.82807851  0.66569028  0.32978177  1
  Te  Te161  1  0.83186366  0.66400088  0.66681479  1
  Te  Te162  1  -0.00031972  0.16915529  0.00051836  1
  Te  Te163  1  -0.00460431  0.16919346  0.33566355  1
  Te  Te164  1  0.00133630  0.17233801  0.66450336  1
  Te  Te165  1  -0.00528395  0.49626241  0.00276279  1
  Te  Te166  1  -0.00703661  0.49403148  0.33146907  1
  Te  Te167  1  -0.00179101  0.49746068  0.66686437  1
  Te  Te168  1  0.00658480  0.83278506  -0.00084634  1
  Te  Te169  1  0.00138730  0.83247096  0.34199729  1
  Te  Te170  1  -0.00206911  0.83496619  0.66378588  1
  Te  Te171  1  0.33671570  0.16628850  -0.00037513  1
  Te  Te172  1  0.33178874  0.16472059  0.33591113  1
  Te  Te173  1  0.33493275  0.16859959  0.66676757  1
  Te  Te174  1  0.33211488  0.50740191  -0.00032683  1
  Te  Te175  1  0.32950092  0.50126664  0.33409675  1
  Te  Te176  1  0.33523959  0.50016387  0.66610474  1
  Te  Te177  1  0.33014895  0.82964704  -0.00206403  1
  Te  Te178  1  0.33297111  0.84115866  0.33941669  1
  Te  Te179  1  0.33327758  0.83106181  0.66840368  1
  Te  Te180  1  0.66809354  0.16579683  -0.00576087  1
  Te  Te181  1  0.66882902  0.16592809  0.33473847  1
  Te  Te182  1  0.66427109  0.16836552  0.66597878  1
  Te  Te183  1  0.67303140  0.50502560  0.00123118  1
  Te  Te184  1  0.67104562  0.50112003  0.33467825  1
  Te  Te185  1  0.66965150  0.49715606  0.66596097  1
  Te  Te186  1  0.66665294  0.82978434  -0.00230866  1
  Te  Te187  1  0.66736422  0.83158605  0.33116361  1
  Te  Te188  1  0.66935660  0.83316669  0.66903489  1
  Te  Te189  1  -0.00079826  -0.00340923  0.16264240  1
  Te  Te190  1  -0.00017178  0.00325172  0.49917560  1
  Te  Te191  1  0.00010575  0.00882633  0.84061613  1
  Te  Te192  1  -0.00336584  0.33603844  0.16436522  1
  Te  Te193  1  -0.00485414  0.33020924  0.50421436  1
  Te  Te194  1  -0.00197632  0.32943900  0.83371007  1
  Te  Te195  1  -0.00366838  0.66226432  0.16745907  1
  Te  Te196  1  0.00060927  0.66797837  0.50648561  1
  Te  Te197  1  0.00035106  0.66988040  0.82354259  1
  Te  Te198  1  0.33461733  0.00281489  0.16707933  1
  Te  Te199  1  0.33665624  0.00298146  0.49931469  1
  Te  Te200  1  0.33342662  -0.00027980  0.83696201  1
  Te  Te201  1  0.33080191  0.32775565  0.16443107  1
  Te  Te202  1  0.33319206  0.32815346  0.50459554  1
  Te  Te203  1  0.33633534  0.32974538  0.83301749  1
  Te  Te204  1  0.33551281  0.66777674  0.16436411  1
  Te  Te205  1  0.33831523  0.66681241  0.50199727  1
  Te  Te206  1  0.33475713  0.66896753  0.83298937  1
  Te  Te207  1  0.66870613  0.00211441  0.17141145  1
  Te  Te208  1  0.66266985  0.00315615  0.49396278  1
  Te  Te209  1  0.66570391  -0.00040166  0.83498040  1
  Te  Te210  1  0.66855905  0.33823137  0.16493986  1
  Te  Te211  1  0.66917456  0.33208434  0.50354918  1
  Te  Te212  1  0.66937266  0.32910448  0.82888810  1
  Te  Te213  1  0.66817837  0.66413492  0.16774730  1
  Te  Te214  1  0.66396521  0.66881121  0.50741098  1
  Te  Te215  1  0.66674514  0.67080023  0.82473192  1
