# generated using pymatgen
data_AgSbTe2
_symmetry_space_group_name_H-M   'P 1'
_cell_length_a   18.31756793
_cell_length_b   18.32532201
_cell_length_c   18.32221008
_cell_angle_alpha   90.00182560
_cell_angle_beta   89.99649117
_cell_angle_gamma   90.00216500
_symmetry_Int_Tables_number   1
_chemical_formula_structural   AgSbTe2
_chemical_formula_sum   'Ag54 Sb54 Te108'
_cell_volume   6150.31391158
_cell_formula_units_Z   54
loop_
 _symmetry_equiv_pos_site_id
 _symmetry_equiv_pos_as_xyz
  1  'x, y, z'
loop_
 _atom_site_type_symbol
 _atom_site_label
 _atom_site_symmetry_multiplicity
 _atom_site_fract_x
 _atom_site_fract_y
 _atom_site_fract_z
 _atom_site_occupancy
  Ag  Ag0  1  0.50306338  0.31965270  0.17008949  1
  Ag  Ag1  1  0.65871068  0.16406637  0.17809139  1
  Ag  Ag2  1  0.49925492  0.15905362  0.01126332  1
  Ag  Ag3  1  0.16485058  0.50502528  0.00026747  1
  Ag  Ag4  1  0.33766170  0.16766482  0.83326862  1
  Ag  Ag5  1  0.00427965  0.83550936  0.83705063  1
  Ag  Ag6  1  0.16615979  0.84142513  0.66593163  1
  Ag  Ag7  1  0.50351559  0.16245604  0.32478973  1
  Ag  Ag8  1  0.66802544  0.66714806  0.65910694  1
  Ag  Ag9  1  0.83466305  0.00510797  0.49655929  1
  Ag  Ag10  1  -0.00400273  -0.00161308  0.33179802  1
  Ag  Ag11  1  -0.00826120  0.33295639  0.65870539  1
  Ag  Ag12  1  0.66720080  0.67957421  0.33450502  1
  Ag  Ag13  1  0.66732703  -0.00556148  0.33333547  1
  Ag  Ag14  1  0.49922287  0.84188260  0.00311659  1
  Ag  Ag15  1  0.16404830  -0.00264043  0.49959069  1
  Ag  Ag16  1  0.33298707  0.49455887  0.82716691  1
  Ag  Ag17  1  0.16842363  -0.00005772  0.84024425  1
  Ag  Ag18  1  0.50093308  0.67883732  0.83535945  1
  Ag  Ag19  1  -0.00285233  0.50261143  0.17531298  1
  Ag  Ag20  1  0.00184395  0.67369760  0.00702578  1
  Ag  Ag21  1  0.32650812  0.49431417  0.50100930  1
  Ag  Ag22  1  0.66504076  0.32827719  0.33655558  1
  Ag  Ag23  1  0.82488594  0.16451603  -0.00181668  1
  Ag  Ag24  1  -0.00306664  0.66770311  0.33103792  1
  Ag  Ag25  1  0.82438394  0.83388427  0.33392813  1
  Ag  Ag26  1  -0.00339981  0.33402429  0.33876863  1
  Ag  Ag27  1  0.83173905  0.32779862  0.50114392  1
  Ag  Ag28  1  0.00360171  0.49762089  0.49335659  1
  Ag  Ag29  1  0.66426559  0.83944362  0.49095820  1
  Ag  Ag30  1  0.67018259  0.50134130  0.17026845  1
  Ag  Ag31  1  0.34065926  0.33040861  0.33931469  1
  Ag  Ag32  1  0.00608283  -0.00284633  0.00474367  1
  Ag  Ag33  1  0.66305523  0.83665639  0.17934857  1
  Ag  Ag34  1  0.16786355  0.00135849  0.15999327  1
  Ag  Ag35  1  0.51066753  0.83906436  0.32783320  1
  Ag  Ag36  1  0.33373821  0.33118226  0.65862363  1
  Ag  Ag37  1  0.16917130  0.67257188  0.49882546  1
  Ag  Ag38  1  0.83305487  0.48926554  0.66354751  1
  Ag  Ag39  1  0.33588232  0.16892407  0.49890673  1
  Ag  Ag40  1  0.16842036  0.16217714  0.66854676  1
  Ag  Ag41  1  0.83235180  0.66669193  0.17009543  1
  Ag  Ag42  1  0.67229895  0.32981434  0.65839769  1
  Ag  Ag43  1  0.16498067  0.84001150  -0.00375367  1
  Ag  Ag44  1  0.34612679  0.16694293  0.16953904  1
  Ag  Ag45  1  0.16955255  0.15721667  -0.00301773  1
  Ag  Ag46  1  0.65974354  0.16065492  0.83256206  1
  Ag  Ag47  1  0.83026549  0.17065964  0.66500239  1
  Ag  Ag48  1  0.66330328  0.84011471  0.83154859  1
  Ag  Ag49  1  0.49939700  0.00012142  0.84290437  1
  Ag  Ag50  1  0.33595633  0.66646676  0.33726123  1
  Ag  Ag51  1  0.66590539  0.16434011  0.49550986  1
  Ag  Ag52  1  0.49995113  0.00623806  0.16374901  1
  Ag  Ag53  1  0.33285668  0.83487610  0.49778425  1
  Sb  Sb54  1  0.49759319  0.66894110  0.49970217  1
  Sb  Sb55  1  0.00232240  0.00405569  0.66467995  1
  Sb  Sb56  1  0.00087280  0.83188102  0.50040620  1
  Sb  Sb57  1  0.66807885  0.49852640  0.49632806  1
  Sb  Sb58  1  0.16860090  0.32522171  0.83178926  1
  Sb  Sb59  1  0.50085986  0.49912010  0.33234340  1
  Sb  Sb60  1  0.83232928  0.33004193  0.82467898  1
  Sb  Sb61  1  0.16694750  0.83516485  0.33437151  1
  Sb  Sb62  1  0.83255474  0.00124999  0.83100043  1
  Sb  Sb63  1  0.33606839  0.66282498  0.66222108  1
  Sb  Sb64  1  0.82898473  0.33494102  0.17554706  1
  Sb  Sb65  1  0.33792329  0.83846454  0.17138995  1
  Sb  Sb66  1  0.50098375  0.00066379  0.49644497  1
  Sb  Sb67  1  0.33218169  0.49404215  0.16941661  1
  Sb  Sb68  1  0.66725576  0.00217301  0.66125726  1
  Sb  Sb69  1  0.16610952  0.33018931  0.50061975  1
  Sb  Sb70  1  0.49998144  0.16697249  0.66673301  1
  Sb  Sb71  1  0.16455741  0.49711037  0.66772778  1
  Sb  Sb72  1  0.82504107  0.16262273  0.33578710  1
  Sb  Sb73  1  0.33102233  0.00631767  0.66562744  1
  Sb  Sb74  1  -0.00123237  0.16993185  0.49967892  1
  Sb  Sb75  1  0.16882454  0.32769857  0.16782865  1
  Sb  Sb76  1  -0.00245062  0.16748385  0.16771548  1
  Sb  Sb77  1  0.83508301  0.66711984  0.49498729  1
  Sb  Sb78  1  0.33354318  0.32861139  0.00098186  1
  Sb  Sb79  1  0.00562371  0.50425758  0.83317964  1
  Sb  Sb80  1  0.50128656  0.33076548  0.49463612  1
  Sb  Sb81  1  0.83260937  0.83796509  0.00412512  1
  Sb  Sb82  1  0.16297419  0.67199755  0.16971427  1
  Sb  Sb83  1  0.83473448  0.83598050  0.66172274  1
  Sb  Sb84  1  0.00211424  0.16146598  0.83367807  1
  Sb  Sb85  1  0.83000053  0.66900132  0.83607462  1
  Sb  Sb86  1  0.66995146  0.67005704  0.00424145  1
  Sb  Sb87  1  0.00040286  0.33094403  0.00187078  1
  Sb  Sb88  1  0.17067246  0.67327745  0.83055978  1
  Sb  Sb89  1  0.83731887  0.49666004  -0.00083269  1
  Sb  Sb90  1  0.66242018  0.49944220  0.83392765  1
  Sb  Sb91  1  0.50011143  0.32671333  0.83711640  1
  Sb  Sb92  1  0.49837115  0.83344597  0.66622830  1
  Sb  Sb93  1  -0.00332300  0.83151201  0.16535444  1
  Sb  Sb94  1  0.66681460  0.32735843  0.00444756  1
  Sb  Sb95  1  0.50562898  0.67096026  0.16554988  1
  Sb  Sb96  1  0.49585606  0.49988636  0.00045848  1
  Sb  Sb97  1  0.83096188  -0.00130360  0.17157608  1
  Sb  Sb98  1  -0.00323595  0.66370989  0.66397591  1
  Sb  Sb99  1  0.17230237  0.16382960  0.33438422  1
  Sb  Sb100  1  0.16482897  0.50075260  0.33182362  1
  Sb  Sb101  1  0.32986810  0.66755380  0.00333540  1
  Sb  Sb102  1  0.83405979  0.50344616  0.33742626  1
  Sb  Sb103  1  0.33437350  0.83717719  0.82863096  1
  Sb  Sb104  1  0.32929351  0.00185200  0.00054036  1
  Sb  Sb105  1  0.66720633  0.00143385  0.00527456  1
  Sb  Sb106  1  0.33709760  0.00174801  0.33411884  1
  Sb  Sb107  1  0.50363862  0.49919069  0.66712938  1
  Te  Te108  1  0.16548860  0.16093058  0.16338229  1
  Te  Te109  1  0.16943223  0.16208736  0.50327779  1
  Te  Te110  1  0.16920528  0.16019711  0.83231294  1
  Te  Te111  1  0.16293065  0.50000483  0.16084865  1
  Te  Te112  1  0.16583727  0.50341989  0.50097933  1
  Te  Te113  1  0.17246250  0.50217166  0.83676320  1
  Te  Te114  1  0.16909785  0.83989675  0.16001805  1
  Te  Te115  1  0.16707786  0.83532974  0.50090214  1
  Te  Te116  1  0.16754595  0.83862824  0.83421803  1
  Te  Te117  1  0.50209707  0.16377026  0.16724428  1
  Te  Te118  1  0.49971488  0.16540977  0.49626966  1
  Te  Te119  1  0.49879953  0.16274852  0.83460318  1
  Te  Te120  1  0.50401228  0.49944998  0.16428005  1
  Te  Te121  1  0.48863455  0.50077475  0.50035542  1
  Te  Te122  1  0.49294772  0.50032440  0.83533440  1
  Te  Te123  1  0.50347952  0.83715816  0.16514874  1
  Te  Te124  1  0.50205914  0.83476024  0.49593765  1
  Te  Te125  1  0.50040965  0.83722636  0.83428402  1
  Te  Te126  1  0.82798089  0.16712004  0.16058167  1
  Te  Te127  1  0.83098031  0.16671573  0.50101776  1
  Te  Te128  1  0.82872347  0.16557542  0.83187507  1
  Te  Te129  1  0.83368247  0.50271543  0.16468832  1
  Te  Te130  1  0.83601533  0.49771190  0.50427374  1
  Te  Te131  1  0.83308798  0.50070519  0.82697332  1
  Te  Te132  1  0.82649376  0.83018370  0.17051470  1
  Te  Te133  1  0.82939265  0.83652256  0.49612832  1
  Te  Te134  1  0.82781249  0.83403046  0.83241402  1
  Te  Te135  1  0.16564938  -0.00085940  0.00045479  1
  Te  Te136  1  0.16132057  0.00022109  0.33622297  1
  Te  Te137  1  0.16559893  0.00123180  0.66268693  1
  Te  Te138  1  0.16571152  0.33200851  -0.00049059  1
  Te  Te139  1  0.16228948  0.33252577  0.33299727  1
  Te  Te140  1  0.17049772  0.32844061  0.66660808  1
  Te  Te141  1  0.16251946  0.66966493  -0.00044153  1
  Te  Te142  1  0.16532492  0.66770394  0.33733061  1
  Te  Te143  1  0.16645001  0.66965219  0.66143327  1
  Te  Te144  1  0.50169402  -0.00040435  0.00218874  1
  Te  Te145  1  0.50337501  -0.00040901  0.33103508  1
  Te  Te146  1  0.49987824  -0.00109059  0.67808321  1
  Te  Te147  1  0.49977824  0.32781434  0.00789840  1
  Te  Te148  1  0.50057605  0.33258516  0.32987458  1
  Te  Te149  1  0.49912417  0.33379784  0.66814898  1
  Te  Te150  1  0.49938006  0.67020968  -0.00386302  1
  Te  Te151  1  0.50267834  0.67080972  0.33238577  1
  Te  Te152  1  0.50777481  0.66662127  0.67295447  1
  Te  Te153  1  0.84209106  0.00538323  -0.00043059  1
  Te  Te154  1  0.83397448  -0.00278523  0.33654878  1
  Te  Te155  1  0.83471721  0.00688927  0.65860582  1
  Te  Te156  1  0.83511134  0.32463161  -0.00158417  1
  Te  Te157  1  0.83465489  0.33317679  0.34055056  1
  Te  Te158  1  0.83243532  0.33048768  0.66179561  1
  Te  Te159  1  0.84114679  0.66588237  0.00555822  1
  Te  Te160  1  0.83280591  0.66937373  0.33081895  1
  Te  Te161  1  0.82775559  0.66703161  0.66663433  1
  Te  Te162  1  0.00714982  0.16297908  0.00006950  1
  Te  Te163  1  -0.00083576  0.16680162  0.33306481  1
  Te  Te164  1  0.00150057  0.17231648  0.66707252  1
  Te  Te165  1  0.00404755  0.50173525  0.00062076  1
  Te  Te166  1  -0.00024501  0.50119539  0.33395079  1
  Te  Te167  1  -0.00317320  0.49544643  0.66473539  1
  Te  Te168  1  -0.00054928  0.83470042  -0.00085733  1
  Te  Te169  1  -0.00177191  0.83246896  0.33303883  1
  Te  Te170  1  0.00391944  0.83257227  0.67223506  1
  Te  Te171  1  0.33276667  0.16758742  -0.00206361  1
  Te  Te172  1  0.33826484  0.16820591  0.33528851  1
  Te  Te173  1  0.33238325  0.17112392  0.66443425  1
  Te  Te174  1  0.32701826  0.49893949  -0.00203818  1
  Te  Te175  1  0.33258107  0.49823560  0.33787131  1
  Te  Te176  1  0.33252659  0.49530282  0.66470906  1
  Te  Te177  1  0.33582093  0.83166806  0.00012763  1
  Te  Te178  1  0.33463066  0.83076424  0.33819569  1
  Te  Te179  1  0.32752018  0.83139697  0.65944062  1
  Te  Te180  1  0.66481950  0.16600248  -0.00616452  1
  Te  Te181  1  0.66505744  0.16840727  0.33548005  1
  Te  Te182  1  0.66738365  0.16813715  0.66320569  1
  Te  Te183  1  0.66746630  0.49928578  0.00701611  1
  Te  Te184  1  0.66743665  0.49150906  0.32931312  1
  Te  Te185  1  0.67115388  0.49854582  0.66547539  1
  Te  Te186  1  0.66457412  0.83466771  -0.00860307  1
  Te  Te187  1  0.66757973  0.83554708  0.33497068  1
  Te  Te188  1  0.66678084  0.83076890  0.67020384  1
  Te  Te189  1  0.00172891  -0.00080152  0.16970093  1
  Te  Te190  1  -0.00020496  -0.00021798  0.49558018  1
  Te  Te191  1  0.00332072  -0.00526894  0.83505863  1
  Te  Te192  1  -0.00069577  0.34005953  0.17150036  1
  Te  Te193  1  0.00010720  0.33597973  0.49916046  1
  Te  Te194  1  0.00069759  0.33437622  0.82705628  1
  Te  Te195  1  -0.00193350  0.66497608  0.16946275  1
  Te  Te196  1  0.00330167  0.66248009  0.49654652  1
  Te  Te197  1  0.00041704  0.67297787  0.83521073  1
  Te  Te198  1  0.33323178  0.00653183  0.16848098  1
  Te  Te199  1  0.33010662  0.00061518  0.49920594  1
  Te  Te200  1  0.33246874  0.00546170  0.83223339  1
  Te  Te201  1  0.33641932  0.32749899  0.17371059  1
  Te  Te202  1  0.33321666  0.33058680  0.49807666  1
  Te  Te203  1  0.33409166  0.33108041  0.82958842  1
  Te  Te204  1  0.33277837  0.66457602  0.17588646  1
  Te  Te205  1  0.33115056  0.66893732  0.49739075  1
  Te  Te206  1  0.33884106  0.66464039  0.83325592  1
  Te  Te207  1  0.66519728  0.00073925  0.17115608  1
  Te  Te208  1  0.66699757  0.00105755  0.49565439  1
  Te  Te209  1  0.66569203  0.00194279  0.83284115  1
  Te  Te210  1  0.66473258  0.32957563  0.17053915  1
  Te  Te211  1  0.66775466  0.33293087  0.49884786  1
  Te  Te212  1  0.66554011  0.32987076  0.82696675  1
  Te  Te213  1  0.67042868  0.66841877  0.17132596  1
  Te  Te214  1  0.66625917  0.66746411  0.49752780  1
  Te  Te215  1  0.66235099  0.66539410  0.83402227  1
