# generated using pymatgen
data_AgSbTe2
_symmetry_space_group_name_H-M   'P 1'
_cell_length_a   18.32442720
_cell_length_b   18.31906417
_cell_length_c   18.32516306
_cell_angle_alpha   89.99859596
_cell_angle_beta   90.00077689
_cell_angle_gamma   90.00526077
_symmetry_Int_Tables_number   1
_chemical_formula_structural   AgSbTe2
_chemical_formula_sum   'Ag54 Sb54 Te108'
_cell_volume   6151.50721586
_cell_formula_units_Z   54
loop_
 _symmetry_equiv_pos_site_id
 _symmetry_equiv_pos_as_xyz
  1  'x, y, z'
loop_
 _atom_site_type_symbol
 _atom_site_label
 _atom_site_symmetry_multiplicity
 _atom_site_fract_x
 _atom_site_fract_y
 _atom_site_fract_z
 _atom_site_occupancy
  Ag  Ag0  1  -0.00042075  0.00724963  0.65513746  1
  Ag  Ag1  1  0.83341565  0.67506996  0.48752586  1
  Ag  Ag2  1  0.50723151  0.83407113  0.33655243  1
  Ag  Ag3  1  -0.00110032  0.00419759  0.34182413  1
  Ag  Ag4  1  0.66330208  0.48790774  0.83157219  1
  Ag  Ag5  1  0.50287769  -0.00063307  0.50015831  1
  Ag  Ag6  1  0.33763042  0.66934781  0.32942830  1
  Ag  Ag7  1  0.15884733  0.16845440  0.66307219  1
  Ag  Ag8  1  0.51099030  0.33344208  0.83422814  1
  Ag  Ag9  1  0.83592934  0.83134261  0.33142414  1
  Ag  Ag10  1  0.50125952  0.83473598  0.65698825  1
  Ag  Ag11  1  0.34420968  0.16734004  0.16730035  1
  Ag  Ag12  1  0.82389399  0.33318846  0.83418731  1
  Ag  Ag13  1  0.67123076  0.17589496  0.82666129  1
  Ag  Ag14  1  0.33847837  0.33496777  0.66869304  1
  Ag  Ag15  1  0.16046519  0.83130914  0.00061467  1
  Ag  Ag16  1  -0.00439598  0.16927968  0.82846644  1
  Ag  Ag17  1  0.17100062  0.49102612  0.67070312  1
  Ag  Ag18  1  -0.00328865  0.16503433  0.17936069  1
  Ag  Ag19  1  0.83283372  0.66240200  0.83801079  1
  Ag  Ag20  1  -0.00054791  0.32397121  0.66909370  1
  Ag  Ag21  1  0.84099067  -0.00244260  0.49791628  1
  Ag  Ag22  1  -0.00759789  0.83578958  0.17421942  1
  Ag  Ag23  1  0.66603841  0.49510112  0.50021363  1
  Ag  Ag24  1  -0.00117382  0.84709001  0.49122927  1
  Ag  Ag25  1  -0.00501043  0.15926975  0.49448427  1
  Ag  Ag26  1  0.33618251  0.49876478  0.83164351  1
  Ag  Ag27  1  0.16404212  0.00270770  0.82914750  1
  Ag  Ag28  1  0.83292123  0.67204214  0.17072753  1
  Ag  Ag29  1  0.33313361  0.83494924  0.49721348  1
  Ag  Ag30  1  -0.00151021  0.31972187  0.33242694  1
  Ag  Ag31  1  0.66949189  0.33140713  -0.01037155  1
  Ag  Ag32  1  0.15364250  0.00153863  0.50438279  1
  Ag  Ag33  1  -0.00449515  0.33024660  -0.00246116  1
  Ag  Ag34  1  0.66651643  0.32857640  0.67620886  1
  Ag  Ag35  1  0.50283321  0.16982964  0.00768310  1
  Ag  Ag36  1  0.67070208  0.66937916  0.33192415  1
  Ag  Ag37  1  -0.01110555  0.67193555  0.32956491  1
  Ag  Ag38  1  -0.00118914  0.66868944  0.00538619  1
  Ag  Ag39  1  0.32737803  0.66897516  0.00479405  1
  Ag  Ag40  1  0.33122875  -0.00144569  -0.00064165  1
  Ag  Ag41  1  0.66542179  0.16977422  0.17217958  1
  Ag  Ag42  1  0.16634764  0.50355310  -0.00539857  1
  Ag  Ag43  1  0.83900977  0.16190469  0.33363876  1
  Ag  Ag44  1  0.67085901  0.16546488  0.49893161  1
  Ag  Ag45  1  0.50455006  0.49921450  0.33684655  1
  Ag  Ag46  1  0.66536209  0.49429983  0.16805188  1
  Ag  Ag47  1  0.50239373  0.49546800  0.66569236  1
  Ag  Ag48  1  0.67415914  0.83040405  0.16996311  1
  Ag  Ag49  1  0.50382950  0.16726387  0.32976554  1
  Ag  Ag50  1  0.50521259  0.32867350  0.16370792  1
  Ag  Ag51  1  0.84051586  0.82927322  0.01351629  1
  Ag  Ag52  1  0.15289109  0.16518083  0.33773565  1
  Ag  Ag53  1  0.66825626  0.01074423  0.66246843  1
  Sb  Sb54  1  0.33283996  0.16166275  0.49631379  1
  Sb  Sb55  1  0.15984103  0.83779849  0.33128009  1
  Sb  Sb56  1  0.16831531  0.83709740  0.66697533  1
  Sb  Sb57  1  0.33304975  0.33326008  0.33678829  1
  Sb  Sb58  1  0.16232019  0.66753536  0.83643920  1
  Sb  Sb59  1  -0.00153494  0.66655153  0.66644192  1
  Sb  Sb60  1  0.50309212  0.33012107  0.50138829  1
  Sb  Sb61  1  0.16471860  0.32989162  0.83168863  1
  Sb  Sb62  1  0.83806196  0.16699157  0.65999720  1
  Sb  Sb63  1  0.83119357  0.16405899  0.00473880  1
  Sb  Sb64  1  0.67038532  0.66165605  0.00514898  1
  Sb  Sb65  1  0.82711036  0.50262965  0.33330550  1
  Sb  Sb66  1  0.50573126  0.67071396  0.49577533  1
  Sb  Sb67  1  0.50558954  0.66245233  0.16919884  1
  Sb  Sb68  1  0.16558093  0.00186711  0.16800399  1
  Sb  Sb69  1  0.33037913  -0.00180432  0.33262483  1
  Sb  Sb70  1  0.16364075  0.32639433  0.50315813  1
  Sb  Sb71  1  0.00232281  0.00058597  0.00137333  1
  Sb  Sb72  1  0.33411615  0.17118612  0.83513969  1
  Sb  Sb73  1  0.16920077  0.49700375  0.33451233  1
  Sb  Sb74  1  0.83570732  0.50335328  -0.00092734  1
  Sb  Sb75  1  0.82990464  0.83460458  0.66191880  1
  Sb  Sb76  1  0.16690866  0.16577570  -0.00002508  1
  Sb  Sb77  1  0.33420245  0.82959081  0.83185823  1
  Sb  Sb78  1  0.66906793  0.83749873  0.49507363  1
  Sb  Sb79  1  0.50207864  0.16976040  0.66491015  1
  Sb  Sb80  1  0.82960744  0.49743850  0.66710062  1
  Sb  Sb81  1  0.66838609  0.83344963  0.83691737  1
  Sb  Sb82  1  0.33187561  0.00469413  0.66724458  1
  Sb  Sb83  1  0.50417081  0.65943522  0.83425627  1
  Sb  Sb84  1  0.33419389  0.33388535  -0.00368504  1
  Sb  Sb85  1  0.33909252  0.50569726  0.50370402  1
  Sb  Sb86  1  0.49948753  0.49402217  -0.00126872  1
  Sb  Sb87  1  0.33378716  0.83539666  0.17018548  1
  Sb  Sb88  1  0.83644267  0.00421886  0.82832562  1
  Sb  Sb89  1  0.83254191  0.32917068  0.50178329  1
  Sb  Sb90  1  -0.00112430  0.83767199  0.83406685  1
  Sb  Sb91  1  -0.00518963  0.49726578  0.49988125  1
  Sb  Sb92  1  -0.00571257  0.49959687  0.16600851  1
  Sb  Sb93  1  0.16696709  0.33092164  0.16538172  1
  Sb  Sb94  1  0.67155271  0.00037118  0.33905853  1
  Sb  Sb95  1  0.66968163  0.33260095  0.33286729  1
  Sb  Sb96  1  0.50084260  0.00696214  0.17334569  1
  Sb  Sb97  1  0.66737174  0.66420604  0.66113786  1
  Sb  Sb98  1  0.49801975  0.00620564  0.82898545  1
  Sb  Sb99  1  0.82902135  0.33412414  0.16420634  1
  Sb  Sb100  1  0.66381665  0.00691506  -0.00391279  1
  Sb  Sb101  1  0.50018810  0.83775114  0.00467898  1
  Sb  Sb102  1  0.33438478  0.66280876  0.66617219  1
  Sb  Sb103  1  0.83382248  -0.00387756  0.17253601  1
  Sb  Sb104  1  -0.00124684  0.49382114  0.83395460  1
  Sb  Sb105  1  0.16024919  0.66791174  0.16557328  1
  Sb  Sb106  1  0.16162737  0.67157874  0.49835892  1
  Sb  Sb107  1  0.33933697  0.49641363  0.16322815  1
  Te  Te108  1  0.15834214  0.16676721  0.17136014  1
  Te  Te109  1  0.16623377  0.16123712  0.49975944  1
  Te  Te110  1  0.16589505  0.16256654  0.83086547  1
  Te  Te111  1  0.16864962  0.49942544  0.16215424  1
  Te  Te112  1  0.16849454  0.50101775  0.50581488  1
  Te  Te113  1  0.16910273  0.50055327  0.83200753  1
  Te  Te114  1  0.16234877  0.83487067  0.16004070  1
  Te  Te115  1  0.16451342  0.83924954  0.50017472  1
  Te  Te116  1  0.16716574  0.83887551  0.83762827  1
  Te  Te117  1  0.50271058  0.16794952  0.16741885  1
  Te  Te118  1  0.50133581  0.16293427  0.49629454  1
  Te  Te119  1  0.50341437  0.17224677  0.83424854  1
  Te  Te120  1  0.50571071  0.49436544  0.16959313  1
  Te  Te121  1  0.50597021  0.50086467  0.49952561  1
  Te  Te122  1  0.50203527  0.49542289  0.83134325  1
  Te  Te123  1  0.50357726  0.83425735  0.17346769  1
  Te  Te124  1  0.50182764  0.83524932  0.49753340  1
  Te  Te125  1  0.50054988  0.83330220  0.82943302  1
  Te  Te126  1  0.83375380  0.16665817  0.17224350  1
  Te  Te127  1  0.83178740  0.16425468  0.49405107  1
  Te  Te128  1  0.83176918  0.16945939  0.83664113  1
  Te  Te129  1  0.82551318  0.50604439  0.16612703  1
  Te  Te130  1  0.82642015  0.50500574  0.50057253  1
  Te  Te131  1  0.82848382  0.49754413  0.83331401  1
  Te  Te132  1  0.83453029  0.83296599  0.17011469  1
  Te  Te133  1  0.83596366  0.83456581  0.49645881  1
  Te  Te134  1  0.83299401  0.83077292  0.83358120  1
  Te  Te135  1  0.16940568  -0.00231612  -0.00275045  1
  Te  Te136  1  0.16311253  0.00478306  0.33786206  1
  Te  Te137  1  0.16468136  0.00197200  0.66597827  1
  Te  Te138  1  0.16225717  0.33798103  -0.00096328  1
  Te  Te139  1  0.16107292  0.32815576  0.33414241  1
  Te  Te140  1  0.16157225  0.33168970  0.66740404  1
  Te  Te141  1  0.16450418  0.66733456  0.00010104  1
  Te  Te142  1  0.17063644  0.66530217  0.33319128  1
  Te  Te143  1  0.16654015  0.66070843  0.66772393  1
  Te  Te144  1  0.49480458  0.00630137  -0.00177271  1
  Te  Te145  1  0.49898355  -0.00180940  0.33841254  1
  Te  Te146  1  0.50096628  -0.00169043  0.66316447  1
  Te  Te147  1  0.50146450  0.32983499  -0.00018780  1
  Te  Te148  1  0.49996276  0.33402298  0.33134533  1
  Te  Te149  1  0.50278238  0.33568747  0.66760348  1
  Te  Te150  1  0.49370809  0.66864537  0.00090653  1
  Te  Te151  1  0.50177291  0.66688744  0.33272536  1
  Te  Te152  1  0.49975890  0.66504604  0.66625625  1
  Te  Te153  1  0.83271974  -0.01028398  -0.00296227  1
  Te  Te154  1  0.83710608  -0.00121801  0.33785357  1
  Te  Te155  1  0.83296507  -0.00023697  0.66063808  1
  Te  Te156  1  0.83437819  0.33278810  -0.00346984  1
  Te  Te157  1  0.84003740  0.33130814  0.33318358  1
  Te  Te158  1  0.83338358  0.33322383  0.67170471  1
  Te  Te159  1  0.83587048  0.66945262  0.00063530  1
  Te  Te160  1  0.83091502  0.66671807  0.33146892  1
  Te  Te161  1  0.83379867  0.66625048  0.67288818  1
  Te  Te162  1  0.00010194  0.16951863  -0.00542275  1
  Te  Te163  1  -0.00298552  0.16435629  0.33567352  1
  Te  Te164  1  -0.00068091  0.16655513  0.66746766  1
  Te  Te165  1  0.00501591  0.50037244  0.00037843  1
  Te  Te166  1  0.00235325  0.50742827  0.33326986  1
  Te  Te167  1  0.00475881  0.49633952  0.66612521  1
  Te  Te168  1  -0.00016234  0.83247574  0.00056290  1
  Te  Te169  1  -0.00039820  0.83081612  0.33238742  1
  Te  Te170  1  0.00069579  0.83665114  0.66181171  1
  Te  Te171  1  0.33529858  0.16544968  0.00357040  1
  Te  Te172  1  0.34251501  0.16692900  0.32830860  1
  Te  Te173  1  0.32844951  0.17293335  0.66596993  1
  Te  Te174  1  0.32953777  0.50272481  -0.00312084  1
  Te  Te175  1  0.33828955  0.50412281  0.33380794  1
  Te  Te176  1  0.33588258  0.49686087  0.66946644  1
  Te  Te177  1  0.33228897  0.83202536  0.00097718  1
  Te  Te178  1  0.33345043  0.83034853  0.33511205  1
  Te  Te179  1  0.33796445  0.83301056  0.66259950  1
  Te  Te180  1  0.66478962  0.17047965  0.00279400  1
  Te  Te181  1  0.66382531  0.16655500  0.33483408  1
  Te  Te182  1  0.66632817  0.16850834  0.66496942  1
  Te  Te183  1  0.66691898  0.49425222  -0.00022809  1
  Te  Te184  1  0.66309074  0.49939781  0.33305911  1
  Te  Te185  1  0.66368404  0.49853318  0.66731009  1
  Te  Te186  1  0.66815938  0.83385854  0.00647752  1
  Te  Te187  1  0.66729070  0.83434925  0.33025466  1
  Te  Te188  1  0.66120450  0.83339208  0.66691364  1
  Te  Te189  1  0.00012286  0.00104481  0.16977365  1
  Te  Te190  1  -0.00197452  0.00251445  0.49932801  1
  Te  Te191  1  0.00316531  0.00550883  0.83138544  1
  Te  Te192  1  -0.00145087  0.33071438  0.16626130  1
  Te  Te193  1  -0.00211197  0.32925241  0.50122144  1
  Te  Te194  1  -0.00130511  0.32958116  0.83340993  1
  Te  Te195  1  -0.00510694  0.66735202  0.16572629  1
  Te  Te196  1  -0.00583394  0.66585890  0.49742669  1
  Te  Te197  1  -0.00582640  0.66619797  0.83718938  1
  Te  Te198  1  0.33305922  0.00563512  0.16105865  1
  Te  Te199  1  0.34049793  -0.00580343  0.50044506  1
  Te  Te200  1  0.32919465  -0.00031078  0.83713146  1
  Te  Te201  1  0.33946119  0.32774473  0.16684884  1
  Te  Te202  1  0.33318095  0.33447811  0.50707351  1
  Te  Te203  1  0.33516914  0.33834593  0.82963966  1
  Te  Te204  1  0.33354608  0.66597326  0.16667885  1
  Te  Te205  1  0.33171077  0.67378607  0.49559161  1
  Te  Te206  1  0.33357909  0.66124249  0.83780262  1
  Te  Te207  1  0.66660802  0.00530847  0.16426583  1
  Te  Te208  1  0.66431168  0.00328706  0.50399520  1
  Te  Te209  1  0.66736766  0.00450722  0.82547852  1
  Te  Te210  1  0.66461006  0.33171841  0.16705775  1
  Te  Te211  1  0.66785617  0.33180935  0.50465524  1
  Te  Te212  1  0.66677887  0.33205040  0.83366105  1
  Te  Te213  1  0.67060495  0.66846360  0.17020332  1
  Te  Te214  1  0.67222611  0.66409470  0.49425458  1
  Te  Te215  1  0.67194892  0.66459567  0.83526947  1
