# generated using pymatgen
data_AgSbTe2
_symmetry_space_group_name_H-M   'P 1'
_cell_length_a   18.33311648
_cell_length_b   18.33709033
_cell_length_c   18.33115378
_cell_angle_alpha   89.99924502
_cell_angle_beta   90.00171741
_cell_angle_gamma   89.99683375
_symmetry_Int_Tables_number   1
_chemical_formula_structural   AgSbTe2
_chemical_formula_sum   'Ag54 Sb54 Te108'
_cell_volume   6162.49417759
_cell_formula_units_Z   54
loop_
 _symmetry_equiv_pos_site_id
 _symmetry_equiv_pos_as_xyz
  1  'x, y, z'
loop_
 _atom_site_type_symbol
 _atom_site_label
 _atom_site_symmetry_multiplicity
 _atom_site_fract_x
 _atom_site_fract_y
 _atom_site_fract_z
 _atom_site_occupancy
  Ag  Ag0  1  -0.00545602  0.15532364  0.49874025  1
  Ag  Ag1  1  0.15908549  0.50976519  0.33186496  1
  Ag  Ag2  1  -0.01214063  0.83754505  0.50250840  1
  Ag  Ag3  1  0.83297960  0.16294112  0.00175450  1
  Ag  Ag4  1  0.15409275  0.16371139  -0.00222333  1
  Ag  Ag5  1  0.50279898  0.15352398  0.66703404  1
  Ag  Ag6  1  0.83456149  0.51112779  0.33825813  1
  Ag  Ag7  1  -0.00654519  0.16383559  0.15984367  1
  Ag  Ag8  1  0.66796465  0.83936537  0.16810204  1
  Ag  Ag9  1  0.15442138  -0.00631690  0.83477048  1
  Ag  Ag10  1  0.33330509  0.66841234  0.66398650  1
  Ag  Ag11  1  0.83168673  0.32000224  0.82966223  1
  Ag  Ag12  1  0.82745948  0.83289520  0.65632273  1
  Ag  Ag13  1  0.66701816  -0.00392723  0.66887150  1
  Ag  Ag14  1  0.16910122  0.67579840  0.83644129  1
  Ag  Ag15  1  0.34386697  0.16295627  0.16717561  1
  Ag  Ag16  1  0.66930216  0.68227395  0.00247146  1
  Ag  Ag17  1  0.50759067  0.83584407  -0.00754404  1
  Ag  Ag18  1  0.33489011  0.50369625  0.50384876  1
  Ag  Ag19  1  0.67854217  0.67643835  0.32828743  1
  Ag  Ag20  1  0.67464933  0.83739714  0.49996824  1
  Ag  Ag21  1  -0.00254147  0.50083506  0.17028850  1
  Ag  Ag22  1  0.50966827  0.83518111  0.67037522  1
  Ag  Ag23  1  0.83338329  0.00133080  0.83139029  1
  Ag  Ag24  1  0.67116296  0.15621790  0.16043514  1
  Ag  Ag25  1  -0.00826613  0.15787504  0.83829355  1
  Ag  Ag26  1  0.33044258  0.67182469  0.33623546  1
  Ag  Ag27  1  0.50691311  0.00136824  0.17088513  1
  Ag  Ag28  1  0.33370113  -0.00774320  0.33358062  1
  Ag  Ag29  1  0.66826409  0.50230401  0.83259259  1
  Ag  Ag30  1  0.16483855  0.83305939  0.67268872  1
  Ag  Ag31  1  -0.01073664  -0.00018949  0.33123846  1
  Ag  Ag32  1  0.83058197  0.83649365  0.34175730  1
  Ag  Ag33  1  0.83320589  0.66674474  0.17458770  1
  Ag  Ag34  1  -0.00199399  0.84209813  0.82870392  1
  Ag  Ag35  1  0.50643260  0.50301842  0.66809654  1
  Ag  Ag36  1  0.83008868  -0.00533040  0.49814555  1
  Ag  Ag37  1  0.51278927  -0.00131677  0.49777471  1
  Ag  Ag38  1  0.67609081  0.15673395  0.83983335  1
  Ag  Ag39  1  0.16159929  0.66840271  0.16940659  1
  Ag  Ag40  1  0.82816319  0.50690131  0.66314787  1
  Ag  Ag41  1  0.67082099  0.83900384  0.83336281  1
  Ag  Ag42  1  0.83270199  0.33065100  0.50304791  1
  Ag  Ag43  1  0.33434881  0.50966150  0.82723821  1
  Ag  Ag44  1  0.67155387  -0.00504870  0.33294934  1
  Ag  Ag45  1  0.66854195  0.32031745  -0.00235723  1
  Ag  Ag46  1  0.50344968  0.32286938  0.16577886  1
  Ag  Ag47  1  0.16071299  0.83085321  0.33595525  1
  Ag  Ag48  1  0.67083961  -0.00090399  -0.00096234  1
  Ag  Ag49  1  0.16086224  0.33095339  0.83443142  1
  Ag  Ag50  1  0.83144501  0.68124497  0.49294152  1
  Ag  Ag51  1  0.32728560  0.83129684  0.82872845  1
  Ag  Ag52  1  -0.00977263  0.00314085  -0.00245959  1
  Ag  Ag53  1  0.83482822  0.15352545  0.33028008  1
  Sb  Sb54  1  0.50420454  0.50389961  -0.00424213  1
  Sb  Sb55  1  0.33793028  0.33137500  -0.00133092  1
  Sb  Sb56  1  -0.00306983  0.50359273  0.49431911  1
  Sb  Sb57  1  0.33219514  0.33367574  0.33311567  1
  Sb  Sb58  1  0.16850703  0.83747225  -0.00289215  1
  Sb  Sb59  1  0.66789006  0.50693656  0.50472072  1
  Sb  Sb60  1  0.83372376  0.67303404  0.83337517  1
  Sb  Sb61  1  0.50757364  0.16120648  -0.00068644  1
  Sb  Sb62  1  0.50440921  0.67089393  0.16777572  1
  Sb  Sb63  1  0.50692455  0.32931748  0.49892955  1
  Sb  Sb64  1  -0.00255787  0.67464260  0.33245274  1
  Sb  Sb65  1  0.50450106  0.67334316  0.50138027  1
  Sb  Sb66  1  -0.00207524  0.50060393  0.83627417  1
  Sb  Sb67  1  0.67414741  0.15737256  0.49966332  1
  Sb  Sb68  1  0.16906707  0.15831424  0.67416765  1
  Sb  Sb69  1  0.50556454  0.33316040  0.83624905  1
  Sb  Sb70  1  0.50785616  0.16102569  0.33308597  1
  Sb  Sb71  1  0.82749504  0.84090112  -0.00042294  1
  Sb  Sb72  1  0.50769680  -0.00228922  0.83274416  1
  Sb  Sb73  1  0.16775774  0.33332999  0.16316779  1
  Sb  Sb74  1  0.33506876  0.83035336  0.50201590  1
  Sb  Sb75  1  0.33271604  0.16194677  0.83737371  1
  Sb  Sb76  1  0.82665546  -0.00171269  0.17038062  1
  Sb  Sb77  1  0.66880062  0.32847331  0.67211610  1
  Sb  Sb78  1  0.16590658  0.49717198  0.00104316  1
  Sb  Sb79  1  0.16733897  -0.00299430  0.16421396  1
  Sb  Sb80  1  -0.00533348  0.67441219  0.00113046  1
  Sb  Sb81  1  0.50299142  0.50159651  0.33731987  1
  Sb  Sb82  1  0.33736386  0.83614109  0.16654401  1
  Sb  Sb83  1  0.33567814  0.66889105  -0.00039458  1
  Sb  Sb84  1  0.67124317  0.50166645  0.16424578  1
  Sb  Sb85  1  0.34026764  -0.00755975  0.66443233  1
  Sb  Sb86  1  0.00082278  0.67113920  0.66755126  1
  Sb  Sb87  1  0.15989588  0.16028203  0.32739467  1
  Sb  Sb88  1  -0.00427065  0.33169314  0.66776621  1
  Sb  Sb89  1  -0.00813751  -0.00203181  0.66860264  1
  Sb  Sb90  1  0.16349767  0.66929826  0.49778614  1
  Sb  Sb91  1  -0.00626921  0.83811596  0.16781810  1
  Sb  Sb92  1  0.66546802  0.67400407  0.66903040  1
  Sb  Sb93  1  0.49766605  0.67037162  0.83173766  1
  Sb  Sb94  1  0.16565876  0.50655023  0.66554037  1
  Sb  Sb95  1  0.33112436  0.49916713  0.16811116  1
  Sb  Sb96  1  0.82926295  0.15979724  0.66799363  1
  Sb  Sb97  1  0.83003750  0.33142686  0.16537150  1
  Sb  Sb98  1  0.33100479  0.16554154  0.49587301  1
  Sb  Sb99  1  0.16091286  -0.00235931  0.50287174  1
  Sb  Sb100  1  -0.00618776  0.32446951  -0.00106998  1
  Sb  Sb101  1  0.83166078  0.49630031  -0.00141019  1
  Sb  Sb102  1  0.67069603  0.33070284  0.32879128  1
  Sb  Sb103  1  0.33441018  0.34021312  0.66871323  1
  Sb  Sb104  1  -0.00297283  0.32702779  0.33281502  1
  Sb  Sb105  1  0.16042963  0.33468540  0.50412438  1
  Sb  Sb106  1  0.33661298  -0.00018598  0.00142757  1
  Sb  Sb107  1  0.50651530  0.83573658  0.33576251  1
  Te  Te108  1  0.15818089  0.16712644  0.16095292  1
  Te  Te109  1  0.15872546  0.16831035  0.50033939  1
  Te  Te110  1  0.16687734  0.16678816  0.83710556  1
  Te  Te111  1  0.16403959  0.50233938  0.17080731  1
  Te  Te112  1  0.16873432  0.50022068  0.49459643  1
  Te  Te113  1  0.16748192  0.49815314  0.83283265  1
  Te  Te114  1  0.16804841  0.82884606  0.16883030  1
  Te  Te115  1  0.16456797  0.83312957  0.49825339  1
  Te  Te116  1  0.16564511  0.83447575  0.83536528  1
  Te  Te117  1  0.50421802  0.16307443  0.16634078  1
  Te  Te118  1  0.49924602  0.16235639  0.50421936  1
  Te  Te119  1  0.50173108  0.16668765  0.82852555  1
  Te  Te120  1  0.49935267  0.49697045  0.16628300  1
  Te  Te121  1  0.49719819  0.49823248  0.50581986  1
  Te  Te122  1  0.49979988  0.50035028  0.82833445  1
  Te  Te123  1  0.50496194  0.83826672  0.16539937  1
  Te  Te124  1  0.50253148  0.83937127  0.50596876  1
  Te  Te125  1  0.50520919  0.83428912  0.83073344  1
  Te  Te126  1  0.83176946  0.16754125  0.16700544  1
  Te  Te127  1  0.83635946  0.16610371  0.50144360  1
  Te  Te128  1  0.83239462  0.16411684  0.82843590  1
  Te  Te129  1  0.83671504  0.50102507  0.17027222  1
  Te  Te130  1  0.83306999  0.49548231  0.50000284  1
  Te  Te131  1  0.83197095  0.50356344  0.83007063  1
  Te  Te132  1  0.82888769  0.82766001  0.16988859  1
  Te  Te133  1  0.83181650  0.83622640  0.49996137  1
  Te  Te134  1  0.83295753  0.83658035  0.83333743  1
  Te  Te135  1  0.16730009  0.00411782  -0.00371787  1
  Te  Te136  1  0.17082119  -0.00561002  0.33408318  1
  Te  Te137  1  0.17095140  -0.00719929  0.67155229  1
  Te  Te138  1  0.16697946  0.32855226  -0.00537874  1
  Te  Te139  1  0.16605466  0.34090045  0.33401944  1
  Te  Te140  1  0.16629566  0.33275311  0.67334991  1
  Te  Te141  1  0.16629483  0.66609502  0.00107425  1
  Te  Te142  1  0.16620586  0.66879079  0.33254921  1
  Te  Te143  1  0.17093283  0.67191094  0.66926585  1
  Te  Te144  1  0.50398860  -0.00392899  0.00482971  1
  Te  Te145  1  0.49933513  0.00022157  0.33420593  1
  Te  Te146  1  0.50508545  -0.00421589  0.66449558  1
  Te  Te147  1  0.50677928  0.33301446  0.00407399  1
  Te  Te148  1  0.50136488  0.33206391  0.32771809  1
  Te  Te149  1  0.50134954  0.34159288  0.66541990  1
  Te  Te150  1  0.50761941  0.67331460  0.00169827  1
  Te  Te151  1  0.49179831  0.66644597  0.33364657  1
  Te  Te152  1  0.49489384  0.66648302  0.66536339  1
  Te  Te153  1  0.83255259  0.00413448  -0.00312684  1
  Te  Te154  1  0.83198654  -0.00268682  0.33382364  1
  Te  Te155  1  0.82670181  -0.00547843  0.66695006  1
  Te  Te156  1  0.82774924  0.32823231  -0.00516931  1
  Te  Te157  1  0.83294603  0.33609246  0.33726478  1
  Te  Te158  1  0.83188370  0.33956720  0.66899302  1
  Te  Te159  1  0.82821400  0.66480326  0.00481841  1
  Te  Te160  1  0.83469231  0.66889983  0.33350976  1
  Te  Te161  1  0.83275706  0.66940544  0.66494546  1
  Te  Te162  1  -0.00472148  0.16269470  -0.00208240  1
  Te  Te163  1  -0.00425122  0.16078643  0.33353854  1
  Te  Te164  1  0.00259421  0.16509745  0.66851546  1
  Te  Te165  1  -0.00013718  0.50088975  0.00852492  1
  Te  Te166  1  -0.00206598  0.49868988  0.33057984  1
  Te  Te167  1  -0.00694470  0.50104700  0.66543677  1
  Te  Te168  1  -0.00014729  0.84176843  -0.00385123  1
  Te  Te169  1  0.00038837  0.84030683  0.33249672  1
  Te  Te170  1  0.00124207  0.83328960  0.66797969  1
  Te  Te171  1  0.33170555  0.16613184  0.00642953  1
  Te  Te172  1  0.33043835  0.16416890  0.32763976  1
  Te  Te173  1  0.34013739  0.16711491  0.66598558  1
  Te  Te174  1  0.33486977  0.49995054  -0.00896360  1
  Te  Te175  1  0.33384371  0.50276369  0.33576067  1
  Te  Te176  1  0.33141261  0.50613645  0.66745588  1
  Te  Te177  1  0.34158236  0.83315584  -0.00600626  1
  Te  Te178  1  0.33175491  0.83276234  0.33353748  1
  Te  Te179  1  0.33155045  0.82863447  0.66879997  1
  Te  Te180  1  0.66867924  0.16199697  -0.00030190  1
  Te  Te181  1  0.67401772  0.16276954  0.32869353  1
  Te  Te182  1  0.66236543  0.16123969  0.66952365  1
  Te  Te183  1  0.66673947  0.49942689  -0.00635005  1
  Te  Te184  1  0.67170835  0.50318716  0.33434334  1
  Te  Te185  1  0.66752491  0.50188002  0.67030892  1
  Te  Te186  1  0.66692167  0.83827482  -0.00163243  1
  Te  Te187  1  0.66661726  0.83386610  0.33273772  1
  Te  Te188  1  0.66822081  0.83361374  0.66841605  1
  Te  Te189  1  0.00137829  0.00374148  0.16674331  1
  Te  Te190  1  -0.00355848  -0.00246753  0.49832997  1
  Te  Te191  1  -0.00263483  -0.00017694  0.83234369  1
  Te  Te192  1  0.00011547  0.33042990  0.16572553  1
  Te  Te193  1  -0.00660661  0.32955266  0.50045142  1
  Te  Te194  1  -0.00272398  0.33181705  0.83423542  1
  Te  Te195  1  -0.00080116  0.66587035  0.16554334  1
  Te  Te196  1  -0.00707013  0.67376559  0.50078365  1
  Te  Te197  1  0.00754624  0.66941687  0.83548984  1
  Te  Te198  1  0.33703004  0.00324453  0.17078678  1
  Te  Te199  1  0.33452660  0.00129254  0.49393143  1
  Te  Te200  1  0.33004452  -0.00566877  0.83277208  1
  Te  Te201  1  0.33849310  0.32708841  0.16626001  1
  Te  Te202  1  0.33349054  0.33891058  0.50021885  1
  Te  Te203  1  0.33095590  0.33460779  0.83387813  1
  Te  Te204  1  0.33017019  0.66615675  0.17009692  1
  Te  Te205  1  0.33340211  0.66347050  0.49874625  1
  Te  Te206  1  0.33010255  0.66913924  0.83430253  1
  Te  Te207  1  0.66653966  -0.00108237  0.16812710  1
  Te  Te208  1  0.66910771  -0.00228842  0.49709595  1
  Te  Te209  1  0.66770624  -0.00090441  0.83413131  1
  Te  Te210  1  0.66424222  0.33345127  0.16129875  1
  Te  Te211  1  0.67259560  0.33268473  0.49912999  1
  Te  Te212  1  0.67036029  0.33506883  0.83720512  1
  Te  Te213  1  0.66891474  0.66801379  0.16769689  1
  Te  Te214  1  0.67061284  0.67353971  0.49504017  1
  Te  Te215  1  0.66713200  0.66599814  0.83732884  1
