# generated using pymatgen
data_AgSbTe2
_symmetry_space_group_name_H-M   'P 1'
_cell_length_a   18.34481051
_cell_length_b   18.34542507
_cell_length_c   18.35064497
_cell_angle_alpha   90.00353880
_cell_angle_beta   90.00385850
_cell_angle_gamma   90.00231452
_symmetry_Int_Tables_number   1
_chemical_formula_structural   AgSbTe2
_chemical_formula_sum   'Ag54 Sb54 Te108'
_cell_volume   6175.78744109
_cell_formula_units_Z   54
loop_
 _symmetry_equiv_pos_site_id
 _symmetry_equiv_pos_as_xyz
  1  'x, y, z'
loop_
 _atom_site_type_symbol
 _atom_site_label
 _atom_site_symmetry_multiplicity
 _atom_site_fract_x
 _atom_site_fract_y
 _atom_site_fract_z
 _atom_site_occupancy
  Ag  Ag0  1  0.33567751  -0.00825976  0.00055827  1
  Ag  Ag1  1  0.33220731  -0.00885686  0.66940376  1
  Ag  Ag2  1  0.49872899  -0.01627480  0.82984443  1
  Ag  Ag3  1  0.00819062  0.33219603  0.66534196  1
  Ag  Ag4  1  0.33618688  0.67564558  -0.00714015  1
  Ag  Ag5  1  0.49400680  0.83356567  -0.00994467  1
  Ag  Ag6  1  0.00148716  0.17019569  0.50646186  1
  Ag  Ag7  1  0.65826237  0.66956453  0.33451342  1
  Ag  Ag8  1  0.83052736  0.00061266  0.16792970  1
  Ag  Ag9  1  0.83545002  0.33137903  0.50019907  1
  Ag  Ag10  1  0.33461250  0.50088573  0.15395620  1
  Ag  Ag11  1  0.32917319  0.33732198  0.66650085  1
  Ag  Ag12  1  0.83218897  0.67919171  0.50052055  1
  Ag  Ag13  1  0.33923538  0.83871667  0.14925425  1
  Ag  Ag14  1  0.65559981  -0.00327083  0.00090738  1
  Ag  Ag15  1  0.34250655  0.83652741  0.51927091  1
  Ag  Ag16  1  0.82971279  0.83487220  0.66261780  1
  Ag  Ag17  1  0.17612209  0.33630823  0.82920316  1
  Ag  Ag18  1  0.66203568  0.83580581  0.50209946  1
  Ag  Ag19  1  0.66508977  0.33754583  0.33293447  1
  Ag  Ag20  1  0.17695320  0.83912926  -0.01088787  1
  Ag  Ag21  1  0.49436316  0.50489011  -0.01185732  1
  Ag  Ag22  1  0.65876268  0.83897569  0.16433595  1
  Ag  Ag23  1  0.00901173  0.00176595  0.66778823  1
  Ag  Ag24  1  0.82937654  -0.00524487  0.50201106  1
  Ag  Ag25  1  0.49926732  0.33445301  0.16256877  1
  Ag  Ag26  1  0.49849191  -0.00728126  0.50763995  1
  Ag  Ag27  1  0.82732844  -0.00208437  0.82568200  1
  Ag  Ag28  1  0.49840079  0.33131954  0.50848473  1
  Ag  Ag29  1  0.33780106  0.67487333  0.33331001  1
  Ag  Ag30  1  0.82614027  0.83488175  0.34533022  1
  Ag  Ag31  1  0.17944655  0.00062546  0.16183886  1
  Ag  Ag32  1  0.49249517  0.35003159  0.82927257  1
  Ag  Ag33  1  0.17916943  0.83320334  0.67048426  1
  Ag  Ag34  1  0.33668235  0.82983481  0.83465557  1
  Ag  Ag35  1  0.65099549  0.50663801  0.83378906  1
  Ag  Ag36  1  0.01458939  0.49271088  0.82723760  1
  Ag  Ag37  1  0.82348651  0.32622287  0.17520376  1
  Ag  Ag38  1  0.16913849  0.16270034  0.00186805  1
  Ag  Ag39  1  0.33326839  -0.00682788  0.32422973  1
  Ag  Ag40  1  0.00304257  0.16917000  0.82630001  1
  Ag  Ag41  1  0.17178460  0.49126768  0.67027105  1
  Ag  Ag42  1  0.66050592  0.15947001  0.16681784  1
  Ag  Ag43  1  0.49001846  0.50359029  0.67217537  1
  Ag  Ag44  1  0.65294073  0.83522745  0.83136485  1
  Ag  Ag45  1  0.17532395  0.49756884  -0.01032850  1
  Ag  Ag46  1  0.16492026  0.33220519  0.50981928  1
  Ag  Ag47  1  0.33380550  0.50709197  0.83457397  1
  Ag  Ag48  1  0.33468657  0.67394471  0.67220405  1
  Ag  Ag49  1  0.49782945  0.66672589  0.83247621  1
  Ag  Ag50  1  0.49630677  0.83302236  0.67405018  1
  Ag  Ag51  1  -0.00024592  0.49048739  0.50878809  1
  Ag  Ag52  1  0.33537664  0.15967608  0.16578179  1
  Ag  Ag53  1  0.16927196  0.16615643  0.32935384  1
  Sb  Sb54  1  0.16626387  0.16878691  0.66805265  1
  Sb  Sb55  1  0.83531667  0.50289989  0.66574598  1
  Sb  Sb56  1  0.17532222  0.66107404  0.83171528  1
  Sb  Sb57  1  0.33090537  0.16515547  0.83711793  1
  Sb  Sb58  1  0.33405875  0.33540477  -0.00374658  1
  Sb  Sb59  1  0.33602265  0.33317926  0.33605667  1
  Sb  Sb60  1  0.17249749  0.67294250  0.16500464  1
  Sb  Sb61  1  0.33093559  0.16202520  0.49746400  1
  Sb  Sb62  1  0.00116787  0.83595810  0.16587814  1
  Sb  Sb63  1  0.66730392  0.16076860  0.83866783  1
  Sb  Sb64  1  0.17072759  0.00243177  0.83532707  1
  Sb  Sb65  1  0.83309564  0.33084129  0.82956902  1
  Sb  Sb66  1  0.49661536  0.16615709  0.33216386  1
  Sb  Sb67  1  0.00164349  0.33277326  -0.00610015  1
  Sb  Sb68  1  0.16843390  0.00280565  0.49971515  1
  Sb  Sb69  1  -0.00108991  0.83538309  0.50274167  1
  Sb  Sb70  1  0.00304184  0.83408809  0.83095896  1
  Sb  Sb71  1  0.66267685  -0.00226523  0.32967908  1
  Sb  Sb72  1  0.66300437  -0.00418128  0.67066983  1
  Sb  Sb73  1  0.66322409  0.33754644  0.66458762  1
  Sb  Sb74  1  0.66039766  0.67199875  0.00258603  1
  Sb  Sb75  1  0.82892887  0.83654527  -0.00240671  1
  Sb  Sb76  1  0.66775894  0.50219595  0.50401470  1
  Sb  Sb77  1  0.49807067  0.49833664  0.33550808  1
  Sb  Sb78  1  0.16604163  0.66432702  0.50233912  1
  Sb  Sb79  1  0.49476969  0.16404008  0.00053192  1
  Sb  Sb80  1  0.83715996  0.16080050  0.66540915  1
  Sb  Sb81  1  -0.00339327  0.33207930  0.34219901  1
  Sb  Sb82  1  0.66346501  0.32957731  0.00273624  1
  Sb  Sb83  1  0.00301091  0.16606506  0.16614969  1
  Sb  Sb84  1  0.01054484  0.66512728  -0.00301778  1
  Sb  Sb85  1  0.00517118  0.66686186  0.66720019  1
  Sb  Sb86  1  0.82692391  0.67158208  0.82793836  1
  Sb  Sb87  1  0.66127899  0.66976017  0.66408288  1
  Sb  Sb88  1  0.00209767  0.00092952  0.33775213  1
  Sb  Sb89  1  0.83555892  0.16348540  0.33317977  1
  Sb  Sb90  1  0.49980366  0.66961612  0.50436110  1
  Sb  Sb91  1  0.49782270  -0.00005988  0.16288414  1
  Sb  Sb92  1  0.82879919  0.67096623  0.17205670  1
  Sb  Sb93  1  0.00040890  0.66775065  0.33689100  1
  Sb  Sb94  1  0.83260354  0.50160694  0.33516302  1
  Sb  Sb95  1  0.00303745  -0.00019508  -0.00486343  1
  Sb  Sb96  1  0.33239212  0.50257098  0.50902200  1
  Sb  Sb97  1  0.49805703  0.16366038  0.66802975  1
  Sb  Sb98  1  0.83601519  0.16441697  0.00038818  1
  Sb  Sb99  1  0.17116334  0.83701001  0.33578096  1
  Sb  Sb100  1  0.17212431  0.32887331  0.16426772  1
  Sb  Sb101  1  0.66106552  0.50070852  0.16277252  1
  Sb  Sb102  1  0.66905393  0.16517118  0.49508344  1
  Sb  Sb103  1  0.82987930  0.49914612  -0.00230992  1
  Sb  Sb104  1  0.00594465  0.49530899  0.16372277  1
  Sb  Sb105  1  0.49471179  0.66508602  0.16346082  1
  Sb  Sb106  1  0.17083655  0.49573727  0.33614257  1
  Sb  Sb107  1  0.50045875  0.83453247  0.33398662  1
  Te  Te108  1  0.16956173  0.16293691  0.16503071  1
  Te  Te109  1  0.16397159  0.17086343  0.49791541  1
  Te  Te110  1  0.16325416  0.17115251  0.83795678  1
  Te  Te111  1  0.17304361  0.49934913  0.16558946  1
  Te  Te112  1  0.16376740  0.49563140  0.50385083  1
  Te  Te113  1  0.17110278  0.49722419  0.83153786  1
  Te  Te114  1  0.16938628  0.84061200  0.16790386  1
  Te  Te115  1  0.16874722  0.83344380  0.50480669  1
  Te  Te116  1  0.16979572  0.83355446  0.83077359  1
  Te  Te117  1  0.49894745  0.17163908  0.16616088  1
  Te  Te118  1  0.50150261  0.17071167  0.49982791  1
  Te  Te119  1  0.50246247  0.17022611  0.83533109  1
  Te  Te120  1  0.49520007  0.49587733  0.16733669  1
  Te  Te121  1  0.50131229  0.49371043  0.50697828  1
  Te  Te122  1  0.49588301  0.50480360  0.83017982  1
  Te  Te123  1  0.49927523  0.83263453  0.16490728  1
  Te  Te124  1  0.50066350  0.83406010  0.50081188  1
  Te  Te125  1  0.49875398  0.82957342  0.83250840  1
  Te  Te126  1  0.83225845  0.16677601  0.16734288  1
  Te  Te127  1  0.83651815  0.16963337  0.49894401  1
  Te  Te128  1  0.83715609  0.15935175  0.83334157  1
  Te  Te129  1  0.83439173  0.49759998  0.16545745  1
  Te  Te130  1  0.83617039  0.49099988  0.50026943  1
  Te  Te131  1  0.83261557  0.50114516  0.83406656  1
  Te  Te132  1  0.83187705  0.83868823  0.16497355  1
  Te  Te133  1  0.83576067  0.83588457  0.50140611  1
  Te  Te134  1  0.83634182  0.83929551  0.83018537  1
  Te  Te135  1  0.16891478  -0.00117247  0.00129222  1
  Te  Te136  1  0.17010239  0.00442166  0.33032707  1
  Te  Te137  1  0.16820958  -0.00376990  0.66804367  1
  Te  Te138  1  0.16602256  0.33561050  -0.00338847  1
  Te  Te139  1  0.16657836  0.32694468  0.33397605  1
  Te  Te140  1  0.16601696  0.33257862  0.66808172  1
  Te  Te141  1  0.17561872  0.66441427  0.00005591  1
  Te  Te142  1  0.17211596  0.66587979  0.33347953  1
  Te  Te143  1  0.17332199  0.67203036  0.66605544  1
  Te  Te144  1  0.49668648  -0.00196511  -0.00298900  1
  Te  Te145  1  0.49254457  0.00075850  0.34439032  1
  Te  Te146  1  0.49630556  -0.00316763  0.66844135  1
  Te  Te147  1  0.50127692  0.33511815  -0.00309649  1
  Te  Te148  1  0.50451203  0.33239410  0.33469195  1
  Te  Te149  1  0.49785566  0.33275484  0.66934674  1
  Te  Te150  1  0.49626097  0.66651871  -0.00225502  1
  Te  Te151  1  0.49940430  0.66564033  0.33489819  1
  Te  Te152  1  0.49557120  0.66720919  0.66843920  1
  Te  Te153  1  0.83592609  -0.00083197  0.00433284  1
  Te  Te154  1  0.83357652  -0.00422446  0.33476182  1
  Te  Te155  1  0.82913940  -0.00429856  0.66490808  1
  Te  Te156  1  0.83260112  0.33261958  0.00518787  1
  Te  Te157  1  0.82841029  0.33336390  0.33351769  1
  Te  Te158  1  0.83431242  0.33450466  0.66095264  1
  Te  Te159  1  0.83580955  0.66728862  0.00064987  1
  Te  Te160  1  0.83270815  0.67131566  0.33896193  1
  Te  Te161  1  0.83386649  0.67121227  0.66001288  1
  Te  Te162  1  0.00752176  0.16666083  -0.00383058  1
  Te  Te163  1  0.00703075  0.16627968  0.33711632  1
  Te  Te164  1  0.00075633  0.16480843  0.66673358  1
  Te  Te165  1  0.00535424  0.49976249  -0.00562009  1
  Te  Te166  1  0.00147158  0.50104849  0.33707297  1
  Te  Te167  1  0.00218584  0.50035740  0.66686438  1
  Te  Te168  1  0.01131576  0.83140590  -0.00013595  1
  Te  Te169  1  -0.00708167  0.83293402  0.33334806  1
  Te  Te170  1  -0.00441630  0.83756214  0.66669132  1
  Te  Te171  1  0.32831016  0.16238364  0.00481960  1
  Te  Te172  1  0.32964284  0.16470592  0.32988077  1
  Te  Te173  1  0.33301388  0.16865780  0.66559272  1
  Te  Te174  1  0.33494330  0.49594930  -0.00296866  1
  Te  Te175  1  0.33301686  0.50374911  0.32878772  1
  Te  Te176  1  0.33224360  0.49699952  0.66841140  1
  Te  Te177  1  0.33316014  0.83402145  -0.00492117  1
  Te  Te178  1  0.33229966  0.83451262  0.32793492  1
  Te  Te179  1  0.33627168  0.83342523  0.67312356  1
  Te  Te180  1  0.66842313  0.15922564  0.00710002  1
  Te  Te181  1  0.66823189  0.17105033  0.32604120  1
  Te  Te182  1  0.66888845  0.16860723  0.66626997  1
  Te  Te183  1  0.66050437  0.50142976  -0.00611982  1
  Te  Te184  1  0.66618949  0.50134912  0.33207294  1
  Te  Te185  1  0.66403112  0.50282172  0.67348801  1
  Te  Te186  1  0.66429593  0.83720166  -0.00061695  1
  Te  Te187  1  0.66716672  0.83349165  0.33425630  1
  Te  Te188  1  0.66798413  0.83312761  0.66603962  1
  Te  Te189  1  -0.00844302  0.00094235  0.16679141  1
  Te  Te190  1  -0.00235184  0.00429578  0.50538144  1
  Te  Te191  1  -0.00162249  0.00150618  0.82819444  1
  Te  Te192  1  -0.00533666  0.33297440  0.16749296  1
  Te  Te193  1  0.00206588  0.33237615  0.50339275  1
  Te  Te194  1  -0.00236418  0.33228882  0.82683014  1
  Te  Te195  1  -0.00081806  0.66442740  0.16636013  1
  Te  Te196  1  -0.00563390  0.66134983  0.49997270  1
  Te  Te197  1  -0.00579579  0.65937132  0.83347892  1
  Te  Te198  1  0.33679844  -0.00130518  0.16538649  1
  Te  Te199  1  0.33470774  -0.00351715  0.50809156  1
  Te  Te200  1  0.33710554  0.00113207  0.83126747  1
  Te  Te201  1  0.33834583  0.33292182  0.16833320  1
  Te  Te202  1  0.33434347  0.33416043  0.50308323  1
  Te  Te203  1  0.33409053  0.33107853  0.83018547  1
  Te  Te204  1  0.33200429  0.66855545  0.16990095  1
  Te  Te205  1  0.33285165  0.67278002  0.49701931  1
  Te  Te206  1  0.33549315  0.66661891  0.83288690  1
  Te  Te207  1  0.66555314  -0.00090026  0.16477155  1
  Te  Te208  1  0.66596806  -0.00321385  0.49911703  1
  Te  Te209  1  0.66455042  -0.00377027  0.83847871  1
  Te  Te210  1  0.66436889  0.33538214  0.16843178  1
  Te  Te211  1  0.66483072  0.33253190  0.49558041  1
  Te  Te212  1  0.66425925  0.33218434  0.83364196  1
  Te  Te213  1  0.66542894  0.67219491  0.17376612  1
  Te  Te214  1  0.67016282  0.66945566  0.49620279  1
  Te  Te215  1  0.66242240  0.67063422  0.83468034  1
