# generated using pymatgen
data_AgSbTe2
_symmetry_space_group_name_H-M   'P 1'
_cell_length_a   18.32863802
_cell_length_b   18.33382680
_cell_length_c   18.33739679
_cell_angle_alpha   89.99914783
_cell_angle_beta   89.99931139
_cell_angle_gamma   89.99783138
_symmetry_Int_Tables_number   1
_chemical_formula_structural   AgSbTe2
_chemical_formula_sum   'Ag54 Sb54 Te108'
_cell_volume   6161.99016176
_cell_formula_units_Z   54
loop_
 _symmetry_equiv_pos_site_id
 _symmetry_equiv_pos_as_xyz
  1  'x, y, z'
loop_
 _atom_site_type_symbol
 _atom_site_label
 _atom_site_symmetry_multiplicity
 _atom_site_fract_x
 _atom_site_fract_y
 _atom_site_fract_z
 _atom_site_occupancy
  Ag  Ag0  1  0.83195405  -0.00029634  0.83319325  1
  Ag  Ag1  1  0.65991628  -0.00158991  0.33822263  1
  Ag  Ag2  1  -0.00199497  0.81951257  0.15953773  1
  Ag  Ag3  1  0.33582812  0.49584101  0.83466899  1
  Ag  Ag4  1  0.16563683  0.33521518  0.16399789  1
  Ag  Ag5  1  0.84432667  0.33475982  0.49736379  1
  Ag  Ag6  1  0.33523248  0.49491425  0.16064642  1
  Ag  Ag7  1  0.50256009  0.00068254  0.48847539  1
  Ag  Ag8  1  0.50139820  0.50325394  -0.00544523  1
  Ag  Ag9  1  0.50133636  0.83377235  0.32215383  1
  Ag  Ag10  1  0.50336437  0.50215948  0.32383537  1
  Ag  Ag11  1  0.83777953  0.49819103  0.32160630  1
  Ag  Ag12  1  0.50147895  0.66275079  0.16056342  1
  Ag  Ag13  1  0.84461579  0.34194566  0.17100833  1
  Ag  Ag14  1  0.00099004  0.65486137  0.32130703  1
  Ag  Ag15  1  0.16675599  0.83466228  -0.00328459  1
  Ag  Ag16  1  -0.00232192  0.50007385  0.16475308  1
  Ag  Ag17  1  0.00255783  0.66012597  0.00288936  1
  Ag  Ag18  1  0.65139040  0.50555913  0.82760557  1
  Ag  Ag19  1  0.49145569  0.50200964  0.67908416  1
  Ag  Ag20  1  -0.00404870  0.49292938  0.49004692  1
  Ag  Ag21  1  0.16128914  0.33221286  0.50249461  1
  Ag  Ag22  1  0.33605387  0.65447579  0.67300400  1
  Ag  Ag23  1  0.34243387  0.00205500  0.32441734  1
  Ag  Ag24  1  0.83712747  0.16850781  0.66466558  1
  Ag  Ag25  1  0.48861243  0.34612436  0.83924015  1
  Ag  Ag26  1  0.65709659  0.83159128  0.16296042  1
  Ag  Ag27  1  0.66544413  0.82455942  0.83576848  1
  Ag  Ag28  1  0.49692432  0.82507029  0.00402288  1
  Ag  Ag29  1  0.17046450  0.34063916  0.82913577  1
  Ag  Ag30  1  0.84220161  0.50006827  0.00361405  1
  Ag  Ag31  1  0.00003634  0.17676994  0.50087612  1
  Ag  Ag32  1  0.66481234  -0.00216607  0.66468867  1
  Ag  Ag33  1  0.66814007  0.49503994  0.50487377  1
  Ag  Ag34  1  0.00630884  0.82442409  0.84164430  1
  Ag  Ag35  1  0.83961699  0.65809977  0.16530106  1
  Ag  Ag36  1  0.32969797  0.33778285  0.67258453  1
  Ag  Ag37  1  0.16707525  0.17148228  0.33115222  1
  Ag  Ag38  1  0.67057025  0.17326928  0.50164590  1
  Ag  Ag39  1  0.33401601  0.00203619  0.00330131  1
  Ag  Ag40  1  0.66193435  0.66447559  0.67097677  1
  Ag  Ag41  1  0.33215597  0.17606823  0.16210125  1
  Ag  Ag42  1  0.00251289  0.34367624  0.00624820  1
  Ag  Ag43  1  0.49480931  0.34646328  0.16256290  1
  Ag  Ag44  1  0.00136916  0.33777088  0.33150248  1
  Ag  Ag45  1  0.32985963  0.17676774  0.83658643  1
  Ag  Ag46  1  0.49647114  -0.00958815  0.17056818  1
  Ag  Ag47  1  0.16708689  0.82423936  0.67790919  1
  Ag  Ag48  1  0.17013375  0.65677968  0.83292225  1
  Ag  Ag49  1  0.17230011  0.49558913  0.67258304  1
  Ag  Ag50  1  0.16697378  0.17732718  0.66875411  1
  Ag  Ag51  1  0.00497278  0.50270543  0.83923330  1
  Ag  Ag52  1  0.49533348  0.65882412  0.83898394  1
  Ag  Ag53  1  0.16985234  0.17157072  -0.00205676  1
  Sb  Sb54  1  0.16395242  0.65651129  0.50831030  1
  Sb  Sb55  1  0.16345076  0.49523828  0.33437875  1
  Sb  Sb56  1  0.66027826  -0.00337463  -0.00074249  1
  Sb  Sb57  1  0.33142783  0.16811251  0.49953450  1
  Sb  Sb58  1  0.50100956  0.66630564  0.50049945  1
  Sb  Sb59  1  0.16921880  0.83697748  0.32781538  1
  Sb  Sb60  1  0.66898232  0.33764805  0.00041576  1
  Sb  Sb61  1  0.16573023  0.66028861  0.15995538  1
  Sb  Sb62  1  0.84161115  0.17305114  -0.00358430  1
  Sb  Sb63  1  0.16975670  0.00769005  0.50025880  1
  Sb  Sb64  1  0.83362187  0.49556271  0.66887459  1
  Sb  Sb65  1  0.00229913  0.82888884  0.49998092  1
  Sb  Sb66  1  0.82877178  -0.00039288  0.16359741  1
  Sb  Sb67  1  -0.00223719  0.00104235  0.66773447  1
  Sb  Sb68  1  0.33403083  0.49763861  0.50335104  1
  Sb  Sb69  1  0.66567946  0.83276492  0.50149618  1
  Sb  Sb70  1  0.33214624  0.82914453  0.83528181  1
  Sb  Sb71  1  0.83739223  0.17352664  0.33654995  1
  Sb  Sb72  1  0.83301680  0.66576084  0.83805354  1
  Sb  Sb73  1  0.32652328  0.33211125  -0.00381930  1
  Sb  Sb74  1  0.82644031  0.00922215  0.50305299  1
  Sb  Sb75  1  0.00780781  0.33637388  0.66372906  1
  Sb  Sb76  1  0.66507970  0.66513621  -0.00237986  1
  Sb  Sb77  1  0.49727958  0.82745266  0.67005753  1
  Sb  Sb78  1  0.49587483  0.16603736  0.33251644  1
  Sb  Sb79  1  0.49818956  0.33333456  0.49853364  1
  Sb  Sb80  1  0.66684498  0.50394927  0.16573695  1
  Sb  Sb81  1  0.00714661  0.17519937  0.17004641  1
  Sb  Sb82  1  0.17245687  0.00520126  0.16571898  1
  Sb  Sb83  1  0.33548792  0.83141855  0.16379685  1
  Sb  Sb84  1  0.66313304  0.16901496  0.82828253  1
  Sb  Sb85  1  0.49788007  0.17131827  0.66699151  1
  Sb  Sb86  1  0.32890337  0.33172238  0.33115941  1
  Sb  Sb87  1  0.66222544  0.33663806  0.66644861  1
  Sb  Sb88  1  0.83460219  0.83606824  0.67054975  1
  Sb  Sb89  1  0.50119465  -0.00271480  0.83638328  1
  Sb  Sb90  1  0.33103212  0.66561347  -0.00345462  1
  Sb  Sb91  1  0.82924930  0.82732844  0.32980828  1
  Sb  Sb92  1  0.66745832  0.66636901  0.33355675  1
  Sb  Sb93  1  0.00456238  -0.00192827  -0.00018138  1
  Sb  Sb94  1  0.49372202  0.17057019  0.00090294  1
  Sb  Sb95  1  0.16505468  0.00036353  0.83307464  1
  Sb  Sb96  1  0.66943102  0.33341259  0.33298954  1
  Sb  Sb97  1  0.66034545  0.16319767  0.17189514  1
  Sb  Sb98  1  0.33411211  0.83521358  0.50029519  1
  Sb  Sb99  1  0.33096565  0.66620237  0.33387863  1
  Sb  Sb100  1  0.16538019  0.49700612  -0.00556390  1
  Sb  Sb101  1  0.83489244  0.82768180  -0.00023502  1
  Sb  Sb102  1  0.33675963  0.00290905  0.66890925  1
  Sb  Sb103  1  0.00676977  0.17143384  0.83010398  1
  Sb  Sb104  1  -0.00053837  0.66397120  0.67245112  1
  Sb  Sb105  1  -0.00122897  0.00219618  0.33159291  1
  Sb  Sb106  1  0.83713295  0.33366599  0.83189289  1
  Sb  Sb107  1  0.83349726  0.65615241  0.49463506  1
  Te  Te108  1  0.17132974  0.17118118  0.16568372  1
  Te  Te109  1  0.16466030  0.17125614  0.50407737  1
  Te  Te110  1  0.16967009  0.16702219  0.83215077  1
  Te  Te111  1  0.16992984  0.49570335  0.16715837  1
  Te  Te112  1  0.16333934  0.49287602  0.50471460  1
  Te  Te113  1  0.16598555  0.50004295  0.83391435  1
  Te  Te114  1  0.16242371  0.83247572  0.16188800  1
  Te  Te115  1  0.16579699  0.83339023  0.50195987  1
  Te  Te116  1  0.16570842  0.83427616  0.83544980  1
  Te  Te117  1  0.49362220  0.16801731  0.16618321  1
  Te  Te118  1  0.50492481  0.16374066  0.50030303  1
  Te  Te119  1  0.49397542  0.17051847  0.83369547  1
  Te  Te120  1  0.50579644  0.50289023  0.16622594  1
  Te  Te121  1  0.50441539  0.49914759  0.49551005  1
  Te  Te122  1  0.49599659  0.50180906  0.83394119  1
  Te  Te123  1  0.49821452  0.83116647  0.16450142  1
  Te  Te124  1  0.50092119  0.83852869  0.49625477  1
  Te  Te125  1  0.50323009  0.82956114  0.83789190  1
  Te  Te126  1  0.83272526  0.17020609  0.16607490  1
  Te  Te127  1  0.83419637  0.17313394  0.50313268  1
  Te  Te128  1  0.83429964  0.16466786  0.82810164  1
  Te  Te129  1  0.83001773  0.49903999  0.16435689  1
  Te  Te130  1  0.83390734  0.49375053  0.50168293  1
  Te  Te131  1  0.84478641  0.49836496  0.83870110  1
  Te  Te132  1  0.83539662  0.83117807  0.16554552  1
  Te  Te133  1  0.83518914  0.83351619  0.50030370  1
  Te  Te134  1  0.82865947  0.83608997  0.83397605  1
  Te  Te135  1  0.17202892  -0.00137095  0.00016503  1
  Te  Te136  1  0.17029314  0.00634269  0.33394297  1
  Te  Te137  1  0.16786561  0.00181341  0.66505235  1
  Te  Te138  1  0.16211443  0.33143573  0.00275280  1
  Te  Te139  1  0.16325712  0.33073155  0.33106636  1
  Te  Te140  1  0.16865924  0.33464164  0.66984027  1
  Te  Te141  1  0.16426601  0.67285656  -0.00593315  1
  Te  Te142  1  0.16201539  0.66924802  0.33559303  1
  Te  Te143  1  0.16705943  0.66535256  0.67300892  1
  Te  Te144  1  0.49535550  -0.00058110  0.00424433  1
  Te  Te145  1  0.49988761  0.00264059  0.33042482  1
  Te  Te146  1  0.50367576  -0.00170365  0.66736655  1
  Te  Te147  1  0.50166343  0.33694297  0.00066052  1
  Te  Te148  1  0.49905089  0.33839945  0.32917230  1
  Te  Te149  1  0.49446732  0.33914982  0.66775348  1
  Te  Te150  1  0.49793213  0.66619758  -0.00092531  1
  Te  Te151  1  0.49856355  0.66713379  0.33164119  1
  Te  Te152  1  0.49947632  0.66297362  0.66750349  1
  Te  Te153  1  0.83201446  0.00321317  -0.00469434  1
  Te  Te154  1  0.82661431  0.00019705  0.33287612  1
  Te  Te155  1  0.82754121  0.00499479  0.66998137  1
  Te  Te156  1  0.83974348  0.33796090  0.00348647  1
  Te  Te157  1  0.83634835  0.33852140  0.33270759  1
  Te  Te158  1  0.83108044  0.32787820  0.66310622  1
  Te  Te159  1  0.83872878  0.66130990  0.00571960  1
  Te  Te160  1  0.83718782  0.66001673  0.32662374  1
  Te  Te161  1  0.82686073  0.66721538  0.66567329  1
  Te  Te162  1  0.00899678  0.16707811  -0.00026048  1
  Te  Te163  1  0.00473667  0.17048340  0.33786443  1
  Te  Te164  1  0.00127851  0.16676380  0.66267127  1
  Te  Te165  1  0.00273370  0.50039342  0.00360242  1
  Te  Te166  1  0.00092682  0.49764565  0.33068742  1
  Te  Te167  1  0.00336205  0.50193762  0.67105229  1
  Te  Te168  1  0.00116783  0.83241151  -0.00045158  1
  Te  Te169  1  -0.00045744  0.83249924  0.32986694  1
  Te  Te170  1  0.00629299  0.83278401  0.66998256  1
  Te  Te171  1  0.32912405  0.16446718  0.00127351  1
  Te  Te172  1  0.32864112  0.16326409  0.33019779  1
  Te  Te173  1  0.32946744  0.16903890  0.67034628  1
  Te  Te174  1  0.33898543  0.50007560  0.00050508  1
  Te  Te175  1  0.33827093  0.50066436  0.33109001  1
  Te  Te176  1  0.33289962  0.49835072  0.66603853  1
  Te  Te177  1  0.33307488  0.83746442  -0.00061491  1
  Te  Te178  1  0.33832885  0.83778186  0.33277759  1
  Te  Te179  1  0.32673583  0.83358760  0.66751928  1
  Te  Te180  1  0.66978042  0.16605701  -0.00039306  1
  Te  Te181  1  0.66843351  0.16128062  0.33949709  1
  Te  Te182  1  0.66644343  0.16329447  0.66238966  1
  Te  Te183  1  0.66273552  0.50058711  -0.00868944  1
  Te  Te184  1  0.66723408  0.50124786  0.33808572  1
  Te  Te185  1  0.66715589  0.50210655  0.66756281  1
  Te  Te186  1  0.66376755  0.83252682  -0.00110514  1
  Te  Te187  1  0.66172731  0.83522146  0.33162281  1
  Te  Te188  1  0.66616599  0.83239619  0.67093349  1
  Te  Te189  1  -0.00142303  -0.00515046  0.16704740  1
  Te  Te190  1  -0.00166280  0.00361956  0.49873982  1
  Te  Te191  1  -0.00652371  -0.00500111  0.83347753  1
  Te  Te192  1  0.00194514  0.33595295  0.16835579  1
  Te  Te193  1  0.00169453  0.33522648  0.50079258  1
  Te  Te194  1  0.00474630  0.33636268  0.83790795  1
  Te  Te195  1  0.00254528  0.66242570  0.16391488  1
  Te  Te196  1  -0.00117049  0.65987437  0.49464422  1
  Te  Te197  1  -0.00018185  0.66720929  0.83732227  1
  Te  Te198  1  0.33652027  -0.00117289  0.16590283  1
  Te  Te199  1  0.34058741  0.00203920  0.49680981  1
  Te  Te200  1  0.33405929  0.00481790  0.83733560  1
  Te  Te201  1  0.33366911  0.33484513  0.16711480  1
  Te  Te202  1  0.32706836  0.33220059  0.50556297  1
  Te  Te203  1  0.33138260  0.33557916  0.83350310  1
  Te  Te204  1  0.33746166  0.65785044  0.16772374  1
  Te  Te205  1  0.33228614  0.66703857  0.50919075  1
  Te  Te206  1  0.33361616  0.66300117  0.83093798  1
  Te  Te207  1  0.66148848  -0.00519062  0.16953532  1
  Te  Te208  1  0.66342339  -0.00046770  0.50112740  1
  Te  Te209  1  0.66836794  0.00068031  0.83018878  1
  Te  Te210  1  0.66086145  0.33166640  0.16712929  1
  Te  Te211  1  0.66647393  0.33363102  0.49965606  1
  Te  Te212  1  0.66470938  0.33863958  0.83292099  1
  Te  Te213  1  0.66327448  0.67202482  0.16700619  1
  Te  Te214  1  0.66741014  0.66143520  0.50655557  1
  Te  Te215  1  0.66678366  0.66511600  0.83174108  1
