# generated using pymatgen
data_AgSbTe2
_symmetry_space_group_name_H-M   'P 1'
_cell_length_a   18.33782750
_cell_length_b   18.33364571
_cell_length_c   18.33544908
_cell_angle_alpha   89.99911312
_cell_angle_beta   89.99997078
_cell_angle_gamma   89.99647640
_symmetry_Int_Tables_number   1
_chemical_formula_structural   AgSbTe2
_chemical_formula_sum   'Ag54 Sb54 Te108'
_cell_volume   6164.36389626
_cell_formula_units_Z   54
loop_
 _symmetry_equiv_pos_site_id
 _symmetry_equiv_pos_as_xyz
  1  'x, y, z'
loop_
 _atom_site_type_symbol
 _atom_site_label
 _atom_site_symmetry_multiplicity
 _atom_site_fract_x
 _atom_site_fract_y
 _atom_site_fract_z
 _atom_site_occupancy
  Ag  Ag0  1  0.49697190  0.49151836  0.33156764  1
  Ag  Ag1  1  0.83593918  0.51133235  -0.00537072  1
  Ag  Ag2  1  -0.00498164  0.66166533  0.32939524  1
  Ag  Ag3  1  0.16725721  0.33166059  0.49696402  1
  Ag  Ag4  1  0.67490462  0.82856780  0.15394661  1
  Ag  Ag5  1  0.50037075  0.16410349  -0.00794611  1
  Ag  Ag6  1  0.83171993  0.00322106  0.50670206  1
  Ag  Ag7  1  0.49915279  0.17234667  0.33421861  1
  Ag  Ag8  1  -0.01043866  0.66996933  0.67432705  1
  Ag  Ag9  1  0.34605313  0.16774691  0.82434259  1
  Ag  Ag10  1  0.50597346  0.00663602  0.50879331  1
  Ag  Ag11  1  0.33456059  0.49151966  0.17001428  1
  Ag  Ag12  1  0.65688812  0.33518923  0.33370347  1
  Ag  Ag13  1  -0.00479250  0.00336074  0.66515361  1
  Ag  Ag14  1  0.67319114  0.66258843  0.67876091  1
  Ag  Ag15  1  0.17191131  0.49737352  0.32679310  1
  Ag  Ag16  1  0.66309000  0.16603014  0.82895636  1
  Ag  Ag17  1  -0.01254168  0.66833832  -0.00037867  1
  Ag  Ag18  1  0.50403328  0.00685385  0.83180037  1
  Ag  Ag19  1  0.66761354  0.82272304  0.84143424  1
  Ag  Ag20  1  0.33888639  0.17429337  0.16714030  1
  Ag  Ag21  1  0.33466688  0.33087248  0.01346341  1
  Ag  Ag22  1  0.51225268  0.83662119  -0.00136417  1
  Ag  Ag23  1  0.51433991  0.66943784  0.83487490  1
  Ag  Ag24  1  0.66059664  0.16648918  0.50965215  1
  Ag  Ag25  1  0.82609436  0.16589486  0.66674747  1
  Ag  Ag26  1  0.66890917  0.66081573  0.32996547  1
  Ag  Ag27  1  0.33852583  0.01004251  0.66672866  1
  Ag  Ag28  1  0.83093329  0.51023731  0.67524171  1
  Ag  Ag29  1  0.34474011  0.16819631  0.50840462  1
  Ag  Ag30  1  -0.01083612  0.50352646  0.83595867  1
  Ag  Ag31  1  0.82851622  0.66391783  0.84109115  1
  Ag  Ag32  1  -0.00262536  0.83695535  0.49878492  1
  Ag  Ag33  1  0.49915944  0.33080358  0.17014463  1
  Ag  Ag34  1  0.33939034  0.65427350  0.33086034  1
  Ag  Ag35  1  -0.00327698  0.16349432  0.50403365  1
  Ag  Ag36  1  0.67143163  0.51108238  0.83285531  1
  Ag  Ag37  1  0.16488740  0.00045669  0.16475981  1
  Ag  Ag38  1  0.16044074  0.50324022  0.00412153  1
  Ag  Ag39  1  0.34009487  0.33520942  0.32917661  1
  Ag  Ag40  1  0.34164213  0.32579695  0.66316276  1
  Ag  Ag41  1  0.66457632  -0.01311769  -0.00410296  1
  Ag  Ag42  1  0.00075195  0.16611804  0.16796382  1
  Ag  Ag43  1  0.15974708  0.82794426  0.00157513  1
  Ag  Ag44  1  0.83044637  0.33728058  0.16755866  1
  Ag  Ag45  1  0.82627015  0.82327836  -0.00242672  1
  Ag  Ag46  1  0.83251045  0.66470208  0.15562635  1
  Ag  Ag47  1  0.66612218  0.32501513  0.66571462  1
  Ag  Ag48  1  0.00152143  0.33514363  0.33201138  1
  Ag  Ag49  1  0.67697234  0.67546186  -0.00927265  1
  Ag  Ag50  1  0.50375210  0.16608920  0.66672269  1
  Ag  Ag51  1  -0.00617425  0.83139366  0.16396546  1
  Ag  Ag52  1  -0.00534106  0.16820229  0.82735976  1
  Ag  Ag53  1  0.83346587  0.82714492  0.67261091  1
  Sb  Sb54  1  0.33614817  0.66270913  0.00414608  1
  Sb  Sb55  1  -0.00203382  0.49981210  0.50208134  1
  Sb  Sb56  1  0.16860915  0.33227778  0.17080434  1
  Sb  Sb57  1  0.16739676  0.33232166  0.83057646  1
  Sb  Sb58  1  0.16897915  0.16736100  0.66557673  1
  Sb  Sb59  1  0.66571295  0.16621893  0.16430698  1
  Sb  Sb60  1  0.66568254  0.50301745  0.16320872  1
  Sb  Sb61  1  0.16443189  0.00643616  0.49755119  1
  Sb  Sb62  1  0.00072992  0.00218963  0.33596367  1
  Sb  Sb63  1  0.50874087  0.83970487  0.67306307  1
  Sb  Sb64  1  -0.00873551  0.83176887  0.83570176  1
  Sb  Sb65  1  0.50285782  0.49911796  0.00223495  1
  Sb  Sb66  1  0.33766668  0.66445936  0.66476555  1
  Sb  Sb67  1  0.00217589  0.50132387  0.16334963  1
  Sb  Sb68  1  0.17126939  0.16869890  0.00292385  1
  Sb  Sb69  1  0.33700179  0.49416397  0.83803624  1
  Sb  Sb70  1  0.33307850  0.83379948  0.16439174  1
  Sb  Sb71  1  0.34244638  0.83850436  0.83501906  1
  Sb  Sb72  1  0.50135484  0.83372950  0.32827376  1
  Sb  Sb73  1  0.66503019  0.00258840  0.33060319  1
  Sb  Sb74  1  -0.00431538  -0.00402744  -0.00361022  1
  Sb  Sb75  1  0.50120761  0.32952774  0.83676679  1
  Sb  Sb76  1  0.33821757  0.00623910  -0.00344000  1
  Sb  Sb77  1  0.16376091  0.82694427  0.32870334  1
  Sb  Sb78  1  0.17051164  0.17441556  0.33310698  1
  Sb  Sb79  1  0.32819976  0.84005413  0.50037705  1
  Sb  Sb80  1  -0.00430934  0.32996488  0.66375012  1
  Sb  Sb81  1  0.66692831  0.49465549  0.50274537  1
  Sb  Sb82  1  0.82963187  0.16569773  -0.00442997  1
  Sb  Sb83  1  0.16066437  0.66798723  0.16612823  1
  Sb  Sb84  1  0.33275261  0.48911416  0.49212132  1
  Sb  Sb85  1  0.50628633  0.49343160  0.66417085  1
  Sb  Sb86  1  0.66870397  0.00353506  0.67170438  1
  Sb  Sb87  1  0.82766264  -0.00299646  0.82912555  1
  Sb  Sb88  1  0.50618154  0.66379120  0.16329714  1
  Sb  Sb89  1  0.16494349  0.66192160  0.49694101  1
  Sb  Sb90  1  0.83583727  -0.00097636  0.16832750  1
  Sb  Sb91  1  0.49765371  0.00585301  0.16305014  1
  Sb  Sb92  1  0.83471110  0.32767595  0.49792113  1
  Sb  Sb93  1  0.67284615  0.83878456  0.50287448  1
  Sb  Sb94  1  0.49732293  0.32527897  0.49370826  1
  Sb  Sb95  1  0.83251953  0.49951348  0.33199684  1
  Sb  Sb96  1  0.15704025  0.83453623  0.67182830  1
  Sb  Sb97  1  0.16920623  0.00115665  0.83640331  1
  Sb  Sb98  1  0.83138653  0.33888205  0.83535847  1
  Sb  Sb99  1  0.83360784  0.83029035  0.33087188  1
  Sb  Sb100  1  0.66426774  0.33548141  -0.00044045  1
  Sb  Sb101  1  0.33495122  0.00820169  0.33615573  1
  Sb  Sb102  1  0.16030610  0.66606327  0.83603226  1
  Sb  Sb103  1  0.83053438  0.16902859  0.33684901  1
  Sb  Sb104  1  0.83402391  0.67147883  0.50485389  1
  Sb  Sb105  1  0.50320365  0.67437803  0.50211445  1
  Sb  Sb106  1  0.16153607  0.49802156  0.66841838  1
  Sb  Sb107  1  0.00269263  0.33627927  0.00357740  1
  Te  Te108  1  0.16178852  0.16332993  0.16727745  1
  Te  Te109  1  0.15806046  0.17047764  0.49844146  1
  Te  Te110  1  0.15799878  0.16639580  0.83525449  1
  Te  Te111  1  0.17098180  0.50104866  0.16594585  1
  Te  Te112  1  0.16559694  0.49336610  0.49561358  1
  Te  Te113  1  0.16481257  0.49941913  0.83934920  1
  Te  Te114  1  0.16415601  0.83631781  0.16185615  1
  Te  Te115  1  0.15832581  0.83475678  0.50087207  1
  Te  Te116  1  0.16887330  0.83360394  0.84092445  1
  Te  Te117  1  0.49877119  0.16987017  0.16858187  1
  Te  Te118  1  0.50079770  0.16410719  0.50255541  1
  Te  Te119  1  0.50122312  0.16791722  0.83290935  1
  Te  Te120  1  0.49651177  0.49571390  0.16981726  1
  Te  Te121  1  0.49978825  0.50448518  0.49277040  1
  Te  Te122  1  0.50568554  0.50364958  0.83310646  1
  Te  Te123  1  0.50213633  0.83513746  0.16015088  1
  Te  Te124  1  0.49852561  0.84449976  0.50008617  1
  Te  Te125  1  0.50649480  0.83453296  0.83828306  1
  Te  Te126  1  0.83705365  0.16784867  0.16590976  1
  Te  Te127  1  0.83691459  0.16388970  0.50315451  1
  Te  Te128  1  0.83478799  0.16737476  0.82978222  1
  Te  Te129  1  0.83366767  0.50103467  0.16423134  1
  Te  Te130  1  0.83292398  0.49868828  0.51056144  1
  Te  Te131  1  0.83198354  0.50079853  0.83382277  1
  Te  Te132  1  0.83400589  0.83228418  0.16490121  1
  Te  Te133  1  0.83886529  0.83961132  0.50385253  1
  Te  Te134  1  0.82824550  0.83054583  0.83422302  1
  Te  Te135  1  0.16574585  -0.00339540  0.00388391  1
  Te  Te136  1  0.16795315  -0.00248247  0.32657487  1
  Te  Te137  1  0.16529140  -0.00148157  0.66649213  1
  Te  Te138  1  0.17266145  0.33888768  -0.00103557  1
  Te  Te139  1  0.16359729  0.33807131  0.33588095  1
  Te  Te140  1  0.17204233  0.33504580  0.65987032  1
  Te  Te141  1  0.16753729  0.66479248  0.00067974  1
  Te  Te142  1  0.16289255  0.65953869  0.33255568  1
  Te  Te143  1  0.16228426  0.66589226  0.66614683  1
  Te  Te144  1  0.50302160  0.00173002  -0.00350278  1
  Te  Te145  1  0.49995315  0.00584102  0.33678084  1
  Te  Te146  1  0.49956489  0.00328412  0.66924026  1
  Te  Te147  1  0.49667222  0.33085572  0.00606243  1
  Te  Te148  1  0.49976053  0.33208164  0.33102818  1
  Te  Te149  1  0.50296135  0.32876001  0.66660339  1
  Te  Te150  1  0.50220848  0.66859972  -0.00386466  1
  Te  Te151  1  0.50110352  0.66642655  0.33353023  1
  Te  Te152  1  0.50479613  0.66728379  0.67091145  1
  Te  Te153  1  0.82716564  -0.00336599  -0.00013868  1
  Te  Te154  1  0.83271803  -0.00055681  0.34171297  1
  Te  Te155  1  0.83543181  0.00484741  0.66547454  1
  Te  Te156  1  0.83331055  0.33389629  0.00768183  1
  Te  Te157  1  0.83772715  0.33464803  0.32812429  1
  Te  Te158  1  0.82801564  0.32641553  0.66625139  1
  Te  Te159  1  0.83231222  0.66703082  0.00036281  1
  Te  Te160  1  0.83459822  0.66478146  0.33360183  1
  Te  Te161  1  0.83287375  0.66752899  0.66604329  1
  Te  Te162  1  -0.00028191  0.16601017  0.00221073  1
  Te  Te163  1  -0.00029652  0.16931896  0.33074469  1
  Te  Te164  1  0.00076069  0.16629766  0.66603532  1
  Te  Te165  1  -0.00119777  0.50271566  -0.00295688  1
  Te  Te166  1  0.00027076  0.50022642  0.33359936  1
  Te  Te167  1  -0.00418158  0.50116093  0.67210611  1
  Te  Te168  1  -0.00070244  0.83045033  0.00231963  1
  Te  Te169  1  0.00040621  0.82956539  0.33050119  1
  Te  Te170  1  -0.00540585  0.83206346  0.66749851  1
  Te  Te171  1  0.33675723  0.17056036  0.00361220  1
  Te  Te172  1  0.33639055  0.17159862  0.33041873  1
  Te  Te173  1  0.33262169  0.16655384  0.66718255  1
  Te  Te174  1  0.33294227  0.49480602  0.00410643  1
  Te  Te175  1  0.33393348  0.49670776  0.33116296  1
  Te  Te176  1  0.33311050  0.49656456  0.66695469  1
  Te  Te177  1  0.32848503  0.83334339  -0.00005073  1
  Te  Te178  1  0.33260719  0.82783091  0.33377410  1
  Te  Te179  1  0.33254202  0.83499004  0.66628478  1
  Te  Te180  1  0.66145375  0.16883525  -0.00290732  1
  Te  Te181  1  0.66237870  0.17058471  0.33240760  1
  Te  Te182  1  0.66585499  0.16513533  0.66629546  1
  Te  Te183  1  0.67056526  0.50274012  -0.00469341  1
  Te  Te184  1  0.66481097  0.49670705  0.33389122  1
  Te  Te185  1  0.66948562  0.50149681  0.66947538  1
  Te  Te186  1  0.66714310  0.83080647  -0.00144718  1
  Te  Te187  1  0.66544420  0.83016734  0.33334917  1
  Te  Te188  1  0.67354512  0.82859556  0.66735968  1
  Te  Te189  1  0.00144834  -0.00051516  0.16704723  1
  Te  Te190  1  -0.00076766  0.00068292  0.50269577  1
  Te  Te191  1  -0.00010382  0.00341453  0.82820109  1
  Te  Te192  1  -0.00088165  0.33173539  0.16971052  1
  Te  Te193  1  0.00226808  0.33047982  0.49586241  1
  Te  Te194  1  -0.00070029  0.33049293  0.83272585  1
  Te  Te195  1  -0.00438165  0.66814344  0.16471357  1
  Te  Te196  1  0.00063541  0.67012845  0.49658875  1
  Te  Te197  1  -0.00512792  0.66523990  0.83454904  1
  Te  Te198  1  0.32905134  0.00384088  0.16700804  1
  Te  Te199  1  0.33329071  0.00715769  0.50413286  1
  Te  Te200  1  0.33742885  0.00611384  0.82853627  1
  Te  Te201  1  0.33194285  0.33168786  0.16975317  1
  Te  Te202  1  0.33131860  0.32654677  0.50026955  1
  Te  Te203  1  0.33424738  0.32730666  0.82537896  1
  Te  Te204  1  0.33444049  0.66511122  0.17214310  1
  Te  Te205  1  0.33366600  0.66848364  0.49482713  1
  Te  Te206  1  0.33503056  0.66529897  0.83127050  1
  Te  Te207  1  0.66680961  -0.00646755  0.16197829  1
  Te  Te208  1  0.66734947  0.00540238  0.49816090  1
  Te  Te209  1  0.66341680  0.00752781  0.83694925  1
  Te  Te210  1  0.66643736  0.33430379  0.17026075  1
  Te  Te211  1  0.66734876  0.32745392  0.49874480  1
  Te  Te212  1  0.66667098  0.32544485  0.82927341  1
  Te  Te213  1  0.67076909  0.66850482  0.17098603  1
  Te  Te214  1  0.66673016  0.66845547  0.48969624  1
  Te  Te215  1  0.66955613  0.66708397  0.83388921  1
