# generated using pymatgen
data_AgSbTe2
_symmetry_space_group_name_H-M   'P 1'
_cell_length_a   18.33961405
_cell_length_b   18.34155495
_cell_length_c   18.33776082
_cell_angle_alpha   90.00257781
_cell_angle_beta   89.99880178
_cell_angle_gamma   90.00199253
_symmetry_Int_Tables_number   1
_chemical_formula_structural   AgSbTe2
_chemical_formula_sum   'Ag54 Sb54 Te108'
_cell_volume   6168.40166847
_cell_formula_units_Z   54
loop_
 _symmetry_equiv_pos_site_id
 _symmetry_equiv_pos_as_xyz
  1  'x, y, z'
loop_
 _atom_site_type_symbol
 _atom_site_label
 _atom_site_symmetry_multiplicity
 _atom_site_fract_x
 _atom_site_fract_y
 _atom_site_fract_z
 _atom_site_occupancy
  Ag  Ag0  1  0.33810877  0.67812389  -0.00513680  1
  Ag  Ag1  1  0.16571534  0.16509885  0.32905127  1
  Ag  Ag2  1  0.16814747  0.16404368  0.67190108  1
  Ag  Ag3  1  0.66482172  0.50359379  0.83114223  1
  Ag  Ag4  1  -0.00586833  0.32443867  0.00199972  1
  Ag  Ag5  1  0.66146398  0.83442943  0.83670535  1
  Ag  Ag6  1  -0.00960433  0.51048403  0.49879873  1
  Ag  Ag7  1  0.67276390  0.51218539  0.50320147  1
  Ag  Ag8  1  -0.00146091  -0.00677234  0.66468108  1
  Ag  Ag9  1  0.15899404  0.50422909  0.67023538  1
  Ag  Ag10  1  0.34048557  0.67002185  0.66924885  1
  Ag  Ag11  1  0.50194556  0.16315047  0.67800803  1
  Ag  Ag12  1  0.50761801  0.15338292  -0.00338623  1
  Ag  Ag13  1  -0.00717863  0.67105197  0.34267594  1
  Ag  Ag14  1  0.65905483  0.00254068  0.00371881  1
  Ag  Ag15  1  0.50160318  0.67698763  0.83387064  1
  Ag  Ag16  1  -0.01312043  0.82969359  0.50163959  1
  Ag  Ag17  1  0.17749146  0.84346095  -0.00227643  1
  Ag  Ag18  1  0.66595853  0.32638056  0.00389591  1
  Ag  Ag19  1  0.49928819  0.84097886  -0.00757862  1
  Ag  Ag20  1  0.82392910  0.16226774  0.00201383  1
  Ag  Ag21  1  0.16579114  0.15890962  -0.00377610  1
  Ag  Ag22  1  -0.00453445  0.50221588  0.16933415  1
  Ag  Ag23  1  0.50958652  0.33179991  0.15996609  1
  Ag  Ag24  1  0.51141078  0.67276020  0.50841383  1
  Ag  Ag25  1  0.50476201  0.31974923  0.84223377  1
  Ag  Ag26  1  0.50904564  -0.00856977  0.50113634  1
  Ag  Ag27  1  0.17041460  -0.00066965  0.83897581  1
  Ag  Ag28  1  -0.01283037  0.67089770  0.66097582  1
  Ag  Ag29  1  0.34386557  0.83176563  0.50612235  1
  Ag  Ag30  1  0.83070993  0.67454435  0.49825723  1
  Ag  Ag31  1  0.34162870  0.33337671  0.33208099  1
  Ag  Ag32  1  0.34308713  0.83355693  0.83407763  1
  Ag  Ag33  1  -0.01246915  -0.00525853  0.33493058  1
  Ag  Ag34  1  0.82785476  -0.00524134  0.16968929  1
  Ag  Ag35  1  0.66804365  0.66800983  0.66209617  1
  Ag  Ag36  1  0.34641881  -0.00439016  -0.00216721  1
  Ag  Ag37  1  0.66747040  0.83643491  0.16659590  1
  Ag  Ag38  1  0.66107317  0.16005623  0.83763961  1
  Ag  Ag39  1  0.83404936  0.51371822  0.33737496  1
  Ag  Ag40  1  0.50703779  0.67305426  0.16297539  1
  Ag  Ag41  1  0.50845173  -0.00432410  0.15274420  1
  Ag  Ag42  1  -0.00113738  0.00226524  0.00041899  1
  Ag  Ag43  1  0.83150891  0.83096008  0.34273589  1
  Ag  Ag44  1  0.16468818  0.49961869  -0.00532765  1
  Ag  Ag45  1  0.67211040  0.83095259  0.50022464  1
  Ag  Ag46  1  0.82918467  0.66922347  0.17360307  1
  Ag  Ag47  1  0.66679636  0.32967554  0.32215035  1
  Ag  Ag48  1  0.83251796  0.82719879  0.65534605  1
  Ag  Ag49  1  0.82874880  -0.01184562  0.49016758  1
  Ag  Ag50  1  0.83557505  0.51067033  0.65586875  1
  Ag  Ag51  1  0.67019926  -0.00075278  0.32394436  1
  Ag  Ag52  1  0.82744888  0.33394463  0.16493318  1
  Ag  Ag53  1  0.50127604  -0.00450718  0.83915692  1
  Sb  Sb54  1  0.82798725  0.83888724  0.00115206  1
  Sb  Sb55  1  -0.00471205  0.50169898  0.83198358  1
  Sb  Sb56  1  0.16342502  -0.00039914  0.15885437  1
  Sb  Sb57  1  0.66653648  0.16101646  0.50556244  1
  Sb  Sb58  1  0.50601030  0.83480397  0.66990192  1
  Sb  Sb59  1  0.82569949  0.66788468  0.82908828  1
  Sb  Sb60  1  0.50946992  0.50042874  0.33332768  1
  Sb  Sb61  1  0.16520330  0.33309672  0.16472105  1
  Sb  Sb62  1  -0.00864999  0.83141873  0.16936203  1
  Sb  Sb63  1  0.50311731  0.33344709  0.49931141  1
  Sb  Sb64  1  -0.00093225  0.33528255  0.67065110  1
  Sb  Sb65  1  0.16643649  0.33377465  0.49975226  1
  Sb  Sb66  1  0.33281792  -0.00660547  0.67171076  1
  Sb  Sb67  1  0.82532558  0.33438010  0.84016150  1
  Sb  Sb68  1  0.33498438  0.50836002  0.50178792  1
  Sb  Sb69  1  0.34270808  0.83347275  0.16214542  1
  Sb  Sb70  1  -0.00289655  0.83526564  0.83076328  1
  Sb  Sb71  1  -0.00191260  0.16689524  0.16398210  1
  Sb  Sb72  1  0.66899597  -0.00796258  0.66927857  1
  Sb  Sb73  1  0.49939456  0.50183657  -0.00053613  1
  Sb  Sb74  1  0.00248461  0.66929963  -0.00080111  1
  Sb  Sb75  1  0.33170825  0.66566708  0.33440997  1
  Sb  Sb76  1  0.15909413  0.66805148  0.50333876  1
  Sb  Sb77  1  0.17303850  0.32880976  0.83618465  1
  Sb  Sb78  1  0.16306718  0.83281987  0.67069118  1
  Sb  Sb79  1  0.33498564  0.15980938  0.50150947  1
  Sb  Sb80  1  0.67386323  0.67067156  0.33798113  1
  Sb  Sb81  1  0.33536086  0.16560986  0.16441869  1
  Sb  Sb82  1  0.16391100  -0.00209543  0.50372870  1
  Sb  Sb83  1  0.50001534  0.16533920  0.32944847  1
  Sb  Sb84  1  0.50821448  0.83379384  0.33371761  1
  Sb  Sb85  1  0.83084815  0.33908473  0.49256503  1
  Sb  Sb86  1  -0.00207159  0.16467878  0.83586214  1
  Sb  Sb87  1  0.33786477  0.50702353  0.83353396  1
  Sb  Sb88  1  0.15944869  0.83803785  0.33028976  1
  Sb  Sb89  1  0.66693902  0.33922080  0.66997458  1
  Sb  Sb90  1  0.83176829  0.16248299  0.67249127  1
  Sb  Sb91  1  0.33807170  0.32975311  0.00280728  1
  Sb  Sb92  1  -0.00110423  0.16199620  0.49976304  1
  Sb  Sb93  1  0.82879739  -0.00101173  0.83693979  1
  Sb  Sb94  1  0.66656188  0.16012811  0.15924018  1
  Sb  Sb95  1  0.15845219  0.49658260  0.33462747  1
  Sb  Sb96  1  0.66183877  0.66971164  -0.00253392  1
  Sb  Sb97  1  0.83387679  0.16059747  0.32762858  1
  Sb  Sb98  1  0.50441863  0.50312506  0.66869088  1
  Sb  Sb99  1  0.33106673  0.50068590  0.16515624  1
  Sb  Sb100  1  0.33650426  0.00078378  0.32970894  1
  Sb  Sb101  1  0.67229616  0.50239330  0.16761153  1
  Sb  Sb102  1  0.16471762  0.66749459  0.16408579  1
  Sb  Sb103  1  -0.00514040  0.33254036  0.32755999  1
  Sb  Sb104  1  0.34025388  0.15939442  0.83481058  1
  Sb  Sb105  1  0.17233852  0.67143107  0.83300609  1
  Sb  Sb106  1  0.83569063  0.49760987  0.00292515  1
  Sb  Sb107  1  0.33531684  0.33723868  0.66442477  1
  Te  Te108  1  0.16710626  0.16672179  0.16450161  1
  Te  Te109  1  0.16727500  0.16621183  0.50580589  1
  Te  Te110  1  0.16711595  0.16231641  0.83397770  1
  Te  Te111  1  0.15902052  0.50011994  0.16391535  1
  Te  Te112  1  0.16295360  0.50005508  0.50459139  1
  Te  Te113  1  0.16647911  0.49853836  0.83214830  1
  Te  Te114  1  0.16784508  0.83302322  0.15888454  1
  Te  Te115  1  0.16894794  0.83338577  0.49921186  1
  Te  Te116  1  0.16633327  0.83821952  0.83869531  1
  Te  Te117  1  0.50030271  0.16801027  0.16107939  1
  Te  Te118  1  0.49919845  0.16363135  0.50371563  1
  Te  Te119  1  0.50154759  0.16253577  0.83669297  1
  Te  Te120  1  0.50009076  0.49949352  0.16716285  1
  Te  Te121  1  0.50505127  0.50611483  0.50072402  1
  Te  Te122  1  0.50533216  0.50535719  0.83217840  1
  Te  Te123  1  0.50657062  0.83419982  0.16694926  1
  Te  Te124  1  0.50278101  0.83167958  0.49987974  1
  Te  Te125  1  0.50111279  0.83481378  0.83233091  1
  Te  Te126  1  0.83318124  0.16792033  0.16075536  1
  Te  Te127  1  0.83321888  0.16282968  0.50244995  1
  Te  Te128  1  0.82518342  0.16735703  0.84066864  1
  Te  Te129  1  0.83600077  0.50192174  0.16915995  1
  Te  Te130  1  0.83251078  0.50019184  0.49792005  1
  Te  Te131  1  0.82674602  0.49988650  0.82932595  1
  Te  Te132  1  0.82807733  0.83389245  0.16719110  1
  Te  Te133  1  0.83228175  0.83376932  0.49981627  1
  Te  Te134  1  0.82553107  0.83299619  0.82973240  1
  Te  Te135  1  0.15946716  0.00007095  -0.00085729  1
  Te  Te136  1  0.16739789  0.00515471  0.33126207  1
  Te  Te137  1  0.16401257  0.00148431  0.67139289  1
  Te  Te138  1  0.16619135  0.33437521  -0.00039544  1
  Te  Te139  1  0.16678089  0.32723999  0.33252456  1
  Te  Te140  1  0.16761626  0.33152646  0.66796166  1
  Te  Te141  1  0.17159472  0.66338041  -0.00082493  1
  Te  Te142  1  0.15720314  0.66642916  0.33235917  1
  Te  Te143  1  0.16950082  0.66326888  0.66785857  1
  Te  Te144  1  0.50245770  -0.00178767  -0.00180396  1
  Te  Te145  1  0.50434796  0.00133981  0.34088541  1
  Te  Te146  1  0.49948722  0.00423147  0.66283605  1
  Te  Te147  1  0.50195474  0.33499199  0.00103363  1
  Te  Te148  1  0.50331346  0.33300303  0.33016760  1
  Te  Te149  1  0.49878637  0.32785649  0.66968859  1
  Te  Te150  1  0.49718604  0.66775630  0.00065603  1
  Te  Te151  1  0.49768310  0.66576880  0.32698273  1
  Te  Te152  1  0.50140392  0.66701525  0.66691217  1
  Te  Te153  1  0.83732816  0.00265115  0.00301312  1
  Te  Te154  1  0.83113755  0.00002713  0.33169978  1
  Te  Te155  1  0.83865837  -0.00072406  0.66702019  1
  Te  Te156  1  0.83334315  0.33102417  0.00484682  1
  Te  Te157  1  0.82890215  0.32818309  0.32574469  1
  Te  Te158  1  0.83433178  0.33489297  0.66656004  1
  Te  Te159  1  0.83434067  0.66729978  0.00544783  1
  Te  Te160  1  0.83503898  0.66997399  0.33389957  1
  Te  Te161  1  0.83000949  0.66654276  0.66611505  1
  Te  Te162  1  0.00490697  0.16554699  -0.00034598  1
  Te  Te163  1  0.00576062  0.16158355  0.33330670  1
  Te  Te164  1  0.00303479  0.16379517  0.66796068  1
  Te  Te165  1  0.00355218  0.50148063  0.00072166  1
  Te  Te166  1  -0.00466307  0.49990183  0.33434218  1
  Te  Te167  1  -0.00223006  0.50134917  0.66496043  1
  Te  Te168  1  0.00150360  0.83809219  -0.00027147  1
  Te  Te169  1  -0.00416565  0.83478153  0.33604705  1
  Te  Te170  1  -0.00357733  0.83270246  0.66406383  1
  Te  Te171  1  0.32791832  0.16187633  -0.00077099  1
  Te  Te172  1  0.32821388  0.17034399  0.33423026  1
  Te  Te173  1  0.33067612  0.16806398  0.66692673  1
  Te  Te174  1  0.32537724  0.50030689  -0.00013288  1
  Te  Te175  1  0.32962698  0.49471505  0.33362238  1
  Te  Te176  1  0.32654080  0.50595560  0.66612463  1
  Te  Te177  1  0.33709645  0.83515502  -0.00017146  1
  Te  Te178  1  0.32874389  0.83281609  0.33814252  1
  Te  Te179  1  0.33058043  0.82855146  0.66829674  1
  Te  Te180  1  0.66483035  0.16580248  -0.00272112  1
  Te  Te181  1  0.66624128  0.16543912  0.33714169  1
  Te  Te182  1  0.66320966  0.16788435  0.67391061  1
  Te  Te183  1  0.66761211  0.49578569  -0.00518055  1
  Te  Te184  1  0.67407416  0.49508742  0.33624709  1
  Te  Te185  1  0.66976350  0.50464986  0.66541841  1
  Te  Te186  1  0.66241434  0.83616385  -0.00060959  1
  Te  Te187  1  0.67148627  0.83737827  0.33419905  1
  Te  Te188  1  0.67168658  0.82935119  0.66425611  1
  Te  Te189  1  -0.00453170  -0.00058878  0.16865054  1
  Te  Te190  1  -0.00229738  -0.00295614  0.49951104  1
  Te  Te191  1  0.00260249  -0.00011797  0.83241727  1
  Te  Te192  1  -0.00287930  0.33831696  0.16184788  1
  Te  Te193  1  -0.00125251  0.33776772  0.49995648  1
  Te  Te194  1  0.00105061  0.33336292  0.84217972  1
  Te  Te195  1  -0.00451958  0.66364791  0.16718055  1
  Te  Te196  1  -0.00325604  0.66799808  0.50196908  1
  Te  Te197  1  -0.00017625  0.66744562  0.82510793  1
  Te  Te198  1  0.34223868  -0.00057652  0.16101620  1
  Te  Te199  1  0.33622486  -0.00735098  0.49943208  1
  Te  Te200  1  0.33439551  -0.00582294  0.83713364  1
  Te  Te201  1  0.33779508  0.33352783  0.17173578  1
  Te  Te202  1  0.33474670  0.33484225  0.49283712  1
  Te  Te203  1  0.34382648  0.33559368  0.83342020  1
  Te  Te204  1  0.33773584  0.66582853  0.16336394  1
  Te  Te205  1  0.33772911  0.67160296  0.50187864  1
  Te  Te206  1  0.33819046  0.67220099  0.83390651  1
  Te  Te207  1  0.66716579  -0.00099412  0.16506990  1
  Te  Te208  1  0.66872183  -0.00344081  0.50284413  1
  Te  Te209  1  0.66324788  -0.00191240  0.83549610  1
  Te  Te210  1  0.66682264  0.33647862  0.16493268  1
  Te  Te211  1  0.66594858  0.33488330  0.49720861  1
  Te  Te212  1  0.66185532  0.33540622  0.83662134  1
  Te  Te213  1  0.66704170  0.66946011  0.16613902  1
  Te  Te214  1  0.66881140  0.66903795  0.49870034  1
  Te  Te215  1  0.66182804  0.66831537  0.83121015  1
