# generated using pymatgen
data_AgSbTe2
_symmetry_space_group_name_H-M   'P 1'
_cell_length_a   18.33474407
_cell_length_b   18.33870366
_cell_length_c   18.33868881
_cell_angle_alpha   90.00129378
_cell_angle_beta   89.99782722
_cell_angle_gamma   89.99947994
_symmetry_Int_Tables_number   1
_chemical_formula_structural   AgSbTe2
_chemical_formula_sum   'Ag54 Sb54 Te108'
_cell_volume   6166.11705937
_cell_formula_units_Z   54
loop_
 _symmetry_equiv_pos_site_id
 _symmetry_equiv_pos_as_xyz
  1  'x, y, z'
loop_
 _atom_site_type_symbol
 _atom_site_label
 _atom_site_symmetry_multiplicity
 _atom_site_fract_x
 _atom_site_fract_y
 _atom_site_fract_z
 _atom_site_occupancy
  Ag  Ag0  1  0.84060193  0.34443226  0.82728110  1
  Ag  Ag1  1  0.16222354  0.50487663  0.67087555  1
  Ag  Ag2  1  -0.00225959  0.33678714  -0.00870903  1
  Ag  Ag3  1  0.67672570  0.83172885  0.82484036  1
  Ag  Ag4  1  -0.00284409  0.82491728  0.82769188  1
  Ag  Ag5  1  0.83474023  0.66439209  0.17086270  1
  Ag  Ag6  1  -0.00538921  0.66553405  0.33869432  1
  Ag  Ag7  1  0.32492325  0.49734538  0.83090559  1
  Ag  Ag8  1  -0.00346401  0.66456528  0.66884817  1
  Ag  Ag9  1  0.83810741  0.49676984  -0.01074789  1
  Ag  Ag10  1  -0.00375436  0.00345340  -0.00815416  1
  Ag  Ag11  1  0.49722143  0.50616607  0.67022650  1
  Ag  Ag12  1  0.50504622  0.66348997  0.82451200  1
  Ag  Ag13  1  0.83680804  0.49520351  0.67175653  1
  Ag  Ag14  1  0.33519281  0.66544863  0.34296601  1
  Ag  Ag15  1  0.32783529  0.17638835  0.83056114  1
  Ag  Ag16  1  -0.00001867  0.49693585  0.83051508  1
  Ag  Ag17  1  0.50023644  0.49845699  -0.01037915  1
  Ag  Ag18  1  0.67670428  0.33531542  0.66618686  1
  Ag  Ag19  1  -0.00645354  0.34558239  0.67614862  1
  Ag  Ag20  1  0.67408352  0.83226236  0.50581158  1
  Ag  Ag21  1  0.49698485  -0.00486658  0.82839611  1
  Ag  Ag22  1  0.33405198  0.17397953  0.51260128  1
  Ag  Ag23  1  0.33328360  0.82980397  0.16875648  1
  Ag  Ag24  1  0.83497876  0.17819821  0.67280288  1
  Ag  Ag25  1  0.83090090  -0.01079327  0.50275594  1
  Ag  Ag26  1  0.83487720  -0.00220909  0.16800288  1
  Ag  Ag27  1  0.83630417  0.33967354  0.51286510  1
  Ag  Ag28  1  0.66857143  -0.00389998  0.66689984  1
  Ag  Ag29  1  0.33916081  0.66188835  0.66437021  1
  Ag  Ag30  1  0.49968028  0.82482811  0.66718559  1
  Ag  Ag31  1  0.16165767  0.00505632  0.83178773  1
  Ag  Ag32  1  0.50279365  0.17534900  -0.00555348  1
  Ag  Ag33  1  0.33803063  0.50177871  0.51361146  1
  Ag  Ag34  1  0.50569970  -0.01018521  0.50957023  1
  Ag  Ag35  1  0.15853057  0.83231645  0.34158972  1
  Ag  Ag36  1  0.66992198  0.50136902  0.16637661  1
  Ag  Ag37  1  0.83479316  0.34306183  0.15804090  1
  Ag  Ag38  1  0.15698656  0.33692128  0.83298515  1
  Ag  Ag39  1  -0.00389311  0.65805769  -0.01506237  1
  Ag  Ag40  1  0.83773838  0.17750402  -0.00833155  1
  Ag  Ag41  1  0.32659650  0.33699620  -0.00475871  1
  Ag  Ag42  1  0.50206769  0.66839176  0.50654112  1
  Ag  Ag43  1  0.83281023  0.66808174  0.50160250  1
  Ag  Ag44  1  0.15654055  0.49771003  -0.00931729  1
  Ag  Ag45  1  0.16521675  0.16296705  0.33707771  1
  Ag  Ag46  1  -0.00787927  0.83024286  0.50628831  1
  Ag  Ag47  1  0.67583909  0.66548902  0.33654147  1
  Ag  Ag48  1  -0.00183230  0.34441910  0.33619924  1
  Ag  Ag49  1  0.83689823  0.66061632  0.82684061  1
  Ag  Ag50  1  -0.00088927  0.17951185  0.83252119  1
  Ag  Ag51  1  0.16402225  0.82515375  0.66641707  1
  Ag  Ag52  1  0.83920521  0.82837867  0.33850825  1
  Ag  Ag53  1  0.49760311  0.50379460  0.34387628  1
  Sb  Sb54  1  0.33668846  -0.00501479  0.66833128  1
  Sb  Sb55  1  0.00058862  0.83112092  0.16743561  1
  Sb  Sb56  1  0.67405137  0.33632585  -0.00602589  1
  Sb  Sb57  1  -0.00028572  0.16633015  0.50503143  1
  Sb  Sb58  1  0.66758565  0.82852648  0.16909206  1
  Sb  Sb59  1  -0.00259404  0.16833502  0.16055638  1
  Sb  Sb60  1  -0.00667835  0.50042981  0.15608000  1
  Sb  Sb61  1  0.33191174  0.16575367  0.16218203  1
  Sb  Sb62  1  0.83429867  0.50661792  0.33452329  1
  Sb  Sb63  1  0.83567135  0.82974760  0.00090461  1
  Sb  Sb64  1  0.16077001  0.33415545  0.16183368  1
  Sb  Sb65  1  0.66667646  0.16185778  0.50293427  1
  Sb  Sb66  1  0.33014347  0.66051217  -0.00504607  1
  Sb  Sb67  1  0.50168821  0.16734067  0.66998634  1
  Sb  Sb68  1  0.16466121  0.66701514  0.50423859  1
  Sb  Sb69  1  -0.00081161  -0.00287276  0.33227071  1
  Sb  Sb70  1  0.33049661  0.34120435  0.67032306  1
  Sb  Sb71  1  0.16362004  0.16784561  0.66882558  1
  Sb  Sb72  1  -0.00321413  -0.00409211  0.67156770  1
  Sb  Sb73  1  0.33095492  0.00319057  -0.00415603  1
  Sb  Sb74  1  0.33359837  -0.00557284  0.33518042  1
  Sb  Sb75  1  0.16303846  0.66685884  0.16749760  1
  Sb  Sb76  1  0.67012621  0.50474271  0.83280289  1
  Sb  Sb77  1  0.32920492  0.82811301  0.83332241  1
  Sb  Sb78  1  0.50200774  0.33616277  0.83335009  1
  Sb  Sb79  1  0.50561321  0.33692190  0.16442265  1
  Sb  Sb80  1  0.33294575  0.82812283  0.49976331  1
  Sb  Sb81  1  0.50362538  0.33779252  0.50139173  1
  Sb  Sb82  1  0.16288663  0.82867678  -0.00500686  1
  Sb  Sb83  1  0.50441426  -0.00076004  0.16352316  1
  Sb  Sb84  1  0.16604905  -0.00084594  0.50397405  1
  Sb  Sb85  1  0.16231271  0.33371551  0.50555442  1
  Sb  Sb86  1  0.83540641  -0.00115862  0.82995454  1
  Sb  Sb87  1  0.66824152  0.66726516  0.66360325  1
  Sb  Sb88  1  0.49423275  0.17073572  0.33438074  1
  Sb  Sb89  1  0.33717244  0.50295308  0.16223382  1
  Sb  Sb90  1  -0.00032862  0.50419824  0.50823840  1
  Sb  Sb91  1  0.67072624  0.00026564  -0.00547183  1
  Sb  Sb92  1  0.67155655  0.17169435  0.16448561  1
  Sb  Sb93  1  0.66858379  -0.00713393  0.33956792  1
  Sb  Sb94  1  0.50282074  0.66577290  0.16784100  1
  Sb  Sb95  1  0.67447545  0.34046633  0.33874090  1
  Sb  Sb96  1  0.32750884  0.33792521  0.33275408  1
  Sb  Sb97  1  0.16728766  0.50380947  0.33806882  1
  Sb  Sb98  1  0.16149517  -0.00256520  0.16252750  1
  Sb  Sb99  1  0.83293592  0.82960316  0.66295190  1
  Sb  Sb100  1  0.50060227  0.82579158  0.34183506  1
  Sb  Sb101  1  0.49909588  0.82947901  -0.00944751  1
  Sb  Sb102  1  0.83711068  0.16632390  0.33539064  1
  Sb  Sb103  1  0.66555918  0.50798020  0.50069808  1
  Sb  Sb104  1  0.16338869  0.17151097  -0.00243057  1
  Sb  Sb105  1  0.16134017  0.66152444  0.83013023  1
  Sb  Sb106  1  0.67286827  0.66373608  0.00117485  1
  Sb  Sb107  1  0.66928931  0.16414459  0.83081020  1
  Te  Te108  1  0.16555098  0.16534477  0.17518186  1
  Te  Te109  1  0.17117016  0.16626620  0.49757306  1
  Te  Te110  1  0.16638700  0.16675744  0.83380618  1
  Te  Te111  1  0.16710980  0.49947463  0.16081444  1
  Te  Te112  1  0.17543943  0.49923403  0.50691805  1
  Te  Te113  1  0.16626454  0.49956705  0.83167252  1
  Te  Te114  1  0.17077840  0.83433035  0.17010622  1
  Te  Te115  1  0.16327917  0.83433073  0.50281188  1
  Te  Te116  1  0.16256587  0.83551825  0.82826416  1
  Te  Te117  1  0.50069912  0.16646430  0.15998086  1
  Te  Te118  1  0.49295502  0.16582603  0.49886529  1
  Te  Te119  1  0.49997399  0.16677331  0.83710208  1
  Te  Te120  1  0.50615757  0.50007611  0.16310456  1
  Te  Te121  1  0.49857551  0.50311520  0.50278659  1
  Te  Te122  1  0.50508761  0.50307342  0.83058365  1
  Te  Te123  1  0.49688204  0.83514950  0.16629917  1
  Te  Te124  1  0.49920556  0.83204047  0.50620983  1
  Te  Te125  1  0.49566446  0.83392496  0.82701384  1
  Te  Te126  1  0.83379089  0.16239927  0.16334441  1
  Te  Te127  1  0.83314797  0.16866691  0.50326230  1
  Te  Te128  1  0.83580873  0.16338993  0.83328267  1
  Te  Te129  1  0.83119882  0.50359266  0.16923371  1
  Te  Te130  1  0.83293398  0.50118122  0.50351611  1
  Te  Te131  1  0.83268267  0.50301075  0.83251909  1
  Te  Te132  1  0.83263065  0.83066048  0.17060774  1
  Te  Te133  1  0.83420764  0.83054540  0.50054938  1
  Te  Te134  1  0.83435378  0.83001833  0.83512463  1
  Te  Te135  1  0.16104054  -0.00098315  -0.00592196  1
  Te  Te136  1  0.16801245  -0.00393060  0.33266780  1
  Te  Te137  1  0.16813785  -0.00303381  0.67245148  1
  Te  Te138  1  0.16339591  0.33735853  -0.00421443  1
  Te  Te139  1  0.15953493  0.33350961  0.33294999  1
  Te  Te140  1  0.16063025  0.33728276  0.67245295  1
  Te  Te141  1  0.15982248  0.66003108  0.00068487  1
  Te  Te142  1  0.16634700  0.67156407  0.33365643  1
  Te  Te143  1  0.16444293  0.66574338  0.66747698  1
  Te  Te144  1  0.50024252  -0.00144217  -0.00559604  1
  Te  Te145  1  0.50030239  0.00208501  0.33580173  1
  Te  Te146  1  0.50238567  0.00251896  0.66692218  1
  Te  Te147  1  0.50297652  0.33386190  -0.00025020  1
  Te  Te148  1  0.49983978  0.34088959  0.33280174  1
  Te  Te149  1  0.50203622  0.33723408  0.66589167  1
  Te  Te150  1  0.49891856  0.66242654  -0.00150268  1
  Te  Te151  1  0.49551900  0.66209246  0.33251804  1
  Te  Te152  1  0.50404853  0.66621435  0.66623772  1
  Te  Te153  1  0.83675574  -0.00059898  0.00111668  1
  Te  Te154  1  0.83237003  -0.00321307  0.33642383  1
  Te  Te155  1  0.82919867  0.00108304  0.66165560  1
  Te  Te156  1  0.83443181  0.33529283  -0.00083113  1
  Te  Te157  1  0.83987480  0.33186887  0.32817591  1
  Te  Te158  1  0.83502119  0.33434021  0.66805053  1
  Te  Te159  1  0.83694068  0.66300405  -0.00184692  1
  Te  Te160  1  0.83428196  0.66709120  0.33821123  1
  Te  Te161  1  0.83462995  0.66213184  0.66604551  1
  Te  Te162  1  -0.00297036  0.17017193  -0.00561714  1
  Te  Te163  1  0.00500127  0.16395852  0.33543241  1
  Te  Te164  1  -0.00381420  0.16702939  0.67137522  1
  Te  Te165  1  -0.00279794  0.49968657  -0.00453083  1
  Te  Te166  1  0.00319551  0.50360241  0.33674827  1
  Te  Te167  1  -0.00090345  0.50275504  0.66757083  1
  Te  Te168  1  0.00082104  0.83057981  -0.00449673  1
  Te  Te169  1  -0.00019520  0.83192440  0.33391662  1
  Te  Te170  1  0.00103313  0.83036409  0.66530553  1
  Te  Te171  1  0.33370560  0.17163442  -0.00524734  1
  Te  Te172  1  0.32755568  0.16801945  0.33158877  1
  Te  Te173  1  0.33290399  0.16742045  0.66990553  1
  Te  Te174  1  0.33886545  0.49597931  -0.00431712  1
  Te  Te175  1  0.33516690  0.50503359  0.33117756  1
  Te  Te176  1  0.33585003  0.50080811  0.66999069  1
  Te  Te177  1  0.33108273  0.83189311  0.00631316  1
  Te  Te178  1  0.33336610  0.82709899  0.33191824  1
  Te  Te179  1  0.33175739  0.82688277  0.66779297  1
  Te  Te180  1  0.66435269  0.16720233  -0.00005373  1
  Te  Te181  1  0.66308407  0.16664588  0.33252664  1
  Te  Te182  1  0.67155222  0.16673188  0.66548224  1
  Te  Te183  1  0.66261976  0.49919973  0.00376090  1
  Te  Te184  1  0.66146452  0.50477280  0.33201788  1
  Te  Te185  1  0.66805507  0.49623518  0.66572697  1
  Te  Te186  1  0.66527694  0.83365443  -0.00521347  1
  Te  Te187  1  0.66972981  0.82612116  0.33709041  1
  Te  Te188  1  0.66511137  0.83542418  0.66694748  1
  Te  Te189  1  -0.00583418  -0.00045787  0.15956905  1
  Te  Te190  1  -0.00331196  -0.00516592  0.50053499  1
  Te  Te191  1  0.00216437  -0.00587914  0.83437780  1
  Te  Te192  1  -0.00628556  0.33441742  0.17298893  1
  Te  Te193  1  -0.00504463  0.33266740  0.49717642  1
  Te  Te194  1  -0.00034543  0.33543429  0.83357731  1
  Te  Te195  1  -0.00521261  0.66621631  0.17536852  1
  Te  Te196  1  -0.00241926  0.66878890  0.50122588  1
  Te  Te197  1  -0.00251625  0.66699128  0.83027455  1
  Te  Te198  1  0.33430835  -0.00417731  0.16538790  1
  Te  Te199  1  0.33556712  0.00390169  0.50068761  1
  Te  Te200  1  0.33565865  0.00176720  0.83420595  1
  Te  Te201  1  0.33326984  0.33334525  0.15989855  1
  Te  Te202  1  0.33312412  0.33446839  0.49761359  1
  Te  Te203  1  0.33728623  0.33590315  0.83601575  1
  Te  Te204  1  0.33233274  0.66972427  0.16607705  1
  Te  Te205  1  0.33551118  0.66313669  0.50298584  1
  Te  Te206  1  0.33864331  0.66040765  0.82904715  1
  Te  Te207  1  0.67446485  -0.00050038  0.16696481  1
  Te  Te208  1  0.66622556  -0.00482881  0.50404862  1
  Te  Te209  1  0.66156871  -0.00551615  0.82854280  1
  Te  Te210  1  0.67481038  0.34020124  0.16979028  1
  Te  Te211  1  0.67341055  0.33112781  0.50505773  1
  Te  Te212  1  0.67428661  0.33105325  0.82602169  1
  Te  Te213  1  0.67224734  0.66341128  0.17063094  1
  Te  Te214  1  0.66643190  0.67153997  0.49696277  1
  Te  Te215  1  0.66621475  0.67382150  0.83590743  1
