# generated using pymatgen
data_AgSbTe2
_symmetry_space_group_name_H-M   'P 1'
_cell_length_a   18.32092950
_cell_length_b   18.32801223
_cell_length_c   18.31620411
_cell_angle_alpha   89.99990795
_cell_angle_beta   90.00045442
_cell_angle_gamma   90.00133237
_symmetry_Int_Tables_number   1
_chemical_formula_structural   AgSbTe2
_chemical_formula_sum   'Ag54 Sb54 Te108'
_cell_volume   6150.32894052
_cell_formula_units_Z   54
loop_
 _symmetry_equiv_pos_site_id
 _symmetry_equiv_pos_as_xyz
  1  'x, y, z'
loop_
 _atom_site_type_symbol
 _atom_site_label
 _atom_site_symmetry_multiplicity
 _atom_site_fract_x
 _atom_site_fract_y
 _atom_site_fract_z
 _atom_site_occupancy
  Ag  Ag0  1  0.00320690  0.16586858  0.16982236  1
  Ag  Ag1  1  0.66114372  0.33788724  0.33307014  1
  Ag  Ag2  1  0.16494967  0.17508893  0.66614128  1
  Ag  Ag3  1  0.66361705  0.33723852  -0.00801105  1
  Ag  Ag4  1  0.66871188  0.83699479  0.83400771  1
  Ag  Ag5  1  0.17182472  0.50976347  0.33380258  1
  Ag  Ag6  1  0.82670584  0.33907126  0.83463376  1
  Ag  Ag7  1  0.16598786  0.66371454  0.49680680  1
  Ag  Ag8  1  0.66102946  0.16813509  0.83398934  1
  Ag  Ag9  1  0.16875869  0.82367116  0.00086330  1
  Ag  Ag10  1  0.84083227  -0.00146042  0.50881789  1
  Ag  Ag11  1  0.50286243  0.66500878  0.83440046  1
  Ag  Ag12  1  0.82627417  -0.00710951  0.82751724  1
  Ag  Ag13  1  0.16676902  -0.00241237  0.17015738  1
  Ag  Ag14  1  0.33431761  0.34034744  -0.00671912  1
  Ag  Ag15  1  0.32957895  0.67103923  0.33114934  1
  Ag  Ag16  1  0.49409197  0.49964634  0.33483386  1
  Ag  Ag17  1  0.16461711  0.50371015  -0.00067251  1
  Ag  Ag18  1  0.67524426  -0.00113816  0.67190394  1
  Ag  Ag19  1  0.84024090  0.50236443  -0.00541875  1
  Ag  Ag20  1  0.49725634  0.33027503  0.50174087  1
  Ag  Ag21  1  0.00258139  0.83959206  0.50229285  1
  Ag  Ag22  1  0.16325017  0.83127683  0.66151719  1
  Ag  Ag23  1  0.66529459  0.49685414  0.50168853  1
  Ag  Ag24  1  0.32791150  0.66346596  0.00005112  1
  Ag  Ag25  1  0.32861652  -0.01057439  0.33300993  1
  Ag  Ag26  1  0.00658088  -0.00457224  0.34344559  1
  Ag  Ag27  1  0.00786909  0.33063746  0.67068841  1
  Ag  Ag28  1  0.33377532  0.50500476  0.16582828  1
  Ag  Ag29  1  0.83503847  0.82648511  -0.00843779  1
  Ag  Ag30  1  0.33107675  0.82743796  0.16849028  1
  Ag  Ag31  1  0.67065936  0.49403666  0.83484711  1
  Ag  Ag32  1  0.50371602  0.33103641  0.83374146  1
  Ag  Ag33  1  0.16920398  0.33950146  0.50442013  1
  Ag  Ag34  1  0.01071441  0.67118904  0.33229928  1
  Ag  Ag35  1  0.49824617  0.16776562  -0.00819424  1
  Ag  Ag36  1  0.34210853  0.16978787  0.83411698  1
  Ag  Ag37  1  0.49653768  0.83439761  -0.00497505  1
  Ag  Ag38  1  0.00124233  0.34233391  -0.00955164  1
  Ag  Ag39  1  0.50346316  0.00424861  0.50158380  1
  Ag  Ag40  1  0.17088162  0.82736689  0.33513344  1
  Ag  Ag41  1  0.50598275  0.00427389  0.83004917  1
  Ag  Ag42  1  0.49899645  0.16854346  0.33397836  1
  Ag  Ag43  1  0.83959909  0.83761248  0.67377149  1
  Ag  Ag44  1  0.82958819  0.66687608  0.83469970  1
  Ag  Ag45  1  0.00297399  0.15859102  0.50122251  1
  Ag  Ag46  1  0.16677684  0.49663257  0.66531510  1
  Ag  Ag47  1  0.65998705  0.49644319  0.16282933  1
  Ag  Ag48  1  0.00865284  0.66223041  -0.00070775  1
  Ag  Ag49  1  -0.00441592  0.49801362  0.83788319  1
  Ag  Ag50  1  0.32737892  0.33691628  0.67172402  1
  Ag  Ag51  1  -0.00215910  -0.00074074  0.66257922  1
  Ag  Ag52  1  0.32835449  0.66365088  0.66986325  1
  Ag  Ag53  1  0.48922852  0.83372534  0.33196058  1
  Sb  Sb54  1  0.16730835  0.33204004  0.16903787  1
  Sb  Sb55  1  0.33102076  0.16698580  0.16329645  1
  Sb  Sb56  1  0.83122215  0.16912808  -0.00495204  1
  Sb  Sb57  1  0.17017997  0.16994601  -0.00435677  1
  Sb  Sb58  1  0.66042131  0.82946269  0.15968893  1
  Sb  Sb59  1  0.32784164  0.83339341  0.49548391  1
  Sb  Sb60  1  0.66955089  0.83160510  0.50348822  1
  Sb  Sb61  1  0.00022325  -0.00144305  -0.00410969  1
  Sb  Sb62  1  0.66813606  0.17149664  0.16242989  1
  Sb  Sb63  1  0.66078027  0.66167321  0.33486430  1
  Sb  Sb64  1  0.49409272  0.66654931  0.50200349  1
  Sb  Sb65  1  0.66301184  0.00284691  0.33952379  1
  Sb  Sb66  1  0.49732999  0.83478428  0.66887877  1
  Sb  Sb67  1  0.66666889  0.16856865  0.50530738  1
  Sb  Sb68  1  -0.00105452  0.33353315  0.33638760  1
  Sb  Sb69  1  0.49959822  0.33480410  0.16366043  1
  Sb  Sb70  1  0.00467653  0.49774506  0.16076553  1
  Sb  Sb71  1  0.00111885  0.50023003  0.50371299  1
  Sb  Sb72  1  0.83908634  0.15975727  0.66909789  1
  Sb  Sb73  1  0.83782640  0.50350946  0.67470356  1
  Sb  Sb74  1  0.49531232  0.16734913  0.67049709  1
  Sb  Sb75  1  0.33027876  -0.00062239  0.66370133  1
  Sb  Sb76  1  0.33216759  0.49961679  0.49627525  1
  Sb  Sb77  1  0.00778717  0.83622495  0.16875308  1
  Sb  Sb78  1  -0.00114585  0.17173550  0.83051596  1
  Sb  Sb79  1  0.16899677  0.67035732  0.17054319  1
  Sb  Sb80  1  0.83338650  0.33065841  0.50837351  1
  Sb  Sb81  1  0.83132732  0.16672259  0.33460978  1
  Sb  Sb82  1  0.66318057  0.66880644  0.67015760  1
  Sb  Sb83  1  0.83942050  -0.00125099  0.16419176  1
  Sb  Sb84  1  0.33389798  0.49747125  0.83681279  1
  Sb  Sb85  1  0.66561441  0.66105127  -0.00433081  1
  Sb  Sb86  1  0.83506348  0.66608865  0.15898226  1
  Sb  Sb87  1  0.16365785  -0.00244252  0.49804766  1
  Sb  Sb88  1  -0.00615796  0.82944123  0.83098909  1
  Sb  Sb89  1  0.66631999  0.33044653  0.67135778  1
  Sb  Sb90  1  0.16876598  0.33520178  0.82759579  1
  Sb  Sb91  1  0.16599604  -0.00177714  0.83375035  1
  Sb  Sb92  1  0.33780058  0.33589061  0.33389326  1
  Sb  Sb93  1  0.33052435  0.16763708  0.50368386  1
  Sb  Sb94  1  0.49498998  0.49798455  0.66473164  1
  Sb  Sb95  1  0.33401085  -0.00329541  0.00186656  1
  Sb  Sb96  1  0.49574307  -0.00101943  0.16808411  1
  Sb  Sb97  1  0.83402082  0.50131442  0.32799944  1
  Sb  Sb98  1  0.84054377  0.67000668  0.50612652  1
  Sb  Sb99  1  0.83773289  0.83356885  0.33395008  1
  Sb  Sb100  1  0.49804948  0.49920961  0.00027082  1
  Sb  Sb101  1  0.49636130  0.66542967  0.16094469  1
  Sb  Sb102  1  0.16970502  0.16539211  0.33801424  1
  Sb  Sb103  1  0.16777264  0.66563145  0.83270270  1
  Sb  Sb104  1  0.66558547  0.00277997  -0.00826868  1
  Sb  Sb105  1  0.83364229  0.33505875  0.15857596  1
  Sb  Sb106  1  0.00640382  0.66707288  0.67048720  1
  Sb  Sb107  1  0.33798742  0.83416024  0.83755368  1
  Te  Te108  1  0.16331826  0.16084686  0.16665745  1
  Te  Te109  1  0.16350371  0.17060842  0.50507191  1
  Te  Te110  1  0.17091480  0.16474838  0.82699993  1
  Te  Te111  1  0.17161934  0.49822511  0.16632129  1
  Te  Te112  1  0.16552257  0.50049935  0.50006006  1
  Te  Te113  1  0.16248696  0.50083338  0.83676652  1
  Te  Te114  1  0.17128881  0.83720302  0.16647804  1
  Te  Te115  1  0.16236086  0.83138424  0.49814088  1
  Te  Te116  1  0.16676267  0.83346117  0.83771015  1
  Te  Te117  1  0.50038819  0.16613593  0.16782468  1
  Te  Te118  1  0.50058588  0.16842145  0.49753702  1
  Te  Te119  1  0.50055899  0.16754403  0.83258616  1
  Te  Te120  1  0.49883601  0.50030353  0.17359193  1
  Te  Te121  1  0.50352795  0.49846443  0.49630555  1
  Te  Te122  1  0.50384203  0.49872869  0.83309983  1
  Te  Te123  1  0.49361254  0.83272000  0.16606159  1
  Te  Te124  1  0.50175668  0.83531198  0.49607110  1
  Te  Te125  1  0.50446263  0.83460356  0.83422233  1
  Te  Te126  1  0.84145527  0.16639416  0.16572142  1
  Te  Te127  1  0.83772241  0.16082429  0.50062677  1
  Te  Te128  1  0.82677568  0.16700184  0.83388514  1
  Te  Te129  1  0.82791139  0.50010244  0.15726183  1
  Te  Te130  1  0.82783590  0.50064476  0.50019033  1
  Te  Te131  1  0.83293833  0.50001465  0.83607881  1
  Te  Te132  1  0.83039653  0.83347169  0.15765391  1
  Te  Te133  1  0.83755123  0.83790369  0.50271843  1
  Te  Te134  1  0.83175916  0.83390671  0.83387641  1
  Te  Te135  1  0.16611939  -0.00213275  0.00363548  1
  Te  Te136  1  0.16696522  -0.00001132  0.33284157  1
  Te  Te137  1  0.16238572  -0.00735044  0.66592554  1
  Te  Te138  1  0.16713174  0.33627053  0.00146063  1
  Te  Te139  1  0.16647648  0.33572663  0.34038168  1
  Te  Te140  1  0.16767551  0.33645547  0.66534129  1
  Te  Te141  1  0.16750987  0.66560691  -0.00133030  1
  Te  Te142  1  0.16793550  0.66708045  0.33401834  1
  Te  Te143  1  0.16985374  0.66827005  0.66563564  1
  Te  Te144  1  0.49980857  -0.00025575  -0.00288790  1
  Te  Te145  1  0.49922378  -0.00287945  0.33489704  1
  Te  Te146  1  0.49856179  0.00038380  0.66623316  1
  Te  Te147  1  0.49842931  0.33280815  -0.00274425  1
  Te  Te148  1  0.50117251  0.33620633  0.33582774  1
  Te  Te149  1  0.49533631  0.33309312  0.66573560  1
  Te  Te150  1  0.49573167  0.67024280  -0.00522260  1
  Te  Te151  1  0.49328676  0.66693240  0.33471451  1
  Te  Te152  1  0.49148266  0.66648011  0.67155552  1
  Te  Te153  1  0.83331119  -0.00490426  -0.00544580  1
  Te  Te154  1  0.83700388  -0.00056002  0.33649426  1
  Te  Te155  1  0.83534750  -0.00237311  0.66705870  1
  Te  Te156  1  0.83461087  0.33622286  -0.00636848  1
  Te  Te157  1  0.82652214  0.33432952  0.33518547  1
  Te  Te158  1  0.83882294  0.33454938  0.67383362  1
  Te  Te159  1  0.83259687  0.66554338  -0.00587032  1
  Te  Te160  1  0.83943070  0.66770160  0.33464402  1
  Te  Te161  1  0.83485325  0.67465310  0.67330529  1
  Te  Te162  1  0.00088845  0.16952560  0.00062891  1
  Te  Te163  1  -0.00039526  0.16428894  0.33634198  1
  Te  Te164  1  0.00468879  0.16761908  0.66457979  1
  Te  Te165  1  0.00182403  0.50023043  -0.00008568  1
  Te  Te166  1  0.00387212  0.50367150  0.33144709  1
  Te  Te167  1  0.00527145  0.49770961  0.67105489  1
  Te  Te168  1  0.00285567  0.82996131  0.00071113  1
  Te  Te169  1  0.00246554  0.83393204  0.33502323  1
  Te  Te170  1  0.00189717  0.83313012  0.66523114  1
  Te  Te171  1  0.33746753  0.17000991  -0.00386663  1
  Te  Te172  1  0.33873770  0.16608322  0.33213892  1
  Te  Te173  1  0.32612595  0.16815125  0.67097031  1
  Te  Te174  1  0.33166062  0.50163365  0.00212884  1
  Te  Te175  1  0.33210115  0.50093862  0.32975839  1
  Te  Te176  1  0.32725455  0.49970889  0.66778094  1
  Te  Te177  1  0.33251954  0.83061543  0.00327487  1
  Te  Te178  1  0.33158009  0.83161529  0.33204255  1
  Te  Te179  1  0.32721301  0.82963497  0.66729566  1
  Te  Te180  1  0.66147818  0.17372423  -0.00301315  1
  Te  Te181  1  0.66039806  0.17196011  0.33319015  1
  Te  Te182  1  0.66682223  0.16101382  0.67244635  1
  Te  Te183  1  0.66420375  0.49604351  -0.00281397  1
  Te  Te184  1  0.66681157  0.49776251  0.33255145  1
  Te  Te185  1  0.66733849  0.49978897  0.66980253  1
  Te  Te186  1  0.66268563  0.83228985  -0.00416072  1
  Te  Te187  1  0.66323756  0.83174631  0.33050877  1
  Te  Te188  1  0.66796413  0.83698160  0.67055211  1
  Te  Te189  1  0.00394353  0.00373559  0.16781495  1
  Te  Te190  1  0.00180723  -0.00044304  0.50101532  1
  Te  Te191  1  -0.00370670  0.00238784  0.82703998  1
  Te  Te192  1  -0.00014981  0.32761643  0.16433340  1
  Te  Te193  1  0.00183974  0.33160835  0.50480078  1
  Te  Te194  1  0.00019597  0.33536320  0.83284760  1
  Te  Te195  1  -0.00000215  0.66653593  0.16480316  1
  Te  Te196  1  0.00512564  0.66870210  0.49685896  1
  Te  Te197  1  -0.00405313  0.66204376  0.83860949  1
  Te  Te198  1  0.32898183  -0.00101742  0.17173125  1
  Te  Te199  1  0.34220304  0.00065801  0.49505823  1
  Te  Te200  1  0.33855577  0.00491920  0.83276997  1
  Te  Te201  1  0.33244870  0.33659203  0.15882152  1
  Te  Te202  1  0.33549323  0.33360744  0.50466409  1
  Te  Te203  1  0.33619783  0.33282895  0.83294606  1
  Te  Te204  1  0.33358503  0.66620214  0.16537367  1
  Te  Te205  1  0.32717352  0.66624467  0.50123630  1
  Te  Te206  1  0.33829029  0.66615797  0.83517035  1
  Te  Te207  1  0.66950866  0.00085267  0.16834559  1
  Te  Te208  1  0.66429476  0.00001856  0.50708826  1
  Te  Te209  1  0.66563956  -0.00091160  0.83157731  1
  Te  Te210  1  0.66684395  0.33747772  0.16769926  1
  Te  Te211  1  0.66430459  0.33572180  0.50113014  1
  Te  Te212  1  0.66441068  0.33330159  0.83253742  1
  Te  Te213  1  0.66665524  0.65751173  0.16735281  1
  Te  Te214  1  0.66756523  0.65990560  0.50176710  1
  Te  Te215  1  0.66508350  0.66794907  0.83235959  1
