# generated using pymatgen
data_AgSbTe2
_symmetry_space_group_name_H-M   'P 1'
_cell_length_a   18.32686288
_cell_length_b   18.32247465
_cell_length_c   18.32486372
_cell_angle_alpha   90.00403401
_cell_angle_beta   90.00188564
_cell_angle_gamma   90.00083453
_symmetry_Int_Tables_number   1
_chemical_formula_structural   AgSbTe2
_chemical_formula_sum   'Ag54 Sb54 Te108'
_cell_volume   6153.36975056
_cell_formula_units_Z   54
loop_
 _symmetry_equiv_pos_site_id
 _symmetry_equiv_pos_as_xyz
  1  'x, y, z'
loop_
 _atom_site_type_symbol
 _atom_site_label
 _atom_site_symmetry_multiplicity
 _atom_site_fract_x
 _atom_site_fract_y
 _atom_site_fract_z
 _atom_site_occupancy
  Ag  Ag0  1  0.67225415  0.15989992  0.82841664  1
  Ag  Ag1  1  0.66489786  0.16180214  0.50944261  1
  Ag  Ag2  1  0.50168459  0.50127665  0.34122369  1
  Ag  Ag3  1  0.33127135  0.67095330  -0.00252182  1
  Ag  Ag4  1  0.83637605  0.15807341  -0.00487279  1
  Ag  Ag5  1  0.15760493  0.50241444  0.66324813  1
  Ag  Ag6  1  0.16160048  0.33676872  0.82488932  1
  Ag  Ag7  1  0.33272691  0.83269063  0.50699726  1
  Ag  Ag8  1  0.66501951  0.84093776  0.82441759  1
  Ag  Ag9  1  0.15658744  0.83301721  0.66665811  1
  Ag  Ag10  1  0.67446311  0.00204603  -0.01064509  1
  Ag  Ag11  1  0.16286642  0.34102957  0.50476861  1
  Ag  Ag12  1  0.00156243  0.34565286  0.66434435  1
  Ag  Ag13  1  0.50383148  0.00061920  0.82668910  1
  Ag  Ag14  1  0.83306459  0.00176678  0.15912262  1
  Ag  Ag15  1  0.84479069  0.50167267  0.66724612  1
  Ag  Ag16  1  -0.00579508  0.16528773  0.15473314  1
  Ag  Ag17  1  0.66224127  0.50144491  0.50167706  1
  Ag  Ag18  1  0.50919763  0.15752157  0.66650278  1
  Ag  Ag19  1  0.33363065  -0.00312969  -0.00846269  1
  Ag  Ag20  1  0.66954935  0.33764475  0.33701809  1
  Ag  Ag21  1  0.16882210  0.00060085  0.50524176  1
  Ag  Ag22  1  0.50019687  -0.00519656  0.50910467  1
  Ag  Ag23  1  0.66802989  0.83556627  0.50550398  1
  Ag  Ag24  1  0.15400195  0.16399232  -0.00273629  1
  Ag  Ag25  1  0.50184745  0.33583413  0.16797307  1
  Ag  Ag26  1  -0.00176430  0.34074260  0.34166942  1
  Ag  Ag27  1  0.50066209  0.49815100  0.65762083  1
  Ag  Ag28  1  0.33768404  0.16520603  0.16234609  1
  Ag  Ag29  1  -0.00787458  0.00222603  -0.00797856  1
  Ag  Ag30  1  -0.00277262  -0.00193985  0.67041024  1
  Ag  Ag31  1  0.16083985  0.49935559  0.34600896  1
  Ag  Ag32  1  0.66468686  0.00212976  0.67090109  1
  Ag  Ag33  1  0.66698988  0.66259911  0.33847881  1
  Ag  Ag34  1  0.33176954  0.50630733  0.50275176  1
  Ag  Ag35  1  0.50080469  0.65950663  0.17130293  1
  Ag  Ag36  1  -0.00370982  0.16614306  0.83401917  1
  Ag  Ag37  1  0.00191087  0.49791037  0.82241731  1
  Ag  Ag38  1  0.83357368  0.83277048  0.34746591  1
  Ag  Ag39  1  0.00029493  0.66927086  -0.00635188  1
  Ag  Ag40  1  0.16296094  0.66467898  0.83092349  1
  Ag  Ag41  1  0.83455384  0.50147633  -0.00607279  1
  Ag  Ag42  1  -0.00175253  0.82797586  0.50702841  1
  Ag  Ag43  1  0.83174893  0.15636101  0.67336292  1
  Ag  Ag44  1  0.50446013  0.50349313  -0.00084409  1
  Ag  Ag45  1  0.83439763  0.84251384  -0.00534102  1
  Ag  Ag46  1  0.00165379  0.65918167  0.66633386  1
  Ag  Ag47  1  0.33959238  -0.00261859  0.66864679  1
  Ag  Ag48  1  0.83877063  0.83801774  0.66645987  1
  Ag  Ag49  1  -0.00256442  0.66035394  0.34383959  1
  Ag  Ag50  1  0.00336915  0.50594028  0.50988841  1
  Ag  Ag51  1  0.33538552  0.83628489  0.82587441  1
  Ag  Ag52  1  0.66929668  0.16532542  0.16447676  1
  Ag  Ag53  1  0.50186669  0.66346925  0.49948978  1
  Sb  Sb54  1  0.66485782  0.49642900  0.17111003  1
  Sb  Sb55  1  0.33359573  0.33165106  0.00023430  1
  Sb  Sb56  1  0.16668616  0.66315272  0.50625369  1
  Sb  Sb57  1  0.16357630  0.00324461  0.16658788  1
  Sb  Sb58  1  0.50616380  0.82604784  0.33936339  1
  Sb  Sb59  1  0.83726236  0.33381414  0.50087435  1
  Sb  Sb60  1  0.50421993  0.16655157  -0.00329165  1
  Sb  Sb61  1  0.15949823  0.82677445  0.34649984  1
  Sb  Sb62  1  0.83235840  0.16265630  0.33319424  1
  Sb  Sb63  1  0.16878544  -0.00124093  0.82722018  1
  Sb  Sb64  1  0.66846160  0.67038759  0.00284692  1
  Sb  Sb65  1  0.83210895  0.66835727  0.50110039  1
  Sb  Sb66  1  0.66921328  0.83734022  0.16853887  1
  Sb  Sb67  1  0.49655734  0.33026712  0.83372653  1
  Sb  Sb68  1  0.32895337  0.50587665  0.82757627  1
  Sb  Sb69  1  0.67084818  0.49999056  0.82679608  1
  Sb  Sb70  1  0.16780038  0.33206254  0.16838468  1
  Sb  Sb71  1  0.83842009  0.66745676  0.83317687  1
  Sb  Sb72  1  0.32852409  0.33149160  0.66505455  1
  Sb  Sb73  1  0.83092169  0.66990713  0.16631415  1
  Sb  Sb74  1  -0.00441048  0.16627188  0.50679218  1
  Sb  Sb75  1  0.32933905  0.67311649  0.66779219  1
  Sb  Sb76  1  0.66703711  0.32798559  0.00242235  1
  Sb  Sb77  1  0.49699127  0.66947113  0.82922373  1
  Sb  Sb78  1  0.49893463  0.33754315  0.49858030  1
  Sb  Sb79  1  -0.00099971  0.49642270  0.16692381  1
  Sb  Sb80  1  0.33337368  0.66524479  0.33321296  1
  Sb  Sb81  1  0.16382004  0.17156365  0.33242668  1
  Sb  Sb82  1  -0.00202027  -0.00056943  0.33617759  1
  Sb  Sb83  1  0.67232372  0.32811454  0.66169525  1
  Sb  Sb84  1  0.16870226  0.66522226  0.16255640  1
  Sb  Sb85  1  0.33717411  0.49805818  0.16853682  1
  Sb  Sb86  1  0.83192437  -0.00174510  0.50349058  1
  Sb  Sb87  1  0.16126706  0.16582078  0.67065898  1
  Sb  Sb88  1  0.66753448  -0.00091727  0.33839886  1
  Sb  Sb89  1  0.67072505  0.67092688  0.66098136  1
  Sb  Sb90  1  0.33395090  -0.00119335  0.33740623  1
  Sb  Sb91  1  0.83123363  0.32753953  0.16656217  1
  Sb  Sb92  1  0.33321202  0.33605385  0.33474419  1
  Sb  Sb93  1  0.16235945  0.83740576  -0.00841823  1
  Sb  Sb94  1  -0.00237901  0.83398197  0.82586277  1
  Sb  Sb95  1  0.83312097  0.50462151  0.33742112  1
  Sb  Sb96  1  0.82719959  -0.00024612  0.83545822  1
  Sb  Sb97  1  0.50330038  0.17222945  0.33630188  1
  Sb  Sb98  1  0.50184116  0.83568173  0.66476592  1
  Sb  Sb99  1  -0.00227832  0.83678427  0.16856647  1
  Sb  Sb100  1  0.33176935  0.15991966  0.83467477  1
  Sb  Sb101  1  0.83830286  0.33006308  0.83090853  1
  Sb  Sb102  1  0.33707599  0.16494673  0.50044843  1
  Sb  Sb103  1  0.33549845  0.83638647  0.16467257  1
  Sb  Sb104  1  -0.00010162  0.32992598  -0.00398621  1
  Sb  Sb105  1  0.50337791  0.83104180  -0.00152033  1
  Sb  Sb106  1  0.16411828  0.49826252  -0.00564181  1
  Sb  Sb107  1  0.50411452  0.00246512  0.16482018  1
  Te  Te108  1  0.16412331  0.16733402  0.16171190  1
  Te  Te109  1  0.16742964  0.16429040  0.49981921  1
  Te  Te110  1  0.16423113  0.16908475  0.83728702  1
  Te  Te111  1  0.16871778  0.49905651  0.17311171  1
  Te  Te112  1  0.16444387  0.50124441  0.50266503  1
  Te  Te113  1  0.16275993  0.50011487  0.82942152  1
  Te  Te114  1  0.16795043  0.83384174  0.17061317  1
  Te  Te115  1  0.16672751  0.83468152  0.50700645  1
  Te  Te116  1  0.17071567  0.82975250  0.82704261  1
  Te  Te117  1  0.50308872  0.17005409  0.16738952  1
  Te  Te118  1  0.50425071  0.16589469  0.50401699  1
  Te  Te119  1  0.50218026  0.16335656  0.82853659  1
  Te  Te120  1  0.50030794  0.49968628  0.16377037  1
  Te  Te121  1  0.50150172  0.49886025  0.49984996  1
  Te  Te122  1  0.49963862  0.49967463  0.83630380  1
  Te  Te123  1  0.50056087  0.82673859  0.16975720  1
  Te  Te124  1  0.50132173  0.83319403  0.49929664  1
  Te  Te125  1  0.50031782  0.83713170  0.83365587  1
  Te  Te126  1  0.83261325  0.16287070  0.16537699  1
  Te  Te127  1  0.82554566  0.16565650  0.50440219  1
  Te  Te128  1  0.83371767  0.16672924  0.83384115  1
  Te  Te129  1  0.83222686  0.50002114  0.15809405  1
  Te  Te130  1  0.83554521  0.50090768  0.50434076  1
  Te  Te131  1  0.83778768  0.49900579  0.83135664  1
  Te  Te132  1  0.83337281  0.83877041  0.15509093  1
  Te  Te133  1  0.83346738  0.83396364  0.50464762  1
  Te  Te134  1  0.82759139  0.83275146  0.83164442  1
  Te  Te135  1  0.16874106  0.00368583  -0.00046481  1
  Te  Te136  1  0.16626765  -0.00097206  0.34178286  1
  Te  Te137  1  0.16570849  -0.00111716  0.66437727  1
  Te  Te138  1  0.16762386  0.32710597  -0.00144178  1
  Te  Te139  1  0.16172619  0.33830920  0.33705269  1
  Te  Te140  1  0.16253104  0.33310955  0.66563435  1
  Te  Te141  1  0.16423932  0.66754780  -0.00492772  1
  Te  Te142  1  0.16100683  0.65972555  0.33020563  1
  Te  Te143  1  0.16355559  0.66621705  0.67086080  1
  Te  Te144  1  0.49653830  -0.00064803  -0.00178617  1
  Te  Te145  1  0.50031899  -0.00041958  0.33906027  1
  Te  Te146  1  0.50246032  -0.00055475  0.66615870  1
  Te  Te147  1  0.49975641  0.34113623  0.00358113  1
  Te  Te148  1  0.50374483  0.33922323  0.33004959  1
  Te  Te149  1  0.49910773  0.33672832  0.66722128  1
  Te  Te150  1  0.49892091  0.66389702  -0.00017874  1
  Te  Te151  1  0.50049412  0.66109066  0.33541852  1
  Te  Te152  1  0.49936476  0.65942134  0.66178617  1
  Te  Te153  1  0.83389768  0.00164812  -0.00067643  1
  Te  Te154  1  0.83304677  -0.00754328  0.32512859  1
  Te  Te155  1  0.83211481  -0.00131202  0.66618517  1
  Te  Te156  1  0.83279579  0.33932515  0.00008175  1
  Te  Te157  1  0.83338040  0.33408750  0.33319935  1
  Te  Te158  1  0.84072401  0.33855513  0.66597659  1
  Te  Te159  1  0.83724895  0.66382101  0.00032135  1
  Te  Te160  1  0.83507428  0.67213875  0.33123924  1
  Te  Te161  1  0.83980348  0.66573421  0.66719494  1
  Te  Te162  1  -0.00348990  0.16653023  -0.00297987  1
  Te  Te163  1  -0.00082736  0.16951390  0.33288624  1
  Te  Te164  1  -0.00485251  0.15731313  0.67089306  1
  Te  Te165  1  -0.00104758  0.50221305  -0.00128006  1
  Te  Te166  1  -0.00111840  0.50068791  0.33417301  1
  Te  Te167  1  0.00125151  0.50213020  0.66649631  1
  Te  Te168  1  -0.00347740  0.83511130  -0.00073363  1
  Te  Te169  1  -0.00584873  0.82945069  0.33892462  1
  Te  Te170  1  -0.00140516  0.83787895  0.66564158  1
  Te  Te171  1  0.33645129  0.16327101  0.00210386  1
  Te  Te172  1  0.33283489  0.16712517  0.32565263  1
  Te  Te173  1  0.33856463  0.15979105  0.66622356  1
  Te  Te174  1  0.33386026  0.50493135  -0.00070071  1
  Te  Te175  1  0.33633236  0.50078805  0.33917349  1
  Te  Te176  1  0.33622679  0.49996628  0.66217698  1
  Te  Te177  1  0.33139490  0.83470088  -0.00242939  1
  Te  Te178  1  0.33031715  0.83208328  0.34083263  1
  Te  Te179  1  0.33387406  0.83696984  0.66526001  1
  Te  Te180  1  0.66995299  0.16263968  -0.00041386  1
  Te  Te181  1  0.66780253  0.17039152  0.33151047  1
  Te  Te182  1  0.66923271  0.16620633  0.66752247  1
  Te  Te183  1  0.66732009  0.50108037  -0.00317888  1
  Te  Te184  1  0.66675195  0.50153950  0.33735429  1
  Te  Te185  1  0.66401009  0.49962583  0.66276333  1
  Te  Te186  1  0.67130131  0.83848696  -0.00076746  1
  Te  Te187  1  0.67288570  0.82967711  0.33817141  1
  Te  Te188  1  0.66934228  0.83551705  0.66533240  1
  Te  Te189  1  -0.00293900  0.00479723  0.16486964  1
  Te  Te190  1  0.00227640  -0.00227252  0.50330434  1
  Te  Te191  1  0.00380754  0.00194748  0.83394280  1
  Te  Te192  1  0.00009090  0.32720194  0.17128120  1
  Te  Te193  1  0.00297102  0.33325168  0.50113144  1
  Te  Te194  1  0.00386304  0.33348036  0.83006511  1
  Te  Te195  1  0.00037748  0.66686653  0.16170969  1
  Te  Te196  1  0.00140529  0.66698969  0.50181793  1
  Te  Te197  1  0.00326338  0.66769320  0.83288959  1
  Te  Te198  1  0.33404719  0.00455679  0.16381038  1
  Te  Te199  1  0.33540546  -0.00213598  0.50322659  1
  Te  Te200  1  0.33593542  -0.00404787  0.83173020  1
  Te  Te201  1  0.33912491  0.32700779  0.16727657  1
  Te  Te202  1  0.32481616  0.33711591  0.49945366  1
  Te  Te203  1  0.32425161  0.33340670  0.83345630  1
  Te  Te204  1  0.33865044  0.66765310  0.15950006  1
  Te  Te205  1  0.33828076  0.66705816  0.50037779  1
  Te  Te206  1  0.32972772  0.67317582  0.83728860  1
  Te  Te207  1  0.66839199  0.00471482  0.16527783  1
  Te  Te208  1  0.66464254  -0.00085759  0.50347519  1
  Te  Te209  1  0.66362157  0.00043664  0.83222662  1
  Te  Te210  1  0.66284859  0.32901855  0.17156057  1
  Te  Te211  1  0.66627063  0.33539964  0.49540257  1
  Te  Te212  1  0.66446749  0.32647339  0.83270179  1
  Te  Te213  1  0.66059359  0.66702108  0.17202634  1
  Te  Te214  1  0.66343100  0.66702660  0.49739339  1
  Te  Te215  1  0.66500382  0.67315266  0.83351746  1
