# generated using pymatgen
data_AgSbTe2
_symmetry_space_group_name_H-M   'P 1'
_cell_length_a   18.32882801
_cell_length_b   18.32676960
_cell_length_c   18.32408195
_cell_angle_alpha   90.00304249
_cell_angle_beta   89.99955369
_cell_angle_gamma   89.99936461
_symmetry_Int_Tables_number   1
_chemical_formula_structural   AgSbTe2
_chemical_formula_sum   'Ag54 Sb54 Te108'
_cell_volume   6155.20952160
_cell_formula_units_Z   54
loop_
 _symmetry_equiv_pos_site_id
 _symmetry_equiv_pos_as_xyz
  1  'x, y, z'
loop_
 _atom_site_type_symbol
 _atom_site_label
 _atom_site_symmetry_multiplicity
 _atom_site_fract_x
 _atom_site_fract_y
 _atom_site_fract_z
 _atom_site_occupancy
  Ag  Ag0  1  0.17053761  -0.00078127  0.16703725  1
  Ag  Ag1  1  0.49810479  0.00179580  0.16334981  1
  Ag  Ag2  1  0.17014953  0.83187880  0.00078359  1
  Ag  Ag3  1  0.00096550  0.66899840  0.00084395  1
  Ag  Ag4  1  -0.00142749  0.17846332  0.49844060  1
  Ag  Ag5  1  0.66862579  0.33615042  0.00815199  1
  Ag  Ag6  1  0.33593231  0.33613804  0.00086132  1
  Ag  Ag7  1  -0.00963949  0.49522018  0.50598320  1
  Ag  Ag8  1  0.33639838  -0.00644415  0.00643245  1
  Ag  Ag9  1  0.17055198  0.65973877  0.83698106  1
  Ag  Ag10  1  0.33394039  0.67170446  0.33646454  1
  Ag  Ag11  1  0.67208020  0.49742040  0.51042875  1
  Ag  Ag12  1  -0.00513968  0.67310250  0.33614319  1
  Ag  Ag13  1  0.50030357  0.66584100  0.83129014  1
  Ag  Ag14  1  0.34038226  0.49983867  0.16451945  1
  Ag  Ag15  1  0.51233134  0.33161141  0.16318258  1
  Ag  Ag16  1  -0.00973086  0.33699261  0.66628926  1
  Ag  Ag17  1  0.66975695  0.66098492  0.34259371  1
  Ag  Ag18  1  0.66850877  0.17720039  0.50175706  1
  Ag  Ag19  1  0.66575000  0.00021667  0.00066380  1
  Ag  Ag20  1  0.66698081  0.17909693  0.83432022  1
  Ag  Ag21  1  0.15565328  0.33119342  0.50337375  1
  Ag  Ag22  1  0.66405727  0.66195771  -0.00220625  1
  Ag  Ag23  1  0.33537124  0.67023248  -0.00114617  1
  Ag  Ag24  1  0.66916100  0.33841907  0.32184810  1
  Ag  Ag25  1  0.00009537  -0.00546497  0.00641462  1
  Ag  Ag26  1  0.33263049  0.16637382  0.49877850  1
  Ag  Ag27  1  0.83152706  0.00599331  0.83639492  1
  Ag  Ag28  1  0.15565443  0.33767201  0.83335291  1
  Ag  Ag29  1  0.67142919  0.34211865  0.66675105  1
  Ag  Ag30  1  -0.00358935  0.83027654  0.49356134  1
  Ag  Ag31  1  0.16606426  0.16583465  0.33563234  1
  Ag  Ag32  1  0.34403814  0.66691922  0.66532988  1
  Ag  Ag33  1  -0.00453889  0.33697568  -0.00625264  1
  Ag  Ag34  1  0.83009582  0.33473356  0.83115244  1
  Ag  Ag35  1  0.83047645  0.33873328  0.50345300  1
  Ag  Ag36  1  0.00390341  -0.00739067  0.32873138  1
  Ag  Ag37  1  -0.00634681  0.49479514  0.82963646  1
  Ag  Ag38  1  0.66206837  0.65510444  0.66444668  1
  Ag  Ag39  1  -0.00084205  0.83515218  0.17134162  1
  Ag  Ag40  1  0.33314012  0.83144858  0.49801908  1
  Ag  Ag41  1  0.83010007  0.65946116  0.49834552  1
  Ag  Ag42  1  0.50155075  0.82572114  0.66855775  1
  Ag  Ag43  1  0.66501862  0.17928150  0.16315191  1
  Ag  Ag44  1  0.83770636  0.83143539  0.33634946  1
  Ag  Ag45  1  0.67185081  0.49558665  0.82319345  1
  Ag  Ag46  1  0.49810934  0.83217131  -0.00145746  1
  Ag  Ag47  1  0.66834573  0.82223399  0.49947716  1
  Ag  Ag48  1  0.51145470  0.50368924  0.66731545  1
  Ag  Ag49  1  0.82561868  0.49737096  0.66464945  1
  Ag  Ag50  1  0.32749621  -0.00456902  0.32728403  1
  Ag  Ag51  1  0.66375540  0.49250936  0.16591482  1
  Ag  Ag52  1  0.82477838  0.33484898  0.16405507  1
  Ag  Ag53  1  0.50420433  0.17378957  0.66501029  1
  Sb  Sb54  1  0.66704081  0.00040617  0.32872435  1
  Sb  Sb55  1  0.16957878  0.82972341  0.66939115  1
  Sb  Sb56  1  -0.00167847  0.00482093  0.66504011  1
  Sb  Sb57  1  0.33716343  0.33322993  0.33055952  1
  Sb  Sb58  1  0.16663827  0.16467330  0.00396395  1
  Sb  Sb59  1  0.50436656  -0.00322282  0.83915676  1
  Sb  Sb60  1  0.17009236  0.16971303  0.66117387  1
  Sb  Sb61  1  0.16198008  0.83604726  0.32954687  1
  Sb  Sb62  1  0.83308568  0.00024282  0.50228474  1
  Sb  Sb63  1  0.16652167  0.67143805  0.16230899  1
  Sb  Sb64  1  0.33661391  0.33795358  0.66950196  1
  Sb  Sb65  1  0.50837250  0.33251652  0.49890542  1
  Sb  Sb66  1  0.83153003  0.66067189  0.17183819  1
  Sb  Sb67  1  0.16616787  0.00417357  0.49270662  1
  Sb  Sb68  1  -0.00523258  0.17438456  0.82963726  1
  Sb  Sb69  1  0.83076443  0.50354823  0.34224189  1
  Sb  Sb70  1  0.50841920  0.66770216  0.50714951  1
  Sb  Sb71  1  -0.00063905  0.82811600  0.83528574  1
  Sb  Sb72  1  0.16216870  0.66404036  0.50238417  1
  Sb  Sb73  1  0.82580494  0.17669573  0.66589223  1
  Sb  Sb74  1  0.50495486  0.50118775  0.33571724  1
  Sb  Sb75  1  0.83104302  0.16945609  -0.00092320  1
  Sb  Sb76  1  0.82814336  0.82658961  0.66057559  1
  Sb  Sb77  1  -0.00435353  0.16388200  0.16975204  1
  Sb  Sb78  1  0.50335904  0.50451810  -0.00367211  1
  Sb  Sb79  1  -0.00593844  0.33466924  0.33601758  1
  Sb  Sb80  1  0.16538392  0.32908065  0.16508063  1
  Sb  Sb81  1  0.33111276  0.83230034  0.16795499  1
  Sb  Sb82  1  0.50027244  0.66548860  0.16059756  1
  Sb  Sb83  1  0.16585398  0.49714818  0.33461192  1
  Sb  Sb84  1  -0.00370000  0.50242594  0.16588755  1
  Sb  Sb85  1  -0.00314542  0.66065046  0.66610661  1
  Sb  Sb86  1  0.83011288  0.49791039  -0.00585776  1
  Sb  Sb87  1  0.33591366  0.50221559  0.83688105  1
  Sb  Sb88  1  0.33595884  0.50208460  0.49776224  1
  Sb  Sb89  1  0.16700265  0.50407589  -0.00067890  1
  Sb  Sb90  1  0.83095216  0.66191399  0.83015928  1
  Sb  Sb91  1  0.66929609  0.83119623  0.16893767  1
  Sb  Sb92  1  0.50824331  0.33837655  0.83704422  1
  Sb  Sb93  1  0.33841120  0.16684510  0.16968429  1
  Sb  Sb94  1  0.50190778  0.83201103  0.33302361  1
  Sb  Sb95  1  0.50034245  -0.00067255  0.49619803  1
  Sb  Sb96  1  0.33886229  0.16932031  0.83031967  1
  Sb  Sb97  1  0.33643322  -0.00401477  0.66546639  1
  Sb  Sb98  1  0.83219472  0.00318967  0.16401500  1
  Sb  Sb99  1  0.33403618  0.83057598  0.83450762  1
  Sb  Sb100  1  0.66673612  0.00108512  0.67174567  1
  Sb  Sb101  1  0.16160532  0.00118920  0.84333212  1
  Sb  Sb102  1  0.83291461  0.83255878  0.00364427  1
  Sb  Sb103  1  0.16656579  0.49962865  0.66786815  1
  Sb  Sb104  1  0.49921959  0.16655779  0.33632395  1
  Sb  Sb105  1  0.50366862  0.16434375  -0.00191109  1
  Sb  Sb106  1  0.83534832  0.16476829  0.33540887  1
  Sb  Sb107  1  0.66633561  0.82872719  0.83100348  1
  Te  Te108  1  0.16673314  0.16079387  0.17333831  1
  Te  Te109  1  0.16623162  0.17007296  0.49659250  1
  Te  Te110  1  0.16824303  0.17322100  0.83235122  1
  Te  Te111  1  0.17158271  0.49865466  0.16759723  1
  Te  Te112  1  0.16363580  0.49300936  0.50058176  1
  Te  Te113  1  0.16218077  0.49832278  0.83346529  1
  Te  Te114  1  0.16076327  0.83858391  0.16076890  1
  Te  Te115  1  0.16918380  0.83318690  0.50127185  1
  Te  Te116  1  0.16573817  0.82889099  0.84012764  1
  Te  Te117  1  0.50539830  0.16700968  0.16685155  1
  Te  Te118  1  0.50081606  0.16589645  0.50404495  1
  Te  Te119  1  0.50681433  0.16547298  0.82637376  1
  Te  Te120  1  0.50055199  0.49659671  0.16660523  1
  Te  Te121  1  0.50479811  0.49970354  0.50613799  1
  Te  Te122  1  0.50473735  0.50509451  0.82837418  1
  Te  Te123  1  0.50063692  0.83797544  0.16058610  1
  Te  Te124  1  0.49931877  0.83397825  0.50284696  1
  Te  Te125  1  0.50022322  0.82802464  0.83365226  1
  Te  Te126  1  0.82578535  0.17323521  0.16812013  1
  Te  Te127  1  0.83349824  0.16968482  0.50052174  1
  Te  Te128  1  0.82692035  0.16957021  0.83210454  1
  Te  Te129  1  0.82867287  0.49341705  0.16775087  1
  Te  Te130  1  0.83264268  0.49979155  0.50294956  1
  Te  Te131  1  0.83326216  0.49620189  0.82760443  1
  Te  Te132  1  0.83929858  0.83284792  0.17317626  1
  Te  Te133  1  0.83276007  0.83340793  0.49727032  1
  Te  Te134  1  0.83386113  0.83800617  0.83080631  1
  Te  Te135  1  0.16487085  -0.00335297  0.00500974  1
  Te  Te136  1  0.16638579  0.00193248  0.32852209  1
  Te  Te137  1  0.16789393  -0.00047532  0.67040424  1
  Te  Te138  1  0.16477357  0.33252513  -0.00243509  1
  Te  Te139  1  0.16657961  0.32804199  0.33619071  1
  Te  Te140  1  0.16748596  0.33336554  0.66678174  1
  Te  Te141  1  0.16556663  0.67020349  -0.00281760  1
  Te  Te142  1  0.16900043  0.66635210  0.33304313  1
  Te  Te143  1  0.17223923  0.66661612  0.67443207  1
  Te  Te144  1  0.49965715  -0.00311317  0.00262882  1
  Te  Te145  1  0.49470535  -0.00048714  0.32500509  1
  Te  Te146  1  0.49935233  -0.00650217  0.66832987  1
  Te  Te147  1  0.49998886  0.33295154  0.00285704  1
  Te  Te148  1  0.50655598  0.33369272  0.32580770  1
  Te  Te149  1  0.50344511  0.33451528  0.66785422  1
  Te  Te150  1  0.49994638  0.67064917  -0.00397557  1
  Te  Te151  1  0.49849085  0.66784849  0.33035813  1
  Te  Te152  1  0.50213468  0.66716874  0.66949034  1
  Te  Te153  1  0.83302755  -0.00046936  -0.00252068  1
  Te  Te154  1  0.83805284  -0.00624631  0.33318924  1
  Te  Te155  1  0.83430723  -0.00078998  0.67523362  1
  Te  Te156  1  0.83223878  0.33399879  -0.00261987  1
  Te  Te157  1  0.82746044  0.33191937  0.33728499  1
  Te  Te158  1  0.83316716  0.33658004  0.66581311  1
  Te  Te159  1  0.83399759  0.66701220  -0.00014002  1
  Te  Te160  1  0.83272619  0.67058864  0.33732753  1
  Te  Te161  1  0.82804978  0.66050398  0.66159463  1
  Te  Te162  1  0.00060503  0.16543306  -0.00011000  1
  Te  Te163  1  0.00285207  0.16456833  0.33755626  1
  Te  Te164  1  0.00162524  0.17307929  0.65887932  1
  Te  Te165  1  -0.00039260  0.50060506  -0.00199059  1
  Te  Te166  1  0.00023749  0.50770600  0.33551399  1
  Te  Te167  1  0.00002397  0.49599202  0.66617035  1
  Te  Te168  1  -0.00038647  0.83211516  -0.00037750  1
  Te  Te169  1  0.00117333  0.83228854  0.33389159  1
  Te  Te170  1  0.00012194  0.83358605  0.66027658  1
  Te  Te171  1  0.33488414  0.16782228  -0.00011051  1
  Te  Te172  1  0.33067578  0.16480358  0.33845595  1
  Te  Te173  1  0.34082359  0.16693425  0.66010517  1
  Te  Te174  1  0.33467919  0.50001047  0.00368448  1
  Te  Te175  1  0.33466847  0.50442435  0.32854717  1
  Te  Te176  1  0.33800280  0.50709687  0.66719295  1
  Te  Te177  1  0.33400693  0.83274197  0.00120901  1
  Te  Te178  1  0.33362064  0.83318898  0.33591402  1
  Te  Te179  1  0.33729170  0.82828195  0.66201385  1
  Te  Te180  1  0.66590336  0.16851750  -0.00024037  1
  Te  Te181  1  0.66722494  0.16857622  0.33811356  1
  Te  Te182  1  0.66218475  0.16559955  0.66393621  1
  Te  Te183  1  0.66561710  0.49985747  0.00478166  1
  Te  Te184  1  0.66661741  0.50161423  0.32901240  1
  Te  Te185  1  0.66731543  0.49996974  0.66705369  1
  Te  Te186  1  0.66469056  0.83246651  0.00029707  1
  Te  Te187  1  0.66938378  0.83067662  0.33808168  1
  Te  Te188  1  0.66206612  0.83279684  0.66120809  1
  Te  Te189  1  -0.00147894  -0.00153202  0.16615814  1
  Te  Te190  1  -0.00020739  -0.00528746  0.49676203  1
  Te  Te191  1  -0.00495119  0.00183323  0.83730975  1
  Te  Te192  1  -0.00438055  0.33355838  0.16263832  1
  Te  Te193  1  -0.00208718  0.33535936  0.49756102  1
  Te  Te194  1  -0.00280270  0.33475875  0.83370108  1
  Te  Te195  1  -0.00090635  0.66966075  0.16379630  1
  Te  Te196  1  -0.00208856  0.66756147  0.49917920  1
  Te  Te197  1  0.00049249  0.66090151  0.83520955  1
  Te  Te198  1  0.33366176  -0.00013201  0.16633104  1
  Te  Te199  1  0.33286822  -0.00055196  0.49659132  1
  Te  Te200  1  0.33146227  0.00117305  0.84140779  1
  Te  Te201  1  0.33296037  0.33571995  0.16241578  1
  Te  Te202  1  0.33254508  0.33171219  0.49998823  1
  Te  Te203  1  0.33018418  0.33433654  0.83907838  1
  Te  Te204  1  0.33312763  0.66377962  0.16354207  1
  Te  Te205  1  0.33043514  0.66735778  0.49816168  1
  Te  Te206  1  0.33329358  0.66631199  0.83792955  1
  Te  Te207  1  0.66403052  -0.00034979  0.16145824  1
  Te  Te208  1  0.66689120  0.00268760  0.49862501  1
  Te  Te209  1  0.67020748  -0.00004413  0.83995816  1
  Te  Te210  1  0.66832102  0.33444344  0.16618003  1
  Te  Te211  1  0.66809518  0.33605044  0.50651288  1
  Te  Te212  1  0.66786390  0.33509691  0.83092536  1
  Te  Te213  1  0.66647054  0.66333879  0.16139825  1
  Te  Te214  1  0.66870823  0.66515413  0.49997493  1
  Te  Te215  1  0.66617097  0.66273285  0.83636344  1
