# generated using pymatgen
data_AgSbTe2
_symmetry_space_group_name_H-M   'P 1'
_cell_length_a   18.32350149
_cell_length_b   18.32599437
_cell_length_c   18.31948421
_cell_angle_alpha   90.00098865
_cell_angle_beta   90.00138378
_cell_angle_gamma   90.00094455
_symmetry_Int_Tables_number   1
_chemical_formula_structural   AgSbTe2
_chemical_formula_sum   'Ag54 Sb54 Te108'
_cell_volume   6151.61657129
_cell_formula_units_Z   54
loop_
 _symmetry_equiv_pos_site_id
 _symmetry_equiv_pos_as_xyz
  1  'x, y, z'
loop_
 _atom_site_type_symbol
 _atom_site_label
 _atom_site_symmetry_multiplicity
 _atom_site_fract_x
 _atom_site_fract_y
 _atom_site_fract_z
 _atom_site_occupancy
  Ag  Ag0  1  0.50037551  0.67554332  0.50630944  1
  Ag  Ag1  1  0.49577475  0.50790361  0.66693024  1
  Ag  Ag2  1  0.82695741  0.83656390  0.65936344  1
  Ag  Ag3  1  0.66505572  -0.00045604  -0.00128208  1
  Ag  Ag4  1  0.66880015  0.16114819  0.50926905  1
  Ag  Ag5  1  0.82934419  0.67688771  0.49451506  1
  Ag  Ag6  1  0.83203554  0.66600658  0.83139702  1
  Ag  Ag7  1  0.16462587  0.51026052  0.33692746  1
  Ag  Ag8  1  0.01112143  0.50119079  0.83246090  1
  Ag  Ag9  1  0.16957656  0.49843644  -0.01351376  1
  Ag  Ag10  1  -0.00157352  0.83770600  0.49381960  1
  Ag  Ag11  1  0.49312119  0.66809469  0.82848969  1
  Ag  Ag12  1  0.83166402  -0.00673111  0.50124338  1
  Ag  Ag13  1  0.33017684  0.51098854  0.50732526  1
  Ag  Ag14  1  0.83459675  0.33739629  0.83018941  1
  Ag  Ag15  1  0.32329404  0.50920158  0.82524941  1
  Ag  Ag16  1  0.82561552  0.15929677  0.66517637  1
  Ag  Ag17  1  0.84267554  0.82937636  0.34270942  1
  Ag  Ag18  1  0.33709429  0.66792332  -0.00835761  1
  Ag  Ag19  1  -0.00307299  0.15599058  0.50446431  1
  Ag  Ag20  1  0.66402249  0.83158153  0.83277025  1
  Ag  Ag21  1  0.16669524  0.33407485  0.50651330  1
  Ag  Ag22  1  0.50610993  0.15844146  0.66893956  1
  Ag  Ag23  1  0.33267632  0.82970009  0.50168028  1
  Ag  Ag24  1  -0.00385299  -0.01287927  0.33976391  1
  Ag  Ag25  1  0.33617456  0.83212113  0.17291075  1
  Ag  Ag26  1  0.66718988  0.83392061  0.16316259  1
  Ag  Ag27  1  0.50323992  0.83557431  0.66581217  1
  Ag  Ag28  1  0.67140024  -0.00230957  0.34455082  1
  Ag  Ag29  1  0.33596107  0.82719149  0.82641261  1
  Ag  Ag30  1  0.66437654  0.32969817  -0.00406825  1
  Ag  Ag31  1  0.00249582  0.16919450  0.82738579  1
  Ag  Ag32  1  0.66336246  0.16314430  0.16433502  1
  Ag  Ag33  1  0.83738302  0.51180706  0.33510225  1
  Ag  Ag34  1  0.15554384  0.82976089  0.33735066  1
  Ag  Ag35  1  0.83005637  0.67024210  0.17613864  1
  Ag  Ag36  1  0.16727255  -0.00112780  0.82701983  1
  Ag  Ag37  1  0.50711158  -0.00492572  0.50525094  1
  Ag  Ag38  1  0.16337172  0.34561199  0.82987014  1
  Ag  Ag39  1  0.17151465  0.16895369  -0.00484143  1
  Ag  Ag40  1  0.17722232  0.65729557  0.83521731  1
  Ag  Ag41  1  0.33942723  -0.00245685  0.66446144  1
  Ag  Ag42  1  0.50348039  0.33013169  0.16392764  1
  Ag  Ag43  1  0.66572319  0.32517463  0.67209135  1
  Ag  Ag44  1  0.17584504  0.50022526  0.67401155  1
  Ag  Ag45  1  0.50149998  0.16653526  -0.00350145  1
  Ag  Ag46  1  0.32809511  0.67035753  0.33366604  1
  Ag  Ag47  1  0.66256361  0.00294311  0.66141378  1
  Ag  Ag48  1  0.66664518  0.50638461  0.16592618  1
  Ag  Ag49  1  0.66333730  0.66854793  -0.00124757  1
  Ag  Ag50  1  -0.00738934  0.83125288  0.17988402  1
  Ag  Ag51  1  0.00129142  0.67452856  0.33444767  1
  Ag  Ag52  1  0.34388894  0.16122465  0.16421288  1
  Ag  Ag53  1  0.16290136  -0.00151358  0.50337988  1
  Sb  Sb54  1  0.83111095  0.50182056  0.66520496  1
  Sb  Sb55  1  0.00541554  0.50360756  0.50290028  1
  Sb  Sb56  1  0.50372843  0.66615716  0.16566418  1
  Sb  Sb57  1  0.66512975  0.67117566  0.67094540  1
  Sb  Sb58  1  0.33387161  0.16176085  0.49845303  1
  Sb  Sb59  1  0.33516375  0.67101297  0.66771388  1
  Sb  Sb60  1  0.16722531  -0.00225571  0.16881599  1
  Sb  Sb61  1  0.49857566  -0.00532782  0.82566828  1
  Sb  Sb62  1  0.33165709  0.33924388  0.33415405  1
  Sb  Sb63  1  0.83655623  0.33199046  0.50469144  1
  Sb  Sb64  1  0.49722015  0.33152650  0.50076360  1
  Sb  Sb65  1  0.16901714  0.66820752  0.50075516  1
  Sb  Sb66  1  0.66804510  0.32965504  0.33289294  1
  Sb  Sb67  1  0.33694443  -0.00321297  -0.00419201  1
  Sb  Sb68  1  -0.00078805  0.66750479  0.66222392  1
  Sb  Sb69  1  0.16622012  0.16315319  0.33320375  1
  Sb  Sb70  1  0.00084215  0.33588124  0.33617312  1
  Sb  Sb71  1  -0.00098809  0.00044453  0.65893194  1
  Sb  Sb72  1  0.66414555  0.49809839  0.49807171  1
  Sb  Sb73  1  0.66862036  0.16240606  0.83089977  1
  Sb  Sb74  1  -0.00191182  0.33342729  -0.00414124  1
  Sb  Sb75  1  0.66549638  0.50538120  0.83547551  1
  Sb  Sb76  1  0.33689021  0.33254747  0.66746043  1
  Sb  Sb77  1  0.32948812  0.16505290  0.83551864  1
  Sb  Sb78  1  0.50109516  0.16488034  0.33428881  1
  Sb  Sb79  1  0.82815338  -0.00732846  0.17526004  1
  Sb  Sb80  1  0.16987832  0.83228491  0.00075185  1
  Sb  Sb81  1  0.49794869  0.49943595  -0.00453986  1
  Sb  Sb82  1  0.33708682  0.50346644  0.16667983  1
  Sb  Sb83  1  0.33249370  -0.00773248  0.33956805  1
  Sb  Sb84  1  0.50080859  0.33688839  0.83395812  1
  Sb  Sb85  1  0.16966830  0.83187644  0.66267912  1
  Sb  Sb86  1  -0.00003153  0.83216358  0.82889714  1
  Sb  Sb87  1  0.16701134  0.16818554  0.67002430  1
  Sb  Sb88  1  -0.00347903  0.50603803  0.16538228  1
  Sb  Sb89  1  0.82941776  0.16722487  -0.00606814  1
  Sb  Sb90  1  0.50291687  0.00120758  0.17048305  1
  Sb  Sb91  1  0.50168690  0.83614794  -0.00564246  1
  Sb  Sb92  1  0.83466686  -0.00149765  0.82527321  1
  Sb  Sb93  1  0.33623848  0.33594388  -0.00163650  1
  Sb  Sb94  1  0.17180984  0.33361922  0.16367859  1
  Sb  Sb95  1  0.00019957  0.66765990  0.00148766  1
  Sb  Sb96  1  0.67094622  0.67308666  0.33061837  1
  Sb  Sb97  1  0.82540922  0.33789482  0.16177209  1
  Sb  Sb98  1  0.83209755  0.16187187  0.34006837  1
  Sb  Sb99  1  -0.00288198  0.16006673  0.16768052  1
  Sb  Sb100  1  0.50236530  0.83267323  0.33983375  1
  Sb  Sb101  1  0.16587435  0.66795399  0.16628808  1
  Sb  Sb102  1  0.82959202  0.83228390  0.00026972  1
  Sb  Sb103  1  0.83413823  0.50257230  0.00012510  1
  Sb  Sb104  1  0.49989113  0.50350304  0.33745249  1
  Sb  Sb105  1  -0.00247446  0.33261693  0.66831209  1
  Sb  Sb106  1  -0.00238519  -0.00056315  0.00134541  1
  Sb  Sb107  1  0.66755565  0.83959808  0.50228427  1
  Te  Te108  1  0.16646272  0.16670494  0.16010816  1
  Te  Te109  1  0.16460664  0.16489425  0.50068150  1
  Te  Te110  1  0.16433772  0.16200537  0.83541595  1
  Te  Te111  1  0.16628396  0.49925138  0.17494797  1
  Te  Te112  1  0.16910095  0.50089433  0.49795899  1
  Te  Te113  1  0.16695785  0.50136760  0.83064453  1
  Te  Te114  1  0.17401736  0.83306213  0.17147887  1
  Te  Te115  1  0.16983687  0.83481964  0.49850080  1
  Te  Te116  1  0.16865972  0.83628953  0.83207285  1
  Te  Te117  1  0.50228770  0.16705632  0.16611682  1
  Te  Te118  1  0.50298503  0.16360118  0.50402203  1
  Te  Te119  1  0.49824780  0.16793670  0.83287930  1
  Te  Te120  1  0.50571124  0.49613685  0.16604655  1
  Te  Te121  1  0.49519942  0.50017796  0.50522609  1
  Te  Te122  1  0.49712058  0.50496580  0.82795920  1
  Te  Te123  1  0.49969398  0.83289632  0.16598021  1
  Te  Te124  1  0.49897320  0.83386451  0.50525124  1
  Te  Te125  1  0.49919094  0.82914324  0.82848318  1
  Te  Te126  1  0.82796523  0.16754228  0.16640245  1
  Te  Te127  1  0.83303328  0.16671027  0.50501808  1
  Te  Te128  1  0.83904181  0.16812750  0.82745684  1
  Te  Te129  1  0.82894633  0.50576172  0.16983227  1
  Te  Te130  1  0.83505651  0.50174237  0.49645292  1
  Te  Te131  1  0.83494986  0.50082031  0.83174515  1
  Te  Te132  1  0.82970201  0.82911610  0.16662067  1
  Te  Te133  1  0.83057690  0.83327767  0.50022182  1
  Te  Te134  1  0.83256801  0.83040434  0.83019053  1
  Te  Te135  1  0.16648198  0.00445180  -0.00373231  1
  Te  Te136  1  0.16389529  -0.00471935  0.33760561  1
  Te  Te137  1  0.17000579  -0.00006298  0.66530779  1
  Te  Te138  1  0.16683766  0.33322213  -0.00440447  1
  Te  Te139  1  0.16644353  0.33595932  0.33723089  1
  Te  Te140  1  0.16757594  0.33624285  0.66785457  1
  Te  Te141  1  0.16921205  0.66423648  -0.00375056  1
  Te  Te142  1  0.16626551  0.66948163  0.33407383  1
  Te  Te143  1  0.16521821  0.66170917  0.67357128  1
  Te  Te144  1  0.50477217  0.00655531  -0.00090540  1
  Te  Te145  1  0.50553986  -0.00009495  0.34322701  1
  Te  Te146  1  0.50142324  -0.00151893  0.66538516  1
  Te  Te147  1  0.50453617  0.32974230  0.00135142  1
  Te  Te148  1  0.49976075  0.33442795  0.32644474  1
  Te  Te149  1  0.50532085  0.33017294  0.66633979  1
  Te  Te150  1  0.50099223  0.66723725  -0.00390970  1
  Te  Te151  1  0.49369148  0.66622791  0.33927532  1
  Te  Te152  1  0.50116259  0.66772447  0.66686424  1
  Te  Te153  1  0.82657280  0.00085674  -0.00005698  1
  Te  Te154  1  0.83296591  -0.00412436  0.34043226  1
  Te  Te155  1  0.83041412  -0.00043896  0.66175914  1
  Te  Te156  1  0.82544541  0.33473440  -0.00820175  1
  Te  Te157  1  0.83408749  0.34093781  0.33253056  1
  Te  Te158  1  0.82735580  0.33307643  0.67095662  1
  Te  Te159  1  0.82903831  0.66615810  -0.00581021  1
  Te  Te160  1  0.83182327  0.66932382  0.33488213  1
  Te  Te161  1  0.83192428  0.67005706  0.66674749  1
  Te  Te162  1  0.00324484  0.16573449  -0.00242870  1
  Te  Te163  1  -0.00081990  0.16311292  0.33786227  1
  Te  Te164  1  -0.00286958  0.16649386  0.66654181  1
  Te  Te165  1  0.00772838  0.50006830  -0.00448840  1
  Te  Te166  1  0.00062518  0.50419151  0.33361143  1
  Te  Te167  1  0.00317734  0.49996035  0.67176793  1
  Te  Te168  1  0.00111208  0.83436400  0.00914531  1
  Te  Te169  1  -0.00069658  0.83144303  0.33529065  1
  Te  Te170  1  -0.00745361  0.83356401  0.66004925  1
  Te  Te171  1  0.33523698  0.16594675  0.00378818  1
  Te  Te172  1  0.33274561  0.16571883  0.32442822  1
  Te  Te173  1  0.33951170  0.16087982  0.66653175  1
  Te  Te174  1  0.32981859  0.50557025  -0.00109376  1
  Te  Te175  1  0.33012740  0.50636280  0.33565483  1
  Te  Te176  1  0.33466783  0.49703263  0.66592648  1
  Te  Te177  1  0.33505623  0.82853153  -0.00063670  1
  Te  Te178  1  0.33592424  0.82996252  0.33526279  1
  Te  Te179  1  0.33449666  0.83686210  0.66544051  1
  Te  Te180  1  0.66453405  0.16733716  -0.00076191  1
  Te  Te181  1  0.66802627  0.16118188  0.32939275  1
  Te  Te182  1  0.66645026  0.16457811  0.66893974  1
  Te  Te183  1  0.66594728  0.50217860  0.00462209  1
  Te  Te184  1  0.66988901  0.49905822  0.32900496  1
  Te  Te185  1  0.66207191  0.49485415  0.66624162  1
  Te  Te186  1  0.66552797  0.83177583  0.00013160  1
  Te  Te187  1  0.66866676  0.83860423  0.32676379  1
  Te  Te188  1  0.66584300  0.83623338  0.66941159  1
  Te  Te189  1  -0.00152281  -0.00637598  0.17382190  1
  Te  Te190  1  0.00131776  -0.00124334  0.49845334  1
  Te  Te191  1  0.00515518  0.00165150  0.83412770  1
  Te  Te192  1  -0.00186099  0.33166127  0.16643101  1
  Te  Te193  1  0.00612601  0.32823018  0.50126293  1
  Te  Te194  1  0.00067125  0.33246041  0.83319763  1
  Te  Te195  1  -0.00584161  0.67137004  0.17049282  1
  Te  Te196  1  -0.00440494  0.67073975  0.49517577  1
  Te  Te197  1  -0.00484725  0.66540948  0.83392301  1
  Te  Te198  1  0.33521456  -0.00203068  0.16669284  1
  Te  Te199  1  0.33073471  -0.00285962  0.50319091  1
  Te  Te200  1  0.32969502  -0.00382157  0.82921346  1
  Te  Te201  1  0.34023712  0.32969952  0.16677257  1
  Te  Te202  1  0.32688349  0.33468307  0.49945995  1
  Te  Te203  1  0.32713663  0.33836974  0.83372576  1
  Te  Te204  1  0.33516446  0.67065267  0.16821852  1
  Te  Te205  1  0.33492613  0.66875092  0.49948824  1
  Te  Te206  1  0.33373672  0.66853973  0.83226379  1
  Te  Te207  1  0.66614423  -0.00015316  0.16064070  1
  Te  Te208  1  0.66752956  0.00154814  0.50164243  1
  Te  Te209  1  0.66724982  -0.00700446  0.83451113  1
  Te  Te210  1  0.66338575  0.32837974  0.16468346  1
  Te  Te211  1  0.66703752  0.32585789  0.50237710  1
  Te  Te212  1  0.66793334  0.33431334  0.83387998  1
  Te  Te213  1  0.66864716  0.66849165  0.16377505  1
  Te  Te214  1  0.66555697  0.66433098  0.49904323  1
  Te  Te215  1  0.66985813  0.67018396  0.83689057  1
