# generated using pymatgen
data_AgSbTe2
_symmetry_space_group_name_H-M   'P 1'
_cell_length_a   18.37132685
_cell_length_b   18.36959800
_cell_length_c   18.36432054
_cell_angle_alpha   90.00191399
_cell_angle_beta   89.99827371
_cell_angle_gamma   90.00362597
_symmetry_Int_Tables_number   1
_chemical_formula_structural   AgSbTe2
_chemical_formula_sum   'Ag54 Sb54 Te108'
_cell_volume   6197.47865297
_cell_formula_units_Z   54
loop_
 _symmetry_equiv_pos_site_id
 _symmetry_equiv_pos_as_xyz
  1  'x, y, z'
loop_
 _atom_site_type_symbol
 _atom_site_label
 _atom_site_symmetry_multiplicity
 _atom_site_fract_x
 _atom_site_fract_y
 _atom_site_fract_z
 _atom_site_occupancy
  Ag  Ag0  1  0.00762959  0.16711428  0.51033516  1
  Ag  Ag1  1  0.82315712  0.33573907  0.16604736  1
  Ag  Ag2  1  0.66101894  0.32369377  0.66529406  1
  Ag  Ag3  1  0.33055437  0.00644917  -0.00069017  1
  Ag  Ag4  1  0.16936838  0.32940440  0.15677256  1
  Ag  Ag5  1  0.00856367  0.48785565  0.83726750  1
  Ag  Ag6  1  0.66497279  0.16979507  0.51414705  1
  Ag  Ag7  1  0.66447933  0.33116026  0.32425429  1
  Ag  Ag8  1  0.32888834  0.48630260  0.83362279  1
  Ag  Ag9  1  0.00469725  0.00701888  0.67073288  1
  Ag  Ag10  1  0.34320636  0.16973196  0.15611063  1
  Ag  Ag11  1  0.66945134  0.01018207  0.67346873  1
  Ag  Ag12  1  0.16665469  0.16814360  0.67987776  1
  Ag  Ag13  1  0.32864997  0.16787969  0.83529190  1
  Ag  Ag14  1  0.49715532  0.00629532  0.51024057  1
  Ag  Ag15  1  0.33326210  0.65781229  0.66920862  1
  Ag  Ag16  1  0.83329243  0.49719589  0.00150285  1
  Ag  Ag17  1  0.16699119  0.65958233  0.16348420  1
  Ag  Ag18  1  0.83849297  0.84553870  0.66934283  1
  Ag  Ag19  1  0.66035499  0.16674975  0.83143797  1
  Ag  Ag20  1  0.50151801  0.17050219  0.31576477  1
  Ag  Ag21  1  0.50661160  0.66159385  0.16447673  1
  Ag  Ag22  1  0.66814861  0.48511845  0.49472253  1
  Ag  Ag23  1  0.66818696  0.65529996  0.00325815  1
  Ag  Ag24  1  0.33777831  0.32931530  0.33540228  1
  Ag  Ag25  1  0.16656506  0.32433303  0.83588415  1
  Ag  Ag26  1  0.83154524  0.49560085  0.31827659  1
  Ag  Ag27  1  0.50018601  0.48337213  0.66817074  1
  Ag  Ag28  1  0.49703537  0.16437430  -0.00119743  1
  Ag  Ag29  1  -0.00086058  0.66406621  0.33237503  1
  Ag  Ag30  1  0.66849488  0.48820396  0.16372448  1
  Ag  Ag31  1  0.50996073  0.32594044  0.16628509  1
  Ag  Ag32  1  0.49851226  0.01361592  0.15882657  1
  Ag  Ag33  1  0.67259068  0.33125941  0.01102962  1
  Ag  Ag34  1  0.16607058  0.01220289  0.51411449  1
  Ag  Ag35  1  0.15912014  0.48168889  -0.00164636  1
  Ag  Ag36  1  0.33904715  0.33095971  0.66645451  1
  Ag  Ag37  1  0.82340088  0.16611799  0.66600725  1
  Ag  Ag38  1  0.82640754  0.65525127  0.16246697  1
  Ag  Ag39  1  0.16297702  0.32807055  0.50803541  1
  Ag  Ag40  1  0.16855792  0.01047444  0.83460091  1
  Ag  Ag41  1  0.16194279  0.85079068  0.66531749  1
  Ag  Ag42  1  0.01297362  0.16826337  0.82934149  1
  Ag  Ag43  1  0.82528590  0.33223970  0.49731061  1
  Ag  Ag44  1  0.00341894  0.32915248  -0.00113669  1
  Ag  Ag45  1  0.49451378  0.00750877  0.83780749  1
  Ag  Ag46  1  0.00588294  0.01145108  -0.00951976  1
  Ag  Ag47  1  0.00060150  0.84947634  0.50302068  1
  Ag  Ag48  1  0.17341028  0.16578563  -0.00544229  1
  Ag  Ag49  1  0.83196761  0.83320349  -0.00086938  1
  Ag  Ag50  1  0.66374040  0.01323436  -0.00355615  1
  Ag  Ag51  1  0.65519815  0.17635474  0.15483039  1
  Ag  Ag52  1  0.17174590  0.01238370  0.15427296  1
  Ag  Ag53  1  0.50816400  0.16638089  0.67267993  1
  Sb  Sb54  1  0.33702933  0.66879810  -0.00127495  1
  Sb  Sb55  1  0.16480129  0.83334476  0.33661647  1
  Sb  Sb56  1  0.50586685  0.32441673  0.49955902  1
  Sb  Sb57  1  0.16073211  0.49639744  0.32585868  1
  Sb  Sb58  1  0.33108253  0.65699748  0.33257230  1
  Sb  Sb59  1  0.17063997  0.49152603  0.67283630  1
  Sb  Sb60  1  0.00214124  0.00047901  0.33535209  1
  Sb  Sb61  1  0.67275967  0.84289768  0.50399024  1
  Sb  Sb62  1  0.83295083  0.66539051  0.83938353  1
  Sb  Sb63  1  0.83512840  0.00405050  0.83309783  1
  Sb  Sb64  1  0.00387987  0.67222733  0.66378922  1
  Sb  Sb65  1  0.49618167  0.32384031  0.83503449  1
  Sb  Sb66  1  0.33089248  0.00763319  0.67193264  1
  Sb  Sb67  1  0.50102686  0.84268454  0.33141721  1
  Sb  Sb68  1  0.33081558  0.32464747  -0.00197199  1
  Sb  Sb69  1  0.16067971  0.84217917  -0.00320516  1
  Sb  Sb70  1  -0.00086696  0.32389857  0.67208890  1
  Sb  Sb71  1  0.32757009  0.83660451  0.50464470  1
  Sb  Sb72  1  0.66799539  0.84240054  0.83520187  1
  Sb  Sb73  1  0.33484485  0.16891445  0.50377967  1
  Sb  Sb74  1  0.49951875  0.49146845  -0.00212836  1
  Sb  Sb75  1  -0.00236340  0.33532524  0.32936155  1
  Sb  Sb76  1  0.66352317  0.66538595  0.67087139  1
  Sb  Sb77  1  0.33562741  0.49185383  0.16114765  1
  Sb  Sb78  1  0.66373583  0.49048298  0.83680652  1
  Sb  Sb79  1  0.83499250  0.82526145  0.33286328  1
  Sb  Sb80  1  0.50209944  0.66902020  0.49717608  1
  Sb  Sb81  1  0.00014880  0.83203111  0.16776535  1
  Sb  Sb82  1  0.66445726  0.01081735  0.33227080  1
  Sb  Sb83  1  -0.00662281  0.49894431  0.16126449  1
  Sb  Sb84  1  0.16725122  0.66477961  0.83644896  1
  Sb  Sb85  1  0.82741566  0.17376313  0.33823299  1
  Sb  Sb86  1  0.66747946  0.83660589  0.16436644  1
  Sb  Sb87  1  0.49927159  0.84276328  0.66663401  1
  Sb  Sb88  1  0.83292476  0.66096604  0.49664262  1
  Sb  Sb89  1  0.16552768  0.66484060  0.49933272  1
  Sb  Sb90  1  -0.00322295  0.49210807  0.50590729  1
  Sb  Sb91  1  0.33101275  0.83893606  0.83267862  1
  Sb  Sb92  1  -0.00256098  0.66443981  0.00371930  1
  Sb  Sb93  1  0.83127822  0.00494757  0.16129352  1
  Sb  Sb94  1  0.66983836  0.65639353  0.32562573  1
  Sb  Sb95  1  0.50415437  0.49232203  0.33483118  1
  Sb  Sb96  1  0.83083951  0.17025073  -0.00443925  1
  Sb  Sb97  1  0.33923609  0.49405126  0.50721652  1
  Sb  Sb98  1  0.82909342  0.49386328  0.67158308  1
  Sb  Sb99  1  0.83642223  0.00940665  0.50414110  1
  Sb  Sb100  1  -0.00019266  0.16863058  0.16330818  1
  Sb  Sb101  1  0.00003922  0.83915123  0.83092200  1
  Sb  Sb102  1  0.50625703  0.84250267  0.00155614  1
  Sb  Sb103  1  0.33393750  0.00963667  0.32803890  1
  Sb  Sb104  1  0.33185811  0.83990873  0.16589966  1
  Sb  Sb105  1  0.49986833  0.66779451  0.83710755  1
  Sb  Sb106  1  0.17035856  0.16907538  0.33035709  1
  Sb  Sb107  1  0.83665125  0.33051929  0.83683661  1
  Te  Te108  1  0.16297622  0.16851052  0.16448303  1
  Te  Te109  1  0.16841284  0.16708506  0.49501787  1
  Te  Te110  1  0.16668785  0.16556125  0.83874339  1
  Te  Te111  1  0.16765180  0.49920758  0.15861682  1
  Te  Te112  1  0.16670282  0.49373019  0.49807584  1
  Te  Te113  1  0.16823162  0.50018747  0.83869084  1
  Te  Te114  1  0.16653534  0.83230951  0.16724841  1
  Te  Te115  1  0.16036391  0.83096030  0.50501665  1
  Te  Te116  1  0.16505512  0.83430087  0.82613200  1
  Te  Te117  1  0.49998355  0.16803748  0.16001958  1
  Te  Te118  1  0.50079757  0.16266737  0.51357026  1
  Te  Te119  1  0.49901638  0.16578444  0.83454404  1
  Te  Te120  1  0.50413204  0.49934676  0.16672036  1
  Te  Te121  1  0.50659778  0.50359230  0.50551035  1
  Te  Te122  1  0.49507238  0.50239490  0.82854993  1
  Te  Te123  1  0.49914851  0.82486924  0.16808081  1
  Te  Te124  1  0.50071547  0.84390293  0.49783704  1
  Te  Te125  1  0.49968500  0.84240282  0.83331343  1
  Te  Te126  1  0.83190529  0.17450244  0.16959072  1
  Te  Te127  1  0.82823887  0.17241721  0.50363276  1
  Te  Te128  1  0.83051834  0.16752171  0.82582141  1
  Te  Te129  1  0.83252555  0.49737935  0.16206033  1
  Te  Te130  1  0.82811449  0.49382569  0.50481588  1
  Te  Te131  1  0.83493606  0.49912753  0.84073018  1
  Te  Te132  1  0.83454406  0.82959921  0.16361062  1
  Te  Te133  1  0.84000290  0.83063302  0.50285797  1
  Te  Te134  1  0.83399246  0.83233861  0.83062810  1
  Te  Te135  1  0.16359960  0.00280014  -0.00273750  1
  Te  Te136  1  0.16745461  -0.00165754  0.32648311  1
  Te  Te137  1  0.16931813  0.00568969  0.66937858  1
  Te  Te138  1  0.16845057  0.32693001  -0.00439741  1
  Te  Te139  1  0.16740486  0.33458896  0.33361043  1
  Te  Te140  1  0.16550630  0.32975380  0.66814728  1
  Te  Te141  1  0.16724085  0.67451520  0.00393222  1
  Te  Te142  1  0.16312211  0.66468540  0.32916085  1
  Te  Te143  1  0.17239305  0.66098529  0.66613833  1
  Te  Te144  1  0.50367269  0.00358031  -0.00101043  1
  Te  Te145  1  0.49924203  0.00900899  0.32600041  1
  Te  Te146  1  0.50004249  0.00350760  0.66911879  1
  Te  Te147  1  0.50667669  0.32821713  0.00393049  1
  Te  Te148  1  0.49959643  0.33022950  0.33262956  1
  Te  Te149  1  0.49803691  0.32685300  0.66621305  1
  Te  Te150  1  0.50436392  0.66925601  0.00516412  1
  Te  Te151  1  0.49905389  0.66684174  0.32814148  1
  Te  Te152  1  0.49431420  0.67335352  0.66713186  1
  Te  Te153  1  0.83188994  -0.00452293  0.00082424  1
  Te  Te154  1  0.83349325  -0.00499473  0.33230279  1
  Te  Te155  1  0.83259146  0.00232901  0.66540793  1
  Te  Te156  1  0.83360493  0.33571564  0.00189515  1
  Te  Te157  1  0.83117559  0.33707830  0.33269606  1
  Te  Te158  1  0.83116366  0.32923880  0.66320868  1
  Te  Te159  1  0.83112692  0.66349900  0.00378323  1
  Te  Te160  1  0.83674457  0.65896378  0.32815546  1
  Te  Te161  1  0.83308438  0.66837113  0.66668428  1
  Te  Te162  1  -0.00298766  0.16778907  -0.00227361  1
  Te  Te163  1  -0.00229035  0.16600966  0.34255750  1
  Te  Te164  1  0.00847309  0.16437275  0.66798915  1
  Te  Te165  1  0.00205320  0.49901025  -0.00416627  1
  Te  Te166  1  -0.00646790  0.50288332  0.33610676  1
  Te  Te167  1  -0.00095016  0.50369830  0.67443349  1
  Te  Te168  1  -0.00685994  0.83522310  -0.00020405  1
  Te  Te169  1  -0.00074296  0.82805311  0.34060801  1
  Te  Te170  1  0.00045688  0.83679504  0.66449592  1
  Te  Te171  1  0.33334662  0.16404448  -0.00140814  1
  Te  Te172  1  0.33880677  0.17269104  0.32915467  1
  Te  Te173  1  0.32498177  0.17011251  0.66996719  1
  Te  Te174  1  0.33138010  0.50477087  -0.00632249  1
  Te  Te175  1  0.33246880  0.48993766  0.33375367  1
  Te  Te176  1  0.33720653  0.49608565  0.67204485  1
  Te  Te177  1  0.33378502  0.84234569  0.00001023  1
  Te  Te178  1  0.33404959  0.82826736  0.33533320  1
  Te  Te179  1  0.32863352  0.82888261  0.66642837  1
  Te  Te180  1  0.67196016  0.16939872  -0.00200527  1
  Te  Te181  1  0.66228678  0.17214074  0.33100802  1
  Te  Te182  1  0.66678215  0.16422527  0.66930597  1
  Te  Te183  1  0.66522157  0.49535863  0.00253416  1
  Te  Te184  1  0.66998637  0.49357416  0.33373292  1
  Te  Te185  1  0.66144204  0.50063593  0.66763268  1
  Te  Te186  1  0.67290719  0.83290659  0.00052163  1
  Te  Te187  1  0.66723254  0.83100371  0.33606631  1
  Te  Te188  1  0.67241608  0.83532286  0.66764876  1
  Te  Te189  1  0.00236020  -0.00067645  0.16516978  1
  Te  Te190  1  0.00393754  0.00584797  0.50168059  1
  Te  Te191  1  0.00223665  0.00445320  0.83135807  1
  Te  Te192  1  0.00947332  0.33455009  0.16188041  1
  Te  Te193  1  0.00097034  0.32848750  0.49849234  1
  Te  Te194  1  0.00244576  0.33051009  0.83730001  1
  Te  Te195  1  0.00452957  0.66517051  0.17097752  1
  Te  Te196  1  0.00056109  0.66135626  0.49541061  1
  Te  Te197  1  0.00022917  0.66493582  0.83332413  1
  Te  Te198  1  0.33370587  0.00509669  0.16263221  1
  Te  Te199  1  0.32935291  0.00024154  0.49695204  1
  Te  Te200  1  0.33262391  0.00400382  0.83670947  1
  Te  Te201  1  0.32901875  0.32994701  0.16574027  1
  Te  Te202  1  0.32647529  0.33407343  0.50140150  1
  Te  Te203  1  0.33159782  0.32944106  0.83075691  1
  Te  Te204  1  0.32915608  0.66596917  0.16773190  1
  Te  Te205  1  0.33409567  0.66576451  0.50411473  1
  Te  Te206  1  0.33441615  0.66990905  0.82941179  1
  Te  Te207  1  0.66296323  0.00384292  0.16329287  1
  Te  Te208  1  0.66398983  0.00687803  0.50202153  1
  Te  Te209  1  0.66715960  0.00566836  0.83357211  1
  Te  Te210  1  0.66733234  0.33378603  0.16735440  1
  Te  Te211  1  0.66494756  0.33013128  0.50848094  1
  Te  Te212  1  0.66606499  0.32953292  0.82430267  1
  Te  Te213  1  0.66882875  0.66861194  0.16271036  1
  Te  Te214  1  0.66626014  0.66789183  0.49998095  1
  Te  Te215  1  0.66523263  0.66721630  0.84119311  1
