# generated using pymatgen
data_AgSbTe2
_symmetry_space_group_name_H-M   'P 1'
_cell_length_a   18.33019859
_cell_length_b   18.32424623
_cell_length_c   18.32342786
_cell_angle_alpha   89.99994775
_cell_angle_beta   90.00102042
_cell_angle_gamma   89.99605012
_symmetry_Int_Tables_number   1
_chemical_formula_structural   AgSbTe2
_chemical_formula_sum   'Ag54 Sb54 Te108'
_cell_volume   6154.60252701
_cell_formula_units_Z   54
loop_
 _symmetry_equiv_pos_site_id
 _symmetry_equiv_pos_as_xyz
  1  'x, y, z'
loop_
 _atom_site_type_symbol
 _atom_site_label
 _atom_site_symmetry_multiplicity
 _atom_site_fract_x
 _atom_site_fract_y
 _atom_site_fract_z
 _atom_site_occupancy
  Ag  Ag0  1  0.65935614  0.50141104  0.49742792  1
  Ag  Ag1  1  0.32867082  -0.00867132  0.66554211  1
  Ag  Ag2  1  0.84246445  -0.00281726  0.50375507  1
  Ag  Ag3  1  0.33565934  0.82685903  0.82509832  1
  Ag  Ag4  1  0.66880383  0.15992792  0.83091901  1
  Ag  Ag5  1  0.15707925  0.33844603  0.16594432  1
  Ag  Ag6  1  0.66641378  0.33570739  0.32961863  1
  Ag  Ag7  1  0.65666094  0.67246339  0.67609239  1
  Ag  Ag8  1  -0.00023862  0.33604802  0.32689110  1
  Ag  Ag9  1  0.17241093  0.83670813  0.66835764  1
  Ag  Ag10  1  0.84318222  0.50313051  0.00217681  1
  Ag  Ag11  1  0.32549097  -0.00573238  0.34118959  1
  Ag  Ag12  1  0.49976825  0.50103651  0.00017512  1
  Ag  Ag13  1  0.00181078  0.17110700  0.83347139  1
  Ag  Ag14  1  0.67276754  0.50367259  0.16413280  1
  Ag  Ag15  1  0.00645119  0.50074418  0.84510871  1
  Ag  Ag16  1  0.83038883  0.66918901  0.83957220  1
  Ag  Ag17  1  0.17136698  0.66768290  0.82801428  1
  Ag  Ag18  1  0.16619968  0.33753851  0.50077515  1
  Ag  Ag19  1  0.00144593  0.66995147  0.32332029  1
  Ag  Ag20  1  0.67301151  0.66351660  -0.00539402  1
  Ag  Ag21  1  0.83604668  -0.00640619  0.16464249  1
  Ag  Ag22  1  0.16343837  -0.00410721  0.82633079  1
  Ag  Ag23  1  0.00188521  -0.00599133  0.33532651  1
  Ag  Ag24  1  0.49770859  0.83228552  0.33876004  1
  Ag  Ag25  1  0.33337139  0.82672998  0.16563761  1
  Ag  Ag26  1  -0.00299629  0.82233395  0.17162422  1
  Ag  Ag27  1  -0.00478530  0.65887613  0.00211327  1
  Ag  Ag28  1  0.16971288  0.15961657  0.67042558  1
  Ag  Ag29  1  0.00405740  0.83390863  0.49597391  1
  Ag  Ag30  1  0.66165633  0.82759442  0.83075708  1
  Ag  Ag31  1  0.49825774  0.66439260  0.82794956  1
  Ag  Ag32  1  0.49586909  0.34333706  0.50205650  1
  Ag  Ag33  1  0.83923753  0.34628514  0.16627472  1
  Ag  Ag34  1  0.33770321  0.67129524  0.67103064  1
  Ag  Ag35  1  0.83741257  0.66383904  0.15908677  1
  Ag  Ag36  1  0.66263558  -0.00730325  0.66956080  1
  Ag  Ag37  1  0.15635050  0.49869631  -0.00065440  1
  Ag  Ag38  1  0.66981154  0.82337784  0.16257040  1
  Ag  Ag39  1  0.50178420  0.34420104  0.83105975  1
  Ag  Ag40  1  0.49645535  0.16318400  0.66860142  1
  Ag  Ag41  1  0.17055756  0.66601731  0.50849869  1
  Ag  Ag42  1  0.83664218  -0.00457560  0.83251183  1
  Ag  Ag43  1  0.33043531  0.50713992  0.83447482  1
  Ag  Ag44  1  0.16459809  -0.00653709  0.50817964  1
  Ag  Ag45  1  0.16287962  0.17380146  -0.00913602  1
  Ag  Ag46  1  0.00213758  0.34584566  0.00297023  1
  Ag  Ag47  1  0.33276041  0.50370245  0.16180785  1
  Ag  Ag48  1  0.33595172  0.50283710  0.50407797  1
  Ag  Ag49  1  0.00457746  0.33321951  0.67347993  1
  Ag  Ag50  1  -0.00436289  0.50239887  0.15844568  1
  Ag  Ag51  1  0.50253076  0.33996694  0.16804957  1
  Ag  Ag52  1  0.49332645  0.82913499  0.66660911  1
  Ag  Ag53  1  0.49492493  0.66250466  0.50891465  1
  Sb  Sb54  1  0.66931104  -0.00716720  -0.00637288  1
  Sb  Sb55  1  0.83459252  0.16610579  0.33247172  1
  Sb  Sb56  1  0.83307599  0.33702981  0.83793216  1
  Sb  Sb57  1  0.00268139  0.16419421  0.50511433  1
  Sb  Sb58  1  0.16726451  0.83308437  0.33763635  1
  Sb  Sb59  1  0.16526805  0.16717994  0.33550261  1
  Sb  Sb60  1  0.83486117  0.16467864  0.66946931  1
  Sb  Sb61  1  0.50271461  0.66244765  0.16417150  1
  Sb  Sb62  1  0.33094905  -0.00243146  -0.00407276  1
  Sb  Sb63  1  0.83352578  0.83320643  0.33022467  1
  Sb  Sb64  1  0.66860538  0.66378476  0.33133952  1
  Sb  Sb65  1  0.66997571  0.00027732  0.33664111  1
  Sb  Sb66  1  0.83439474  0.82461341  0.00094284  1
  Sb  Sb67  1  0.49648069  -0.00388139  0.50371872  1
  Sb  Sb68  1  0.50033288  0.50397617  0.33253457  1
  Sb  Sb69  1  0.83282576  0.50171065  0.67329383  1
  Sb  Sb70  1  0.66469551  0.50608508  0.83735574  1
  Sb  Sb71  1  0.33349090  0.33270016  0.33350790  1
  Sb  Sb72  1  0.66480650  0.16966515  0.50673322  1
  Sb  Sb73  1  0.49911272  -0.00463526  0.82975803  1
  Sb  Sb74  1  0.33162266  0.33690482  0.66745820  1
  Sb  Sb75  1  0.49972967  0.16582475  0.33846031  1
  Sb  Sb76  1  0.00279079  0.50267725  0.49828603  1
  Sb  Sb77  1  0.16306689  0.00107357  0.16629785  1
  Sb  Sb78  1  0.33069362  0.16631786  0.82975165  1
  Sb  Sb79  1  0.67038902  0.34172867  0.00353857  1
  Sb  Sb80  1  0.16602295  0.33537571  0.83323760  1
  Sb  Sb81  1  0.33228484  0.16907366  0.16572456  1
  Sb  Sb82  1  0.83447209  0.66937810  0.50110935  1
  Sb  Sb83  1  0.00027066  0.17250572  0.16116785  1
  Sb  Sb84  1  0.16720570  0.50189861  0.67119460  1
  Sb  Sb85  1  0.83570898  0.33256076  0.49494125  1
  Sb  Sb86  1  0.66762866  0.17008202  0.15902377  1
  Sb  Sb87  1  0.00055640  0.83003202  0.83335559  1
  Sb  Sb88  1  0.83812880  0.17249159  -0.00197202  1
  Sb  Sb89  1  0.49707475  0.17753574  -0.00836268  1
  Sb  Sb90  1  0.00258123  0.66390415  0.67026827  1
  Sb  Sb91  1  0.32664529  0.33847929  -0.00054787  1
  Sb  Sb92  1  0.50268680  -0.00163473  0.16924242  1
  Sb  Sb93  1  0.49980247  0.50482136  0.66973407  1
  Sb  Sb94  1  0.66592120  0.33498081  0.66536229  1
  Sb  Sb95  1  0.83378585  0.50011035  0.32511011  1
  Sb  Sb96  1  0.33236266  0.16943124  0.50297996  1
  Sb  Sb97  1  0.66759012  0.82933929  0.50245160  1
  Sb  Sb98  1  0.50085512  0.82576317  -0.00381576  1
  Sb  Sb99  1  0.16201247  0.66263145  0.16277431  1
  Sb  Sb100  1  0.32937191  0.82849020  0.50479346  1
  Sb  Sb101  1  0.16603615  0.82823046  -0.00549261  1
  Sb  Sb102  1  0.00424468  0.00113050  0.66515629  1
  Sb  Sb103  1  0.16553242  0.50068293  0.32809210  1
  Sb  Sb104  1  -0.00069810  -0.00249091  0.00248896  1
  Sb  Sb105  1  0.83311739  0.83418292  0.66860650  1
  Sb  Sb106  1  0.33006099  0.67071726  0.33660149  1
  Sb  Sb107  1  0.33155648  0.66314180  -0.00675542  1
  Te  Te108  1  0.16811677  0.17377038  0.16289128  1
  Te  Te109  1  0.16723540  0.17127424  0.50556672  1
  Te  Te110  1  0.16513863  0.16816629  0.83098670  1
  Te  Te111  1  0.16845413  0.49757712  0.16205545  1
  Te  Te112  1  0.16919648  0.49966417  0.50028997  1
  Te  Te113  1  0.16783825  0.50186690  0.83695253  1
  Te  Te114  1  0.16786184  0.83332758  0.16550017  1
  Te  Te115  1  0.16420031  0.83360842  0.50347040  1
  Te  Te116  1  0.16851671  0.83247200  0.82980522  1
  Te  Te117  1  0.50031213  0.17461745  0.16562103  1
  Te  Te118  1  0.49977714  0.17385306  0.50670323  1
  Te  Te119  1  0.50100588  0.16802216  0.82872396  1
  Te  Te120  1  0.49839472  0.49836218  0.16659184  1
  Te  Te121  1  0.49862012  0.50150942  0.49849649  1
  Te  Te122  1  0.49864056  0.50280089  0.83523495  1
  Te  Te123  1  0.50057335  0.83271063  0.16530086  1
  Te  Te124  1  0.49998342  0.82881334  0.50252527  1
  Te  Te125  1  0.49947243  0.82891685  0.83005919  1
  Te  Te126  1  0.83247814  0.15821734  0.16517083  1
  Te  Te127  1  0.83275868  0.15762995  0.50094874  1
  Te  Te128  1  0.83437062  0.16314103  0.83374971  1
  Te  Te129  1  0.83342268  0.50310573  0.16288617  1
  Te  Te130  1  0.82865341  0.50047389  0.50110874  1
  Te  Te131  1  0.83655233  0.50427150  0.84007934  1
  Te  Te132  1  0.83283770  0.83213717  0.16643315  1
  Te  Te133  1  0.83929389  0.83800342  0.50000793  1
  Te  Te134  1  0.83013442  0.83451125  0.83425885  1
  Te  Te135  1  0.16600060  0.00322459  -0.00571098  1
  Te  Te136  1  0.16431798  0.00023046  0.33535954  1
  Te  Te137  1  0.16614376  -0.00056685  0.66726031  1
  Te  Te138  1  0.16214761  0.33592761  0.00045199  1
  Te  Te139  1  0.16471330  0.33261035  0.33420115  1
  Te  Te140  1  0.16491296  0.33035049  0.66337813  1
  Te  Te141  1  0.16203587  0.66103426  -0.00617801  1
  Te  Te142  1  0.16036143  0.66683042  0.34214538  1
  Te  Te143  1  0.16824925  0.66845047  0.66805354  1
  Te  Te144  1  0.50025161  0.00465585  0.00077392  1
  Te  Te145  1  0.49785567  -0.00502981  0.33622879  1
  Te  Te146  1  0.50009501  -0.00142051  0.66617916  1
  Te  Te147  1  0.50010386  0.33950714  -0.00002982  1
  Te  Te148  1  0.50112261  0.33132088  0.33567226  1
  Te  Te149  1  0.49987556  0.32930407  0.66490059  1
  Te  Te150  1  0.50411233  0.66163641  -0.00499255  1
  Te  Te151  1  0.50002175  0.67360269  0.33794517  1
  Te  Te152  1  0.49937747  0.66841425  0.66702528  1
  Te  Te153  1  0.83311488  0.00319980  -0.00178529  1
  Te  Te154  1  0.83840748  -0.00013334  0.33342679  1
  Te  Te155  1  0.82918045  0.00042832  0.67015684  1
  Te  Te156  1  0.83908004  0.33931301  0.00548820  1
  Te  Te157  1  0.83449491  0.33230513  0.32700835  1
  Te  Te158  1  0.84028739  0.33320491  0.66549326  1
  Te  Te159  1  0.83334634  0.66309500  0.00005811  1
  Te  Te160  1  0.84106077  0.66720232  0.33075797  1
  Te  Te161  1  0.82862662  0.66740316  0.67197176  1
  Te  Te162  1  0.00474554  0.16703917  -0.00621080  1
  Te  Te163  1  0.00051386  0.16880882  0.33277316  1
  Te  Te164  1  0.00401180  0.17127491  0.67214862  1
  Te  Te165  1  -0.00013156  0.50170095  0.00077594  1
  Te  Te166  1  0.00007007  0.49755234  0.32954011  1
  Te  Te167  1  -0.00044796  0.49286902  0.66867253  1
  Te  Te168  1  0.00147224  0.82782050  0.00835917  1
  Te  Te169  1  0.00043144  0.83355576  0.33186480  1
  Te  Te170  1  0.00601334  0.83265556  0.66263037  1
  Te  Te171  1  0.32421858  0.16681288  -0.00175859  1
  Te  Te172  1  0.33351362  0.15388295  0.33359253  1
  Te  Te173  1  0.33279355  0.16077197  0.66728264  1
  Te  Te174  1  0.33929584  0.50057750  0.00084556  1
  Te  Te175  1  0.33302512  0.49982716  0.33003707  1
  Te  Te176  1  0.33287387  0.50569642  0.66768061  1
  Te  Te177  1  0.33401239  0.83201632  0.00534628  1
  Te  Te178  1  0.33603590  0.83599208  0.32954243  1
  Te  Te179  1  0.33290398  0.83188265  0.66736916  1
  Te  Te180  1  0.66568089  0.16660819  -0.00974192  1
  Te  Te181  1  0.66552069  0.17350884  0.33316016  1
  Te  Te182  1  0.66320599  0.16561177  0.67309082  1
  Te  Te183  1  0.66094918  0.50434227  0.00413041  1
  Te  Te184  1  0.66651796  0.49590808  0.33101481  1
  Te  Te185  1  0.66727915  0.50436902  0.66146019  1
  Te  Te186  1  0.66623333  0.82606243  0.00106125  1
  Te  Te187  1  0.66002568  0.83453791  0.33016758  1
  Te  Te188  1  0.66585549  0.83246424  0.66786010  1
  Te  Te189  1  -0.00249158  0.00022587  0.17093943  1
  Te  Te190  1  0.00273085  -0.00150694  0.49796543  1
  Te  Te191  1  0.00003636  -0.00062145  0.83386600  1
  Te  Te192  1  -0.00057192  0.33476635  0.16608212  1
  Te  Te193  1  0.00257608  0.33360074  0.49421081  1
  Te  Te194  1  -0.00093846  0.33549056  0.83439563  1
  Te  Te195  1  0.00069151  0.66426269  0.16569324  1
  Te  Te196  1  0.00270311  0.67029576  0.50130677  1
  Te  Te197  1  -0.00113870  0.66491494  0.83542746  1
  Te  Te198  1  0.33276143  -0.00342443  0.16776918  1
  Te  Te199  1  0.32859191  0.00002238  0.50207262  1
  Te  Te200  1  0.32870377  -0.00522189  0.82865317  1
  Te  Te201  1  0.33672461  0.33710664  0.16774967  1
  Te  Te202  1  0.33265920  0.34006647  0.49957571  1
  Te  Te203  1  0.34117084  0.33902594  0.83263723  1
  Te  Te204  1  0.33289998  0.66576353  0.16762879  1
  Te  Te205  1  0.33212420  0.66269800  0.50219290  1
  Te  Te206  1  0.33245835  0.66696227  0.83252379  1
  Te  Te207  1  0.67196481  -0.00215262  0.16636788  1
  Te  Te208  1  0.66870116  0.00002222  0.50615670  1
  Te  Te209  1  0.66664961  -0.00442146  0.82984128  1
  Te  Te210  1  0.66642494  0.33499804  0.16869334  1
  Te  Te211  1  0.66668338  0.33756365  0.49651634  1
  Te  Te212  1  0.66328261  0.33288811  0.83377256  1
  Te  Te213  1  0.66914844  0.66505179  0.16693422  1
  Te  Te214  1  0.66629913  0.66209818  0.49944468  1
  Te  Te215  1  0.66758373  0.66693192  0.83386385  1
