# generated using pymatgen
data_AgSbTe2
_symmetry_space_group_name_H-M   'P 1'
_cell_length_a   18.34787024
_cell_length_b   18.34021204
_cell_length_c   18.33648342
_cell_angle_alpha   90.00207814
_cell_angle_beta   89.99607263
_cell_angle_gamma   89.99657404
_symmetry_Int_Tables_number   1
_chemical_formula_structural   AgSbTe2
_chemical_formula_sum   'Ag54 Sb54 Te108'
_cell_volume   6170.29688087
_cell_formula_units_Z   54
loop_
 _symmetry_equiv_pos_site_id
 _symmetry_equiv_pos_as_xyz
  1  'x, y, z'
loop_
 _atom_site_type_symbol
 _atom_site_label
 _atom_site_symmetry_multiplicity
 _atom_site_fract_x
 _atom_site_fract_y
 _atom_site_fract_z
 _atom_site_occupancy
  Ag  Ag0  1  -0.01286892  -0.00310210  0.33400643  1
  Ag  Ag1  1  0.66753212  0.50243091  0.16685494  1
  Ag  Ag2  1  0.34082695  0.00626770  -0.00478589  1
  Ag  Ag3  1  0.16966181  0.34334599  0.16332100  1
  Ag  Ag4  1  0.66528271  0.16608516  0.16707898  1
  Ag  Ag5  1  -0.00510783  0.66318122  0.32022952  1
  Ag  Ag6  1  0.50042417  -0.00065424  0.83394939  1
  Ag  Ag7  1  0.15724731  0.33978523  0.83896259  1
  Ag  Ag8  1  0.67534624  0.50030327  0.84005303  1
  Ag  Ag9  1  0.66843924  0.00082742  0.65739789  1
  Ag  Ag10  1  -0.00118393  0.50236600  0.16858167  1
  Ag  Ag11  1  0.50644942  0.67028028  0.48973746  1
  Ag  Ag12  1  0.66977255  0.83182051  0.16803602  1
  Ag  Ag13  1  0.82998659  -0.00283474  0.17376329  1
  Ag  Ag14  1  0.66721821  0.16837870  0.84003930  1
  Ag  Ag15  1  0.33664824  0.50252551  0.48890259  1
  Ag  Ag16  1  0.33488535  0.33235422  0.00153023  1
  Ag  Ag17  1  0.50742426  0.16468606  0.32567023  1
  Ag  Ag18  1  0.50686345  0.16165931  0.00244414  1
  Ag  Ag19  1  0.15524793  0.83018997  0.66869914  1
  Ag  Ag20  1  0.50252633  0.66834109  0.83842168  1
  Ag  Ag21  1  0.66595586  0.15878158  0.48548590  1
  Ag  Ag22  1  0.50836231  -0.00350272  0.49979804  1
  Ag  Ag23  1  -0.00943112  0.81912614  0.17014132  1
  Ag  Ag24  1  0.50209748  0.83313903  0.00549008  1
  Ag  Ag25  1  0.34170726  -0.00658474  0.67059776  1
  Ag  Ag26  1  -0.00724624  -0.01055300  0.66626509  1
  Ag  Ag27  1  0.15589137  0.66122228  0.16364949  1
  Ag  Ag28  1  0.83849655  0.66267083  0.83416211  1
  Ag  Ag29  1  0.34214526  0.16478709  0.83684026  1
  Ag  Ag30  1  0.33497170  0.50022127  0.16828250  1
  Ag  Ag31  1  -0.00742418  0.34574984  0.32860380  1
  Ag  Ag32  1  0.51078668  0.83011741  0.32656174  1
  Ag  Ag33  1  0.82569559  0.17077645  -0.00238860  1
  Ag  Ag34  1  0.83022141  0.83389040  0.33195603  1
  Ag  Ag35  1  0.67006328  0.66281372  0.00101989  1
  Ag  Ag36  1  0.50103089  0.66257948  0.16796103  1
  Ag  Ag37  1  0.50468445  0.50508021  0.32671280  1
  Ag  Ag38  1  0.15607518  0.50147778  0.32542297  1
  Ag  Ag39  1  0.82902425  0.67108477  0.49926887  1
  Ag  Ag40  1  0.15450456  0.66075443  0.83601755  1
  Ag  Ag41  1  -0.00746126  0.50539709  0.84015529  1
  Ag  Ag42  1  0.83420216  0.50788877  0.32536849  1
  Ag  Ag43  1  0.82603184  -0.00637894  0.49120913  1
  Ag  Ag44  1  0.66888648  0.00428238  0.33505394  1
  Ag  Ag45  1  0.50285417  0.34486812  0.16686539  1
  Ag  Ag46  1  -0.00588356  0.17207485  0.83475832  1
  Ag  Ag47  1  -0.00039234  0.67031602  0.67171583  1
  Ag  Ag48  1  0.83282193  0.50195611  0.00366933  1
  Ag  Ag49  1  0.83548615  0.83349451  0.65933170  1
  Ag  Ag50  1  0.33138606  0.67092530  0.66903478  1
  Ag  Ag51  1  -0.00948501  0.66458501  0.00273969  1
  Ag  Ag52  1  0.66928953  0.32787401  0.32914623  1
  Ag  Ag53  1  0.83592408  0.34419720  0.83559655  1
  Sb  Sb54  1  0.50514455  0.83427119  0.66669655  1
  Sb  Sb55  1  0.17005394  0.82936058  -0.00251807  1
  Sb  Sb56  1  -0.00416633  0.83164183  0.49655769  1
  Sb  Sb57  1  0.67006841  0.66794783  0.32640234  1
  Sb  Sb58  1  0.66833160  0.67274429  0.67277923  1
  Sb  Sb59  1  0.83186488  0.15836654  0.67308410  1
  Sb  Sb60  1  0.00027173  0.33883995  0.00202062  1
  Sb  Sb61  1  0.33785034  0.82869796  0.50149254  1
  Sb  Sb62  1  0.50528122  -0.00302306  0.16624290  1
  Sb  Sb63  1  0.82940036  0.82930977  0.00404966  1
  Sb  Sb64  1  0.66360813  0.00085078  0.00229403  1
  Sb  Sb65  1  0.66605745  0.83252321  0.83945164  1
  Sb  Sb66  1  0.33351075  0.49885088  0.83831539  1
  Sb  Sb67  1  0.33706363  0.82848227  0.16571973  1
  Sb  Sb68  1  0.66727831  0.32830543  0.66673683  1
  Sb  Sb69  1  0.15992636  -0.00278987  0.16755789  1
  Sb  Sb70  1  0.82799955  -0.00227224  0.83346268  1
  Sb  Sb71  1  0.50167119  0.16227805  0.67227398  1
  Sb  Sb72  1  0.66429212  0.49928027  0.49400946  1
  Sb  Sb73  1  0.16794682  0.17202177  0.32993689  1
  Sb  Sb74  1  0.33486439  0.83571670  0.83292479  1
  Sb  Sb75  1  0.33464986  0.66366174  0.33494773  1
  Sb  Sb76  1  0.33621648  0.33679514  0.32611228  1
  Sb  Sb77  1  -0.00064169  0.33591239  0.66859740  1
  Sb  Sb78  1  0.82778422  0.16372954  0.32796955  1
  Sb  Sb79  1  0.34200709  0.00110379  0.33370790  1
  Sb  Sb80  1  0.50062045  0.50518774  0.66397559  1
  Sb  Sb81  1  0.83032432  0.33492708  0.16340851  1
  Sb  Sb82  1  -0.00607547  0.17025588  0.16334589  1
  Sb  Sb83  1  0.16059972  0.82705719  0.33522739  1
  Sb  Sb84  1  0.16767423  0.33800140  0.49677458  1
  Sb  Sb85  1  -0.00168957  0.82903768  0.83439493  1
  Sb  Sb86  1  0.16554359  0.66578709  0.49997459  1
  Sb  Sb87  1  0.33656668  0.66406206  -0.00173741  1
  Sb  Sb88  1  0.00072397  0.50375351  0.49495639  1
  Sb  Sb89  1  0.33214429  0.33454950  0.67514630  1
  Sb  Sb90  1  0.83246802  0.66680967  0.16797541  1
  Sb  Sb91  1  0.16576622  -0.00069824  0.50070958  1
  Sb  Sb92  1  0.16596128  0.16056504  0.67001643  1
  Sb  Sb93  1  0.66765011  0.83736788  0.49281262  1
  Sb  Sb94  1  0.83217280  0.33441516  0.49942083  1
  Sb  Sb95  1  0.16782150  0.16869647  -0.00167287  1
  Sb  Sb96  1  0.34260889  0.17230050  0.16028649  1
  Sb  Sb97  1  0.17001330  -0.00075859  0.83136645  1
  Sb  Sb98  1  0.83425187  0.50882510  0.66948855  1
  Sb  Sb99  1  0.50342755  0.33329299  0.84252096  1
  Sb  Sb100  1  0.66439675  0.33452197  0.00579118  1
  Sb  Sb101  1  0.50199184  0.33394797  0.48865539  1
  Sb  Sb102  1  0.16075001  0.50087455  0.00647863  1
  Sb  Sb103  1  -0.00015783  -0.00353886  -0.00082139  1
  Sb  Sb104  1  0.50633267  0.50254089  0.00583839  1
  Sb  Sb105  1  -0.00892831  0.16279015  0.50232955  1
  Sb  Sb106  1  0.16615219  0.50653806  0.66612458  1
  Sb  Sb107  1  0.34378503  0.16896190  0.50523822  1
  Te  Te108  1  0.16729625  0.17254342  0.16682132  1
  Te  Te109  1  0.16855260  0.16871128  0.50019491  1
  Te  Te110  1  0.16165600  0.17046964  0.83338952  1
  Te  Te111  1  0.16225535  0.50154570  0.16834984  1
  Te  Te112  1  0.17362426  0.50064665  0.49037805  1
  Te  Te113  1  0.16581987  0.50098711  0.83331360  1
  Te  Te114  1  0.16492874  0.82671486  0.16675553  1
  Te  Te115  1  0.16889034  0.83287081  0.50791829  1
  Te  Te116  1  0.16683265  0.82571690  0.82901302  1
  Te  Te117  1  0.50475896  0.16326668  0.16556479  1
  Te  Te118  1  0.50616240  0.16372254  0.49749995  1
  Te  Te119  1  0.50217322  0.16653749  0.83840362  1
  Te  Te120  1  0.50477558  0.50186175  0.16628960  1
  Te  Te121  1  0.49796798  0.50449584  0.49436452  1
  Te  Te122  1  0.50279259  0.50219910  0.83346779  1
  Te  Te123  1  0.50171864  0.83020240  0.16688403  1
  Te  Te124  1  0.50118236  0.83147381  0.49467105  1
  Te  Te125  1  0.50086643  0.83414365  0.83752481  1
  Te  Te126  1  0.82820749  0.16500655  0.15991805  1
  Te  Te127  1  0.82600883  0.16315290  0.50233635  1
  Te  Te128  1  0.83125026  0.16362625  0.83775540  1
  Te  Te129  1  0.83176254  0.49826617  0.16569636  1
  Te  Te130  1  0.83242485  0.50354862  0.49565218  1
  Te  Te131  1  0.83371335  0.50306574  0.83222113  1
  Te  Te132  1  0.83200175  0.83591431  0.16907544  1
  Te  Te133  1  0.83263524  0.83328481  0.49660711  1
  Te  Te134  1  0.83261159  0.82608819  0.83323113  1
  Te  Te135  1  0.17468138  -0.00150435  -0.00009147  1
  Te  Te136  1  0.16319235  -0.00068131  0.33398120  1
  Te  Te137  1  0.16330393  -0.00701007  0.66591428  1
  Te  Te138  1  0.16955804  0.33433306  -0.00042744  1
  Te  Te139  1  0.16455524  0.33889950  0.32906644  1
  Te  Te140  1  0.16574115  0.33357517  0.67402449  1
  Te  Te141  1  0.16733001  0.66698811  -0.00131550  1
  Te  Te142  1  0.16100342  0.66263210  0.33033906  1
  Te  Te143  1  0.16704824  0.66989231  0.66787935  1
  Te  Te144  1  0.49929313  0.00047611  -0.00161441  1
  Te  Te145  1  0.50378545  -0.00166441  0.33526447  1
  Te  Te146  1  0.50087761  -0.00173614  0.66716603  1
  Te  Te147  1  0.49647681  0.32732788  0.00669766  1
  Te  Te148  1  0.50346062  0.33374026  0.32621082  1
  Te  Te149  1  0.49913580  0.33416102  0.66474734  1
  Te  Te150  1  0.50102287  0.66849149  0.00020796  1
  Te  Te151  1  0.50045369  0.66773604  0.33197459  1
  Te  Te152  1  0.49731872  0.66946997  0.67045660  1
  Te  Te153  1  0.83439076  0.00117146  0.00268500  1
  Te  Te154  1  0.82988330  0.00134784  0.33386251  1
  Te  Te155  1  0.83299233  -0.00566702  0.66663177  1
  Te  Te156  1  0.83375237  0.33432210  -0.00422848  1
  Te  Te157  1  0.83282151  0.33547081  0.33287201  1
  Te  Te158  1  0.83375585  0.33321480  0.67251233  1
  Te  Te159  1  0.83143959  0.66483553  -0.00369368  1
  Te  Te160  1  0.83570118  0.66842482  0.33589125  1
  Te  Te161  1  0.83492362  0.67215724  0.66571229  1
  Te  Te162  1  -0.00357841  0.16556864  -0.00530941  1
  Te  Te163  1  0.00025103  0.16013043  0.33299764  1
  Te  Te164  1  -0.00015599  0.16564915  0.67207116  1
  Te  Te165  1  -0.00538671  0.50400640  0.00021677  1
  Te  Te166  1  -0.00370522  0.50318097  0.33246114  1
  Te  Te167  1  0.00115301  0.50421979  0.67092037  1
  Te  Te168  1  0.00124505  0.82822366  0.00801982  1
  Te  Te169  1  -0.00309029  0.83426925  0.32995199  1
  Te  Te170  1  -0.00337925  0.83184336  0.66744814  1
  Te  Te171  1  0.33366781  0.16691758  -0.00410022  1
  Te  Te172  1  0.34164869  0.16801926  0.33503974  1
  Te  Te173  1  0.33341606  0.16132609  0.67396260  1
  Te  Te174  1  0.33491359  0.49607224  0.00641946  1
  Te  Te175  1  0.34115622  0.50035982  0.32889465  1
  Te  Te176  1  0.33292293  0.50460245  0.66645076  1
  Te  Te177  1  0.33990944  0.83793388  0.00047222  1
  Te  Te178  1  0.33596752  0.83381807  0.33341832  1
  Te  Te179  1  0.33613163  0.83352137  0.66675122  1
  Te  Te180  1  0.66638079  0.16733609  0.00169980  1
  Te  Te181  1  0.66563032  0.16595017  0.32849710  1
  Te  Te182  1  0.66620420  0.16089686  0.67589266  1
  Te  Te183  1  0.67134837  0.50106581  0.00019727  1
  Te  Te184  1  0.66740647  0.49960523  0.33066357  1
  Te  Te185  1  0.66671192  0.49805156  0.67166483  1
  Te  Te186  1  0.66248818  0.82840646  0.00688984  1
  Te  Te187  1  0.66903914  0.83448995  0.32739681  1
  Te  Te188  1  0.67271322  0.84073520  0.66867682  1
  Te  Te189  1  -0.00484002  0.00187329  0.16901671  1
  Te  Te190  1  -0.00411657  -0.00011721  0.50147914  1
  Te  Te191  1  0.00090849  0.00126837  0.82958484  1
  Te  Te192  1  0.00223806  0.33747702  0.16921330  1
  Te  Te193  1  0.00034801  0.33185638  0.49216059  1
  Te  Te194  1  -0.00196741  0.33484482  0.83413030  1
  Te  Te195  1  -0.00233140  0.66250465  0.16424864  1
  Te  Te196  1  -0.00426829  0.66562420  0.50902249  1
  Te  Te197  1  -0.00128015  0.66656317  0.83435763  1
  Te  Te198  1  0.33009213  0.00103009  0.16429860  1
  Te  Te199  1  0.33783608  0.00130483  0.50520597  1
  Te  Te200  1  0.33633450  0.00284440  0.83204783  1
  Te  Te201  1  0.33206313  0.33817634  0.16233376  1
  Te  Te202  1  0.33381504  0.34009126  0.50365854  1
  Te  Te203  1  0.33292444  0.32982868  0.83920929  1
  Te  Te204  1  0.33746603  0.66135898  0.16649360  1
  Te  Te205  1  0.33606112  0.66196164  0.50445731  1
  Te  Te206  1  0.33956605  0.66517331  0.83049814  1
  Te  Te207  1  0.66932130  -0.00016445  0.16869560  1
  Te  Te208  1  0.66613395  0.00086302  0.49879429  1
  Te  Te209  1  0.66125445  0.00253499  0.83526544  1
  Te  Te210  1  0.66465860  0.33461375  0.17075510  1
  Te  Te211  1  0.66747515  0.32654271  0.49464214  1
  Te  Te212  1  0.67059731  0.33382379  0.83301755  1
  Te  Te213  1  0.66352021  0.66477712  0.16291125  1
  Te  Te214  1  0.66608889  0.66533987  0.50509471  1
  Te  Te215  1  0.66319565  0.66530915  0.83747993  1
