# generated using pymatgen
data_AgSbTe2
_symmetry_space_group_name_H-M   'P 1'
_cell_length_a   18.32321614
_cell_length_b   18.32569393
_cell_length_c   18.32487382
_cell_angle_alpha   90.00028179
_cell_angle_beta   89.99923187
_cell_angle_gamma   90.00167725
_symmetry_Int_Tables_number   1
_chemical_formula_structural   AgSbTe2
_chemical_formula_sum   'Ag54 Sb54 Te108'
_cell_volume   6153.22967449
_cell_formula_units_Z   54
loop_
 _symmetry_equiv_pos_site_id
 _symmetry_equiv_pos_as_xyz
  1  'x, y, z'
loop_
 _atom_site_type_symbol
 _atom_site_label
 _atom_site_symmetry_multiplicity
 _atom_site_fract_x
 _atom_site_fract_y
 _atom_site_fract_z
 _atom_site_occupancy
  Ag  Ag0  1  0.50937591  -0.00631760  0.49760724  1
  Ag  Ag1  1  0.82334207  -0.00856061  0.50034225  1
  Ag  Ag2  1  0.00792098  0.33225671  -0.00013204  1
  Ag  Ag3  1  0.49207532  0.83187455  0.00867978  1
  Ag  Ag4  1  0.16165854  0.83314435  0.33067208  1
  Ag  Ag5  1  0.49730090  0.32904224  0.16668211  1
  Ag  Ag6  1  0.16429823  0.32804305  0.83239103  1
  Ag  Ag7  1  0.17072218  0.83579133  -0.00160969  1
  Ag  Ag8  1  0.66687063  0.32620531  0.66580377  1
  Ag  Ag9  1  0.49790921  0.67798552  0.16969503  1
  Ag  Ag10  1  0.84263196  0.66590935  0.82129851  1
  Ag  Ag11  1  0.83457360  0.50603599  0.66661219  1
  Ag  Ag12  1  -0.00633282  0.84034056  0.50138587  1
  Ag  Ag13  1  0.00545862  0.83601665  0.82861495  1
  Ag  Ag14  1  0.49625725  0.83817615  0.33202713  1
  Ag  Ag15  1  0.00500813  0.33175544  0.33302019  1
  Ag  Ag16  1  0.33587397  0.16683541  0.16380586  1
  Ag  Ag17  1  0.65794253  -0.00164194  0.34443079  1
  Ag  Ag18  1  0.66936455  0.15611181  0.50176927  1
  Ag  Ag19  1  0.33061616  0.66777785  0.66985701  1
  Ag  Ag20  1  0.84322632  0.33541696  0.83134065  1
  Ag  Ag21  1  0.32702521  0.32807376  0.32651499  1
  Ag  Ag22  1  0.33918730  -0.00094009  0.33215515  1
  Ag  Ag23  1  0.50408581  0.67618014  0.50082188  1
  Ag  Ag24  1  0.50145184  0.49899850  0.66810324  1
  Ag  Ag25  1  -0.00019863  0.49992691  0.49859740  1
  Ag  Ag26  1  -0.00455671  -0.00539126  0.65907000  1
  Ag  Ag27  1  0.16820990  0.17193064  -0.00740968  1
  Ag  Ag28  1  0.32644022  0.16733719  0.83573699  1
  Ag  Ag29  1  0.16687978  0.16864044  0.67321195  1
  Ag  Ag30  1  0.49854806  0.16462369  0.66697970  1
  Ag  Ag31  1  0.16282143  0.33186164  0.50116901  1
  Ag  Ag32  1  0.65393604  0.16643688  0.17157292  1
  Ag  Ag33  1  0.16472362  0.66852085  0.83017904  1
  Ag  Ag34  1  0.49504756  0.50189722  -0.00080967  1
  Ag  Ag35  1  0.00034394  0.49651356  0.17362228  1
  Ag  Ag36  1  0.83853051  0.33238481  0.16621098  1
  Ag  Ag37  1  0.32728033  0.83405969  0.83738796  1
  Ag  Ag38  1  0.83882338  0.82757137  0.65787428  1
  Ag  Ag39  1  0.16385034  0.49710220  0.33401882  1
  Ag  Ag40  1  0.33749254  0.83751526  0.16568377  1
  Ag  Ag41  1  0.49794519  -0.00149677  0.17469508  1
  Ag  Ag42  1  0.84269038  0.83580533  0.34502672  1
  Ag  Ag43  1  -0.00180061  0.15962421  0.50552237  1
  Ag  Ag44  1  0.83431382  0.68011694  0.50508838  1
  Ag  Ag45  1  0.00481634  0.83369163  0.17734746  1
  Ag  Ag46  1  0.32915283  0.32953414  0.00154422  1
  Ag  Ag47  1  0.68133715  0.84525866  0.49925306  1
  Ag  Ag48  1  0.66688144  0.00426445  0.65661592  1
  Ag  Ag49  1  0.33218054  0.49854371  0.83236044  1
  Ag  Ag50  1  0.00824110  0.16566852  0.82461767  1
  Ag  Ag51  1  -0.00436750  0.67299023  0.66629036  1
  Ag  Ag52  1  0.49781260  -0.00125116  0.82746734  1
  Ag  Ag53  1  0.00028911  -0.00466614  0.34061152  1
  Sb  Sb54  1  0.00099565  0.67172199  0.34036246  1
  Sb  Sb55  1  0.66159383  0.84005768  0.17458825  1
  Sb  Sb56  1  0.66722441  0.32507915  0.33602300  1
  Sb  Sb57  1  0.83720684  0.83291991  -0.00246930  1
  Sb  Sb58  1  0.49658146  0.66977887  0.82993566  1
  Sb  Sb59  1  0.66367548  0.66784810  -0.00000286  1
  Sb  Sb60  1  0.17215056  -0.00159396  0.17000847  1
  Sb  Sb61  1  0.83518343  0.16151806  0.33456683  1
  Sb  Sb62  1  0.66271849  0.49889071  0.82953708  1
  Sb  Sb63  1  0.33384149  0.00132028  0.00391580  1
  Sb  Sb64  1  0.49656048  0.33125738  0.49759249  1
  Sb  Sb65  1  0.00436487  0.16620471  0.16796366  1
  Sb  Sb66  1  0.66553147  0.67490329  0.33631229  1
  Sb  Sb67  1  0.17104241  0.00222286  0.83210528  1
  Sb  Sb68  1  0.83319341  0.66573835  0.16989080  1
  Sb  Sb69  1  0.83295188  -0.00048083  0.82345018  1
  Sb  Sb70  1  0.67092436  0.49898732  0.50252134  1
  Sb  Sb71  1  0.82888006  0.00236542  0.17603912  1
  Sb  Sb72  1  0.66852250  0.49405057  0.16751823  1
  Sb  Sb73  1  0.83226218  0.49732764  -0.00514723  1
  Sb  Sb74  1  0.66682822  0.83528049  0.82673699  1
  Sb  Sb75  1  0.33484361  -0.00244661  0.66374039  1
  Sb  Sb76  1  0.66424515  0.33155932  -0.00293975  1
  Sb  Sb77  1  0.83926656  0.33207178  0.50108257  1
  Sb  Sb78  1  -0.00242108  0.33206838  0.66611750  1
  Sb  Sb79  1  0.16708474  0.33302083  0.16691723  1
  Sb  Sb80  1  0.16902375  0.49791292  0.00090777  1
  Sb  Sb81  1  0.66611960  0.16675085  0.82970200  1
  Sb  Sb82  1  0.00421970  0.49857515  0.83055172  1
  Sb  Sb83  1  0.84179445  0.50330181  0.33909812  1
  Sb  Sb84  1  0.16311008  0.66427049  0.50522281  1
  Sb  Sb85  1  0.00196240  0.00171061  0.00008899  1
  Sb  Sb86  1  0.49455995  0.50309214  0.33367439  1
  Sb  Sb87  1  0.16182817  0.00306241  0.49968149  1
  Sb  Sb88  1  0.49845775  0.15901464  0.33547578  1
  Sb  Sb89  1  0.16067566  0.83623118  0.66710218  1
  Sb  Sb90  1  0.33146668  0.83436592  0.49846541  1
  Sb  Sb91  1  0.16661402  0.16718961  0.33461479  1
  Sb  Sb92  1  0.49499744  0.33109716  0.83539659  1
  Sb  Sb93  1  0.33541545  0.33481793  0.66910183  1
  Sb  Sb94  1  0.49319232  0.16574357  -0.00060539  1
  Sb  Sb95  1  0.33318793  0.66748544  -0.00479316  1
  Sb  Sb96  1  0.66189811  0.00024030  0.00155872  1
  Sb  Sb97  1  0.32942367  0.49996480  0.50343503  1
  Sb  Sb98  1  0.33202167  0.16553710  0.50091240  1
  Sb  Sb99  1  0.50247371  0.83488890  0.66354506  1
  Sb  Sb100  1  0.66981213  0.66997215  0.66449253  1
  Sb  Sb101  1  0.83427173  0.16602422  0.66549463  1
  Sb  Sb102  1  0.00176860  0.66436055  -0.00545698  1
  Sb  Sb103  1  0.33267118  0.67007582  0.33676861  1
  Sb  Sb104  1  0.33144959  0.49963325  0.16385436  1
  Sb  Sb105  1  0.16944964  0.67000148  0.16300090  1
  Sb  Sb106  1  0.16499379  0.49699700  0.66545809  1
  Sb  Sb107  1  0.83999073  0.16919811  -0.00049468  1
  Te  Te108  1  0.17394374  0.16569481  0.15916384  1
  Te  Te109  1  0.16375712  0.17133749  0.50340653  1
  Te  Te110  1  0.16642950  0.16655238  0.83357215  1
  Te  Te111  1  0.16038500  0.50278702  0.17066329  1
  Te  Te112  1  0.16124101  0.49655346  0.49630172  1
  Te  Te113  1  0.17231485  0.49826324  0.83380006  1
  Te  Te114  1  0.16576390  0.83207837  0.16767135  1
  Te  Te115  1  0.16154268  0.83272764  0.49467298  1
  Te  Te116  1  0.16657574  0.83405164  0.83231570  1
  Te  Te117  1  0.49575154  0.16627045  0.16615845  1
  Te  Te118  1  0.50187875  0.16492260  0.50561193  1
  Te  Te119  1  0.49840479  0.16353145  0.83022413  1
  Te  Te120  1  0.50039241  0.49688135  0.16476623  1
  Te  Te121  1  0.50095688  0.50139092  0.50405088  1
  Te  Te122  1  0.49450092  0.50077852  0.83157537  1
  Te  Te123  1  0.49978260  0.83571227  0.16776615  1
  Te  Te124  1  0.49632786  0.83368010  0.49765968  1
  Te  Te125  1  0.49881709  0.83608022  0.83338217  1
  Te  Te126  1  0.83303457  0.17235061  0.16650487  1
  Te  Te127  1  0.83527005  0.16358961  0.50004731  1
  Te  Te128  1  0.83834469  0.17173489  0.83372693  1
  Te  Te129  1  0.83789748  0.49691818  0.16681759  1
  Te  Te130  1  0.83849734  0.50098711  0.50566970  1
  Te  Te131  1  0.83347005  0.49882844  0.82810401  1
  Te  Te132  1  0.83552622  0.83229110  0.16739009  1
  Te  Te133  1  0.83647557  0.83530007  0.50099040  1
  Te  Te134  1  0.83737589  0.83075225  0.83116191  1
  Te  Te135  1  0.16635246  -0.00496558  0.00102060  1
  Te  Te136  1  0.16459636  -0.00465892  0.33436555  1
  Te  Te137  1  0.16164376  0.00843306  0.66542117  1
  Te  Te138  1  0.16805313  0.33328394  -0.00271915  1
  Te  Te139  1  0.16528395  0.33311852  0.33398294  1
  Te  Te140  1  0.16693203  0.32962457  0.66736551  1
  Te  Te141  1  0.16704154  0.67239733  -0.00871880  1
  Te  Te142  1  0.16757022  0.66806379  0.33343234  1
  Te  Te143  1  0.16773128  0.66558650  0.67180378  1
  Te  Te144  1  0.49953367  -0.00563376  -0.00146468  1
  Te  Te145  1  0.49900131  -0.00116630  0.33427394  1
  Te  Te146  1  0.50042356  0.00192996  0.66477452  1
  Te  Te147  1  0.49634861  0.33535524  0.00302431  1
  Te  Te148  1  0.49760966  0.33437466  0.32855729  1
  Te  Te149  1  0.50290581  0.33281556  0.66668708  1
  Te  Te150  1  0.49925882  0.66735712  0.00255863  1
  Te  Te151  1  0.49874634  0.67119573  0.33524115  1
  Te  Te152  1  0.50067560  0.66364672  0.66363420  1
  Te  Te153  1  0.83140162  0.00036899  0.00028756  1
  Te  Te154  1  0.83911693  -0.00469590  0.33879233  1
  Te  Te155  1  0.83465083  -0.00206801  0.66185258  1
  Te  Te156  1  0.83609039  0.33475498  -0.00030198  1
  Te  Te157  1  0.83677612  0.33490929  0.32861812  1
  Te  Te158  1  0.83017272  0.33640915  0.66860456  1
  Te  Te159  1  0.83212691  0.66499469  -0.00452796  1
  Te  Te160  1  0.83269024  0.67374121  0.33908440  1
  Te  Te161  1  0.83303263  0.66700993  0.66486363  1
  Te  Te162  1  0.00699434  0.17053907  -0.00223137  1
  Te  Te163  1  0.00166108  0.16729276  0.33737004  1
  Te  Te164  1  0.00037205  0.16623849  0.66625070  1
  Te  Te165  1  0.00031952  0.49329345  0.00481273  1
  Te  Te166  1  0.00350083  0.49796686  0.33464165  1
  Te  Te167  1  -0.00268968  0.50320517  0.66328456  1
  Te  Te168  1  0.00476189  0.83333402  -0.00663265  1
  Te  Te169  1  0.00151887  0.83358077  0.33458411  1
  Te  Te170  1  0.00016514  0.83373135  0.66777772  1
  Te  Te171  1  0.32938325  0.16877866  -0.00143348  1
  Te  Te172  1  0.33213327  0.16679267  0.32897466  1
  Te  Te173  1  0.33370510  0.16617756  0.67056239  1
  Te  Te174  1  0.33607119  0.49596601  -0.00373317  1
  Te  Te175  1  0.32629551  0.49607064  0.33313159  1
  Te  Te176  1  0.33669404  0.50291554  0.67079417  1
  Te  Te177  1  0.33304442  0.83375752  -0.00047629  1
  Te  Te178  1  0.33408721  0.83535924  0.33068060  1
  Te  Te179  1  0.33204767  0.82968794  0.67269075  1
  Te  Te180  1  0.66650840  0.16683432  0.00620337  1
  Te  Te181  1  0.66761571  0.15995975  0.33564486  1
  Te  Te182  1  0.66504087  0.16488652  0.66527801  1
  Te  Te183  1  0.65603506  0.49971372  -0.00047859  1
  Te  Te184  1  0.66686666  0.49801957  0.33420010  1
  Te  Te185  1  0.66404945  0.49510682  0.66578887  1
  Te  Te186  1  0.66040769  0.83362327  0.00030184  1
  Te  Te187  1  0.66208978  0.83978746  0.33886930  1
  Te  Te188  1  0.67139392  0.83912369  0.66085904  1
  Te  Te189  1  -0.00224998  -0.00525988  0.16955924  1
  Te  Te190  1  0.00164288  0.00029197  0.50012979  1
  Te  Te191  1  -0.00146032  0.00087650  0.83157934  1
  Te  Te192  1  -0.00076489  0.33122894  0.16884726  1
  Te  Te193  1  0.00239073  0.33299092  0.49798791  1
  Te  Te194  1  0.00271457  0.33230315  0.83354610  1
  Te  Te195  1  -0.00142678  0.67008183  0.16501336  1
  Te  Te196  1  -0.00149180  0.66646192  0.50560800  1
  Te  Te197  1  0.00205718  0.66615710  0.82937785  1
  Te  Te198  1  0.33785448  -0.00240302  0.17060403  1
  Te  Te199  1  0.34021784  0.00128687  0.49372890  1
  Te  Te200  1  0.33842221  0.00000532  0.83126058  1
  Te  Te201  1  0.33441125  0.33353609  0.16559755  1
  Te  Te202  1  0.32692356  0.33277032  0.49307746  1
  Te  Te203  1  0.33033790  0.33025956  0.83560476  1
  Te  Te204  1  0.33859215  0.67076815  0.16693828  1
  Te  Te205  1  0.33706434  0.66617750  0.50752328  1
  Te  Te206  1  0.33204133  0.66984719  0.82960172  1
  Te  Te207  1  0.66140188  0.00694262  0.16936572  1
  Te  Te208  1  0.66579462  0.00056572  0.50021570  1
  Te  Te209  1  0.66100191  0.00110339  0.82893620  1
  Te  Te210  1  0.66524371  0.32667649  0.16653528  1
  Te  Te211  1  0.66663027  0.32802163  0.50399692  1
  Te  Te212  1  0.67267329  0.33203030  0.82869005  1
  Te  Te213  1  0.66000806  0.66513726  0.16798457  1
  Te  Te214  1  0.66592329  0.66844844  0.50040106  1
  Te  Te215  1  0.67593688  0.66700885  0.83283853  1
