# generated using pymatgen
data_AgSbTe2
_symmetry_space_group_name_H-M   'P 1'
_cell_length_a   18.35840016
_cell_length_b   18.36091163
_cell_length_c   18.36061890
_cell_angle_alpha   90.00128567
_cell_angle_beta   89.99639638
_cell_angle_gamma   90.00039858
_symmetry_Int_Tables_number   1
_chemical_formula_structural   AgSbTe2
_chemical_formula_sum   'Ag54 Sb54 Te108'
_cell_volume   6188.94164419
_cell_formula_units_Z   54
loop_
 _symmetry_equiv_pos_site_id
 _symmetry_equiv_pos_as_xyz
  1  'x, y, z'
loop_
 _atom_site_type_symbol
 _atom_site_label
 _atom_site_symmetry_multiplicity
 _atom_site_fract_x
 _atom_site_fract_y
 _atom_site_fract_z
 _atom_site_occupancy
  Ag  Ag0  1  0.50397139  -0.00531206  0.82353107  1
  Ag  Ag1  1  0.66575796  0.16671750  0.15753861  1
  Ag  Ag2  1  0.49688503  0.67361393  0.50182826  1
  Ag  Ag3  1  0.65777073  0.84344423  0.82234872  1
  Ag  Ag4  1  -0.00418857  0.83324908  0.81994869  1
  Ag  Ag5  1  0.33775803  0.00277884  -0.00833292  1
  Ag  Ag6  1  0.50027868  0.15814103  0.66559358  1
  Ag  Ag7  1  0.33276373  0.67237171  0.66285006  1
  Ag  Ag8  1  0.65860329  -0.00020769  0.66922587  1
  Ag  Ag9  1  -0.00378670  0.16064410  0.50501272  1
  Ag  Ag10  1  0.33405984  0.32438189  0.66430515  1
  Ag  Ag11  1  0.50278573  0.84391401  0.66335718  1
  Ag  Ag12  1  0.49692916  0.67614215  0.82366838  1
  Ag  Ag13  1  0.49853458  0.83543679  -0.01322921  1
  Ag  Ag14  1  0.81774942  0.00535660  0.82676560  1
  Ag  Ag15  1  0.17790787  0.66311158  0.17999961  1
  Ag  Ag16  1  0.82839859  0.84057034  0.66660571  1
  Ag  Ag17  1  0.01098953  0.67817827  0.66505732  1
  Ag  Ag18  1  0.34018049  0.00115315  0.66577271  1
  Ag  Ag19  1  0.17670178  0.67495456  0.50250731  1
  Ag  Ag20  1  0.49532309  0.50827277  0.33741026  1
  Ag  Ag21  1  0.82825191  0.16710902  0.34977066  1
  Ag  Ag22  1  0.33494192  0.32810537  -0.00684836  1
  Ag  Ag23  1  0.17666145  0.50769290  0.33600544  1
  Ag  Ag24  1  0.17946212  0.82551024  0.34352732  1
  Ag  Ag25  1  0.17338738  0.16854685  -0.01622759  1
  Ag  Ag26  1  0.65167343  0.83668687  0.50418745  1
  Ag  Ag27  1  0.17635881  0.16632544  0.66481112  1
  Ag  Ag28  1  0.17288162  0.33373863  0.16507500  1
  Ag  Ag29  1  0.82713363  0.16224483  0.66631969  1
  Ag  Ag30  1  0.49285421  0.67112976  0.18381379  1
  Ag  Ag31  1  0.65641245  0.32517125  -0.00786231  1
  Ag  Ag32  1  0.65438628  0.50704691  0.50043936  1
  Ag  Ag33  1  0.66530167  0.16411794  0.50630750  1
  Ag  Ag34  1  0.66513471  0.15609884  0.82825596  1
  Ag  Ag35  1  0.65779819  0.66839530  0.33965836  1
  Ag  Ag36  1  0.00701193  0.83849649  0.50449863  1
  Ag  Ag37  1  0.49514913  -0.01164011  0.51037678  1
  Ag  Ag38  1  0.33401168  0.50896825  0.17791385  1
  Ag  Ag39  1  0.65573789  0.00531328  -0.01549617  1
  Ag  Ag40  1  0.82234079  0.32570689  0.82625105  1
  Ag  Ag41  1  0.33484180  0.16154720  0.50418260  1
  Ag  Ag42  1  0.17633109  -0.00736844  0.50371369  1
  Ag  Ag43  1  -0.00516081  -0.00294699  0.66554820  1
  Ag  Ag44  1  0.82922945  0.32774524  0.50819405  1
  Ag  Ag45  1  0.83109272  0.48833973  0.66327033  1
  Ag  Ag46  1  0.33623624  0.50579349  0.49933860  1
  Ag  Ag47  1  0.49990082  0.32878671  0.83310265  1
  Ag  Ag48  1  0.17547459  0.66959710  0.82082017  1
  Ag  Ag49  1  0.33507859  0.83027542  0.49864496  1
  Ag  Ag50  1  0.49648636  0.82820688  0.34695100  1
  Ag  Ag51  1  0.17391198  0.33036973  0.83346751  1
  Ag  Ag52  1  0.33846403  0.82388242  0.18067953  1
  Ag  Ag53  1  0.33346780  0.33836910  0.34357249  1
  Sb  Sb54  1  0.00457525  0.33016878  -0.00301935  1
  Sb  Sb55  1  0.01028978  0.50100830  0.16812034  1
  Sb  Sb56  1  0.66354264  0.32404840  0.66870366  1
  Sb  Sb57  1  0.66064691  0.49646396  0.17252327  1
  Sb  Sb58  1  0.00478748  0.33303270  0.33642240  1
  Sb  Sb59  1  0.82974913  0.00561063  0.51066572  1
  Sb  Sb60  1  0.83397023  0.33214752  0.16552299  1
  Sb  Sb61  1  -0.00013669  0.33019806  0.66547247  1
  Sb  Sb62  1  0.00587061  0.67059903  -0.00835392  1
  Sb  Sb63  1  0.17131656  0.49530790  0.00297298  1
  Sb  Sb64  1  0.00951109  0.83253521  0.17087273  1
  Sb  Sb65  1  -0.00168409  0.16635376  0.17315681  1
  Sb  Sb66  1  0.16990866  0.33306335  0.50315817  1
  Sb  Sb67  1  0.00300194  0.00032721  -0.01015080  1
  Sb  Sb68  1  0.33879954  0.16785543  0.82442633  1
  Sb  Sb69  1  0.49817254  0.16304125  -0.00720322  1
  Sb  Sb70  1  0.00126759  0.50304704  0.82970629  1
  Sb  Sb71  1  0.33546831  0.66859568  -0.00134740  1
  Sb  Sb72  1  0.33933447  0.66107449  0.34153081  1
  Sb  Sb73  1  0.82998509  0.66769416  0.17011287  1
  Sb  Sb74  1  0.82865935  0.49691085  -0.00818602  1
  Sb  Sb75  1  0.00278278  0.66881156  0.34088152  1
  Sb  Sb76  1  0.66161004  0.66898297  0.00072903  1
  Sb  Sb77  1  0.82457875  0.83527420  -0.01097266  1
  Sb  Sb78  1  0.17180358  -0.00084963  0.82421265  1
  Sb  Sb79  1  0.00303487  0.50079152  0.50294466  1
  Sb  Sb80  1  0.33442183  0.00008368  0.34091710  1
  Sb  Sb81  1  0.17052426  0.00026457  0.17117037  1
  Sb  Sb82  1  -0.00226943  0.16240061  0.82456000  1
  Sb  Sb83  1  0.50233336  0.50234630  0.66198898  1
  Sb  Sb84  1  -0.00055631  0.00067861  0.34568019  1
  Sb  Sb85  1  0.17519898  0.83807614  0.00104511  1
  Sb  Sb86  1  0.66546675  -0.00183202  0.34158982  1
  Sb  Sb87  1  0.66483288  0.49961831  0.82437328  1
  Sb  Sb88  1  0.49851300  -0.00414745  0.16584673  1
  Sb  Sb89  1  0.16740935  0.49909585  0.66309626  1
  Sb  Sb90  1  0.33683337  0.83333114  0.82601007  1
  Sb  Sb91  1  0.50281777  0.16469889  0.34133316  1
  Sb  Sb92  1  0.49947818  0.33253412  0.50541653  1
  Sb  Sb93  1  0.66196806  0.33351123  0.33519553  1
  Sb  Sb94  1  0.16645799  0.16705944  0.34196278  1
  Sb  Sb95  1  0.82957185  0.00053790  0.15943365  1
  Sb  Sb96  1  0.49370395  0.33539401  0.16298964  1
  Sb  Sb97  1  0.33434999  0.49787632  0.82958277  1
  Sb  Sb98  1  0.83137318  0.16588191  -0.00637587  1
  Sb  Sb99  1  0.33714386  0.16706501  0.16874878  1
  Sb  Sb100  1  0.49716682  0.50274207  0.00293988  1
  Sb  Sb101  1  0.82867484  0.83825104  0.34414822  1
  Sb  Sb102  1  0.16962781  0.83840582  0.66018397  1
  Sb  Sb103  1  0.65843201  0.83679322  0.16878519  1
  Sb  Sb104  1  0.83042474  0.66556508  0.50457021  1
  Sb  Sb105  1  0.66051351  0.67469800  0.66246127  1
  Sb  Sb106  1  0.82971246  0.49555800  0.34100545  1
  Sb  Sb107  1  0.83067940  0.66849041  0.82623170  1
  Te  Te108  1  0.16518619  0.17079643  0.17235032  1
  Te  Te109  1  0.17111632  0.16713731  0.50555868  1
  Te  Te110  1  0.16470226  0.16838017  0.82788469  1
  Te  Te111  1  0.17325479  0.50101925  0.16956740  1
  Te  Te112  1  0.17015466  0.50073040  0.49530250  1
  Te  Te113  1  0.16636189  0.50197124  0.83443776  1
  Te  Te114  1  0.17457693  0.82971095  0.16955091  1
  Te  Te115  1  0.16767799  0.83295033  0.49913780  1
  Te  Te116  1  0.16532342  0.82823208  0.83718859  1
  Te  Te117  1  0.50704038  0.16704292  0.17020468  1
  Te  Te118  1  0.50001218  0.16726516  0.50446972  1
  Te  Te119  1  0.50522934  0.16887720  0.83022865  1
  Te  Te120  1  0.49537790  0.50552388  0.17096910  1
  Te  Te121  1  0.49838279  0.49772953  0.49648940  1
  Te  Te122  1  0.50000273  0.49938803  0.83455287  1
  Te  Te123  1  0.49696973  0.82945872  0.16801356  1
  Te  Te124  1  0.49763790  0.83077005  0.50343139  1
  Te  Te125  1  0.49840109  0.83427447  0.82808811  1
  Te  Te126  1  0.82853265  0.16722488  0.16315476  1
  Te  Te127  1  0.83086117  0.16472864  0.50669191  1
  Te  Te128  1  0.83183627  0.16644598  0.82932513  1
  Te  Te129  1  0.83373575  0.50086068  0.16743326  1
  Te  Te130  1  0.83448884  0.49394316  0.50292252  1
  Te  Te131  1  0.83328433  0.49528437  0.82481918  1
  Te  Te132  1  0.83443464  0.83238778  0.16796965  1
  Te  Te133  1  0.84149098  0.83281303  0.50520366  1
  Te  Te134  1  0.83202975  0.83485824  0.82694578  1
  Te  Te135  1  0.17145328  0.00688858  0.00001481  1
  Te  Te136  1  0.16539085  -0.00493651  0.34051095  1
  Te  Te137  1  0.16988011  0.00572446  0.66286327  1
  Te  Te138  1  0.17022020  0.32911135  -0.00376343  1
  Te  Te139  1  0.17182815  0.33432828  0.33105118  1
  Te  Te140  1  0.16885260  0.33183934  0.67105811  1
  Te  Te141  1  0.16741604  0.66703369  -0.00254167  1
  Te  Te142  1  0.16404334  0.66788120  0.33586952  1
  Te  Te143  1  0.17030756  0.66312361  0.66312555  1
  Te  Te144  1  0.49833702  -0.00197809  0.00025854  1
  Te  Te145  1  0.50105725  -0.00639973  0.33596940  1
  Te  Te146  1  0.49943415  0.00260940  0.66587808  1
  Te  Te147  1  0.49795059  0.33332147  -0.00399838  1
  Te  Te148  1  0.49324337  0.33470014  0.33077424  1
  Te  Te149  1  0.49591734  0.33575036  0.67207327  1
  Te  Te150  1  0.50058721  0.67208484  -0.01058327  1
  Te  Te151  1  0.49996286  0.66735550  0.33953831  1
  Te  Te152  1  0.49455501  0.66472769  0.66274710  1
  Te  Te153  1  0.83059140  -0.00133764  -0.01034032  1
  Te  Te154  1  0.83309859  0.00696430  0.32694984  1
  Te  Te155  1  0.83565558  0.00102248  0.66867879  1
  Te  Te156  1  0.83209960  0.33438131  -0.00448320  1
  Te  Te157  1  0.83288407  0.32751204  0.33350504  1
  Te  Te158  1  0.83281779  0.32891517  0.66759261  1
  Te  Te159  1  0.83374520  0.66559748  0.00035246  1
  Te  Te160  1  0.82845284  0.66536829  0.33459051  1
  Te  Te161  1  0.83661459  0.67510824  0.66833443  1
  Te  Te162  1  0.00618371  0.16527611  0.00351215  1
  Te  Te163  1  -0.00693920  0.16750302  0.34127044  1
  Te  Te164  1  -0.00119549  0.16412258  0.66242592  1
  Te  Te165  1  -0.00207415  0.50098092  -0.00014484  1
  Te  Te166  1  0.00333459  0.50046521  0.33310476  1
  Te  Te167  1  -0.00746244  0.50235816  0.66657009  1
  Te  Te168  1  -0.00238731  0.83460560  0.00037291  1
  Te  Te169  1  -0.00096150  0.83402891  0.33847436  1
  Te  Te170  1  0.00770081  0.83503786  0.66459472  1
  Te  Te171  1  0.33195634  0.16690245  0.00306790  1
  Te  Te172  1  0.33382603  0.17152822  0.34049952  1
  Te  Te173  1  0.33663661  0.16516250  0.66468085  1
  Te  Te174  1  0.33429439  0.49004015  0.00334424  1
  Te  Te175  1  0.33345342  0.49960762  0.33543933  1
  Te  Te176  1  0.33327408  0.50132605  0.66156681  1
  Te  Te177  1  0.33920508  0.83735556  -0.00142420  1
  Te  Te178  1  0.33534396  0.83733412  0.33569875  1
  Te  Te179  1  0.33730282  0.83526816  0.66128087  1
  Te  Te180  1  0.66533099  0.16634686  -0.00501503  1
  Te  Te181  1  0.66973449  0.16646678  0.34181463  1
  Te  Te182  1  0.66392826  0.16484066  0.66869893  1
  Te  Te183  1  0.66583305  0.49407929  0.00197152  1
  Te  Te184  1  0.66261692  0.50255203  0.33982327  1
  Te  Te185  1  0.67220775  0.50299624  0.65817724  1
  Te  Te186  1  0.65977015  0.83757293  0.00078865  1
  Te  Te187  1  0.66365844  0.83028129  0.33827058  1
  Te  Te188  1  0.66577024  0.83458666  0.66520045  1
  Te  Te189  1  -0.00110238  -0.00100514  0.16576205  1
  Te  Te190  1  0.00130244  0.00118617  0.50624489  1
  Te  Te191  1  0.00344381  -0.00597776  0.82666822  1
  Te  Te192  1  0.00909135  0.33340494  0.16658447  1
  Te  Te193  1  -0.00639793  0.33051283  0.49921616  1
  Te  Te194  1  0.00267900  0.33340718  0.83356621  1
  Te  Te195  1  0.00354512  0.66719910  0.16619275  1
  Te  Te196  1  0.00082269  0.66816418  0.50604835  1
  Te  Te197  1  0.00074910  0.67217356  0.82656167  1
  Te  Te198  1  0.33166808  -0.00178024  0.16150676  1
  Te  Te199  1  0.33553031  0.00099894  0.50212836  1
  Te  Te200  1  0.33963868  0.00088618  0.83087811  1
  Te  Te201  1  0.33049580  0.33029483  0.16461634  1
  Te  Te202  1  0.33376266  0.33302413  0.50376244  1
  Te  Te203  1  0.33379096  0.33293447  0.83074355  1
  Te  Te204  1  0.33382559  0.66704161  0.16104315  1
  Te  Te205  1  0.33443884  0.66635924  0.50076431  1
  Te  Te206  1  0.33444733  0.66428270  0.82986982  1
  Te  Te207  1  0.66676153  0.00624085  0.16602165  1
  Te  Te208  1  0.66195177  -0.00168050  0.50438935  1
  Te  Te209  1  0.66299569  -0.00197555  0.83010226  1
  Te  Te210  1  0.66735592  0.32817649  0.16361497  1
  Te  Te211  1  0.66961211  0.32874507  0.50002456  1
  Te  Te212  1  0.66586847  0.33660566  0.83474071  1
  Te  Te213  1  0.66185026  0.66661731  0.17226157  1
  Te  Te214  1  0.66438566  0.66874239  0.49833650  1
  Te  Te215  1  0.65937529  0.66894542  0.83454714  1
