# generated using pymatgen
data_AgSbTe2
_symmetry_space_group_name_H-M   'P 1'
_cell_length_a   18.34038001
_cell_length_b   18.34484469
_cell_length_c   18.34589898
_cell_angle_alpha   89.99936135
_cell_angle_beta   89.99731158
_cell_angle_gamma   90.00147195
_symmetry_Int_Tables_number   1
_chemical_formula_structural   AgSbTe2
_chemical_formula_sum   'Ag54 Sb54 Te108'
_cell_volume   6172.50380514
_cell_formula_units_Z   54
loop_
 _symmetry_equiv_pos_site_id
 _symmetry_equiv_pos_as_xyz
  1  'x, y, z'
loop_
 _atom_site_type_symbol
 _atom_site_label
 _atom_site_symmetry_multiplicity
 _atom_site_fract_x
 _atom_site_fract_y
 _atom_site_fract_z
 _atom_site_occupancy
  Ag  Ag0  1  0.16922464  0.50186295  0.34687662  1
  Ag  Ag1  1  0.16599478  -0.00335200  0.50282509  1
  Ag  Ag2  1  0.51117602  0.66301893  0.50716797  1
  Ag  Ag3  1  0.66759084  0.50072507  0.82359451  1
  Ag  Ag4  1  0.50790505  0.50238206  -0.01066496  1
  Ag  Ag5  1  0.82672766  0.50335055  -0.01269832  1
  Ag  Ag6  1  -0.01131502  0.66273230  0.66353712  1
  Ag  Ag7  1  0.66683865  0.65928863  0.66591011  1
  Ag  Ag8  1  0.33419001  0.00274641  0.66664811  1
  Ag  Ag9  1  0.33709652  0.17008641  0.49780194  1
  Ag  Ag10  1  0.32965854  0.49896095  0.50659774  1
  Ag  Ag11  1  0.82911116  0.66028057  0.16868988  1
  Ag  Ag12  1  -0.00936724  0.82676539  0.82412190  1
  Ag  Ag13  1  0.66862122  0.17174983  0.82119534  1
  Ag  Ag14  1  0.33897744  0.16740369  0.17129215  1
  Ag  Ag15  1  -0.01011329  0.82664097  0.50495816  1
  Ag  Ag16  1  -0.01135991  0.50549783  0.82408644  1
  Ag  Ag17  1  0.66704438  0.16743460  0.50721953  1
  Ag  Ag18  1  0.17324073  0.32875248  0.16860025  1
  Ag  Ag19  1  0.33492817  0.66503074  -0.00054540  1
  Ag  Ag20  1  0.67087992  0.82631289  0.50583862  1
  Ag  Ag21  1  0.16284441  0.83249493  0.33821591  1
  Ag  Ag22  1  0.82334236  0.33920781  0.16762464  1
  Ag  Ag23  1  0.16516629  0.49817040  0.66459109  1
  Ag  Ag24  1  0.16798387  -0.00005305  0.82135347  1
  Ag  Ag25  1  0.66965683  0.83031501  0.82152925  1
  Ag  Ag26  1  0.83405540  0.83145452  0.34480238  1
  Ag  Ag27  1  0.17409660  0.00900164  0.16577950  1
  Ag  Ag28  1  0.82968184  0.34235542  0.82339696  1
  Ag  Ag29  1  0.66921735  0.50597757  0.51053123  1
  Ag  Ag30  1  0.51250564  0.50514701  0.66967063  1
  Ag  Ag31  1  0.34363231  0.50173266  0.82419737  1
  Ag  Ag32  1  0.83025859  -0.01028370  0.50475260  1
  Ag  Ag33  1  0.50148333  0.66205234  0.82454685  1
  Ag  Ag34  1  0.66437098  -0.00241400  0.66529580  1
  Ag  Ag35  1  0.66970574  0.83125415  0.16767361  1
  Ag  Ag36  1  0.33092445  -0.00060470  -0.00280541  1
  Ag  Ag37  1  0.82535738  0.49645449  0.66691245  1
  Ag  Ag38  1  0.50682238  0.82341540  0.66558785  1
  Ag  Ag39  1  0.16365938  0.66128675  0.50233745  1
  Ag  Ag40  1  0.65819688  0.16963476  0.16686310  1
  Ag  Ag41  1  0.17103882  0.16231159  0.00031943  1
  Ag  Ag42  1  0.66933035  0.49832598  0.16448744  1
  Ag  Ag43  1  -0.00425376  0.50809613  0.50741572  1
  Ag  Ag44  1  0.82891809  0.34370175  0.50748749  1
  Ag  Ag45  1  0.49906008  0.16743911  0.33258668  1
  Ag  Ag46  1  0.82053703  0.17486489  0.66368502  1
  Ag  Ag47  1  0.66940009  0.34520287  0.66486620  1
  Ag  Ag48  1  0.83064094  0.82556774  0.00127442  1
  Ag  Ag49  1  0.50631426  0.33021110  0.16858404  1
  Ag  Ag50  1  0.49840032  0.01117446  0.16482875  1
  Ag  Ag51  1  0.83099481  0.66562022  0.50157282  1
  Ag  Ag52  1  0.33306335  0.33213790  0.33345522  1
  Ag  Ag53  1  0.16810180  0.16551316  0.66560154  1
  Sb  Sb54  1  0.33813300  0.66484459  0.66607634  1
  Sb  Sb55  1  0.50576722  0.33984300  0.83537474  1
  Sb  Sb56  1  0.82721481  0.66271860  0.82888489  1
  Sb  Sb57  1  0.33818720  0.84054638  0.16654236  1
  Sb  Sb58  1  0.33526570  0.82990468  0.83113164  1
  Sb  Sb59  1  -0.00816886  0.34389475  0.66550494  1
  Sb  Sb60  1  -0.00549236  0.83258715  0.17003189  1
  Sb  Sb61  1  0.16201121  0.33086390  0.83353841  1
  Sb  Sb62  1  0.16986967  0.66881251  0.82707411  1
  Sb  Sb63  1  0.33292557  0.00464525  0.33583046  1
  Sb  Sb64  1  0.33732346  0.17031408  0.83187371  1
  Sb  Sb65  1  0.66283386  -0.00185407  -0.00286085  1
  Sb  Sb66  1  0.33742422  0.49398476  0.16644923  1
  Sb  Sb67  1  0.50517102  0.82850364  -0.00336522  1
  Sb  Sb68  1  -0.00173551  0.33599425  -0.00095892  1
  Sb  Sb69  1  0.00280246  0.33594961  0.33468389  1
  Sb  Sb70  1  0.33407351  0.33332095  0.00380888  1
  Sb  Sb71  1  -0.00225777  0.16697085  0.50412449  1
  Sb  Sb72  1  -0.00366882  0.16723966  0.82848009  1
  Sb  Sb73  1  -0.00169853  0.66669923  0.34445218  1
  Sb  Sb74  1  0.33232864  0.66152010  0.33185181  1
  Sb  Sb75  1  0.50106652  -0.00129184  0.50106799  1
  Sb  Sb76  1  0.16417597  0.33607639  0.49945090  1
  Sb  Sb77  1  0.66419162  0.33338492  0.33566845  1
  Sb  Sb78  1  0.83497625  0.50229862  0.34040800  1
  Sb  Sb79  1  0.16308259  0.83733119  0.00332263  1
  Sb  Sb80  1  0.00422444  -0.00208346  -0.00217623  1
  Sb  Sb81  1  0.49817343  0.49594625  0.33766402  1
  Sb  Sb82  1  0.66550502  0.66444397  -0.00596187  1
  Sb  Sb83  1  0.66683230  0.33636091  -0.00240791  1
  Sb  Sb84  1  -0.00497019  0.50081346  0.16745338  1
  Sb  Sb85  1  0.50256935  0.83704491  0.33704512  1
  Sb  Sb86  1  0.50366155  0.16864547  0.66279080  1
  Sb  Sb87  1  0.00148658  -0.00175932  0.33515408  1
  Sb  Sb88  1  0.82498423  0.16469269  0.34104516  1
  Sb  Sb89  1  0.83428507  -0.00058341  0.82657317  1
  Sb  Sb90  1  0.16296790  0.66460997  0.17101122  1
  Sb  Sb91  1  0.83342002  0.16925431  -0.00321759  1
  Sb  Sb92  1  0.16895878  0.83268759  0.66176852  1
  Sb  Sb93  1  0.66624234  -0.00002924  0.33969126  1
  Sb  Sb94  1  0.82832468  -0.00055496  0.17082345  1
  Sb  Sb95  1  0.66709753  0.66663559  0.34160164  1
  Sb  Sb96  1  0.50499997  0.33693708  0.49806866  1
  Sb  Sb97  1  0.00160675  0.16716010  0.16541645  1
  Sb  Sb98  1  -0.00007424  0.66605907  -0.00830405  1
  Sb  Sb99  1  0.33843405  0.33373465  0.66184270  1
  Sb  Sb100  1  0.49769594  -0.00412705  0.83455134  1
  Sb  Sb101  1  0.50706562  0.66300618  0.16750872  1
  Sb  Sb102  1  0.82617269  0.82836250  0.66506558  1
  Sb  Sb103  1  0.49740230  0.17021435  0.00394369  1
  Sb  Sb104  1  0.16749163  0.49672453  -0.00435729  1
  Sb  Sb105  1  0.17244825  0.16724821  0.33542313  1
  Sb  Sb106  1  -0.00121461  -0.00704969  0.66481981  1
  Sb  Sb107  1  0.33476432  0.83158988  0.50152513  1
  Te  Te108  1  0.16742311  0.16723052  0.16899280  1
  Te  Te109  1  0.16689364  0.16538023  0.50294000  1
  Te  Te110  1  0.16713034  0.16342526  0.82990680  1
  Te  Te111  1  0.16452444  0.49683801  0.16491956  1
  Te  Te112  1  0.16921537  0.49679185  0.50295978  1
  Te  Te113  1  0.16565482  0.49938332  0.82999663  1
  Te  Te114  1  0.16513031  0.83415520  0.17276534  1
  Te  Te115  1  0.16970451  0.83619586  0.49802073  1
  Te  Te116  1  0.16599091  0.83801318  0.83416184  1
  Te  Te117  1  0.49794602  0.16901058  0.16491420  1
  Te  Te118  1  0.50046305  0.16693783  0.49602148  1
  Te  Te119  1  0.50803890  0.16784699  0.83552044  1
  Te  Te120  1  0.50407778  0.49671283  0.16883921  1
  Te  Te121  1  0.50369144  0.50210313  0.50220004  1
  Te  Te122  1  0.50384321  0.50130939  0.83120836  1
  Te  Te123  1  0.50642860  0.83270375  0.16775229  1
  Te  Te124  1  0.50537541  0.83014082  0.50229244  1
  Te  Te125  1  0.50558522  0.82807544  0.82964414  1
  Te  Te126  1  0.83323123  0.16850384  0.16736445  1
  Te  Te127  1  0.83036122  0.16724670  0.50352890  1
  Te  Te128  1  0.82840228  0.16924571  0.82947086  1
  Te  Te129  1  0.83232721  0.50056771  0.17354658  1
  Te  Te130  1  0.83076476  0.50300571  0.50105143  1
  Te  Te131  1  0.82962987  0.50130972  0.83092335  1
  Te  Te132  1  0.83009029  0.83548681  0.16454564  1
  Te  Te133  1  0.83096745  0.83139613  0.50334839  1
  Te  Te134  1  0.83164223  0.83261341  0.83478865  1
  Te  Te135  1  0.17060077  0.00146434  0.00568289  1
  Te  Te136  1  0.16737468  -0.00250043  0.33870463  1
  Te  Te137  1  0.16689575  -0.00072915  0.66409414  1
  Te  Te138  1  0.16605352  0.32715570  0.00462269  1
  Te  Te139  1  0.17004613  0.33579628  0.33006289  1
  Te  Te140  1  0.16886589  0.33084133  0.66750434  1
  Te  Te141  1  0.17200594  0.66734772  0.00087304  1
  Te  Te142  1  0.16643235  0.66619530  0.33794606  1
  Te  Te143  1  0.17114934  0.66383381  0.66192519  1
  Te  Te144  1  0.49372335  -0.00225658  0.00372596  1
  Te  Te145  1  0.49967869  0.00463446  0.32553326  1
  Te  Te146  1  0.49887930  0.00086659  0.66749789  1
  Te  Te147  1  0.49925413  0.34174670  0.00666745  1
  Te  Te148  1  0.49541936  0.32885210  0.32944891  1
  Te  Te149  1  0.50657467  0.34034357  0.66731405  1
  Te  Te150  1  0.49547894  0.66186991  -0.00003209  1
  Te  Te151  1  0.49796078  0.66829225  0.34250890  1
  Te  Te152  1  0.49950866  0.66470685  0.66463851  1
  Te  Te153  1  0.83452893  -0.00168874  0.00019034  1
  Te  Te154  1  0.83417939  -0.00603503  0.34076276  1
  Te  Te155  1  0.83169302  0.00698872  0.66293416  1
  Te  Te156  1  0.83354119  0.33789502  0.00860289  1
  Te  Te157  1  0.83378579  0.33257491  0.32710130  1
  Te  Te158  1  0.82951204  0.33469212  0.66541411  1
  Te  Te159  1  0.83350797  0.66452339  0.00309322  1
  Te  Te160  1  0.83244214  0.67239672  0.33302127  1
  Te  Te161  1  0.82997126  0.66214477  0.66328891  1
  Te  Te162  1  0.00889652  0.16625254  -0.00293738  1
  Te  Te163  1  -0.00135891  0.16706619  0.33435881  1
  Te  Te164  1  0.00810503  0.16611489  0.66722584  1
  Te  Te165  1  -0.00645733  0.50180458  -0.00595498  1
  Te  Te166  1  0.00906569  0.50059381  0.33854832  1
  Te  Te167  1  0.00513144  0.50325456  0.66556088  1
  Te  Te168  1  -0.00726488  0.83152562  -0.00492080  1
  Te  Te169  1  -0.00079228  0.83267712  0.33962130  1
  Te  Te170  1  0.00144679  0.82682136  0.66541997  1
  Te  Te171  1  0.33032903  0.16304899  0.00051409  1
  Te  Te172  1  0.33690274  0.17024140  0.33458496  1
  Te  Te173  1  0.33359793  0.16505487  0.66385345  1
  Te  Te174  1  0.33450114  0.50170949  -0.00159934  1
  Te  Te175  1  0.32969461  0.49469854  0.33502936  1
  Te  Te176  1  0.32734335  0.49869513  0.66580200  1
  Te  Te177  1  0.33355155  0.83637170  -0.00043013  1
  Te  Te178  1  0.32856872  0.83229352  0.33302465  1
  Te  Te179  1  0.34193147  0.84199068  0.66664783  1
  Te  Te180  1  0.66757080  0.16562020  0.00700084  1
  Te  Te181  1  0.66008179  0.16641989  0.32702115  1
  Te  Te182  1  0.66443930  0.16063729  0.66534532  1
  Te  Te183  1  0.66779208  0.50084587  0.00542001  1
  Te  Te184  1  0.66625816  0.50040061  0.32467428  1
  Te  Te185  1  0.66831389  0.50094121  0.66530971  1
  Te  Te186  1  0.67160999  0.83226492  0.00500017  1
  Te  Te187  1  0.67034205  0.83315161  0.33105375  1
  Te  Te188  1  0.66579147  0.83781627  0.66486696  1
  Te  Te189  1  0.00982143  -0.00077193  0.16631118  1
  Te  Te190  1  0.00089580  -0.00425527  0.50058326  1
  Te  Te191  1  0.00608475  -0.00469919  0.83214402  1
  Te  Te192  1  0.00106659  0.33392243  0.16669830  1
  Te  Te193  1  -0.00944430  0.33809106  0.49911686  1
  Te  Te194  1  -0.00870185  0.33935736  0.83274136  1
  Te  Te195  1  -0.00850808  0.66738019  0.16357574  1
  Te  Te196  1  0.00212583  0.66669351  0.50526956  1
  Te  Te197  1  0.00252962  0.66679861  0.82592658  1
  Te  Te198  1  0.33381518  0.00437056  0.16745246  1
  Te  Te199  1  0.33282101  0.00246734  0.50334485  1
  Te  Te200  1  0.33002930  0.00119782  0.83235630  1
  Te  Te201  1  0.33182084  0.32863503  0.16938590  1
  Te  Te202  1  0.33372173  0.33228681  0.49616854  1
  Te  Te203  1  0.33279733  0.34054681  0.83407105  1
  Te  Te204  1  0.33341166  0.66727739  0.16200120  1
  Te  Te205  1  0.32575256  0.66171970  0.49875813  1
  Te  Te206  1  0.33794850  0.66226030  0.83681591  1
  Te  Te207  1  0.66398467  0.00221422  0.16543635  1
  Te  Te208  1  0.66710297  0.00389565  0.50361011  1
  Te  Te209  1  0.66592008  -0.00408528  0.82999559  1
  Te  Te210  1  0.66523773  0.33198088  0.16763245  1
  Te  Te211  1  0.66976280  0.32988361  0.50152378  1
  Te  Te212  1  0.67065738  0.33414709  0.83138758  1
  Te  Te213  1  0.67024146  0.66751656  0.16596140  1
  Te  Te214  1  0.66973986  0.66630365  0.50396608  1
  Te  Te215  1  0.66245855  0.66744437  0.82808906  1
