# generated using pymatgen
data_AgSbTe2
_symmetry_space_group_name_H-M   'P 1'
_cell_length_a   18.33368876
_cell_length_b   18.33679442
_cell_length_c   18.32929085
_cell_angle_alpha   90.00012507
_cell_angle_beta   90.00048792
_cell_angle_gamma   90.00162537
_symmetry_Int_Tables_number   1
_chemical_formula_structural   AgSbTe2
_chemical_formula_sum   'Ag54 Sb54 Te108'
_cell_volume   6161.96082208
_cell_formula_units_Z   54
loop_
 _symmetry_equiv_pos_site_id
 _symmetry_equiv_pos_as_xyz
  1  'x, y, z'
loop_
 _atom_site_type_symbol
 _atom_site_label
 _atom_site_symmetry_multiplicity
 _atom_site_fract_x
 _atom_site_fract_y
 _atom_site_fract_z
 _atom_site_occupancy
  Ag  Ag0  1  0.66496050  -0.00207711  0.00904691  1
  Ag  Ag1  1  -0.00005231  0.82887621  0.50190184  1
  Ag  Ag2  1  0.34493428  0.00064168  0.66486542  1
  Ag  Ag3  1  -0.01227812  0.33472910  0.34367403  1
  Ag  Ag4  1  0.50002231  0.00053911  0.50590926  1
  Ag  Ag5  1  0.66327407  0.16660947  0.49776539  1
  Ag  Ag6  1  0.34386190  0.16522033  0.50134149  1
  Ag  Ag7  1  0.82378082  -0.00309749  0.16312534  1
  Ag  Ag8  1  0.66627229  0.16546428  0.17050836  1
  Ag  Ag9  1  0.83099856  0.66107651  0.16917936  1
  Ag  Ag10  1  0.15890785  0.50415417  0.66348471  1
  Ag  Ag11  1  0.82840051  0.50192181  0.00494700  1
  Ag  Ag12  1  -0.00270442  0.17191218  0.82758871  1
  Ag  Ag13  1  -0.00176011  0.33245386  0.66077330  1
  Ag  Ag14  1  0.83160393  0.66179474  0.49775259  1
  Ag  Ag15  1  0.16645604  0.83303223  -0.00209503  1
  Ag  Ag16  1  0.50918906  0.15777253  0.65954540  1
  Ag  Ag17  1  0.66572130  0.67306486  0.65909010  1
  Ag  Ag18  1  0.34663667  0.32861276  0.00083261  1
  Ag  Ag19  1  -0.00764608  0.50187448  0.16614967  1
  Ag  Ag20  1  0.66450223  0.34096219  0.00686820  1
  Ag  Ag21  1  0.82989900  0.34164548  0.17325101  1
  Ag  Ag22  1  0.16800293  0.00229275  0.50455565  1
  Ag  Ag23  1  0.50377643  0.16278163  0.34081876  1
  Ag  Ag24  1  -0.00795213  0.00221178  0.66504843  1
  Ag  Ag25  1  0.50828731  0.83950174  0.66236976  1
  Ag  Ag26  1  -0.01264084  0.66537187  0.00414312  1
  Ag  Ag27  1  0.50253037  0.49877641  0.66799490  1
  Ag  Ag28  1  0.16017314  0.83447143  0.66209934  1
  Ag  Ag29  1  0.15586129  0.32968413  0.50043197  1
  Ag  Ag30  1  0.15586860  0.66839860  0.50189745  1
  Ag  Ag31  1  0.67036287  0.33488466  0.32595010  1
  Ag  Ag32  1  0.34748749  0.00204733  -0.00354049  1
  Ag  Ag33  1  0.83232483  0.00146103  0.82632208  1
  Ag  Ag34  1  0.66976417  0.65989687  0.00329995  1
  Ag  Ag35  1  -0.01079576  0.83109911  0.17025211  1
  Ag  Ag36  1  0.51050067  0.49238226  -0.00285199  1
  Ag  Ag37  1  0.51410412  0.32990491  0.16163665  1
  Ag  Ag38  1  0.16834484  0.16870425  0.33929031  1
  Ag  Ag39  1  0.67046903  0.49825566  0.83572615  1
  Ag  Ag40  1  0.82965166  0.15949718  0.66521994  1
  Ag  Ag41  1  0.66718081  -0.00270124  0.66793168  1
  Ag  Ag42  1  0.51195422  0.67477817  0.50272155  1
  Ag  Ag43  1  0.83088739  0.83936109  0.66203968  1
  Ag  Ag44  1  0.67002931  0.66329888  0.33366149  1
  Ag  Ag45  1  -0.00276553  0.49803080  0.50345422  1
  Ag  Ag46  1  0.50550543  0.83563082  0.00163428  1
  Ag  Ag47  1  0.83723690  0.34056138  0.49578592  1
  Ag  Ag48  1  0.83300001  0.49643821  0.32542191  1
  Ag  Ag49  1  0.50386149  0.33471764  0.84110129  1
  Ag  Ag50  1  0.67044813  0.83964078  0.16388057  1
  Ag  Ag51  1  -0.00770892  0.49637556  0.82703272  1
  Ag  Ag52  1  0.50502521  0.84229113  0.33868788  1
  Ag  Ag53  1  0.50631995  0.00130204  0.16638725  1
  Sb  Sb54  1  0.16734696  0.16191903  0.00489382  1
  Sb  Sb55  1  0.50466405  0.33020993  0.49880474  1
  Sb  Sb56  1  0.82818203  0.17297533  0.33835055  1
  Sb  Sb57  1  0.16113282  0.33268404  0.17135892  1
  Sb  Sb58  1  -0.00841903  0.66193108  0.33368361  1
  Sb  Sb59  1  0.33285188  0.32840184  0.66746919  1
  Sb  Sb60  1  -0.00138058  0.00436719  0.33915221  1
  Sb  Sb61  1  0.66846786  0.16920220  0.83202506  1
  Sb  Sb62  1  0.16764632  0.83565218  0.33760183  1
  Sb  Sb63  1  0.16737060  -0.00173339  0.16994780  1
  Sb  Sb64  1  0.15475715  0.66778798  0.17090183  1
  Sb  Sb65  1  -0.00456126  -0.00618242  -0.00363539  1
  Sb  Sb66  1  0.33284123  0.16528854  0.82841000  1
  Sb  Sb67  1  0.51049371  0.49793507  0.33255864  1
  Sb  Sb68  1  -0.00384681  0.16962453  0.50446296  1
  Sb  Sb69  1  0.33740767  0.49673684  0.83223099  1
  Sb  Sb70  1  0.34253007  0.66749099  0.33716626  1
  Sb  Sb71  1  0.16304899  0.50543468  -0.00538402  1
  Sb  Sb72  1  0.33757103  0.00187159  0.33717055  1
  Sb  Sb73  1  0.50329942  0.16741289  0.00004712  1
  Sb  Sb74  1  0.51204073  0.66864070  0.16944812  1
  Sb  Sb75  1  -0.00881531  0.16660028  0.16538047  1
  Sb  Sb76  1  0.66931339  0.33217003  0.66508989  1
  Sb  Sb77  1  0.33507552  0.83603688  0.83211286  1
  Sb  Sb78  1  0.33153227  0.49697363  0.16338333  1
  Sb  Sb79  1  0.66743156  0.83181666  0.83417615  1
  Sb  Sb80  1  0.33850379  0.67230703  0.66343047  1
  Sb  Sb81  1  0.16196462  0.66662292  0.82674738  1
  Sb  Sb82  1  -0.00511374  0.34034113  -0.00108312  1
  Sb  Sb83  1  0.83041126  0.82979366  0.00138780  1
  Sb  Sb84  1  0.34100493  0.66886229  0.00137241  1
  Sb  Sb85  1  0.83022336  0.00008755  0.50185105  1
  Sb  Sb86  1  -0.00282443  0.83178576  0.83061142  1
  Sb  Sb87  1  0.34319515  0.16520289  0.17058844  1
  Sb  Sb88  1  0.66750658  0.83463194  0.49916241  1
  Sb  Sb89  1  0.15587521  0.49620211  0.34099692  1
  Sb  Sb90  1  0.67306779  0.49715534  0.15971328  1
  Sb  Sb91  1  0.83191554  0.66851983  0.83225466  1
  Sb  Sb92  1  -0.00586954  0.66682876  0.66487960  1
  Sb  Sb93  1  0.32972596  0.49397188  0.50183384  1
  Sb  Sb94  1  0.16083763  -0.00020567  0.82602427  1
  Sb  Sb95  1  0.83097015  0.16931795  -0.00258745  1
  Sb  Sb96  1  0.66579144  0.00190653  0.33227125  1
  Sb  Sb97  1  0.16749957  0.33396447  0.82885025  1
  Sb  Sb98  1  0.33344212  0.83997815  0.50300505  1
  Sb  Sb99  1  0.33818171  0.33116636  0.33103338  1
  Sb  Sb100  1  0.82999845  0.33210625  0.83232700  1
  Sb  Sb101  1  0.83276236  0.50036048  0.66711117  1
  Sb  Sb102  1  0.16412951  0.16397951  0.65975395  1
  Sb  Sb103  1  0.82785604  0.82918551  0.33458988  1
  Sb  Sb104  1  0.50495871  0.66193058  0.82830504  1
  Sb  Sb105  1  0.50703014  0.00423902  0.83144542  1
  Sb  Sb106  1  0.67068852  0.49938775  0.50489779  1
  Sb  Sb107  1  0.34074289  0.83524284  0.16460241  1
  Te  Te108  1  0.16635269  0.16550177  0.17482217  1
  Te  Te109  1  0.16208105  0.16484355  0.49786039  1
  Te  Te110  1  0.15930676  0.16743110  0.83494576  1
  Te  Te111  1  0.15669550  0.50014308  0.16658313  1
  Te  Te112  1  0.16239455  0.49945072  0.50493842  1
  Te  Te113  1  0.16098904  0.49976666  0.82511850  1
  Te  Te114  1  0.16322910  0.83351983  0.16605651  1
  Te  Te115  1  0.16528316  0.83501818  0.50120891  1
  Te  Te116  1  0.16555661  0.83239849  0.83311967  1
  Te  Te117  1  0.50598538  0.16511827  0.16738508  1
  Te  Te118  1  0.50267489  0.16820313  0.50117809  1
  Te  Te119  1  0.49989136  0.17286858  0.82265595  1
  Te  Te120  1  0.49752714  0.49677419  0.16276528  1
  Te  Te121  1  0.49855577  0.50160910  0.50219031  1
  Te  Te122  1  0.50306637  0.49613939  0.83568092  1
  Te  Te123  1  0.50526384  0.83558793  0.16288164  1
  Te  Te124  1  0.49980517  0.83498632  0.50200551  1
  Te  Te125  1  0.50041994  0.83317924  0.83328193  1
  Te  Te126  1  0.82713780  0.16402518  0.16625266  1
  Te  Te127  1  0.82749200  0.16792843  0.50437040  1
  Te  Te128  1  0.83647004  0.16388429  0.82807899  1
  Te  Te129  1  0.83546797  0.50075906  0.16529418  1
  Te  Te130  1  0.83643999  0.50055972  0.50152428  1
  Te  Te131  1  0.83325093  0.49996551  0.83743910  1
  Te  Te132  1  0.83124149  0.83284139  0.16766605  1
  Te  Te133  1  0.83687641  0.83064368  0.50150412  1
  Te  Te134  1  0.83381716  0.83961338  0.82409930  1
  Te  Te135  1  0.16461849  -0.00655687  -0.00015303  1
  Te  Te136  1  0.16852790  0.00460602  0.34063500  1
  Te  Te137  1  0.16248436  -0.00304663  0.66327047  1
  Te  Te138  1  0.16854528  0.33391384  0.00067770  1
  Te  Te139  1  0.16795470  0.32993657  0.33858326  1
  Te  Te140  1  0.16440869  0.33542943  0.66269062  1
  Te  Te141  1  0.17075188  0.67284419  0.00147344  1
  Te  Te142  1  0.16822931  0.66632693  0.34161827  1
  Te  Te143  1  0.16808055  0.66898050  0.66078738  1
  Te  Te144  1  0.50376204  -0.00001813  -0.00288670  1
  Te  Te145  1  0.50002145  0.00097313  0.33483450  1
  Te  Te146  1  0.50337933  -0.00112097  0.66763078  1
  Te  Te147  1  0.50380384  0.33177229  0.00211320  1
  Te  Te148  1  0.50578662  0.32983541  0.32785366  1
  Te  Te149  1  0.49964862  0.33945062  0.66639519  1
  Te  Te150  1  0.50529944  0.66913291  0.00032072  1
  Te  Te151  1  0.50884467  0.66643025  0.33945156  1
  Te  Te152  1  0.50434219  0.66744655  0.66287316  1
  Te  Te153  1  0.82874450  -0.00073422  0.00282474  1
  Te  Te154  1  0.83400634  0.00057022  0.32473098  1
  Te  Te155  1  0.83172336  -0.00027913  0.66320084  1
  Te  Te156  1  0.82857633  0.33760929  0.00303884  1
  Te  Te157  1  0.83095413  0.33405946  0.33407814  1
  Te  Te158  1  0.83730035  0.33194691  0.66429927  1
  Te  Te159  1  0.83024471  0.66462191  -0.00042336  1
  Te  Te160  1  0.82858535  0.66304168  0.33521669  1
  Te  Te161  1  0.82725458  0.67014903  0.66427012  1
  Te  Te162  1  0.00061072  0.16717697  -0.00645165  1
  Te  Te163  1  0.00216130  0.17284517  0.33239927  1
  Te  Te164  1  -0.00172041  0.16627325  0.66830493  1
  Te  Te165  1  -0.00105024  0.50490556  0.00154720  1
  Te  Te166  1  -0.00702603  0.49537120  0.33593883  1
  Te  Te167  1  -0.00101487  0.50046886  0.66514223  1
  Te  Te168  1  0.00030157  0.82777056  0.00168457  1
  Te  Te169  1  0.00073299  0.83401879  0.33362755  1
  Te  Te170  1  0.00048755  0.83316245  0.66467104  1
  Te  Te171  1  0.33247415  0.16397344  -0.00051545  1
  Te  Te172  1  0.33627724  0.16697810  0.33931497  1
  Te  Te173  1  0.33489612  0.16096916  0.66188146  1
  Te  Te174  1  0.33562568  0.49541590  -0.00124561  1
  Te  Te175  1  0.33208863  0.49928661  0.33207206  1
  Te  Te176  1  0.33735571  0.50000330  0.66727678  1
  Te  Te177  1  0.33491314  0.83816012  -0.00095422  1
  Te  Te178  1  0.34439588  0.83356399  0.33243263  1
  Te  Te179  1  0.33169114  0.84102571  0.66701726  1
  Te  Te180  1  0.66681815  0.16022683  0.00301234  1
  Te  Te181  1  0.66398868  0.16863644  0.33322391  1
  Te  Te182  1  0.66809907  0.16632906  0.66588768  1
  Te  Te183  1  0.66719280  0.49978014  -0.00138390  1
  Te  Te184  1  0.67290717  0.49981404  0.33681745  1
  Te  Te185  1  0.66374238  0.50119682  0.67174373  1
  Te  Te186  1  0.66566917  0.83759758  0.00038031  1
  Te  Te187  1  0.66260352  0.82923585  0.32961794  1
  Te  Te188  1  0.66723822  0.83315162  0.66723426  1
  Te  Te189  1  -0.00192842  -0.00421845  0.16636144  1
  Te  Te190  1  0.00076492  -0.00384558  0.50391440  1
  Te  Te191  1  -0.00667642  0.00086048  0.82799856  1
  Te  Te192  1  -0.00651057  0.33570137  0.16758989  1
  Te  Te193  1  -0.00153414  0.33322641  0.50159730  1
  Te  Te194  1  -0.00034361  0.33562929  0.83007600  1
  Te  Te195  1  -0.00813436  0.66805072  0.16641596  1
  Te  Te196  1  -0.00334183  0.66710274  0.50028123  1
  Te  Te197  1  -0.00129337  0.65959964  0.84098756  1
  Te  Te198  1  0.33890955  0.00015232  0.15870200  1
  Te  Te199  1  0.33713953  0.00508463  0.50322623  1
  Te  Te200  1  0.33136495  0.00168246  0.83482697  1
  Te  Te201  1  0.33300450  0.33170114  0.16079118  1
  Te  Te202  1  0.32755241  0.32626669  0.49927003  1
  Te  Te203  1  0.33868285  0.33132026  0.83928308  1
  Te  Te204  1  0.33054513  0.66602564  0.16867765  1
  Te  Te205  1  0.33288552  0.66465270  0.49952834  1
  Te  Te206  1  0.33166634  0.66565027  0.83325039  1
  Te  Te207  1  0.66366996  -0.00024403  0.16859738  1
  Te  Te208  1  0.66255281  0.00301839  0.50410136  1
  Te  Te209  1  0.67307641  0.00095175  0.82867293  1
  Te  Te210  1  0.66993114  0.33418153  0.16614838  1
  Te  Te211  1  0.67197434  0.33093481  0.49692556  1
  Te  Te212  1  0.66333670  0.33683607  0.83744886  1
  Te  Te213  1  0.67144516  0.67057006  0.16511854  1
  Te  Te214  1  0.66901077  0.66676354  0.50097207  1
  Te  Te215  1  0.66710544  0.66027294  0.84015264  1
