# generated using pymatgen
data_AgSbTe2
_symmetry_space_group_name_H-M   'P 1'
_cell_length_a   18.32925766
_cell_length_b   18.32685607
_cell_length_c   18.33383992
_cell_angle_alpha   90.00010469
_cell_angle_beta   90.00001436
_cell_angle_gamma   90.00339557
_symmetry_Int_Tables_number   1
_chemical_formula_structural   AgSbTe2
_chemical_formula_sum   'Ag54 Sb54 Te108'
_cell_volume   6158.66072172
_cell_formula_units_Z   54
loop_
 _symmetry_equiv_pos_site_id
 _symmetry_equiv_pos_as_xyz
  1  'x, y, z'
loop_
 _atom_site_type_symbol
 _atom_site_label
 _atom_site_symmetry_multiplicity
 _atom_site_fract_x
 _atom_site_fract_y
 _atom_site_fract_z
 _atom_site_occupancy
  Ag  Ag0  1  0.16896417  0.16826924  0.01132364  1
  Ag  Ag1  1  0.33362174  0.16261671  0.83106690  1
  Ag  Ag2  1  0.84020618  0.33540113  0.17084432  1
  Ag  Ag3  1  0.65995647  0.66281355  0.00786684  1
  Ag  Ag4  1  -0.00382607  -0.00079019  0.65576635  1
  Ag  Ag5  1  -0.00799893  0.83302789  0.49727076  1
  Ag  Ag6  1  0.49451946  0.50748438  0.32793193  1
  Ag  Ag7  1  0.16567677  0.49975011  0.65424124  1
  Ag  Ag8  1  0.83273430  0.83511193  0.65398549  1
  Ag  Ag9  1  0.16347598  0.66141334  0.49553545  1
  Ag  Ag10  1  0.33365280  0.16434039  0.49529877  1
  Ag  Ag11  1  0.16614196  0.83681504  0.33542220  1
  Ag  Ag12  1  0.32635937  0.16927418  0.17038302  1
  Ag  Ag13  1  0.00322071  0.50166705  0.49637915  1
  Ag  Ag14  1  0.33785384  0.67282857  0.33386236  1
  Ag  Ag15  1  0.66379498  0.67275880  0.33149007  1
  Ag  Ag16  1  0.66499220  0.33437982  -0.00093888  1
  Ag  Ag17  1  -0.00085703  0.00601669  0.33564740  1
  Ag  Ag18  1  0.83135230  0.33057396  0.83230829  1
  Ag  Ag19  1  0.33198361  0.00176792  0.66190730  1
  Ag  Ag20  1  0.83265593  0.83682052  0.34074374  1
  Ag  Ag21  1  0.16734505  0.00209397  0.83033980  1
  Ag  Ag22  1  0.16205201  0.32974076  0.17299207  1
  Ag  Ag23  1  0.49946489  0.50152401  0.00847054  1
  Ag  Ag24  1  0.66976567  0.00495320  0.65856722  1
  Ag  Ag25  1  0.67792264  0.84260848  0.49712007  1
  Ag  Ag26  1  0.00541632  0.17116393  0.17187953  1
  Ag  Ag27  1  0.16584908  0.49468962  0.33633927  1
  Ag  Ag28  1  0.33684923  0.33280460  0.00406975  1
  Ag  Ag29  1  0.49757157  0.66650568  0.84368862  1
  Ag  Ag30  1  0.16049535  0.16886206  0.33111527  1
  Ag  Ag31  1  -0.00020902  0.00086001  0.00426006  1
  Ag  Ag32  1  0.66736046  0.16230600  0.50210414  1
  Ag  Ag33  1  0.00068323  0.49138582  0.17626065  1
  Ag  Ag34  1  0.33328726  0.83658837  0.83187755  1
  Ag  Ag35  1  0.32852042  -0.00062955  0.34045506  1
  Ag  Ag36  1  0.49634159  0.33788654  0.16561259  1
  Ag  Ag37  1  0.66450225  0.16835290  0.82240569  1
  Ag  Ag38  1  0.50329561  0.16613856  0.66663951  1
  Ag  Ag39  1  0.83775659  0.33057930  0.49398769  1
  Ag  Ag40  1  0.33932967  0.66325905  0.00311238  1
  Ag  Ag41  1  0.15876211  0.33668209  0.49063774  1
  Ag  Ag42  1  0.50289788  0.82802682  0.33330405  1
  Ag  Ag43  1  0.33281572  0.67430882  0.66190761  1
  Ag  Ag44  1  0.66866898  0.32481642  0.66701022  1
  Ag  Ag45  1  0.84065321  0.16140302  0.33461590  1
  Ag  Ag46  1  0.67704572  -0.00499380  0.34049683  1
  Ag  Ag47  1  0.83353134  0.83177006  0.00198665  1
  Ag  Ag48  1  0.83278459  -0.00617036  0.49852907  1
  Ag  Ag49  1  0.83641847  0.68036973  0.49226783  1
  Ag  Ag50  1  0.82870571  0.66483185  0.17613250  1
  Ag  Ag51  1  0.00208041  0.32861198  0.33198491  1
  Ag  Ag52  1  0.00146183  0.49845977  0.83356342  1
  Ag  Ag53  1  0.50202583  0.65949907  0.16912873  1
  Sb  Sb54  1  0.83508805  -0.00012625  0.17635032  1
  Sb  Sb55  1  0.33022536  0.49962671  0.83440080  1
  Sb  Sb56  1  0.32731615  0.32999029  0.32936481  1
  Sb  Sb57  1  0.49466247  -0.00109433  0.83182444  1
  Sb  Sb58  1  0.67346682  0.49906465  0.49751036  1
  Sb  Sb59  1  0.83078159  0.50114299  0.00214579  1
  Sb  Sb60  1  0.00022552  0.16791657  0.83760202  1
  Sb  Sb61  1  0.16502032  0.83257693  0.65981157  1
  Sb  Sb62  1  0.67141198  0.33312464  0.33245023  1
  Sb  Sb63  1  0.16220067  0.00158694  0.49878809  1
  Sb  Sb64  1  0.66918268  0.49532961  0.83393236  1
  Sb  Sb65  1  0.49858789  0.00131248  0.17057552  1
  Sb  Sb66  1  -0.00074439  0.66911793  0.00249771  1
  Sb  Sb67  1  0.33206527  0.83714161  0.49897101  1
  Sb  Sb68  1  0.50322485  0.33527047  0.83821958  1
  Sb  Sb69  1  0.49919947  0.66714896  0.49337775  1
  Sb  Sb70  1  0.32830714  0.00316919  -0.00066356  1
  Sb  Sb71  1  0.82893180  0.66505530  0.83271769  1
  Sb  Sb72  1  0.49834981  0.16677688  0.33537361  1
  Sb  Sb73  1  0.66253769  0.66827085  0.66308290  1
  Sb  Sb74  1  0.66381786  0.83712965  0.82897165  1
  Sb  Sb75  1  0.16944128  0.49578140  0.00400565  1
  Sb  Sb76  1  -0.00186048  0.16552755  0.49406721  1
  Sb  Sb77  1  0.82835695  0.16384512  0.65665690  1
  Sb  Sb78  1  -0.00258112  0.83408297  0.17558458  1
  Sb  Sb79  1  0.50019467  0.33204714  0.49433674  1
  Sb  Sb80  1  0.83853198  0.50174351  0.66406196  1
  Sb  Sb81  1  0.16514549  0.83714396  0.00455474  1
  Sb  Sb82  1  0.16800099  0.65932624  0.17419245  1
  Sb  Sb83  1  0.00396280  0.66863611  0.66273005  1
  Sb  Sb84  1  0.66770566  0.50041936  0.16830490  1
  Sb  Sb85  1  0.16373322  0.33033131  0.83405959  1
  Sb  Sb86  1  0.16525417  0.00750446  0.16927475  1
  Sb  Sb87  1  0.83661643  0.16536581  0.00566051  1
  Sb  Sb88  1  0.66862964  0.83021941  0.17610180  1
  Sb  Sb89  1  -0.00080465  0.33080857  0.00733691  1
  Sb  Sb90  1  0.17327195  0.66934120  0.82957961  1
  Sb  Sb91  1  -0.00338443  0.32938314  0.66068252  1
  Sb  Sb92  1  0.83721590  0.00400053  0.82638872  1
  Sb  Sb93  1  -0.00050320  0.66657555  0.33494374  1
  Sb  Sb94  1  0.16959779  0.16844873  0.66159576  1
  Sb  Sb95  1  0.49540573  0.49798469  0.66514940  1
  Sb  Sb96  1  0.00244880  0.83280243  0.82918089  1
  Sb  Sb97  1  0.33291734  0.83487502  0.16754026  1
  Sb  Sb98  1  0.33271594  0.49528870  0.16880081  1
  Sb  Sb99  1  0.66737693  0.16999902  0.16990342  1
  Sb  Sb100  1  0.50381194  0.82482220  0.00497342  1
  Sb  Sb101  1  0.50690815  0.00048971  0.49862861  1
  Sb  Sb102  1  0.49502751  0.17237131  -0.00252211  1
  Sb  Sb103  1  0.67388890  0.00040724  -0.00093478  1
  Sb  Sb104  1  0.32575743  0.49746500  0.49741701  1
  Sb  Sb105  1  0.50117196  0.83684735  0.66147628  1
  Sb  Sb106  1  0.83778544  0.50167667  0.33362021  1
  Sb  Sb107  1  0.33570172  0.32895692  0.66978734  1
  Te  Te108  1  0.16670270  0.16967277  0.16944215  1
  Te  Te109  1  0.16993879  0.17004229  0.49505770  1
  Te  Te110  1  0.16872952  0.16378954  0.83184685  1
  Te  Te111  1  0.16185679  0.49250998  0.17113550  1
  Te  Te112  1  0.16403013  0.49931258  0.49645464  1
  Te  Te113  1  0.16170335  0.50026969  0.83485811  1
  Te  Te114  1  0.16555028  0.83128407  0.17437384  1
  Te  Te115  1  0.16455014  0.82931073  0.49460286  1
  Te  Te116  1  0.17163833  0.83781956  0.83460977  1
  Te  Te117  1  0.49672425  0.17244210  0.16629597  1
  Te  Te118  1  0.49954517  0.16704911  0.50414987  1
  Te  Te119  1  0.49958119  0.16697056  0.82989721  1
  Te  Te120  1  0.49896312  0.49939546  0.16741632  1
  Te  Te121  1  0.49942823  0.49879109  0.49545863  1
  Te  Te122  1  0.49921951  0.50542612  0.83326533  1
  Te  Te123  1  0.49984267  0.82775994  0.17373534  1
  Te  Te124  1  0.50529160  0.83260565  0.49335107  1
  Te  Te125  1  0.49497799  0.82853538  0.83248549  1
  Te  Te126  1  0.83520877  0.17007012  0.17313959  1
  Te  Te127  1  0.83076799  0.17209073  0.49393192  1
  Te  Te128  1  0.83106829  0.17130906  0.83616430  1
  Te  Te129  1  0.83920490  0.49979182  0.16728609  1
  Te  Te130  1  0.84093599  0.49016275  0.50025470  1
  Te  Te131  1  0.83921637  0.49519036  0.83247923  1
  Te  Te132  1  0.83430483  0.82822152  0.16404343  1
  Te  Te133  1  0.83445968  0.83603763  0.49753289  1
  Te  Te134  1  0.83321567  0.83388574  0.83747659  1
  Te  Te135  1  0.16135069  0.00387293  -0.00315971  1
  Te  Te136  1  0.16661687  0.00187607  0.33479384  1
  Te  Te137  1  0.17018702  0.00026143  0.66768540  1
  Te  Te138  1  0.16988644  0.32876435  0.00203339  1
  Te  Te139  1  0.16632469  0.33170056  0.33320648  1
  Te  Te140  1  0.16635100  0.33739748  0.66452891  1
  Te  Te141  1  0.17353904  0.66736452  0.00166671  1
  Te  Te142  1  0.16853365  0.66560905  0.33589019  1
  Te  Te143  1  0.17242272  0.66415268  0.66192112  1
  Te  Te144  1  0.50334172  -0.00256294  0.00153102  1
  Te  Te145  1  0.49231077  -0.00486216  0.33224396  1
  Te  Te146  1  0.49605258  0.00434840  0.66642506  1
  Te  Te147  1  0.50068771  0.33813601  0.00368823  1
  Te  Te148  1  0.50053683  0.33765379  0.32684916  1
  Te  Te149  1  0.50469600  0.32978164  0.66727003  1
  Te  Te150  1  0.49984113  0.66372737  0.00429521  1
  Te  Te151  1  0.49916612  0.66731673  0.33168313  1
  Te  Te152  1  0.49303917  0.66690691  0.66627027  1
  Te  Te153  1  0.83794580  -0.00340185  -0.00047047  1
  Te  Te154  1  0.83562884  -0.00023824  0.33648749  1
  Te  Te155  1  0.83326248  -0.00216118  0.66219726  1
  Te  Te156  1  0.82979720  0.33315161  0.00394420  1
  Te  Te157  1  0.83586120  0.33525424  0.33156436  1
  Te  Te158  1  0.82941056  0.33366308  0.66680901  1
  Te  Te159  1  0.83032866  0.66914048  -0.00019957  1
  Te  Te160  1  0.83217847  0.66728457  0.33422848  1
  Te  Te161  1  0.83242033  0.67192859  0.66343739  1
  Te  Te162  1  0.00468590  0.16312864  0.00577577  1
  Te  Te163  1  -0.00005946  0.16727288  0.33231026  1
  Te  Te164  1  -0.00004392  0.15891899  0.66843102  1
  Te  Te165  1  0.00067448  0.50040072  -0.00130866  1
  Te  Te166  1  0.00361550  0.49813446  0.33489946  1
  Te  Te167  1  0.00531168  0.49876440  0.66230914  1
  Te  Te168  1  -0.00299105  0.83796883  -0.00017062  1
  Te  Te169  1  -0.00148030  0.83566615  0.33703169  1
  Te  Te170  1  -0.00318619  0.83808000  0.66245434  1
  Te  Te171  1  0.32967142  0.16795223  -0.00044330  1
  Te  Te172  1  0.33419338  0.16391859  0.33422434  1
  Te  Te173  1  0.33615742  0.16413004  0.66941411  1
  Te  Te174  1  0.33733841  0.50013995  0.00030570  1
  Te  Te175  1  0.33093041  0.50488211  0.33402917  1
  Te  Te176  1  0.32761093  0.50113024  0.66635768  1
  Te  Te177  1  0.33376037  0.83165096  -0.00369172  1
  Te  Te178  1  0.32978083  0.83457985  0.33323344  1
  Te  Te179  1  0.33337172  0.83561036  0.66888275  1
  Te  Te180  1  0.66617766  0.16945522  -0.00116308  1
  Te  Te181  1  0.66664499  0.16422868  0.33806553  1
  Te  Te182  1  0.66676441  0.16536258  0.66462160  1
  Te  Te183  1  0.66172083  0.50027001  -0.00032234  1
  Te  Te184  1  0.65912613  0.50631059  0.33473152  1
  Te  Te185  1  0.66554455  0.49500076  0.66625409  1
  Te  Te186  1  0.67121518  0.83103173  -0.00245998  1
  Te  Te187  1  0.67053497  0.83317917  0.33664189  1
  Te  Te188  1  0.66905845  0.83799116  0.66168184  1
  Te  Te189  1  -0.00053579  0.00401787  0.16975829  1
  Te  Te190  1  -0.00311956  -0.00134247  0.49729733  1
  Te  Te191  1  0.00481691  -0.00011511  0.83325831  1
  Te  Te192  1  0.00038494  0.33213715  0.16882823  1
  Te  Te193  1  0.00031307  0.33253219  0.49603199  1
  Te  Te194  1  -0.00551014  0.33603216  0.83182068  1
  Te  Te195  1  -0.00450881  0.66202638  0.16575338  1
  Te  Te196  1  -0.00151910  0.66709879  0.50106943  1
  Te  Te197  1  0.00046427  0.66130821  0.83278247  1
  Te  Te198  1  0.33288259  0.00649708  0.17012947  1
  Te  Te199  1  0.33100214  0.00271693  0.50106079  1
  Te  Te200  1  0.32995341  0.00137317  0.83277304  1
  Te  Te201  1  0.33328019  0.32919008  0.16393182  1
  Te  Te202  1  0.33194871  0.32560645  0.50092576  1
  Te  Te203  1  0.33288039  0.32802583  0.83879855  1
  Te  Te204  1  0.33595134  0.66737347  0.16859507  1
  Te  Te205  1  0.33002547  0.66819313  0.49784826  1
  Te  Te206  1  0.33622730  0.66683112  0.83469166  1
  Te  Te207  1  0.66602131  0.00119095  0.17330170  1
  Te  Te208  1  0.66970583  0.00217159  0.49869400  1
  Te  Te209  1  0.66651053  0.00619120  0.82937914  1
  Te  Te210  1  0.66880641  0.33402677  0.16283529  1
  Te  Te211  1  0.66812092  0.33086474  0.50141734  1
  Te  Te212  1  0.66975257  0.32952664  0.83519095  1
  Te  Te213  1  0.66804563  0.66604195  0.16739622  1
  Te  Te214  1  0.67187626  0.66646173  0.49706983  1
  Te  Te215  1  0.66048630  0.66737004  0.83405571  1
