# generated using pymatgen
data_AgSbTe2
_symmetry_space_group_name_H-M   'P 1'
_cell_length_a   18.35380045
_cell_length_b   18.35454818
_cell_length_c   18.35131254
_cell_angle_alpha   89.99930794
_cell_angle_beta   89.99963993
_cell_angle_gamma   89.99900058
_symmetry_Int_Tables_number   1
_chemical_formula_structural   AgSbTe2
_chemical_formula_sum   'Ag54 Sb54 Te108'
_cell_volume   6182.11152652
_cell_formula_units_Z   54
loop_
 _symmetry_equiv_pos_site_id
 _symmetry_equiv_pos_as_xyz
  1  'x, y, z'
loop_
 _atom_site_type_symbol
 _atom_site_label
 _atom_site_symmetry_multiplicity
 _atom_site_fract_x
 _atom_site_fract_y
 _atom_site_fract_z
 _atom_site_occupancy
  Ag  Ag0  1  0.83613835  0.83939859  0.67680593  1
  Ag  Ag1  1  0.67923556  -0.00100317  -0.00059242  1
  Ag  Ag2  1  0.67764718  0.65847131  0.32756661  1
  Ag  Ag3  1  0.83838521  0.32626120  0.83305465  1
  Ag  Ag4  1  0.83466773  0.48468542  0.66693201  1
  Ag  Ag5  1  0.16455153  0.16780578  0.32009377  1
  Ag  Ag6  1  0.68151150  0.16990983  0.16288637  1
  Ag  Ag7  1  0.00158697  0.00291387  0.67693428  1
  Ag  Ag8  1  0.16225959  0.48794908  0.33207333  1
  Ag  Ag9  1  0.32082353  -0.00078076  0.00261854  1
  Ag  Ag10  1  0.68166685  0.83991609  0.84049127  1
  Ag  Ag11  1  0.67601291  0.48925709  0.16800675  1
  Ag  Ag12  1  0.15852966  0.16211865  0.67528308  1
  Ag  Ag13  1  0.84079838  0.32849204  0.16632771  1
  Ag  Ag14  1  -0.00056848  0.16458889  0.84126031  1
  Ag  Ag15  1  0.16122234  0.32238641  0.83990877  1
  Ag  Ag16  1  -0.00141426  0.50158251  0.48952132  1
  Ag  Ag17  1  0.00007219  0.84531778  0.84103439  1
  Ag  Ag18  1  0.83737736  0.83153113  0.32456275  1
  Ag  Ag19  1  0.67751936  0.33347109  0.32881016  1
  Ag  Ag20  1  0.16458840  0.67989329  0.83260689  1
  Ag  Ag21  1  0.32835951  0.50073309  0.83375891  1
  Ag  Ag22  1  -0.00285067  0.48689514  0.17077391  1
  Ag  Ag23  1  -0.00057931  0.33474925  0.32840725  1
  Ag  Ag24  1  0.83508014  0.33541843  0.49912626  1
  Ag  Ag25  1  0.32059627  0.00483360  0.31956319  1
  Ag  Ag26  1  0.16353219  -0.00058954  0.50386025  1
  Ag  Ag27  1  0.32053368  0.00173724  0.67794052  1
  Ag  Ag28  1  0.00045382  0.16510187  0.16362176  1
  Ag  Ag29  1  0.15997035  0.67164914  0.50003453  1
  Ag  Ag30  1  0.31870826  0.83635971  0.83861216  1
  Ag  Ag31  1  0.31672242  0.32384499  0.32582082  1
  Ag  Ag32  1  0.84099855  0.16757378  0.67763911  1
  Ag  Ag33  1  0.00305967  0.00295106  0.32304358  1
  Ag  Ag34  1  0.16406086  0.84307703  -0.00196700  1
  Ag  Ag35  1  0.67563615  0.33159628  0.66789864  1
  Ag  Ag36  1  0.31953115  0.16559208  0.16607608  1
  Ag  Ag37  1  0.15979655  0.33030693  0.16927968  1
  Ag  Ag38  1  0.67062911  0.68083228  0.00298668  1
  Ag  Ag39  1  0.31966830  0.84780509  0.15726684  1
  Ag  Ag40  1  0.83619045  0.84407639  -0.00109771  1
  Ag  Ag41  1  0.83896402  0.66298119  0.49846084  1
  Ag  Ag42  1  0.83847761  0.00741205  0.16352831  1
  Ag  Ag43  1  0.67881119  0.16398460  0.84606738  1
  Ag  Ag44  1  0.00070443  0.00036889  0.00145506  1
  Ag  Ag45  1  0.50017370  0.83610606  -0.00063865  1
  Ag  Ag46  1  0.16480971  0.00238156  0.83588030  1
  Ag  Ag47  1  0.00049183  0.84620660  0.16318336  1
  Ag  Ag48  1  0.32688984  0.31864907  0.00605579  1
  Ag  Ag49  1  0.15967504  0.16406490  0.00090679  1
  Ag  Ag50  1  0.48674776  0.16763135  0.32883866  1
  Ag  Ag51  1  0.50944070  0.49772683  0.66809586  1
  Ag  Ag52  1  -0.00155052  0.66277283  0.33349211  1
  Ag  Ag53  1  0.84036478  0.16505925  -0.00003784  1
  Sb  Sb54  1  0.84045445  0.16733850  0.32638447  1
  Sb  Sb55  1  0.49114127  0.00102950  0.49706045  1
  Sb  Sb56  1  0.16084402  0.49493887  0.66478204  1
  Sb  Sb57  1  0.32603174  0.49855890  0.50345942  1
  Sb  Sb58  1  0.32507530  0.16400245  0.83978446  1
  Sb  Sb59  1  0.50119474  0.16816254  0.66561057  1
  Sb  Sb60  1  0.49977099  0.16246127  0.00360046  1
  Sb  Sb61  1  0.84340492  0.00480337  0.84208973  1
  Sb  Sb62  1  0.00309237  0.32492165  0.00526757  1
  Sb  Sb63  1  0.49799873  0.66795823  0.83425340  1
  Sb  Sb64  1  0.49370884  -0.00018431  0.83595270  1
  Sb  Sb65  1  0.67419405  0.83684213  0.15932244  1
  Sb  Sb66  1  0.00061840  0.16761276  0.49760877  1
  Sb  Sb67  1  -0.00057062  0.83255433  0.49613379  1
  Sb  Sb68  1  0.83512365  0.66667974  0.17016207  1
  Sb  Sb69  1  0.50366142  0.66450132  0.49946777  1
  Sb  Sb70  1  0.00318438  0.49640949  0.83585840  1
  Sb  Sb71  1  0.67204951  0.83339190  0.50267623  1
  Sb  Sb72  1  0.16601289  0.49499963  0.00174070  1
  Sb  Sb73  1  0.66544982  0.49782871  0.83571658  1
  Sb  Sb74  1  0.32829029  0.83661084  0.50076745  1
  Sb  Sb75  1  -0.00282249  0.67620680  0.00477093  1
  Sb  Sb76  1  0.83351331  0.49741518  -0.00138085  1
  Sb  Sb77  1  0.84277950  0.49953523  0.33476440  1
  Sb  Sb78  1  0.16014481  0.32963065  0.49605917  1
  Sb  Sb79  1  0.66727808  0.32914390  0.00193404  1
  Sb  Sb80  1  0.32809022  0.16570165  0.49205772  1
  Sb  Sb81  1  -0.00035715  0.67181885  0.66299637  1
  Sb  Sb82  1  -0.00571943  0.32852791  0.66413873  1
  Sb  Sb83  1  0.67169957  0.00375765  0.32594944  1
  Sb  Sb84  1  0.67153497  0.16753364  0.49622845  1
  Sb  Sb85  1  0.49903283  0.33146907  0.83403001  1
  Sb  Sb86  1  0.67146537  0.66394635  0.66727654  1
  Sb  Sb87  1  0.33268656  0.67510960  -0.00093721  1
  Sb  Sb88  1  0.33263192  0.32901568  0.66718974  1
  Sb  Sb89  1  0.50334501  0.66939983  0.16523000  1
  Sb  Sb90  1  0.16080633  0.84241368  0.67395693  1
  Sb  Sb91  1  0.50009809  0.32912973  0.16788844  1
  Sb  Sb92  1  0.16034056  0.83861998  0.32621118  1
  Sb  Sb93  1  0.33053623  0.49378190  0.16315440  1
  Sb  Sb94  1  0.32998112  0.67108579  0.66929354  1
  Sb  Sb95  1  0.16001564  0.00892493  0.16258799  1
  Sb  Sb96  1  0.49958690  0.49443624  0.33552725  1
  Sb  Sb97  1  0.32677685  0.66886676  0.33285689  1
  Sb  Sb98  1  0.67478832  0.49849473  0.49631932  1
  Sb  Sb99  1  0.49974997  0.00161404  0.16346318  1
  Sb  Sb100  1  0.49936854  0.50307912  -0.00204263  1
  Sb  Sb101  1  0.50348178  0.83833440  0.32516805  1
  Sb  Sb102  1  0.83915284  0.00232824  0.49638341  1
  Sb  Sb103  1  0.50560713  0.33316140  0.49880411  1
  Sb  Sb104  1  0.83750605  0.66833368  0.83119741  1
  Sb  Sb105  1  0.16328807  0.66327097  0.16525341  1
  Sb  Sb106  1  0.67539838  0.00588282  0.67704486  1
  Sb  Sb107  1  0.50239449  0.83256138  0.67489610  1
  Te  Te108  1  0.16311689  0.17068971  0.16216094  1
  Te  Te109  1  0.16679382  0.16099277  0.50913561  1
  Te  Te110  1  0.16432404  0.16406146  0.83700361  1
  Te  Te111  1  0.16365739  0.49340090  0.17160924  1
  Te  Te112  1  0.15986287  0.50094906  0.49674269  1
  Te  Te113  1  0.16965560  0.49437469  0.83230255  1
  Te  Te114  1  0.16332750  0.82830788  0.16008168  1
  Te  Te115  1  0.16554544  0.83239707  0.50166279  1
  Te  Te116  1  0.16149463  0.83587491  0.83445930  1
  Te  Te117  1  0.50081973  0.16647758  0.17090275  1
  Te  Te118  1  0.50082859  0.16561532  0.49059836  1
  Te  Te119  1  0.51396362  0.16721518  0.83246909  1
  Te  Te120  1  0.50347680  0.50125188  0.16763113  1
  Te  Te121  1  0.49801811  0.50085393  0.50799795  1
  Te  Te122  1  0.49503947  0.49976762  0.82845552  1
  Te  Te123  1  0.49317686  0.83416019  0.16064099  1
  Te  Te124  1  0.50010942  0.83201052  0.49985262  1
  Te  Te125  1  0.50038509  0.83277762  0.83935814  1
  Te  Te126  1  0.83832751  0.16745412  0.16480767  1
  Te  Te127  1  0.83427567  0.17028422  0.51094151  1
  Te  Te128  1  0.83625008  0.16585917  0.83717821  1
  Te  Te129  1  0.83460213  0.49487473  0.16571517  1
  Te  Te130  1  0.83725962  0.49919622  0.50388853  1
  Te  Te131  1  0.83337802  0.49631652  0.82893893  1
  Te  Te132  1  0.83866169  0.83197020  0.16538203  1
  Te  Te133  1  0.83404835  0.83173695  0.49856176  1
  Te  Te134  1  0.83875319  0.83161323  0.83604176  1
  Te  Te135  1  0.16280159  0.00143388  -0.00033697  1
  Te  Te136  1  0.16451524  0.00149448  0.33428063  1
  Te  Te137  1  0.16269303  0.00168796  0.66770225  1
  Te  Te138  1  0.17019633  0.33168440  -0.00065268  1
  Te  Te139  1  0.16177864  0.32998008  0.33428676  1
  Te  Te140  1  0.16765712  0.32628512  0.66779699  1
  Te  Te141  1  0.16635406  0.66678315  -0.00641117  1
  Te  Te142  1  0.16063250  0.67005243  0.33568770  1
  Te  Te143  1  0.16676492  0.66363848  0.66714597  1
  Te  Te144  1  0.49994691  -0.00547377  -0.00124292  1
  Te  Te145  1  0.49804744  0.00549984  0.33333791  1
  Te  Te146  1  0.49521348  -0.00161560  0.66423702  1
  Te  Te147  1  0.48850200  0.33532129  -0.00058767  1
  Te  Te148  1  0.50451329  0.32802225  0.33471811  1
  Te  Te149  1  0.50382422  0.33719040  0.66591712  1
  Te  Te150  1  0.50783245  0.67247117  -0.00067744  1
  Te  Te151  1  0.50425278  0.66849021  0.33483729  1
  Te  Te152  1  0.50007154  0.65913287  0.66558928  1
  Te  Te153  1  0.83710781  0.00365035  0.00266273  1
  Te  Te154  1  0.83953151  -0.00338191  0.32868761  1
  Te  Te155  1  0.83875262  0.00020564  0.66326091  1
  Te  Te156  1  0.83251095  0.32872727  -0.00037426  1
  Te  Te157  1  0.83692353  0.33306050  0.33045961  1
  Te  Te158  1  0.83392296  0.32888342  0.67048221  1
  Te  Te159  1  0.82856373  0.66554461  -0.00172582  1
  Te  Te160  1  0.83528306  0.66747088  0.33510449  1
  Te  Te161  1  0.83246802  0.67349779  0.66231228  1
  Te  Te162  1  -0.00020794  0.16436545  -0.00003833  1
  Te  Te163  1  0.00422789  0.16569217  0.33157609  1
  Te  Te164  1  0.00004400  0.16327676  0.66399729  1
  Te  Te165  1  -0.00088527  0.50576961  0.00692544  1
  Te  Te166  1  0.00209428  0.49930797  0.33203467  1
  Te  Te167  1  -0.00705106  0.50051404  0.66583143  1
  Te  Te168  1  -0.00108599  0.83582440  0.00161799  1
  Te  Te169  1  -0.00306329  0.83698596  0.32937188  1
  Te  Te170  1  -0.00500717  0.83783362  0.66998850  1
  Te  Te171  1  0.33474472  0.16179578  0.00474750  1
  Te  Te172  1  0.32788284  0.16592688  0.32957784  1
  Te  Te173  1  0.33489389  0.16123349  0.66876173  1
  Te  Te174  1  0.33399600  0.50422208  -0.00579153  1
  Te  Te175  1  0.32700213  0.49938205  0.33381603  1
  Te  Te176  1  0.33014440  0.49814432  0.67234388  1
  Te  Te177  1  0.32698479  0.83565636  -0.00056384  1
  Te  Te178  1  0.33495763  0.83896553  0.33012208  1
  Te  Te179  1  0.33521372  0.84091409  0.67158857  1
  Te  Te180  1  0.66569650  0.16409344  0.00285282  1
  Te  Te181  1  0.67270280  0.17081240  0.32700791  1
  Te  Te182  1  0.66857456  0.17251606  0.66490337  1
  Te  Te183  1  0.66512554  0.49890536  0.00632124  1
  Te  Te184  1  0.66227406  0.49839001  0.32895992  1
  Te  Te185  1  0.67102530  0.49547766  0.66649490  1
  Te  Te186  1  0.67356657  0.83729192  -0.00077456  1
  Te  Te187  1  0.67236064  0.83337838  0.33347076  1
  Te  Te188  1  0.67164084  0.83383555  0.67490957  1
  Te  Te189  1  -0.00129302  0.00265101  0.16389559  1
  Te  Te190  1  0.00419956  0.00009594  0.49709971  1
  Te  Te191  1  0.00351011  0.00382325  0.83499524  1
  Te  Te192  1  0.00056394  0.32972629  0.16644789  1
  Te  Te193  1  -0.00536604  0.33757585  0.49522610  1
  Te  Te194  1  -0.00007287  0.32974706  0.83352290  1
  Te  Te195  1  0.00056200  0.66392133  0.17351940  1
  Te  Te196  1  -0.00050952  0.66658177  0.49738787  1
  Te  Te197  1  0.00609372  0.66411114  0.83346992  1
  Te  Te198  1  0.33530415  0.00311992  0.16393424  1
  Te  Te199  1  0.32430510  -0.00016489  0.50016940  1
  Te  Te200  1  0.32834628  -0.00172313  0.83772593  1
  Te  Te201  1  0.33283855  0.33019663  0.16712273  1
  Te  Te202  1  0.33527898  0.33427945  0.49369428  1
  Te  Te203  1  0.33064361  0.33287983  0.83508946  1
  Te  Te204  1  0.33450788  0.66545805  0.16847053  1
  Te  Te205  1  0.32731418  0.66692780  0.49993163  1
  Te  Te206  1  0.32807428  0.66907744  0.83237509  1
  Te  Te207  1  0.67129956  0.00490416  0.16153562  1
  Te  Te208  1  0.66407368  -0.00020109  0.49999247  1
  Te  Te209  1  0.66235471  -0.00037588  0.83763683  1
  Te  Te210  1  0.66662744  0.33139936  0.16756299  1
  Te  Te211  1  0.67393360  0.33343218  0.49656401  1
  Te  Te212  1  0.67044949  0.33084860  0.83183268  1
  Te  Te213  1  0.66818726  0.66822885  0.16781066  1
  Te  Te214  1  0.67244186  0.66619132  0.49406895  1
  Te  Te215  1  0.66704432  0.66854688  0.83775559  1
