# generated using pymatgen
data_AgSbTe2
_symmetry_space_group_name_H-M   'P 1'
_cell_length_a   18.31202489
_cell_length_b   18.31243762
_cell_length_c   18.31399638
_cell_angle_alpha   89.99749142
_cell_angle_beta   90.00316414
_cell_angle_gamma   89.99892042
_symmetry_Int_Tables_number   1
_chemical_formula_structural   AgSbTe2
_chemical_formula_sum   'Ag54 Sb54 Te108'
_cell_volume   6141.37548764
_cell_formula_units_Z   54
loop_
 _symmetry_equiv_pos_site_id
 _symmetry_equiv_pos_as_xyz
  1  'x, y, z'
loop_
 _atom_site_type_symbol
 _atom_site_label
 _atom_site_symmetry_multiplicity
 _atom_site_fract_x
 _atom_site_fract_y
 _atom_site_fract_z
 _atom_site_occupancy
  Ag  Ag0  1  0.15736349  0.50223390  0.67310738  1
  Ag  Ag1  1  0.66910794  0.83643467  0.16652941  1
  Ag  Ag2  1  0.32840460  0.33241127  0.00216160  1
  Ag  Ag3  1  0.50172468  0.84055145  0.65939716  1
  Ag  Ag4  1  0.50217498  0.49867171  0.00552708  1
  Ag  Ag5  1  0.83687514  0.66814218  0.16359997  1
  Ag  Ag6  1  0.00280022  -0.00323648  -0.00163354  1
  Ag  Ag7  1  0.00418524  0.83911003  0.83144680  1
  Ag  Ag8  1  0.67165784  0.33154795  0.33411787  1
  Ag  Ag9  1  0.16088676  0.32504019  0.83671720  1
  Ag  Ag10  1  0.00381845  0.16142384  0.82726636  1
  Ag  Ag11  1  0.50454189  0.33002823  0.17115075  1
  Ag  Ag12  1  0.50265647  0.16154223  0.66242788  1
  Ag  Ag13  1  0.15653944  0.16732220  0.33309285  1
  Ag  Ag14  1  0.50623635  0.83775004  0.33905227  1
  Ag  Ag15  1  0.32072808  0.83935630  0.83115660  1
  Ag  Ag16  1  0.84113332  0.49122531  0.66911499  1
  Ag  Ag17  1  0.67586842  0.16508324  0.49934570  1
  Ag  Ag18  1  0.50166279  -0.00170163  0.49772703  1
  Ag  Ag19  1  0.66750731  0.49467619  0.49861586  1
  Ag  Ag20  1  0.33446798  0.32883007  0.33114558  1
  Ag  Ag21  1  -0.00017372  0.84030752  0.50435181  1
  Ag  Ag22  1  0.16192089  0.67212231  0.83769040  1
  Ag  Ag23  1  0.16334058  0.83513351  -0.00427543  1
  Ag  Ag24  1  0.32037778  0.16333220  0.82907049  1
  Ag  Ag25  1  0.16173347  0.00090128  0.83967494  1
  Ag  Ag26  1  0.83925729  0.16920549  0.33899860  1
  Ag  Ag27  1  0.50252132  0.49540130  0.32985676  1
  Ag  Ag28  1  0.83148057  0.33166683  0.17192387  1
  Ag  Ag29  1  -0.00109976  0.00437819  0.66730267  1
  Ag  Ag30  1  0.50474800  0.00050228  0.17026989  1
  Ag  Ag31  1  0.33451571  0.84028693  0.50299564  1
  Ag  Ag32  1  0.84160512  0.33136971  0.82535703  1
  Ag  Ag33  1  0.83495768  0.49994541  -0.00086298  1
  Ag  Ag34  1  0.66604758  0.83658284  0.49594103  1
  Ag  Ag35  1  -0.00148045  0.00495782  0.33412267  1
  Ag  Ag36  1  0.33156044  0.16350996  0.50277449  1
  Ag  Ag37  1  0.15901893  0.67364224  0.15663293  1
  Ag  Ag38  1  0.00138669  0.66892134  0.67183493  1
  Ag  Ag39  1  0.67262800  -0.00607335  0.00350230  1
  Ag  Ag40  1  0.15690927  -0.00248770  0.15844807  1
  Ag  Ag41  1  0.83061934  0.84069726  0.33263547  1
  Ag  Ag42  1  -0.00324870  0.32636727  0.66646158  1
  Ag  Ag43  1  0.83623497  -0.00161004  0.16762381  1
  Ag  Ag44  1  0.83998977  0.17178349  0.65866580  1
  Ag  Ag45  1  0.16245701  0.67013162  0.50545127  1
  Ag  Ag46  1  0.16118352  0.50356295  -0.00523585  1
  Ag  Ag47  1  0.67034045  0.83426063  0.84076351  1
  Ag  Ag48  1  -0.00253471  0.16239028  0.50202025  1
  Ag  Ag49  1  -0.00764135  0.32293738  0.33945340  1
  Ag  Ag50  1  0.00305053  0.67192534  -0.00455658  1
  Ag  Ag51  1  0.16411045  0.16090054  -0.00502563  1
  Ag  Ag52  1  0.67620716  0.67223336  0.00059496  1
  Ag  Ag53  1  0.83482710  0.32827889  0.49708253  1
  Sb  Sb54  1  0.32705842  0.00375948  -0.00085769  1
  Sb  Sb55  1  0.32539724  0.66990743  0.66701404  1
  Sb  Sb56  1  0.00202213  0.49741926  0.83228277  1
  Sb  Sb57  1  0.16009758  0.16918619  0.66898607  1
  Sb  Sb58  1  0.00278391  0.33170541  -0.00197605  1
  Sb  Sb59  1  0.50544904  0.32675591  0.49462815  1
  Sb  Sb60  1  -0.00421672  0.49721398  0.50316838  1
  Sb  Sb61  1  0.32917165  0.00439775  0.33511262  1
  Sb  Sb62  1  0.50125149  0.16486694  0.33888521  1
  Sb  Sb63  1  0.16856661  0.49444248  0.33207491  1
  Sb  Sb64  1  0.83670900  0.66497216  0.49722781  1
  Sb  Sb65  1  0.50254711  0.49781542  0.66458555  1
  Sb  Sb66  1  0.67455453  0.66945749  0.67058249  1
  Sb  Sb67  1  -0.00135544  0.50026374  0.16468923  1
  Sb  Sb68  1  0.33185753  0.16738793  0.16808217  1
  Sb  Sb69  1  0.49782887  0.33092364  0.83726902  1
  Sb  Sb70  1  0.33546912  0.83539224  0.16693557  1
  Sb  Sb71  1  0.49559278  0.16776102  -0.00325476  1
  Sb  Sb72  1  0.66751490  0.50272552  0.16882750  1
  Sb  Sb73  1  0.66834284  0.16227387  0.17190621  1
  Sb  Sb74  1  0.16439045  0.83814798  0.33101728  1
  Sb  Sb75  1  0.33409366  0.49849261  0.16523913  1
  Sb  Sb76  1  0.32558509  0.66436344  -0.00163157  1
  Sb  Sb77  1  0.49816566  0.67527159  0.49977630  1
  Sb  Sb78  1  0.16524229  0.82992704  0.67279960  1
  Sb  Sb79  1  0.67626419  0.33237848  0.66049432  1
  Sb  Sb80  1  0.67105370  0.16270332  0.82860012  1
  Sb  Sb81  1  0.83015253  0.49390297  0.33349677  1
  Sb  Sb82  1  0.67169488  -0.00065601  0.66806335  1
  Sb  Sb83  1  -0.00441398  0.83622983  0.16558107  1
  Sb  Sb84  1  0.16390142  -0.00141423  0.50119390  1
  Sb  Sb85  1  0.66950688  0.50290697  0.83271994  1
  Sb  Sb86  1  0.32808090  0.49789198  0.83497925  1
  Sb  Sb87  1  0.84145716  0.00201159  0.83897590  1
  Sb  Sb88  1  0.83321559  0.00538195  0.49412659  1
  Sb  Sb89  1  0.32801155  0.00018118  0.66679345  1
  Sb  Sb90  1  0.83636838  0.83042052  0.00436378  1
  Sb  Sb91  1  0.67164503  0.00087997  0.33065461  1
  Sb  Sb92  1  0.49998250  0.83192119  0.00038293  1
  Sb  Sb93  1  0.33195730  0.66560989  0.33499625  1
  Sb  Sb94  1  0.84176010  0.66471490  0.83795372  1
  Sb  Sb95  1  0.66842046  0.66787466  0.33086639  1
  Sb  Sb96  1  0.00008015  0.16417800  0.17144496  1
  Sb  Sb97  1  0.16413391  0.33107614  0.16253802  1
  Sb  Sb98  1  0.16139572  0.33301080  0.50305140  1
  Sb  Sb99  1  -0.00021728  0.67005779  0.33310329  1
  Sb  Sb100  1  0.33648339  0.49718576  0.49869091  1
  Sb  Sb101  1  0.83949995  0.16956605  0.00117144  1
  Sb  Sb102  1  0.83501332  0.83638756  0.66220494  1
  Sb  Sb103  1  0.32658922  0.32935994  0.66740813  1
  Sb  Sb104  1  0.66704137  0.33309045  0.00487741  1
  Sb  Sb105  1  0.49574600  0.66962414  0.83511793  1
  Sb  Sb106  1  0.49688974  -0.00165951  0.83271515  1
  Sb  Sb107  1  0.50246837  0.66789660  0.16553895  1
  Te  Te108  1  0.16725060  0.16211956  0.16454649  1
  Te  Te109  1  0.16557577  0.16600883  0.49799571  1
  Te  Te110  1  0.16466450  0.16669233  0.83253603  1
  Te  Te111  1  0.16629344  0.50349649  0.16188972  1
  Te  Te112  1  0.16755692  0.50537767  0.50169998  1
  Te  Te113  1  0.16774950  0.50093229  0.83446010  1
  Te  Te114  1  0.16765282  0.83599028  0.16267990  1
  Te  Te115  1  0.16653256  0.83147943  0.49915519  1
  Te  Te116  1  0.16438301  0.83486362  0.83449255  1
  Te  Te117  1  0.50014482  0.16625301  0.16642211  1
  Te  Te118  1  0.49716243  0.16158991  0.50293442  1
  Te  Te119  1  0.49869731  0.16570737  0.82595561  1
  Te  Te120  1  0.50081498  0.49747210  0.16679681  1
  Te  Te121  1  0.50551477  0.50152393  0.49759080  1
  Te  Te122  1  0.49952273  0.50058322  0.83814197  1
  Te  Te123  1  0.50368204  0.83581386  0.17016988  1
  Te  Te124  1  0.49965508  0.83624741  0.49896406  1
  Te  Te125  1  0.50363866  0.83347643  0.82965677  1
  Te  Te126  1  0.83288064  0.16706392  0.17004273  1
  Te  Te127  1  0.83536837  0.16734667  0.49927750  1
  Te  Te128  1  0.83698395  0.17170850  0.83105721  1
  Te  Te129  1  0.83231358  0.50079046  0.16284991  1
  Te  Te130  1  0.82838659  0.49685018  0.50211750  1
  Te  Te131  1  0.83320883  0.49408485  0.83385542  1
  Te  Te132  1  0.82969851  0.83559405  0.16977790  1
  Te  Te133  1  0.83393048  0.83295519  0.49496615  1
  Te  Te134  1  0.83114003  0.83333055  0.83155778  1
  Te  Te135  1  0.16547530  0.00016435  0.00035574  1
  Te  Te136  1  0.16170472  0.00573684  0.32963296  1
  Te  Te137  1  0.15807419  -0.00061333  0.67269241  1
  Te  Te138  1  0.16846562  0.33585140  -0.00217050  1
  Te  Te139  1  0.16761083  0.32870577  0.33186674  1
  Te  Te140  1  0.16033564  0.34008130  0.67145452  1
  Te  Te141  1  0.16446949  0.66589628  -0.00109720  1
  Te  Te142  1  0.16610401  0.66489604  0.33049743  1
  Te  Te143  1  0.16078166  0.66333459  0.66780456  1
  Te  Te144  1  0.50271647  -0.00017362  0.00465075  1
  Te  Te145  1  0.49908342  -0.00253941  0.33259147  1
  Te  Te146  1  0.50104523  -0.00017973  0.66509725  1
  Te  Te147  1  0.49769287  0.33587750  0.00527781  1
  Te  Te148  1  0.50036292  0.33218958  0.33044448  1
  Te  Te149  1  0.50079835  0.33100107  0.66710739  1
  Te  Te150  1  0.50184099  0.66004079  0.00132706  1
  Te  Te151  1  0.49962788  0.66428886  0.33184727  1
  Te  Te152  1  0.50077141  0.66830578  0.66746954  1
  Te  Te153  1  0.83579479  0.00081883  0.00658932  1
  Te  Te154  1  0.83774645  0.00062031  0.32860521  1
  Te  Te155  1  0.83996947  0.00603031  0.66838579  1
  Te  Te156  1  0.83366918  0.33791901  0.00667162  1
  Te  Te157  1  0.83311741  0.33267338  0.33313045  1
  Te  Te158  1  0.83670332  0.33235653  0.66638980  1
  Te  Te159  1  0.83577304  0.66368997  0.00277304  1
  Te  Te160  1  0.83485197  0.66982826  0.32567022  1
  Te  Te161  1  0.84225788  0.66188718  0.66639112  1
  Te  Te162  1  0.00444634  0.16353453  -0.00624383  1
  Te  Te163  1  0.00020175  0.16579510  0.33521845  1
  Te  Te164  1  -0.00054200  0.16661769  0.66547912  1
  Te  Te165  1  -0.00039837  0.50359921  -0.00119222  1
  Te  Te166  1  0.00101124  0.49335925  0.33425209  1
  Te  Te167  1  -0.00063419  0.50103902  0.66668516  1
  Te  Te168  1  0.00191025  0.83396738  -0.00161548  1
  Te  Te169  1  -0.00222542  0.83779563  0.33873838  1
  Te  Te170  1  -0.00112911  0.83361446  0.66485870  1
  Te  Te171  1  0.32835042  0.17155962  -0.00498107  1
  Te  Te172  1  0.33092370  0.17054981  0.33787967  1
  Te  Te173  1  0.33676605  0.16597627  0.66492477  1
  Te  Te174  1  0.33401248  0.49452501  -0.00081133  1
  Te  Te175  1  0.34010217  0.49267330  0.33385138  1
  Te  Te176  1  0.33015843  0.49944888  0.66627261  1
  Te  Te177  1  0.32977524  0.83302556  -0.00423909  1
  Te  Te178  1  0.33680752  0.83392171  0.33809375  1
  Te  Te179  1  0.33927696  0.83464474  0.66480219  1
  Te  Te180  1  0.66648182  0.16096678  -0.00168705  1
  Te  Te181  1  0.67152653  0.16943927  0.33906159  1
  Te  Te182  1  0.66575585  0.16584331  0.66077784  1
  Te  Te183  1  0.66868946  0.50207086  0.00076003  1
  Te  Te184  1  0.66271734  0.49749954  0.33755572  1
  Te  Te185  1  0.67060702  0.50162208  0.66056703  1
  Te  Te186  1  0.66666126  0.83339527  0.00070521  1
  Te  Te187  1  0.66721595  0.83421498  0.33366442  1
  Te  Te188  1  0.66394128  0.83300150  0.66263565  1
  Te  Te189  1  -0.00081003  -0.00031704  0.16515442  1
  Te  Te190  1  -0.00035968  0.00015442  0.49995988  1
  Te  Te191  1  0.00132882  -0.00102804  0.83629238  1
  Te  Te192  1  -0.00543834  0.33284855  0.17029496  1
  Te  Te193  1  -0.00373698  0.33050918  0.50066685  1
  Te  Te194  1  -0.00002289  0.33035800  0.83176330  1
  Te  Te195  1  -0.00096506  0.66771853  0.16343691  1
  Te  Te196  1  0.00354784  0.66992032  0.50113574  1
  Te  Te197  1  0.00316240  0.67214039  0.83426017  1
  Te  Te198  1  0.33804025  0.00022928  0.16693035  1
  Te  Te199  1  0.33583696  0.00076533  0.50111137  1
  Te  Te200  1  0.32741164  0.00059444  0.83287971  1
  Te  Te201  1  0.33618190  0.33282180  0.16714756  1
  Te  Te202  1  0.33332289  0.32824370  0.49770281  1
  Te  Te203  1  0.32978274  0.32776181  0.83572970  1
  Te  Te204  1  0.32450623  0.66745043  0.16704495  1
  Te  Te205  1  0.32609373  0.67057639  0.50035458  1
  Te  Te206  1  0.32523505  0.67543003  0.83253505  1
  Te  Te207  1  0.66736499  -0.00300899  0.16458046  1
  Te  Te208  1  0.66294345  -0.00061997  0.50054942  1
  Te  Te209  1  0.66702480  -0.00495556  0.83938052  1
  Te  Te210  1  0.66703420  0.33303319  0.17185649  1
  Te  Te211  1  0.67115693  0.33020737  0.49544462  1
  Te  Te212  1  0.67107366  0.33275497  0.83484430  1
  Te  Te213  1  0.67025360  0.67217494  0.16157208  1
  Te  Te214  1  0.66738800  0.67325381  0.50099067  1
  Te  Te215  1  0.66749094  0.67179060  0.83923432  1
