# generated using pymatgen
data_AgSbTe2
_symmetry_space_group_name_H-M   'P 1'
_cell_length_a   18.33356023
_cell_length_b   18.33367566
_cell_length_c   18.33362296
_cell_angle_alpha   89.99932527
_cell_angle_beta   90.00087068
_cell_angle_gamma   90.00117142
_symmetry_Int_Tables_number   1
_chemical_formula_structural   AgSbTe2
_chemical_formula_sum   'Ag54 Sb54 Te108'
_cell_volume   6162.32570779
_cell_formula_units_Z   54
loop_
 _symmetry_equiv_pos_site_id
 _symmetry_equiv_pos_as_xyz
  1  'x, y, z'
loop_
 _atom_site_type_symbol
 _atom_site_label
 _atom_site_symmetry_multiplicity
 _atom_site_fract_x
 _atom_site_fract_y
 _atom_site_fract_z
 _atom_site_occupancy
  Ag  Ag0  1  0.67628885  0.50153313  0.50010454  1
  Ag  Ag1  1  0.66730732  0.17250800  0.16664200  1
  Ag  Ag2  1  0.33062891  0.83374542  0.16248482  1
  Ag  Ag3  1  0.67631238  0.66991081  0.00052961  1
  Ag  Ag4  1  0.16404667  0.34010406  0.50335620  1
  Ag  Ag5  1  0.16846950  -0.00546008  0.16408804  1
  Ag  Ag6  1  0.15637086  0.49760226  0.66803583  1
  Ag  Ag7  1  0.51016748  0.66869363  0.16383160  1
  Ag  Ag8  1  0.34200337  0.83326185  0.82923934  1
  Ag  Ag9  1  0.83693788  0.83010625  0.34510191  1
  Ag  Ag10  1  -0.01084797  0.66100580  0.00660028  1
  Ag  Ag11  1  0.82664280  0.81978321  -0.00198774  1
  Ag  Ag12  1  0.83680723  0.34533038  0.83612433  1
  Ag  Ag13  1  0.67671653  0.83231461  0.50400993  1
  Ag  Ag14  1  0.33177625  0.67469162  0.66470003  1
  Ag  Ag15  1  0.00129038  0.34376189  -0.00184045  1
  Ag  Ag16  1  -0.00528182  0.34214398  0.33637090  1
  Ag  Ag17  1  0.67840095  0.49989873  0.16168451  1
  Ag  Ag18  1  0.50076003  0.16042682  -0.00034955  1
  Ag  Ag19  1  0.32200855  0.33203300  -0.00078610  1
  Ag  Ag20  1  0.50074273  -0.00629002  0.83070787  1
  Ag  Ag21  1  -0.01043087  0.82193907  0.49838322  1
  Ag  Ag22  1  -0.00302886  0.33946466  0.66486554  1
  Ag  Ag23  1  0.15834503  0.33805461  0.83989153  1
  Ag  Ag24  1  -0.00608292  0.50459568  0.49858394  1
  Ag  Ag25  1  0.66490426  0.16740666  0.49709214  1
  Ag  Ag26  1  0.83725841  0.50286755  0.67060702  1
  Ag  Ag27  1  0.33416308  0.83685864  0.50574717  1
  Ag  Ag28  1  0.82427145  -0.01423268  0.50215061  1
  Ag  Ag29  1  0.50169485  -0.00290101  0.50428702  1
  Ag  Ag30  1  0.82859669  0.82716606  0.65824146  1
  Ag  Ag31  1  0.16738731  0.82921667  0.00295342  1
  Ag  Ag32  1  0.15546161  0.66599597  0.50137496  1
  Ag  Ag33  1  -0.00392646  0.66292771  0.33556143  1
  Ag  Ag34  1  0.83774848  0.67087172  0.50206135  1
  Ag  Ag35  1  0.83237086  0.17235836  0.66360650  1
  Ag  Ag36  1  0.66530643  0.82959179  0.83743609  1
  Ag  Ag37  1  0.67766687  0.33510924  0.33590482  1
  Ag  Ag38  1  0.33531447  -0.00853599  0.65939232  1
  Ag  Ag39  1  0.83519818  0.50594386  0.00024160  1
  Ag  Ag40  1  0.83135061  0.66247970  0.84040927  1
  Ag  Ag41  1  0.83202749  0.66308515  0.15477642  1
  Ag  Ag42  1  0.33966818  0.15623400  0.50145776  1
  Ag  Ag43  1  -0.00470070  0.50115800  0.15871839  1
  Ag  Ag44  1  0.66556186  -0.01145368  0.00120466  1
  Ag  Ag45  1  0.67345454  0.50647294  0.83917728  1
  Ag  Ag46  1  0.49968171  0.83529960  0.66982067  1
  Ag  Ag47  1  0.33306241  -0.00496821  0.34057237  1
  Ag  Ag48  1  0.16390126  0.83312780  0.33569647  1
  Ag  Ag49  1  0.50178380  0.32682737  0.50086429  1
  Ag  Ag50  1  0.15260422  0.49922106  -0.00450662  1
  Ag  Ag51  1  0.50573081  0.83660776  -0.00739767  1
  Ag  Ag52  1  0.83302001  0.34725381  0.16186970  1
  Ag  Ag53  1  0.16961960  0.17894970  0.00094023  1
  Sb  Sb54  1  0.50007401  0.83328157  0.33555742  1
  Sb  Sb55  1  0.50096504  0.16528040  0.33311577  1
  Sb  Sb56  1  0.00125487  0.82592106  0.17050515  1
  Sb  Sb57  1  0.66342992  -0.00397005  0.66597707  1
  Sb  Sb58  1  0.32678942  0.67523113  0.33746342  1
  Sb  Sb59  1  0.67087840  0.33666799  0.00328181  1
  Sb  Sb60  1  0.50560613  0.50249611  -0.00016502  1
  Sb  Sb61  1  -0.00048425  0.17237428  0.83415207  1
  Sb  Sb62  1  0.50472201  0.50029280  0.33456532  1
  Sb  Sb63  1  0.67339854  0.33484499  0.66067870  1
  Sb  Sb64  1  0.33214080  0.66922742  -0.00320015  1
  Sb  Sb65  1  0.16105517  0.66236417  0.83087551  1
  Sb  Sb66  1  0.16066803  0.33207939  0.16406293  1
  Sb  Sb67  1  0.50404203  0.50599218  0.66544110  1
  Sb  Sb68  1  0.00251504  -0.00503328  0.33555901  1
  Sb  Sb69  1  0.49828296  -0.00473638  0.16574878  1
  Sb  Sb70  1  0.17064902  -0.00450840  0.49737731  1
  Sb  Sb71  1  0.16213253  0.50475591  0.33486414  1
  Sb  Sb72  1  0.50273118  0.32986004  0.83113268  1
  Sb  Sb73  1  -0.00138234  0.66076591  0.66316930  1
  Sb  Sb74  1  0.17280146  -0.00036793  0.83865613  1
  Sb  Sb75  1  0.82612990  -0.00609420  0.82897283  1
  Sb  Sb76  1  -0.00813893  0.50039941  0.83471912  1
  Sb  Sb77  1  0.83205318  0.16473124  0.33830279  1
  Sb  Sb78  1  0.33659303  0.50439285  0.83340190  1
  Sb  Sb79  1  0.33051999  0.50466729  0.16262378  1
  Sb  Sb80  1  0.16391085  0.17292019  0.66863166  1
  Sb  Sb81  1  0.66426198  0.00064984  0.33353654  1
  Sb  Sb82  1  0.33096536  0.32892706  0.33255782  1
  Sb  Sb83  1  0.83202646  0.17046594  -0.00348856  1
  Sb  Sb84  1  0.50601172  0.67369965  0.83717307  1
  Sb  Sb85  1  0.50342581  0.16096341  0.66582525  1
  Sb  Sb86  1  0.83430557  0.33848073  0.49938182  1
  Sb  Sb87  1  0.66814479  0.16522806  0.83292848  1
  Sb  Sb88  1  0.66492249  0.82991938  0.16434462  1
  Sb  Sb89  1  0.16219726  0.66977657  0.16776158  1
  Sb  Sb90  1  0.67477942  0.66427653  0.33032196  1
  Sb  Sb91  1  0.66908608  0.66935661  0.67006176  1
  Sb  Sb92  1  0.33761199  -0.00154277  -0.00057846  1
  Sb  Sb93  1  0.33120569  0.50221099  0.50147840  1
  Sb  Sb94  1  0.32805509  0.33396718  0.66867455  1
  Sb  Sb95  1  -0.00154207  0.17103270  0.49988380  1
  Sb  Sb96  1  0.33403949  0.16198919  0.83058985  1
  Sb  Sb97  1  -0.00313690  -0.00394077  0.00176543  1
  Sb  Sb98  1  0.83554457  0.50594969  0.33165722  1
  Sb  Sb99  1  0.33675578  0.16222051  0.16714051  1
  Sb  Sb100  1  -0.00556788  0.17543855  0.16461296  1
  Sb  Sb101  1  0.50354179  0.67132334  0.49771974  1
  Sb  Sb102  1  0.00156855  0.00063074  0.66313757  1
  Sb  Sb103  1  0.83493038  -0.00565572  0.16949680  1
  Sb  Sb104  1  0.50697372  0.33646569  0.16858357  1
  Sb  Sb105  1  -0.00410072  0.83035837  0.82987884  1
  Sb  Sb106  1  0.16842669  0.82728939  0.66406624  1
  Sb  Sb107  1  0.16625888  0.16262382  0.33062933  1
  Te  Te108  1  0.16787456  0.16211029  0.16155875  1
  Te  Te109  1  0.16773074  0.16927615  0.49971750  1
  Te  Te110  1  0.16838578  0.17308994  0.84017702  1
  Te  Te111  1  0.16224215  0.50104996  0.16026692  1
  Te  Te112  1  0.16651707  0.50111739  0.50141888  1
  Te  Te113  1  0.17057192  0.49594075  0.83383709  1
  Te  Te114  1  0.16775700  0.83384848  0.16602314  1
  Te  Te115  1  0.17306680  0.83076802  0.49863356  1
  Te  Te116  1  0.16753132  0.83164927  0.83659371  1
  Te  Te117  1  0.50508793  0.16683340  0.16085987  1
  Te  Te118  1  0.50177941  0.16510330  0.50054862  1
  Te  Te119  1  0.50077477  0.16070508  0.83826761  1
  Te  Te120  1  0.50235959  0.50596676  0.16685434  1
  Te  Te121  1  0.50442237  0.49779836  0.50124842  1
  Te  Te122  1  0.51129107  0.49981600  0.83186717  1
  Te  Te123  1  0.49641199  0.83042639  0.16473689  1
  Te  Te124  1  0.49441243  0.83565637  0.50239822  1
  Te  Te125  1  0.50254422  0.83428507  0.83249892  1
  Te  Te126  1  0.82697875  0.16314603  0.16629041  1
  Te  Te127  1  0.82970804  0.16807006  0.50417613  1
  Te  Te128  1  0.83232065  0.16714850  0.82507008  1
  Te  Te129  1  0.83507489  0.50272061  0.16768890  1
  Te  Te130  1  0.83435745  0.50073975  0.49997073  1
  Te  Te131  1  0.82952670  0.50125339  0.83198312  1
  Te  Te132  1  0.83354841  0.82933101  0.15779750  1
  Te  Te133  1  0.83400635  0.83164887  0.50138584  1
  Te  Te134  1  0.82899250  0.83029539  0.83876391  1
  Te  Te135  1  0.16660935  -0.00785566  0.00296170  1
  Te  Te136  1  0.16988607  -0.00472653  0.32840583  1
  Te  Te137  1  0.17194072  0.00376602  0.66908993  1
  Te  Te138  1  0.16295001  0.33677747  0.00159679  1
  Te  Te139  1  0.16282723  0.33243459  0.33627691  1
  Te  Te140  1  0.16241683  0.33741856  0.66533464  1
  Te  Te141  1  0.16563739  0.66554424  -0.00115300  1
  Te  Te142  1  0.15999314  0.67209747  0.33902819  1
  Te  Te143  1  0.16803698  0.65971422  0.66339291  1
  Te  Te144  1  0.50320375  -0.00239953  0.00041504  1
  Te  Te145  1  0.49488727  -0.00038429  0.33980559  1
  Te  Te146  1  0.49668338  -0.00423525  0.66535377  1
  Te  Te147  1  0.49872168  0.33203006  -0.00072914  1
  Te  Te148  1  0.49993683  0.33282901  0.33997229  1
  Te  Te149  1  0.49835485  0.33325419  0.66174003  1
  Te  Te150  1  0.50031704  0.67073576  0.00352235  1
  Te  Te151  1  0.49933397  0.66734083  0.32485066  1
  Te  Te152  1  0.49415990  0.67356976  0.66639589  1
  Te  Te153  1  0.82773660  0.00111887  -0.00086829  1
  Te  Te154  1  0.83348098  -0.00723230  0.33823792  1
  Te  Te155  1  0.83434108  -0.00581881  0.66229302  1
  Te  Te156  1  0.83774807  0.33349235  -0.00080830  1
  Te  Te157  1  0.83506414  0.33032610  0.32838164  1
  Te  Te158  1  0.83676950  0.33834999  0.66784908  1
  Te  Te159  1  0.83292282  0.66410410  -0.00117576  1
  Te  Te160  1  0.83809901  0.67242041  0.34215911  1
  Te  Te161  1  0.83382742  0.66638173  0.66248854  1
  Te  Te162  1  0.00626149  0.16727145  0.00090987  1
  Te  Te163  1  -0.00022261  0.17580558  0.33200634  1
  Te  Te164  1  -0.00592198  0.17280527  0.66692795  1
  Te  Te165  1  -0.00382553  0.50020202  -0.00131626  1
  Te  Te166  1  0.00167573  0.50092363  0.33841967  1
  Te  Te167  1  -0.00108005  0.49816726  0.66263923  1
  Te  Te168  1  0.00237196  0.83127340  -0.00023974  1
  Te  Te169  1  0.00100882  0.83066538  0.33714287  1
  Te  Te170  1  -0.00370225  0.83271552  0.66108470  1
  Te  Te171  1  0.33347121  0.16810692  -0.00025472  1
  Te  Te172  1  0.33307986  0.16047890  0.33887131  1
  Te  Te173  1  0.33355618  0.16519884  0.66122185  1
  Te  Te174  1  0.33346892  0.49533425  -0.00118595  1
  Te  Te175  1  0.33281761  0.49995971  0.33097348  1
  Te  Te176  1  0.33164330  0.50339558  0.66822021  1
  Te  Te177  1  0.33112034  0.83364750  0.00067520  1
  Te  Te178  1  0.33175785  0.83642153  0.33236716  1
  Te  Te179  1  0.32999777  0.83352445  0.66812686  1
  Te  Te180  1  0.66404580  0.16836466  0.00102147  1
  Te  Te181  1  0.66662439  0.17118453  0.33467293  1
  Te  Te182  1  0.67109960  0.16541870  0.66084306  1
  Te  Te183  1  0.67093073  0.50319830  0.00160230  1
  Te  Te184  1  0.66806801  0.49472024  0.33690518  1
  Te  Te185  1  0.67195723  0.50197292  0.66175070  1
  Te  Te186  1  0.66516007  0.83047375  0.00190085  1
  Te  Te187  1  0.67126068  0.83281646  0.33863418  1
  Te  Te188  1  0.66708976  0.83333721  0.66463127  1
  Te  Te189  1  0.00624963  0.00273918  0.16839091  1
  Te  Te190  1  -0.00364552  -0.00135439  0.49989703  1
  Te  Te191  1  0.00061497  0.00081894  0.83224321  1
  Te  Te192  1  -0.00561362  0.33928424  0.16565228  1
  Te  Te193  1  0.00212040  0.33558478  0.49989868  1
  Te  Te194  1  -0.00085016  0.33500653  0.83394259  1
  Te  Te195  1  -0.00427098  0.66176366  0.16793933  1
  Te  Te196  1  0.00011381  0.66545526  0.50109844  1
  Te  Te197  1  -0.00617212  0.66734551  0.84253394  1
  Te  Te198  1  0.33072371  -0.00427763  0.16914962  1
  Te  Te199  1  0.33257146  -0.00100691  0.50037945  1
  Te  Te200  1  0.33955047  -0.00544314  0.82954495  1
  Te  Te201  1  0.33580733  0.33222644  0.16257193  1
  Te  Te202  1  0.33224400  0.33351908  0.49934944  1
  Te  Te203  1  0.33295942  0.33335403  0.83763431  1
  Te  Te204  1  0.33309688  0.67231125  0.16818825  1
  Te  Te205  1  0.33546936  0.67064265  0.50338661  1
  Te  Te206  1  0.33267677  0.67240519  0.82861625  1
  Te  Te207  1  0.66633860  0.00428598  0.16395540  1
  Te  Te208  1  0.66471715  -0.00157335  0.49881969  1
  Te  Te209  1  0.66088726  -0.00354311  0.83866281  1
  Te  Te210  1  0.67021815  0.33616971  0.17047066  1
  Te  Te211  1  0.66672966  0.33328193  0.49701090  1
  Te  Te212  1  0.67151454  0.33569945  0.83234325  1
  Te  Te213  1  0.67071925  0.66351176  0.16442885  1
  Te  Te214  1  0.66914662  0.66690826  0.49850026  1
  Te  Te215  1  0.67064360  0.66861306  0.83614392  1
