# generated using pymatgen
data_AgSbTe2
_symmetry_space_group_name_H-M   'P 1'
_cell_length_a   18.32324827
_cell_length_b   18.32377453
_cell_length_c   18.32372689
_cell_angle_alpha   90.00231181
_cell_angle_beta   90.00127544
_cell_angle_gamma   89.99614832
_symmetry_Int_Tables_number   1
_chemical_formula_structural   AgSbTe2
_chemical_formula_sum   'Ag54 Sb54 Te108'
_cell_volume   6152.21088970
_cell_formula_units_Z   54
loop_
 _symmetry_equiv_pos_site_id
 _symmetry_equiv_pos_as_xyz
  1  'x, y, z'
loop_
 _atom_site_type_symbol
 _atom_site_label
 _atom_site_symmetry_multiplicity
 _atom_site_fract_x
 _atom_site_fract_y
 _atom_site_fract_z
 _atom_site_occupancy
  Ag  Ag0  1  0.84283092  0.33636088  0.16347039  1
  Ag  Ag1  1  0.49690503  0.15830479  0.66812976  1
  Ag  Ag2  1  0.33702209  0.00389394  0.66377808  1
  Ag  Ag3  1  -0.00018693  0.66999161  -0.00386357  1
  Ag  Ag4  1  0.00834648  -0.00267091  0.32241585  1
  Ag  Ag5  1  0.66692364  0.16253717  0.83035374  1
  Ag  Ag6  1  0.17095123  0.16760831  0.67496327  1
  Ag  Ag7  1  0.00669516  0.34545187  0.32864002  1
  Ag  Ag8  1  0.16337025  0.50116514  0.32381604  1
  Ag  Ag9  1  0.15935748  0.65349560  0.16634274  1
  Ag  Ag10  1  0.82966732  0.16583092  0.67726239  1
  Ag  Ag11  1  0.49499059  -0.00067300  0.16792202  1
  Ag  Ag12  1  0.33319481  0.49901844  0.49513486  1
  Ag  Ag13  1  0.32653359  0.65566730  0.33132671  1
  Ag  Ag14  1  0.15586486  0.65563302  0.83736123  1
  Ag  Ag15  1  0.84377939  0.66114744  0.16464321  1
  Ag  Ag16  1  0.00350877  0.50781213  0.83839372  1
  Ag  Ag17  1  0.16285893  0.00293769  0.16983127  1
  Ag  Ag18  1  0.49697544  0.49980170  0.66499806  1
  Ag  Ag19  1  0.83479626  0.83557922  -0.00204197  1
  Ag  Ag20  1  0.16793380  0.49776944  0.66935596  1
  Ag  Ag21  1  0.66115483  0.50518073  0.50321198  1
  Ag  Ag22  1  0.33048931  0.16591562  0.16789919  1
  Ag  Ag23  1  0.16174014  0.34197407  0.16599180  1
  Ag  Ag24  1  0.83954627  0.33691260  0.83851945  1
  Ag  Ag25  1  0.49889809  0.33626081  0.49995847  1
  Ag  Ag26  1  0.50188145  -0.00015198  0.82673875  1
  Ag  Ag27  1  0.50326539  0.84247068  0.66679155  1
  Ag  Ag28  1  0.84565549  0.50261430  0.32873440  1
  Ag  Ag29  1  0.16225408  0.17020579  -0.00134241  1
  Ag  Ag30  1  0.32766834  0.33978646  0.33145688  1
  Ag  Ag31  1  0.33027976  0.00196484  0.33256973  1
  Ag  Ag32  1  0.32011858  0.49653986  0.17728005  1
  Ag  Ag33  1  0.16373376  0.49651420  0.00969594  1
  Ag  Ag34  1  0.84382297  0.66283754  0.83837130  1
  Ag  Ag35  1  0.66930566  0.83439882  0.82914152  1
  Ag  Ag36  1  0.00185170  0.66634558  0.68120858  1
  Ag  Ag37  1  0.16107332  0.33857351  0.83875496  1
  Ag  Ag38  1  0.50600515  0.83674461  -0.00483163  1
  Ag  Ag39  1  -0.00213021  -0.00596992  0.00456665  1
  Ag  Ag40  1  0.66809469  0.66563078  0.33364495  1
  Ag  Ag41  1  0.50015909  0.83770359  0.33569448  1
  Ag  Ag42  1  0.65674789  -0.00058525  0.66959255  1
  Ag  Ag43  1  0.49571899  0.16039195  0.33675838  1
  Ag  Ag44  1  0.66687860  0.83039100  0.50471718  1
  Ag  Ag45  1  0.84064456  0.16201090  -0.00283059  1
  Ag  Ag46  1  0.00146936  0.66269122  0.32746470  1
  Ag  Ag47  1  0.00681166  0.50711879  0.16802193  1
  Ag  Ag48  1  0.67559398  0.50192523  0.82833973  1
  Ag  Ag49  1  -0.00628121  0.82229301  0.83319044  1
  Ag  Ag50  1  0.84391871  0.00096447  0.16456540  1
  Ag  Ag51  1  -0.00391632  0.83228389  0.50173596  1
  Ag  Ag52  1  0.16648180  0.00145099  0.49187986  1
  Ag  Ag53  1  0.33196705  0.16556835  0.83203830  1
  Sb  Sb54  1  0.32885318  0.33233790  0.00569492  1
  Sb  Sb55  1  0.67042487  0.50195330  0.16735376  1
  Sb  Sb56  1  0.00183399  -0.00325169  0.66897022  1
  Sb  Sb57  1  0.16440162  0.66712065  0.49669389  1
  Sb  Sb58  1  0.49894843  0.32881408  0.82865722  1
  Sb  Sb59  1  0.49789692  0.15995197  -0.00364214  1
  Sb  Sb60  1  0.16887983  0.00297402  0.83541077  1
  Sb  Sb61  1  0.33383889  0.16875263  0.49899020  1
  Sb  Sb62  1  0.00617144  0.16828294  0.16516363  1
  Sb  Sb63  1  0.83456407  0.66585224  0.49822892  1
  Sb  Sb64  1  0.50157156  0.67253088  0.83266277  1
  Sb  Sb65  1  0.83093738  0.00083180  0.83792466  1
  Sb  Sb66  1  0.32926922  0.66714694  0.66413067  1
  Sb  Sb67  1  0.49440413  0.50069702  0.33749100  1
  Sb  Sb68  1  0.66408884  0.16396692  0.50610489  1
  Sb  Sb69  1  0.16688869  0.83169232  0.33270679  1
  Sb  Sb70  1  0.32582197  0.49440952  0.83083979  1
  Sb  Sb71  1  0.49665768  0.67001719  0.16938968  1
  Sb  Sb72  1  0.33451176  0.83787528  0.83245596  1
  Sb  Sb73  1  0.32901401  0.00106879  0.00349290  1
  Sb  Sb74  1  0.16164050  0.83329263  -0.00083247  1
  Sb  Sb75  1  0.67033873  0.66927723  0.66550776  1
  Sb  Sb76  1  0.16826895  0.83413199  0.66696610  1
  Sb  Sb77  1  0.83026320  0.83666363  0.67283967  1
  Sb  Sb78  1  0.83018152  0.33542584  0.49914465  1
  Sb  Sb79  1  0.00175547  0.33663096  0.00399238  1
  Sb  Sb80  1  0.50097192  0.66385841  0.49910708  1
  Sb  Sb81  1  -0.00016012  0.16853306  0.83581989  1
  Sb  Sb82  1  0.67027535  -0.00123270  -0.00493064  1
  Sb  Sb83  1  0.17216095  0.16791631  0.32827037  1
  Sb  Sb84  1  0.49494532  0.00124718  0.50151573  1
  Sb  Sb85  1  0.00233300  0.50535977  0.49667622  1
  Sb  Sb86  1  0.49375531  0.50552720  -0.00557757  1
  Sb  Sb87  1  0.33292422  0.32903060  0.66252409  1
  Sb  Sb88  1  0.66632943  0.32986104  0.66752455  1
  Sb  Sb89  1  0.66727652  0.83421453  0.16608991  1
  Sb  Sb90  1  0.67525448  0.66834295  0.00159199  1
  Sb  Sb91  1  0.67087954  0.33375015  -0.00195272  1
  Sb  Sb92  1  0.00308512  0.16205865  0.49953510  1
  Sb  Sb93  1  0.66499710  0.33839727  0.33360636  1
  Sb  Sb94  1  0.16951414  0.33208353  0.49670153  1
  Sb  Sb95  1  0.66442014  -0.00454831  0.33761624  1
  Sb  Sb96  1  0.33489842  0.83126700  0.49782862  1
  Sb  Sb97  1  0.49368456  0.32882405  0.17324344  1
  Sb  Sb98  1  0.83765395  -0.00157009  0.49544253  1
  Sb  Sb99  1  0.84113551  0.50088355  0.00204435  1
  Sb  Sb100  1  0.32405319  0.66663700  0.00483589  1
  Sb  Sb101  1  0.83420826  0.49832673  0.66828564  1
  Sb  Sb102  1  0.66329961  0.16510427  0.16170504  1
  Sb  Sb103  1  0.33381716  0.83593583  0.16869587  1
  Sb  Sb104  1  -0.00082489  0.82782857  0.16520512  1
  Sb  Sb105  1  0.83132888  0.17038018  0.32823901  1
  Sb  Sb106  1  0.83237022  0.82748783  0.32806411  1
  Sb  Sb107  1  0.00185692  0.33713542  0.66472436  1
  Te  Te108  1  0.17174475  0.16206300  0.16339254  1
  Te  Te109  1  0.16722319  0.16274332  0.50843765  1
  Te  Te110  1  0.16753005  0.16909126  0.83541595  1
  Te  Te111  1  0.16564038  0.49818455  0.16814329  1
  Te  Te112  1  0.16972143  0.49900982  0.50670338  1
  Te  Te113  1  0.16526368  0.49803666  0.82893926  1
  Te  Te114  1  0.16707927  0.84380811  0.16545274  1
  Te  Te115  1  0.16257751  0.83918940  0.50055844  1
  Te  Te116  1  0.16439113  0.82835136  0.83323789  1
  Te  Te117  1  0.49556697  0.16158627  0.16700443  1
  Te  Te118  1  0.50052100  0.17165736  0.50312409  1
  Te  Te119  1  0.50045208  0.16344609  0.82988021  1
  Te  Te120  1  0.49907543  0.49943800  0.16279965  1
  Te  Te121  1  0.50042468  0.49810307  0.50236582  1
  Te  Te122  1  0.49890476  0.49917958  0.82830867  1
  Te  Te123  1  0.50089968  0.83802777  0.17048455  1
  Te  Te124  1  0.50413393  0.83320601  0.50164604  1
  Te  Te125  1  0.50197367  0.83782284  0.82998627  1
  Te  Te126  1  0.83109756  0.16640588  0.16235151  1
  Te  Te127  1  0.83272311  0.16747049  0.50595644  1
  Te  Te128  1  0.83338256  0.16792683  0.83516603  1
  Te  Te129  1  0.83464183  0.49978887  0.16835123  1
  Te  Te130  1  0.82751443  0.49888858  0.49475984  1
  Te  Te131  1  0.83486945  0.49912729  0.83406693  1
  Te  Te132  1  0.83240840  0.83585194  0.16004835  1
  Te  Te133  1  0.83144528  0.83337165  0.50039154  1
  Te  Te134  1  0.83233072  0.83269233  0.83687392  1
  Te  Te135  1  0.16202314  0.00258825  0.00367976  1
  Te  Te136  1  0.16753949  0.00063903  0.33251115  1
  Te  Te137  1  0.17091809  0.00313872  0.66777128  1
  Te  Te138  1  0.16585321  0.33203160  0.00106270  1
  Te  Te139  1  0.16710442  0.33386425  0.33029201  1
  Te  Te140  1  0.16671957  0.33264773  0.66871375  1
  Te  Te141  1  0.16095608  0.66621817  0.00278638  1
  Te  Te142  1  0.16747657  0.66533818  0.33014410  1
  Te  Te143  1  0.16348620  0.66478133  0.66859036  1
  Te  Te144  1  0.50010537  -0.00436669  0.00259720  1
  Te  Te145  1  0.49933802  -0.00049430  0.33443539  1
  Te  Te146  1  0.49771943  0.00124033  0.66511125  1
  Te  Te147  1  0.50033039  0.33419482  0.00182005  1
  Te  Te148  1  0.49586142  0.32839638  0.33672084  1
  Te  Te149  1  0.49954761  0.33870954  0.66218371  1
  Te  Te150  1  0.49976074  0.67498054  0.00093576  1
  Te  Te151  1  0.50038064  0.67265898  0.33235233  1
  Te  Te152  1  0.49905020  0.66145000  0.66709447  1
  Te  Te153  1  0.83556504  0.00021622  0.00419949  1
  Te  Te154  1  0.83430752  0.00042692  0.32637972  1
  Te  Te155  1  0.83312757  0.00678098  0.66474635  1
  Te  Te156  1  0.83619619  0.32864648  -0.00039202  1
  Te  Te157  1  0.83591492  0.33700587  0.32974236  1
  Te  Te158  1  0.83460440  0.32676545  0.67136966  1
  Te  Te159  1  0.83872839  0.66747301  0.00074493  1
  Te  Te160  1  0.83542854  0.66325265  0.33071165  1
  Te  Te161  1  0.83997844  0.66698281  0.67307511  1
  Te  Te162  1  0.00033274  0.16104854  -0.00044415  1
  Te  Te163  1  -0.00119520  0.15744103  0.33356450  1
  Te  Te164  1  0.00432769  0.16710258  0.66749458  1
  Te  Te165  1  0.00443190  0.50314744  0.00052831  1
  Te  Te166  1  0.00330754  0.50143764  0.33375065  1
  Te  Te167  1  0.00262415  0.50402376  0.66565835  1
  Te  Te168  1  -0.00282131  0.83258961  -0.00326645  1
  Te  Te169  1  -0.00068448  0.83765166  0.33707619  1
  Te  Te170  1  -0.00049556  0.82887175  0.66728638  1
  Te  Te171  1  0.32919036  0.16625957  -0.00118161  1
  Te  Te172  1  0.33589903  0.16212429  0.33235992  1
  Te  Te173  1  0.33399808  0.16462163  0.66696892  1
  Te  Te174  1  0.32539539  0.49984758  0.00467315  1
  Te  Te175  1  0.33310188  0.49944334  0.33378132  1
  Te  Te176  1  0.33273946  0.49992279  0.66331976  1
  Te  Te177  1  0.34346643  0.83329973  -0.00021871  1
  Te  Te178  1  0.33897581  0.83986406  0.33484779  1
  Te  Te179  1  0.34040621  0.83787925  0.66537237  1
  Te  Te180  1  0.67010629  0.16654422  -0.00829707  1
  Te  Te181  1  0.65922817  0.16733386  0.33442400  1
  Te  Te182  1  0.66349840  0.16306917  0.67075427  1
  Te  Te183  1  0.66396634  0.50141262  -0.00938481  1
  Te  Te184  1  0.66338013  0.50515175  0.33519498  1
  Te  Te185  1  0.66596894  0.50115942  0.66737986  1
  Te  Te186  1  0.66774298  0.83311349  -0.00612929  1
  Te  Te187  1  0.66382488  0.82872107  0.33691457  1
  Te  Te188  1  0.66418238  0.83547977  0.66805052  1
  Te  Te189  1  0.00028919  -0.00006970  0.16551919  1
  Te  Te190  1  0.00510196  -0.00601475  0.50002593  1
  Te  Te191  1  -0.00007243  -0.00582594  0.83790662  1
  Te  Te192  1  0.00095914  0.33461284  0.16994738  1
  Te  Te193  1  -0.00068864  0.33282158  0.49001457  1
  Te  Te194  1  0.00054386  0.33883733  0.83234286  1
  Te  Te195  1  0.00002792  0.66607513  0.16949286  1
  Te  Te196  1  -0.00009723  0.67335442  0.48960731  1
  Te  Te197  1  0.00030882  0.66551923  0.83712875  1
  Te  Te198  1  0.33526731  0.00218501  0.16933573  1
  Te  Te199  1  0.32829841  -0.00089972  0.49889237  1
  Te  Te200  1  0.33731861  0.00493648  0.83187101  1
  Te  Te201  1  0.32904406  0.33140006  0.17165605  1
  Te  Te202  1  0.33670751  0.33779336  0.49367325  1
  Te  Te203  1  0.32932447  0.32613431  0.83347038  1
  Te  Te204  1  0.32871753  0.66351980  0.17178670  1
  Te  Te205  1  0.33204820  0.66116951  0.49358396  1
  Te  Te206  1  0.32848930  0.66584576  0.83414363  1
  Te  Te207  1  0.66231214  0.00074672  0.16805620  1
  Te  Te208  1  0.66796791  -0.00521458  0.50615965  1
  Te  Te209  1  0.66429881  -0.00098947  0.82959940  1
  Te  Te210  1  0.67598064  0.33323795  0.16619214  1
  Te  Te211  1  0.66156698  0.33905848  0.49961640  1
  Te  Te212  1  0.66988521  0.33552889  0.83291367  1
  Te  Te213  1  0.67153113  0.66680743  0.17253466  1
  Te  Te214  1  0.66788937  0.66712292  0.49668026  1
  Te  Te215  1  0.66942960  0.66700303  0.83360949  1
