# generated using pymatgen
data_AgSbTe2
_symmetry_space_group_name_H-M   'P 1'
_cell_length_a   18.32572543
_cell_length_b   18.32827381
_cell_length_c   18.32208330
_cell_angle_alpha   89.99980224
_cell_angle_beta   90.00142097
_cell_angle_gamma   90.00186230
_symmetry_Int_Tables_number   1
_chemical_formula_structural   AgSbTe2
_chemical_formula_sum   'Ag54 Sb54 Te108'
_cell_volume   6154.00142458
_cell_formula_units_Z   54
loop_
 _symmetry_equiv_pos_site_id
 _symmetry_equiv_pos_as_xyz
  1  'x, y, z'
loop_
 _atom_site_type_symbol
 _atom_site_label
 _atom_site_symmetry_multiplicity
 _atom_site_fract_x
 _atom_site_fract_y
 _atom_site_fract_z
 _atom_site_occupancy
  Ag  Ag0  1  0.33152502  0.83199840  0.16427306  1
  Ag  Ag1  1  -0.01184926  0.32601601  -0.00501336  1
  Ag  Ag2  1  0.16540786  -0.00171196  0.83278574  1
  Ag  Ag3  1  0.81999191  0.16636503  0.32845939  1
  Ag  Ag4  1  0.00010791  0.83934384  0.84064307  1
  Ag  Ag5  1  0.66025136  0.67144750  0.66721388  1
  Ag  Ag6  1  0.17014983  0.67125910  0.83805821  1
  Ag  Ag7  1  0.32843474  0.16551076  0.49359985  1
  Ag  Ag8  1  0.66659418  0.32720890  0.67100590  1
  Ag  Ag9  1  0.00456924  0.83922371  0.15796398  1
  Ag  Ag10  1  0.66049875  0.32415895  0.32953301  1
  Ag  Ag11  1  0.16824764  0.00546959  0.50095477  1
  Ag  Ag12  1  -0.00187808  0.33051228  0.67505482  1
  Ag  Ag13  1  0.66656459  0.15656882  0.84620721  1
  Ag  Ag14  1  0.33824316  0.00541865  0.33819281  1
  Ag  Ag15  1  0.50266357  0.49866416  0.00033385  1
  Ag  Ag16  1  0.50078253  0.49640202  0.66883667  1
  Ag  Ag17  1  0.50262275  0.16452099  0.33360071  1
  Ag  Ag18  1  0.66559969  0.84300076  0.83482112  1
  Ag  Ag19  1  0.49642318  0.49480634  0.33397824  1
  Ag  Ag20  1  0.33386848  0.83378876  0.83727534  1
  Ag  Ag21  1  0.33471404  0.83575639  0.49784005  1
  Ag  Ag22  1  0.66390354  0.00421108  0.67945488  1
  Ag  Ag23  1  0.82957174  0.84407592  -0.00337755  1
  Ag  Ag24  1  0.83261490  0.32521005  0.83745514  1
  Ag  Ag25  1  0.33144896  0.66957242  -0.00466043  1
  Ag  Ag26  1  0.17298827  0.16963291  0.33713725  1
  Ag  Ag27  1  0.82234820  0.00333487  0.83781961  1
  Ag  Ag28  1  0.49827144  0.84492227  0.33113339  1
  Ag  Ag29  1  0.33839357  0.66821875  0.66971702  1
  Ag  Ag30  1  0.00068132  0.83986199  0.50017446  1
  Ag  Ag31  1  -0.00668928  0.16230504  0.16599227  1
  Ag  Ag32  1  -0.00842011  0.00252007  -0.00473663  1
  Ag  Ag33  1  0.33743614  0.32563872  0.33761554  1
  Ag  Ag34  1  0.82634030  0.48973492  -0.00053681  1
  Ag  Ag35  1  0.67051767  0.16857735  0.15671090  1
  Ag  Ag36  1  0.33321516  0.49589705  0.49588353  1
  Ag  Ag37  1  0.50316087  0.83995245  -0.00229265  1
  Ag  Ag38  1  0.16804964  0.66676588  0.16011550  1
  Ag  Ag39  1  0.50406409  0.16836584  0.66637338  1
  Ag  Ag40  1  0.67212475  0.01082394  -0.00998750  1
  Ag  Ag41  1  0.50895933  0.16169927  0.00001005  1
  Ag  Ag42  1  0.67055129  0.32214823  -0.00354460  1
  Ag  Ag43  1  0.16752475  0.32439145  0.49908534  1
  Ag  Ag44  1  0.16212319  0.33090166  0.83238851  1
  Ag  Ag45  1  0.17654295  0.49250742  0.33142511  1
  Ag  Ag46  1  0.51046081  0.00021855  0.83594885  1
  Ag  Ag47  1  0.82404986  0.16575249  0.00081302  1
  Ag  Ag48  1  0.65981571  0.00743600  0.33344221  1
  Ag  Ag49  1  0.83245189  0.66974971  0.50078522  1
  Ag  Ag50  1  0.16826299  0.50029043  0.00189882  1
  Ag  Ag51  1  0.00734402  0.16306473  0.49442694  1
  Ag  Ag52  1  0.66543664  0.83531378  0.50595260  1
  Ag  Ag53  1  0.66411912  0.49118502  0.16325029  1
  Sb  Sb54  1  0.49654620  0.33173448  0.49821195  1
  Sb  Sb55  1  0.49651874  0.67386468  0.83331539  1
  Sb  Sb56  1  0.49600589  0.66771105  0.16485745  1
  Sb  Sb57  1  0.50290952  0.33274612  0.16812864  1
  Sb  Sb58  1  0.66499791  0.49747141  0.83813786  1
  Sb  Sb59  1  0.66558133  0.16221853  0.49845377  1
  Sb  Sb60  1  0.16686068  0.66822482  0.50053872  1
  Sb  Sb61  1  0.82753202  0.16730583  0.66959409  1
  Sb  Sb62  1  0.17271493  0.83675562  0.33385499  1
  Sb  Sb63  1  0.33378035  0.50451090  0.83163507  1
  Sb  Sb64  1  0.66132444  0.50200281  0.49790551  1
  Sb  Sb65  1  0.50233152  0.83606014  0.66869718  1
  Sb  Sb66  1  0.16553444  0.17092592  0.00310045  1
  Sb  Sb67  1  0.00016516  0.32832775  0.33180528  1
  Sb  Sb68  1  0.50215854  0.32742097  0.83339495  1
  Sb  Sb69  1  -0.00456113  0.16409997  0.83557659  1
  Sb  Sb70  1  0.83477235  0.67027751  0.83247115  1
  Sb  Sb71  1  -0.00371803  0.00344642  0.67112959  1
  Sb  Sb72  1  0.33405343  0.66801899  0.33420307  1
  Sb  Sb73  1  0.66534554  0.66762759  0.33649358  1
  Sb  Sb74  1  0.33566330  0.33526976  0.66212284  1
  Sb  Sb75  1  0.00605762  0.49747889  0.49960750  1
  Sb  Sb76  1  0.33675214  0.50445637  0.17007095  1
  Sb  Sb77  1  0.16988743  0.16775286  0.66205267  1
  Sb  Sb78  1  0.66275267  0.66850725  -0.00444447  1
  Sb  Sb79  1  0.00250658  0.66873400  0.33389872  1
  Sb  Sb80  1  0.16797936  0.83026211  -0.00188784  1
  Sb  Sb81  1  0.33767067  0.16128278  0.83003652  1
  Sb  Sb82  1  0.17247075  0.49801663  0.66751023  1
  Sb  Sb83  1  0.82565499  0.49898290  0.67163488  1
  Sb  Sb84  1  0.16625796  -0.00265269  0.16629292  1
  Sb  Sb85  1  0.16844296  0.83388124  0.66860943  1
  Sb  Sb86  1  0.00382448  0.67035222  -0.00156574  1
  Sb  Sb87  1  0.83474103  -0.00140109  0.50409976  1
  Sb  Sb88  1  0.33640646  0.33640528  0.00320533  1
  Sb  Sb89  1  0.82871053  0.84080902  0.33073059  1
  Sb  Sb90  1  0.00114303  0.49855060  0.83504780  1
  Sb  Sb91  1  0.82834223  0.49247580  0.32896715  1
  Sb  Sb92  1  0.00134228  0.66525027  0.66764600  1
  Sb  Sb93  1  -0.00124116  0.49773887  0.16285485  1
  Sb  Sb94  1  0.33629623  0.16090967  0.17290684  1
  Sb  Sb95  1  0.33591381  -0.00461209  0.00043361  1
  Sb  Sb96  1  0.49738584  0.00039422  0.50004970  1
  Sb  Sb97  1  0.66521550  0.83780031  0.16267323  1
  Sb  Sb98  1  0.50122619  0.00012378  0.16311849  1
  Sb  Sb99  1  0.16577079  0.33586548  0.16844931  1
  Sb  Sb100  1  0.83682664  0.66848084  0.16736157  1
  Sb  Sb101  1  0.83118452  0.32978144  0.15784737  1
  Sb  Sb102  1  -0.00010580  0.00357511  0.33058854  1
  Sb  Sb103  1  0.33858240  -0.00324351  0.66345570  1
  Sb  Sb104  1  0.83268256  0.00206575  0.15807757  1
  Sb  Sb105  1  0.50048255  0.66802024  0.50163500  1
  Sb  Sb106  1  0.83014030  0.83337154  0.67188995  1
  Sb  Sb107  1  0.83730723  0.33298715  0.50417232  1
  Te  Te108  1  0.16423278  0.16641014  0.17244402  1
  Te  Te109  1  0.16815519  0.16559757  0.49886997  1
  Te  Te110  1  0.16813678  0.16830955  0.83341016  1
  Te  Te111  1  0.16670136  0.50437749  0.16612152  1
  Te  Te112  1  0.17230861  0.49967768  0.49637982  1
  Te  Te113  1  0.16714934  0.49823390  0.83702581  1
  Te  Te114  1  0.16557145  0.82949048  0.16774655  1
  Te  Te115  1  0.16710664  0.83697346  0.49981142  1
  Te  Te116  1  0.16776752  0.83371304  0.83310944  1
  Te  Te117  1  0.50431353  0.16617542  0.16700427  1
  Te  Te118  1  0.49375747  0.16614960  0.49699433  1
  Te  Te119  1  0.50372038  0.16189167  0.83455228  1
  Te  Te120  1  0.50377276  0.50144374  0.16454601  1
  Te  Te121  1  0.49407944  0.50075955  0.49703181  1
  Te  Te122  1  0.49878909  0.49945581  0.83489367  1
  Te  Te123  1  0.49631396  0.83291659  0.16649875  1
  Te  Te124  1  0.50028988  0.83361376  0.49595397  1
  Te  Te125  1  0.49972239  0.83829645  0.83527374  1
  Te  Te126  1  0.83305629  0.16612114  0.16722481  1
  Te  Te127  1  0.84162511  0.16704230  0.49712274  1
  Te  Te128  1  0.82921140  0.16597375  0.83612315  1
  Te  Te129  1  0.82800662  0.50139697  0.16063034  1
  Te  Te130  1  0.83509856  0.50488808  0.49898885  1
  Te  Te131  1  0.83345638  0.49882354  0.84040375  1
  Te  Te132  1  0.83976843  0.83221864  0.16055386  1
  Te  Te133  1  0.83177611  0.83190852  0.49792444  1
  Te  Te134  1  0.83435068  0.83478802  0.83802995  1
  Te  Te135  1  0.16511757  0.00194336  -0.00406802  1
  Te  Te136  1  0.16881966  0.00478429  0.33693954  1
  Te  Te137  1  0.16569972  0.00125194  0.66664368  1
  Te  Te138  1  0.16950279  0.33872305  -0.00319664  1
  Te  Te139  1  0.16674026  0.33266306  0.33617721  1
  Te  Te140  1  0.16417598  0.33417706  0.66763652  1
  Te  Te141  1  0.16943272  0.66305558  -0.00156941  1
  Te  Te142  1  0.16792767  0.66037072  0.33088121  1
  Te  Te143  1  0.17116417  0.66425370  0.67313492  1
  Te  Te144  1  0.50142304  -0.00052172  -0.00312719  1
  Te  Te145  1  0.49844330  0.00129192  0.33382621  1
  Te  Te146  1  0.50517436  0.00389008  0.67241065  1
  Te  Te147  1  0.50452192  0.33576713  -0.00100196  1
  Te  Te148  1  0.50048227  0.33363533  0.33412712  1
  Te  Te149  1  0.50396789  0.33304601  0.66675876  1
  Te  Te150  1  0.49421483  0.66507477  -0.00086509  1
  Te  Te151  1  0.50042996  0.65887580  0.33293154  1
  Te  Te152  1  0.50017443  0.66232680  0.66751748  1
  Te  Te153  1  0.83234804  0.00266385  -0.00407511  1
  Te  Te154  1  0.82905192  0.00697474  0.33578459  1
  Te  Te155  1  0.82575001  0.00034277  0.67484315  1
  Te  Te156  1  0.83077777  0.33032150  -0.00444077  1
  Te  Te157  1  0.82778985  0.32731482  0.33570932  1
  Te  Te158  1  0.83168779  0.33426351  0.67353148  1
  Te  Te159  1  0.83449289  0.66475314  0.00004691  1
  Te  Te160  1  0.83376940  0.66620212  0.33878087  1
  Te  Te161  1  0.82936274  0.66486053  0.66263454  1
  Te  Te162  1  0.00086957  0.16576267  0.00216205  1
  Te  Te163  1  0.00364289  0.16646565  0.33155483  1
  Te  Te164  1  -0.00071868  0.17129975  0.66315835  1
  Te  Te165  1  0.00188510  0.49495473  0.00057456  1
  Te  Te166  1  0.00257699  0.49864418  0.33132224  1
  Te  Te167  1  -0.00128142  0.49189168  0.66652227  1
  Te  Te168  1  -0.00002575  0.83606984  -0.00080200  1
  Te  Te169  1  -0.00127657  0.83570864  0.33650143  1
  Te  Te170  1  -0.00115633  0.83382282  0.66149018  1
  Te  Te171  1  0.34091467  0.16666399  0.00180688  1
  Te  Te172  1  0.33537381  0.16612407  0.33400250  1
  Te  Te173  1  0.34224546  0.16650826  0.66093730  1
  Te  Te174  1  0.33478520  0.50363733  0.00131060  1
  Te  Te175  1  0.33433382  0.50076061  0.33521631  1
  Te  Te176  1  0.33990181  0.50322910  0.66161048  1
  Te  Te177  1  0.33647038  0.83127588  -0.00131460  1
  Te  Te178  1  0.33742456  0.83441555  0.33549940  1
  Te  Te179  1  0.33578129  0.82883221  0.66497887  1
  Te  Te180  1  0.66495393  0.16583896  0.00153797  1
  Te  Te181  1  0.66335631  0.16797234  0.33840351  1
  Te  Te182  1  0.66302096  0.16686405  0.66267981  1
  Te  Te183  1  0.66479906  0.50221840  0.00272581  1
  Te  Te184  1  0.66318719  0.49636517  0.32902606  1
  Te  Te185  1  0.66010256  0.49844389  0.66659403  1
  Te  Te186  1  0.66507548  0.83508581  -0.00161477  1
  Te  Te187  1  0.66096803  0.83510438  0.33197551  1
  Te  Te188  1  0.66549339  0.83411546  0.66546303  1
  Te  Te189  1  0.00045781  -0.00012491  0.16083393  1
  Te  Te190  1  0.00292023  0.00062000  0.50217342  1
  Te  Te191  1  0.00567300  -0.00207254  0.83550361  1
  Te  Te192  1  0.00001650  0.32779134  0.15850312  1
  Te  Te193  1  0.00543857  0.32999444  0.50158001  1
  Te  Te194  1  0.00016916  0.33162821  0.83519148  1
  Te  Te195  1  0.00635757  0.67097789  0.16666561  1
  Te  Te196  1  -0.00323461  0.67175287  0.50219569  1
  Te  Te197  1  0.00581784  0.67519423  0.83097034  1
  Te  Te198  1  0.33202544  -0.00869357  0.17337550  1
  Te  Te199  1  0.33030477  -0.00178113  0.49858024  1
  Te  Te200  1  0.32553006  -0.00585855  0.83217515  1
  Te  Te201  1  0.33216721  0.33308575  0.17579728  1
  Te  Te202  1  0.32839689  0.33344173  0.49705683  1
  Te  Te203  1  0.32658675  0.33172045  0.83291022  1
  Te  Te204  1  0.32838305  0.67217214  0.16259035  1
  Te  Te205  1  0.33228301  0.67213822  0.50558034  1
  Te  Te206  1  0.33095708  0.67092139  0.83346619  1
  Te  Te207  1  0.66698784  0.00507860  0.17380964  1
  Te  Te208  1  0.66745217  -0.00504571  0.49466250  1
  Te  Te209  1  0.66662600  -0.00139546  0.83484938  1
  Te  Te210  1  0.66745643  0.33037872  0.16635433  1
  Te  Te211  1  0.66888025  0.33469777  0.50449809  1
  Te  Te212  1  0.66739663  0.33172974  0.83407163  1
  Te  Te213  1  0.66816720  0.66341615  0.16691707  1
  Te  Te214  1  0.66977133  0.67072337  0.50463092  1
  Te  Te215  1  0.66730223  0.67204693  0.82694706  1
