# generated using pymatgen
data_AgSbTe2
_symmetry_space_group_name_H-M   'P 1'
_cell_length_a   18.33900904
_cell_length_b   18.33764182
_cell_length_c   18.33187983
_cell_angle_alpha   90.00007124
_cell_angle_beta   89.99664791
_cell_angle_gamma   90.00050177
_symmetry_Int_Tables_number   1
_chemical_formula_structural   AgSbTe2
_chemical_formula_sum   'Ag54 Sb54 Te108'
_cell_volume   6164.90446895
_cell_formula_units_Z   54
loop_
 _symmetry_equiv_pos_site_id
 _symmetry_equiv_pos_as_xyz
  1  'x, y, z'
loop_
 _atom_site_type_symbol
 _atom_site_label
 _atom_site_symmetry_multiplicity
 _atom_site_fract_x
 _atom_site_fract_y
 _atom_site_fract_z
 _atom_site_occupancy
  Ag  Ag0  1  0.48941647  0.50174191  0.66474822  1
  Ag  Ag1  1  0.16730786  0.17011898  -0.00761219  1
  Ag  Ag2  1  0.16831737  0.66041734  0.16420228  1
  Ag  Ag3  1  0.49868307  0.16500345  0.33065074  1
  Ag  Ag4  1  0.33693461  0.66622953  0.34151916  1
  Ag  Ag5  1  -0.00172511  0.50169751  0.16770957  1
  Ag  Ag6  1  0.82900422  0.66401059  0.16354088  1
  Ag  Ag7  1  0.83462449  0.16017550  -0.00566947  1
  Ag  Ag8  1  0.82833102  0.83987815  -0.00186145  1
  Ag  Ag9  1  0.66289265  0.83677279  0.83733295  1
  Ag  Ag10  1  0.49761910  0.83172556  0.32533168  1
  Ag  Ag11  1  0.17472647  0.49923622  0.66470621  1
  Ag  Ag12  1  0.00109617  0.33392136  -0.00531744  1
  Ag  Ag13  1  0.00312979  0.65684254  0.67117678  1
  Ag  Ag14  1  0.49414581  0.32898845  0.83433105  1
  Ag  Ag15  1  0.83523979  0.00205422  0.83714132  1
  Ag  Ag16  1  0.33112147  0.34269637  0.67044231  1
  Ag  Ag17  1  0.34202204  0.82739362  0.16895213  1
  Ag  Ag18  1  0.65660533  0.50103668  0.50347143  1
  Ag  Ag19  1  0.17135095  0.34148288  0.15792456  1
  Ag  Ag20  1  0.17289077  0.32843125  0.83218715  1
  Ag  Ag21  1  0.33784418  0.82068843  0.50137470  1
  Ag  Ag22  1  0.65491827  0.66194673  0.66952777  1
  Ag  Ag23  1  0.33566651  0.65619807  0.66453638  1
  Ag  Ag24  1  0.83677023  0.49939747  0.66357565  1
  Ag  Ag25  1  0.49668575  0.34069688  0.16168002  1
  Ag  Ag26  1  0.83257388  -0.00630342  0.15348035  1
  Ag  Ag27  1  0.00982019  0.34000207  0.67429840  1
  Ag  Ag28  1  0.50014395  0.00454734  0.83258309  1
  Ag  Ag29  1  0.65867189  0.82480065  0.15563645  1
  Ag  Ag30  1  0.83788708  0.50156892  0.33694181  1
  Ag  Ag31  1  -0.00563036  -0.00032606  -0.00521545  1
  Ag  Ag32  1  0.49657122  0.34154860  0.51030608  1
  Ag  Ag33  1  0.65798130  0.16398471  0.83518400  1
  Ag  Ag34  1  0.33925561  0.50187599  0.51043946  1
  Ag  Ag35  1  0.66799496  0.50534314  0.16990209  1
  Ag  Ag36  1  0.50573881  0.83462312  -0.00003349  1
  Ag  Ag37  1  -0.00194492  0.83337367  0.83646225  1
  Ag  Ag38  1  0.16471867  0.50052193  0.33882777  1
  Ag  Ag39  1  -0.00123849  0.66562264  -0.00290432  1
  Ag  Ag40  1  0.33414234  0.17143733  0.82951232  1
  Ag  Ag41  1  0.33567230  0.49121442  0.82391953  1
  Ag  Ag42  1  0.00094862  0.50037105  0.51084735  1
  Ag  Ag43  1  0.49537576  0.66214342  0.50885360  1
  Ag  Ag44  1  0.49684699  0.00059101  0.50727170  1
  Ag  Ag45  1  0.50086686  0.16768133  -0.00717766  1
  Ag  Ag46  1  0.16900140  0.17804559  0.67728602  1
  Ag  Ag47  1  0.33762633  0.17424595  0.51147326  1
  Ag  Ag48  1  0.16946433  0.81959677  0.67086071  1
  Ag  Ag49  1  0.49915457  0.66543760  0.82797066  1
  Ag  Ag50  1  0.83644928  0.17292897  0.67795403  1
  Ag  Ag51  1  0.66171438  0.33176959  -0.00151530  1
  Ag  Ag52  1  0.16915510  0.01063641  0.83287153  1
  Ag  Ag53  1  0.49916539  0.66685596  0.16582002  1
  Sb  Sb54  1  0.33515904  0.34004090  0.33976246  1
  Sb  Sb55  1  0.33643833  0.16573295  0.16414541  1
  Sb  Sb56  1  -0.00093003  0.82422503  0.15801808  1
  Sb  Sb57  1  0.33393071  0.50369000  0.16885913  1
  Sb  Sb58  1  0.49563143  0.17366483  0.67215934  1
  Sb  Sb59  1  0.16236273  -0.00102558  0.15763907  1
  Sb  Sb60  1  0.83048679  0.66979483  0.83554034  1
  Sb  Sb61  1  0.82795007  0.33758136  0.50414257  1
  Sb  Sb62  1  0.33381079  0.00096675  0.66763562  1
  Sb  Sb63  1  0.17265447  0.00018404  0.50850674  1
  Sb  Sb64  1  0.67162026  0.00144606  -0.00224632  1
  Sb  Sb65  1  0.00604255  0.82558286  0.50953845  1
  Sb  Sb66  1  0.00433624  0.50183384  0.82980760  1
  Sb  Sb67  1  0.17532437  0.17514613  0.33301606  1
  Sb  Sb68  1  0.82857446  0.00079100  0.50599541  1
  Sb  Sb69  1  0.33493883  -0.00562778  0.33499743  1
  Sb  Sb70  1  0.16651143  0.83637083  -0.00483054  1
  Sb  Sb71  1  0.83215728  0.33885401  0.16228636  1
  Sb  Sb72  1  0.66412873  0.16781857  0.15706925  1
  Sb  Sb73  1  0.50092259  0.49904151  -0.00250431  1
  Sb  Sb74  1  0.00554227  0.66360712  0.33294725  1
  Sb  Sb75  1  0.66464537  -0.00353090  0.67152846  1
  Sb  Sb76  1  0.83388866  0.50022364  -0.00238119  1
  Sb  Sb77  1  0.66110499  0.50018777  0.83139232  1
  Sb  Sb78  1  0.00240758  0.33757539  0.33256920  1
  Sb  Sb79  1  0.16468378  0.49482459  -0.00199353  1
  Sb  Sb80  1  0.82672974  0.17091648  0.32899905  1
  Sb  Sb81  1  0.65867234  0.66386739  0.33239572  1
  Sb  Sb82  1  -0.00025694  0.17423360  0.16144453  1
  Sb  Sb83  1  0.66366011  -0.00090242  0.33185702  1
  Sb  Sb84  1  0.82645691  0.82498127  0.32182631  1
  Sb  Sb85  1  -0.00072369  -0.00178758  0.32372667  1
  Sb  Sb86  1  0.00333426  0.16335687  0.83600674  1
  Sb  Sb87  1  0.33633526  0.83378585  0.83146137  1
  Sb  Sb88  1  0.00679373  0.17436158  0.50622988  1
  Sb  Sb89  1  0.49514040  0.82524310  0.66958474  1
  Sb  Sb90  1  0.66843723  0.66590129  -0.00107133  1
  Sb  Sb91  1  0.17499885  0.66169974  0.50174887  1
  Sb  Sb92  1  0.66130475  0.33663335  0.32797367  1
  Sb  Sb93  1  0.65760662  0.17342819  0.50951081  1
  Sb  Sb94  1  0.33255521  0.66768038  -0.00155934  1
  Sb  Sb95  1  0.17042085  0.66423381  0.83330739  1
  Sb  Sb96  1  0.65765618  0.82646771  0.50290330  1
  Sb  Sb97  1  0.33286176  0.00019251  -0.00180812  1
  Sb  Sb98  1  0.83375076  0.32785315  0.83359952  1
  Sb  Sb99  1  0.66232580  0.33970968  0.67268457  1
  Sb  Sb100  1  0.49766730  0.50311110  0.33782132  1
  Sb  Sb101  1  0.50496029  -0.00412655  0.16154418  1
  Sb  Sb102  1  0.33335804  0.33230225  -0.00742903  1
  Sb  Sb103  1  0.82862258  0.66445723  0.49870006  1
  Sb  Sb104  1  0.17450121  0.82554879  0.33560482  1
  Sb  Sb105  1  0.83681086  0.83059652  0.67417882  1
  Sb  Sb106  1  0.17319837  0.33791615  0.50865661  1
  Sb  Sb107  1  0.00167336  0.00077255  0.67396607  1
  Te  Te108  1  0.16818425  0.16975091  0.16370806  1
  Te  Te109  1  0.17549578  0.16767534  0.50127137  1
  Te  Te110  1  0.16689693  0.16761952  0.83358868  1
  Te  Te111  1  0.16787759  0.50044931  0.16371790  1
  Te  Te112  1  0.16365454  0.49931583  0.50035317  1
  Te  Te113  1  0.17121710  0.49622696  0.82819701  1
  Te  Te114  1  0.16926561  0.82965139  0.16686598  1
  Te  Te115  1  0.17434579  0.83382150  0.50569182  1
  Te  Te116  1  0.16695135  0.83388327  0.83033181  1
  Te  Te117  1  0.50019657  0.16615130  0.16402497  1
  Te  Te118  1  0.49639111  0.16635539  0.50405163  1
  Te  Te119  1  0.49887450  0.16779078  0.83304316  1
  Te  Te120  1  0.50173571  0.50061242  0.16837637  1
  Te  Te121  1  0.49903467  0.50115436  0.49931039  1
  Te  Te122  1  0.49771323  0.50224278  0.83035123  1
  Te  Te123  1  0.50143363  0.83493796  0.16390958  1
  Te  Te124  1  0.49662639  0.83099327  0.50118412  1
  Te  Te125  1  0.50074503  0.83228728  0.83595198  1
  Te  Te126  1  0.83197914  0.16281082  0.16417902  1
  Te  Te127  1  0.83171017  0.16668801  0.49920678  1
  Te  Te128  1  0.83381744  0.16360373  0.83528603  1
  Te  Te129  1  0.83192241  0.50300224  0.16489736  1
  Te  Te130  1  0.83738451  0.50093054  0.50029064  1
  Te  Te131  1  0.83158905  0.50002027  0.82617857  1
  Te  Te132  1  0.83190649  0.83036598  0.16106091  1
  Te  Te133  1  0.83273762  0.83439120  0.49691666  1
  Te  Te134  1  0.83174518  0.83735754  0.83717747  1
  Te  Te135  1  0.15998632  0.00510834  -0.00616670  1
  Te  Te136  1  0.16562952  0.00267329  0.33200988  1
  Te  Te137  1  0.16546452  0.00546483  0.67348457  1
  Te  Te138  1  0.16483719  0.33000805  -0.00166938  1
  Te  Te139  1  0.16799616  0.33911077  0.32344132  1
  Te  Te140  1  0.16895141  0.33664888  0.66884923  1
  Te  Te141  1  0.16045164  0.66793693  0.00350120  1
  Te  Te142  1  0.17255740  0.66160818  0.32711985  1
  Te  Te143  1  0.16653099  0.66180714  0.66723268  1
  Te  Te144  1  0.49966013  0.00117888  -0.00534830  1
  Te  Te145  1  0.49941935  -0.00033198  0.33498468  1
  Te  Te146  1  0.50073858  -0.00080984  0.66843633  1
  Te  Te147  1  0.50016885  0.33207605  -0.00166602  1
  Te  Te148  1  0.49881812  0.32908570  0.32677523  1
  Te  Te149  1  0.49753825  0.33921111  0.66968631  1
  Te  Te150  1  0.50046706  0.66962865  0.00315966  1
  Te  Te151  1  0.49574182  0.66910472  0.32711260  1
  Te  Te152  1  0.49710066  0.66378785  0.66748678  1
  Te  Te153  1  0.83500540  0.00043335  -0.00292051  1
  Te  Te154  1  0.83254417  0.00068009  0.33197466  1
  Te  Te155  1  0.83357853  0.00442891  0.67310976  1
  Te  Te156  1  0.83865668  0.32728923  -0.00008044  1
  Te  Te157  1  0.83330005  0.33981730  0.33250836  1
  Te  Te158  1  0.83586054  0.33300937  0.66735989  1
  Te  Te159  1  0.83741007  0.66961741  0.00321336  1
  Te  Te160  1  0.83348787  0.66045468  0.32716392  1
  Te  Te161  1  0.84074638  0.66419222  0.66650103  1
  Te  Te162  1  -0.00070680  0.17064465  0.00161566  1
  Te  Te163  1  -0.00183396  0.16759664  0.33532519  1
  Te  Te164  1  0.00073768  0.17194246  0.66576392  1
  Te  Te165  1  -0.00115354  0.50036844  0.00279644  1
  Te  Te166  1  0.00154070  0.50064706  0.32941097  1
  Te  Te167  1  -0.00188553  0.49982361  0.66886681  1
  Te  Te168  1  -0.00075035  0.83150803  -0.00397540  1
  Te  Te169  1  0.00042888  0.83244717  0.33681005  1
  Te  Te170  1  0.00540614  0.83027706  0.67289714  1
  Te  Te171  1  0.33399364  0.16563683  -0.00344432  1
  Te  Te172  1  0.33998718  0.16670901  0.33507138  1
  Te  Te173  1  0.33053215  0.16661377  0.66871882  1
  Te  Te174  1  0.33293001  0.50125957  -0.01042438  1
  Te  Te175  1  0.32850524  0.50605805  0.33640327  1
  Te  Te176  1  0.33398859  0.49953411  0.66683266  1
  Te  Te177  1  0.33814935  0.83376792  0.00476106  1
  Te  Te178  1  0.33799022  0.82778102  0.33519377  1
  Te  Te179  1  0.32862269  0.83177011  0.66372371  1
  Te  Te180  1  0.66403894  0.17041981  -0.00521138  1
  Te  Te181  1  0.65905141  0.16800801  0.33589587  1
  Te  Te182  1  0.67446345  0.16852790  0.67417044  1
  Te  Te183  1  0.66854123  0.49383016  0.00613894  1
  Te  Te184  1  0.67202196  0.50009464  0.33133649  1
  Te  Te185  1  0.67227432  0.50318756  0.66472577  1
  Te  Te186  1  0.66668277  0.83147424  -0.00153767  1
  Te  Te187  1  0.65875682  0.83183248  0.33102897  1
  Te  Te188  1  0.66869879  0.82429092  0.67113221  1
  Te  Te189  1  -0.00593149  -0.00092217  0.15790854  1
  Te  Te190  1  -0.00056356  -0.00142736  0.49866848  1
  Te  Te191  1  -0.00141751  -0.00520445  0.83661635  1
  Te  Te192  1  0.00339292  0.34036475  0.16364992  1
  Te  Te193  1  -0.00012439  0.34050211  0.50448731  1
  Te  Te194  1  0.00291923  0.33487357  0.83360008  1
  Te  Te195  1  0.00209035  0.66168406  0.16631162  1
  Te  Te196  1  -0.00007953  0.66109409  0.50503115  1
  Te  Te197  1  0.00062866  0.67034237  0.83446218  1
  Te  Te198  1  0.33164025  -0.00801108  0.16718540  1
  Te  Te199  1  0.33886023  0.00251828  0.50027869  1
  Te  Te200  1  0.33387782  0.00455907  0.83361249  1
  Te  Te201  1  0.33535943  0.33475894  0.16802828  1
  Te  Te202  1  0.33812509  0.33538297  0.50547688  1
  Te  Te203  1  0.33361306  0.33118588  0.83120473  1
  Te  Te204  1  0.33595740  0.66770785  0.16441249  1
  Te  Te205  1  0.33577444  0.66302881  0.50221156  1
  Te  Te206  1  0.33824762  0.66681769  0.82907409  1
  Te  Te207  1  0.67319441  -0.00467121  0.16615903  1
  Te  Te208  1  0.65907926  -0.00017513  0.50150704  1
  Te  Te209  1  0.66222136  -0.00070087  0.83288874  1
  Te  Te210  1  0.66191147  0.33548229  0.16082814  1
  Te  Te211  1  0.65809737  0.34085230  0.50024596  1
  Te  Te212  1  0.66349592  0.33050576  0.83876796  1
  Te  Te213  1  0.66478367  0.66634705  0.16615987  1
  Te  Te214  1  0.66105502  0.66051139  0.50452638  1
  Te  Te215  1  0.66177755  0.66887693  0.83136401  1
