# generated using pymatgen
data_AgSbTe2
_symmetry_space_group_name_H-M   'P 1'
_cell_length_a   18.34549261
_cell_length_b   18.34657063
_cell_length_c   18.33449419
_cell_angle_alpha   89.99920364
_cell_angle_beta   90.00062724
_cell_angle_gamma   89.99610885
_symmetry_Int_Tables_number   1
_chemical_formula_structural   AgSbTe2
_chemical_formula_sum   'Ag54 Sb54 Te108'
_cell_volume   6170.96675973
_cell_formula_units_Z   54
loop_
 _symmetry_equiv_pos_site_id
 _symmetry_equiv_pos_as_xyz
  1  'x, y, z'
loop_
 _atom_site_type_symbol
 _atom_site_label
 _atom_site_symmetry_multiplicity
 _atom_site_fract_x
 _atom_site_fract_y
 _atom_site_fract_z
 _atom_site_occupancy
  Ag  Ag0  1  0.16963533  0.16206644  0.34031491  1
  Ag  Ag1  1  0.66892804  0.32542117  0.66700733  1
  Ag  Ag2  1  0.83273701  0.66924242  0.83598115  1
  Ag  Ag3  1  0.83409962  0.84432701  0.66263735  1
  Ag  Ag4  1  0.50879940  0.00215884  0.82919948  1
  Ag  Ag5  1  0.16228402  0.01101407  0.49773213  1
  Ag  Ag6  1  0.83219904  0.32514268  0.82389154  1
  Ag  Ag7  1  0.83597498  0.50100014  0.00912043  1
  Ag  Ag8  1  0.83597588  0.83016691  0.33364234  1
  Ag  Ag9  1  0.00194804  0.16638680  0.82291602  1
  Ag  Ag10  1  0.16574252  0.48435016  0.66487920  1
  Ag  Ag11  1  0.83697739  0.66424162  0.16729147  1
  Ag  Ag12  1  0.32535365  0.32195843  0.33837406  1
  Ag  Ag13  1  0.50651743  0.50462193  0.33236258  1
  Ag  Ag14  1  0.16004628  0.32325031  0.49473689  1
  Ag  Ag15  1  0.67409214  0.00700549  0.66911468  1
  Ag  Ag16  1  0.67874124  0.50593874  0.17426851  1
  Ag  Ag17  1  0.48679584  0.16634246  0.66875530  1
  Ag  Ag18  1  0.82899006  0.50649498  0.32931540  1
  Ag  Ag19  1  0.32854836  0.00359197  0.33550097  1
  Ag  Ag20  1  0.32759014  0.16325577  0.82118702  1
  Ag  Ag21  1  0.50663048  0.32388173  0.82828930  1
  Ag  Ag22  1  0.17594063  0.16693825  0.65206121  1
  Ag  Ag23  1  0.33222649  0.31827482  0.66175925  1
  Ag  Ag24  1  0.32043588  0.83923258  0.17453810  1
  Ag  Ag25  1  0.16699822  0.84244166  0.33033964  1
  Ag  Ag26  1  0.33246918  0.00633924  0.66361263  1
  Ag  Ag27  1  0.00908195  0.16389549  0.50489297  1
  Ag  Ag28  1  0.67151583  0.83230567  0.17132329  1
  Ag  Ag29  1  0.16614086  0.00398851  0.82519463  1
  Ag  Ag30  1  0.49131153  0.82884617  0.33115817  1
  Ag  Ag31  1  0.83534875  0.16132115  0.66579573  1
  Ag  Ag32  1  0.82814211  0.00063693  0.82429780  1
  Ag  Ag33  1  -0.00181510  0.66736531  0.67010649  1
  Ag  Ag34  1  0.00119682  0.82652528  0.17279068  1
  Ag  Ag35  1  0.16380750  0.32730459  0.17829070  1
  Ag  Ag36  1  0.33566235  0.67491200  0.33118765  1
  Ag  Ag37  1  0.66728682  0.66573020  0.33000116  1
  Ag  Ag38  1  -0.00286734  0.84157462  0.49228445  1
  Ag  Ag39  1  0.32133656  0.16655409  0.50640543  1
  Ag  Ag40  1  0.16952556  0.00003617  0.17974926  1
  Ag  Ag41  1  0.32610510  0.16228486  0.17379892  1
  Ag  Ag42  1  -0.00304919  0.50745478  0.16695505  1
  Ag  Ag43  1  0.83887470  0.32761230  0.50305686  1
  Ag  Ag44  1  0.15560936  0.66999127  0.16998690  1
  Ag  Ag45  1  0.66887563  -0.00032950  -0.01084460  1
  Ag  Ag46  1  -0.00450130  0.66318532  0.00472088  1
  Ag  Ag47  1  0.66711443  0.16474855  0.16986358  1
  Ag  Ag48  1  0.00676428  0.33333318  0.33143895  1
  Ag  Ag49  1  0.67074968  0.83807508  0.83433878  1
  Ag  Ag50  1  -0.00227950  0.33545753  0.00595075  1
  Ag  Ag51  1  0.67035257  0.49789463  0.49370481  1
  Ag  Ag52  1  0.50794950  0.67029929  0.83159016  1
  Ag  Ag53  1  0.83855242  0.00437276  0.50496990  1
  Sb  Sb54  1  0.49726603  -0.00079379  0.16448110  1
  Sb  Sb55  1  0.66789505  0.16147075  0.83034318  1
  Sb  Sb56  1  0.49245938  0.16643980  0.33712941  1
  Sb  Sb57  1  0.67304522  0.32987316  -0.00355499  1
  Sb  Sb58  1  0.16358207  0.83564103  0.00918174  1
  Sb  Sb59  1  0.49837610  0.00088377  0.50371557  1
  Sb  Sb60  1  0.15992815  0.84182566  0.65997219  1
  Sb  Sb61  1  0.83551807  -0.00567302  0.16943209  1
  Sb  Sb62  1  0.16176685  0.67283564  0.83641479  1
  Sb  Sb63  1  0.67361507  0.83176275  0.49787007  1
  Sb  Sb64  1  -0.00269505  0.49728969  0.49514605  1
  Sb  Sb65  1  0.83347765  0.82990817  0.00102780  1
  Sb  Sb66  1  0.33532173  0.00161678  -0.00019398  1
  Sb  Sb67  1  -0.00348406  0.00062720  -0.00092212  1
  Sb  Sb68  1  0.50589676  0.83956096  0.66419928  1
  Sb  Sb69  1  0.66280766  -0.00502012  0.33559010  1
  Sb  Sb70  1  0.32856999  0.66800953  0.00622562  1
  Sb  Sb71  1  0.33361096  0.49258885  0.83025718  1
  Sb  Sb72  1  0.49619475  0.33199510  0.16510875  1
  Sb  Sb73  1  0.16428614  0.66787962  0.49378437  1
  Sb  Sb74  1  0.83895027  0.16504834  0.33827679  1
  Sb  Sb75  1  0.50189417  0.16666428  -0.00668214  1
  Sb  Sb76  1  0.15988620  0.49864515  -0.00093977  1
  Sb  Sb77  1  0.32738218  0.33055511  -0.00041723  1
  Sb  Sb78  1  0.00049507  0.33234627  0.66395274  1
  Sb  Sb79  1  0.32895540  0.66987652  0.66302502  1
  Sb  Sb80  1  0.16339003  0.32572983  0.82881618  1
  Sb  Sb81  1  0.32536073  0.84236483  0.49288867  1
  Sb  Sb82  1  0.33425936  0.49210934  0.49620035  1
  Sb  Sb83  1  0.50273315  0.66779341  0.16714582  1
  Sb  Sb84  1  0.00609177  -0.00045523  0.33477196  1
  Sb  Sb85  1  0.16479694  0.49700180  0.33492259  1
  Sb  Sb86  1  0.66710639  0.33848631  0.33616066  1
  Sb  Sb87  1  -0.00267009  0.49514423  0.83595932  1
  Sb  Sb88  1  0.83353813  0.17013532  -0.00551666  1
  Sb  Sb89  1  0.32920562  0.49988319  0.17127145  1
  Sb  Sb90  1  -0.00557518  0.83745008  0.83241761  1
  Sb  Sb91  1  0.16517146  0.16662090  0.00143138  1
  Sb  Sb92  1  0.67186264  0.66705193  0.66503149  1
  Sb  Sb93  1  0.83688282  0.49790054  0.66338976  1
  Sb  Sb94  1  0.51003854  0.50039500  0.00437224  1
  Sb  Sb95  1  -0.00188743  0.00223643  0.66464873  1
  Sb  Sb96  1  -0.00158535  0.66601493  0.33061680  1
  Sb  Sb97  1  0.49820038  0.49372473  0.66387799  1
  Sb  Sb98  1  0.50064860  0.66676330  0.50004003  1
  Sb  Sb99  1  0.83527113  0.66685893  0.49736704  1
  Sb  Sb100  1  0.66831295  0.16879562  0.49949483  1
  Sb  Sb101  1  0.50309869  0.83354412  0.00396538  1
  Sb  Sb102  1  0.66962753  0.50233318  0.83249165  1
  Sb  Sb103  1  0.49908151  0.33171872  0.50294319  1
  Sb  Sb104  1  0.33784604  0.84118067  0.83508094  1
  Sb  Sb105  1  0.67251343  0.67004338  0.00437424  1
  Sb  Sb106  1  0.00201322  0.16663395  0.17027017  1
  Sb  Sb107  1  0.83763904  0.33760239  0.17011730  1
  Te  Te108  1  0.16630546  0.16527930  0.16828877  1
  Te  Te109  1  0.16509647  0.16764499  0.49711160  1
  Te  Te110  1  0.16651832  0.16336060  0.83536775  1
  Te  Te111  1  0.16146936  0.50104085  0.16615612  1
  Te  Te112  1  0.16592466  0.49853729  0.50509808  1
  Te  Te113  1  0.16682078  0.50248876  0.82653865  1
  Te  Te114  1  0.16347974  0.83448035  0.17089916  1
  Te  Te115  1  0.15852886  0.83537092  0.49229693  1
  Te  Te116  1  0.16774930  0.84135374  0.83292167  1
  Te  Te117  1  0.50090316  0.16711268  0.16666682  1
  Te  Te118  1  0.49716347  0.16623124  0.50751631  1
  Te  Te119  1  0.50065965  0.16507091  0.82853794  1
  Te  Te120  1  0.50425104  0.49949459  0.17115734  1
  Te  Te121  1  0.50582417  0.49971312  0.49472469  1
  Te  Te122  1  0.50054653  0.50236092  0.83358319  1
  Te  Te123  1  0.50923744  0.83317333  0.17188501  1
  Te  Te124  1  0.50043448  0.83279039  0.49211409  1
  Te  Te125  1  0.50500665  0.83590321  0.83269215  1
  Te  Te126  1  0.83021358  0.16506038  0.16844138  1
  Te  Te127  1  0.83416845  0.16637407  0.50234385  1
  Te  Te128  1  0.83396745  0.16593547  0.82963470  1
  Te  Te129  1  0.83558168  0.49994356  0.16944422  1
  Te  Te130  1  0.83126569  0.49653892  0.49510600  1
  Te  Te131  1  0.83297238  0.50547986  0.83382752  1
  Te  Te132  1  0.83347315  0.83036349  0.16923082  1
  Te  Te133  1  0.83711435  0.83379597  0.50045400  1
  Te  Te134  1  0.83116395  0.83424635  0.83262401  1
  Te  Te135  1  0.16576511  -0.00006206  -0.00574681  1
  Te  Te136  1  0.16883583  0.00114916  0.33642810  1
  Te  Te137  1  0.16821957  0.00484893  0.66320350  1
  Te  Te138  1  0.15900210  0.33474551  0.00449328  1
  Te  Te139  1  0.16827794  0.33612388  0.33482629  1
  Te  Te140  1  0.16830256  0.32741843  0.66473216  1
  Te  Te141  1  0.16024438  0.66616578  0.00679640  1
  Te  Te142  1  0.16913622  0.66506891  0.32885605  1
  Te  Te143  1  0.16276576  0.67293685  0.66715710  1
  Te  Te144  1  0.50655007  -0.00013392  -0.00820610  1
  Te  Te145  1  0.49273157  -0.00378729  0.33378807  1
  Te  Te146  1  0.49886927  0.00306307  0.66960849  1
  Te  Te147  1  0.50003648  0.33499259  -0.01030944  1
  Te  Te148  1  0.49433604  0.33496631  0.33337556  1
  Te  Te149  1  0.49931693  0.33047298  0.67006863  1
  Te  Te150  1  0.49917869  0.66584561  -0.00940481  1
  Te  Te151  1  0.50167308  0.66760674  0.33381534  1
  Te  Te152  1  0.49883375  0.66679028  0.67219064  1
  Te  Te153  1  0.82916693  0.00103815  -0.00272049  1
  Te  Te154  1  0.83219968  -0.00422188  0.33821594  1
  Te  Te155  1  0.83442917  -0.00002951  0.66652795  1
  Te  Te156  1  0.83793565  0.33776706  -0.00333082  1
  Te  Te157  1  0.83495522  0.33231248  0.33836819  1
  Te  Te158  1  0.83331823  0.33477595  0.66526513  1
  Te  Te159  1  0.83621570  0.66337823  0.00068093  1
  Te  Te160  1  0.83232615  0.66714015  0.33109837  1
  Te  Te161  1  0.83589617  0.66557180  0.66991359  1
  Te  Te162  1  -0.00179633  0.17072787  -0.00284772  1
  Te  Te163  1  0.00585776  0.17148106  0.33773193  1
  Te  Te164  1  -0.00573220  0.16797971  0.66514546  1
  Te  Te165  1  -0.00407134  0.50034650  0.00285637  1
  Te  Te166  1  -0.00435544  0.49634810  0.32882976  1
  Te  Te167  1  0.00515381  0.50406164  0.66675099  1
  Te  Te168  1  -0.00040585  0.82864146  0.00512725  1
  Te  Te169  1  -0.00131010  0.83226732  0.33314570  1
  Te  Te170  1  -0.00621068  0.82893803  0.66570893  1
  Te  Te171  1  0.33501534  0.16741306  0.01211242  1
  Te  Te172  1  0.33133123  0.16506496  0.33252582  1
  Te  Te173  1  0.33068656  0.16321850  0.66662097  1
  Te  Te174  1  0.33525309  0.49992564  -0.00016803  1
  Te  Te175  1  0.33840870  0.50356065  0.33307912  1
  Te  Te176  1  0.32719287  0.50039492  0.66481229  1
  Te  Te177  1  0.33448838  0.83340694  0.01188069  1
  Te  Te178  1  0.33129966  0.83474733  0.33184514  1
  Te  Te179  1  0.33383675  0.83914765  0.66520900  1
  Te  Te180  1  0.66703833  0.16168602  0.00904093  1
  Te  Te181  1  0.66433970  0.16560225  0.33032929  1
  Te  Te182  1  0.67596597  0.16705900  0.66494343  1
  Te  Te183  1  0.67460054  0.49938901  0.00644140  1
  Te  Te184  1  0.66792686  0.50020794  0.33155417  1
  Te  Te185  1  0.66553983  0.49738084  0.66305454  1
  Te  Te186  1  0.66700333  0.83798657  -0.00024470  1
  Te  Te187  1  0.67293081  0.83010989  0.33260670  1
  Te  Te188  1  0.67243192  0.83508000  0.66880647  1
  Te  Te189  1  0.00578264  -0.00422193  0.16537778  1
  Te  Te190  1  -0.00051496  0.00156643  0.49905320  1
  Te  Te191  1  0.00026862  0.00510978  0.83466721  1
  Te  Te192  1  0.00322372  0.33124594  0.16879936  1
  Te  Te193  1  0.00017272  0.33178757  0.49777136  1
  Te  Te194  1  -0.00456668  0.32814833  0.83461768  1
  Te  Te195  1  -0.00273184  0.66676519  0.16835710  1
  Te  Te196  1  -0.00001079  0.66821310  0.50624161  1
  Te  Te197  1  -0.00345831  0.66819065  0.83550540  1
  Te  Te198  1  0.33080853  -0.00074836  0.16682765  1
  Te  Te199  1  0.33136870  0.00487716  0.49993566  1
  Te  Te200  1  0.33158704  0.00425893  0.83294305  1
  Te  Te201  1  0.32805656  0.33114663  0.16878490  1
  Te  Te202  1  0.33194854  0.32857502  0.50092909  1
  Te  Te203  1  0.33315395  0.32604217  0.83051773  1
  Te  Te204  1  0.33338682  0.67004067  0.17085586  1
  Te  Te205  1  0.33291924  0.66726426  0.49331727  1
  Te  Te206  1  0.33324905  0.66919010  0.83413225  1
  Te  Te207  1  0.66670559  -0.00254620  0.16861000  1
  Te  Te208  1  0.67031292  0.00031133  0.50648143  1
  Te  Te209  1  0.66860844  -0.00068554  0.82958712  1
  Te  Te210  1  0.66542085  0.33160480  0.16566405  1
  Te  Te211  1  0.66998253  0.33586637  0.50420617  1
  Te  Te212  1  0.66964854  0.33451606  0.82952786  1
  Te  Te213  1  0.66930063  0.66713135  0.16930260  1
  Te  Te214  1  0.66753159  0.66071818  0.49401096  1
  Te  Te215  1  0.66962443  0.67098773  0.83391036  1
