# generated using pymatgen
data_AgSbTe2
_symmetry_space_group_name_H-M   'P 1'
_cell_length_a   18.31897277
_cell_length_b   18.31940017
_cell_length_c   18.32616888
_cell_angle_alpha   90.00388955
_cell_angle_beta   90.00099609
_cell_angle_gamma   89.99865705
_symmetry_Int_Tables_number   1
_chemical_formula_structural   AgSbTe2
_chemical_formula_sum   'Ag54 Sb54 Te108'
_cell_volume   6150.12651635
_cell_formula_units_Z   54
loop_
 _symmetry_equiv_pos_site_id
 _symmetry_equiv_pos_as_xyz
  1  'x, y, z'
loop_
 _atom_site_type_symbol
 _atom_site_label
 _atom_site_symmetry_multiplicity
 _atom_site_fract_x
 _atom_site_fract_y
 _atom_site_fract_z
 _atom_site_occupancy
  Ag  Ag0  1  0.16238146  0.16009421  0.00597534  1
  Ag  Ag1  1  -0.00590748  0.15820585  0.49495343  1
  Ag  Ag2  1  0.68135130  0.17272517  0.49868830  1
  Ag  Ag3  1  0.66933514  0.33012607  -0.00728850  1
  Ag  Ag4  1  0.16417841  0.83458487  0.67224970  1
  Ag  Ag5  1  0.84239390  0.00443436  0.83496702  1
  Ag  Ag6  1  0.84275292  -0.00192092  0.16482255  1
  Ag  Ag7  1  0.00452776  0.15797148  0.17012365  1
  Ag  Ag8  1  0.84354672  0.16353951  0.34236593  1
  Ag  Ag9  1  -0.00387397  0.32781019  -0.00057187  1
  Ag  Ag10  1  0.32846507  0.84019505  0.16732212  1
  Ag  Ag11  1  0.32366908  0.67893189  0.66635698  1
  Ag  Ag12  1  0.84204598  0.67441097  0.83533157  1
  Ag  Ag13  1  0.66807265  0.33246539  0.66726696  1
  Ag  Ag14  1  0.32585794  0.15871918  0.17182934  1
  Ag  Ag15  1  0.16550368  0.16324748  0.32852800  1
  Ag  Ag16  1  0.16336426  0.66764894  0.50370314  1
  Ag  Ag17  1  0.66898725  0.49324696  0.83607025  1
  Ag  Ag18  1  0.67140855  0.00449531  -0.00022374  1
  Ag  Ag19  1  0.00097517  0.15633248  0.83447756  1
  Ag  Ag20  1  0.33375817  0.49876762  0.49866394  1
  Ag  Ag21  1  0.51065399  0.33058713  0.83405272  1
  Ag  Ag22  1  0.83520572  0.67540721  0.16241400  1
  Ag  Ag23  1  0.83925006  0.00870259  0.49880815  1
  Ag  Ag24  1  0.50793892  0.33088540  0.49862713  1
  Ag  Ag25  1  0.50143776  0.33230803  0.16887203  1
  Ag  Ag26  1  0.66460942  0.49024327  0.49987378  1
  Ag  Ag27  1  0.32371565  0.16512960  0.83618873  1
  Ag  Ag28  1  0.84186695  0.83769728  0.00063561  1
  Ag  Ag29  1  0.00062513  0.84233659  0.50333566  1
  Ag  Ag30  1  0.00275777  0.83997872  0.83376594  1
  Ag  Ag31  1  0.00493172  0.67872052  0.66651351  1
  Ag  Ag32  1  0.49084268  0.83396137  0.66706365  1
  Ag  Ag33  1  0.33500739  0.32235947  0.33289578  1
  Ag  Ag34  1  0.82981545  0.32769518  0.83242032  1
  Ag  Ag35  1  0.49483319  0.83901621  0.32809328  1
  Ag  Ag36  1  0.82614582  0.32073721  0.50440209  1
  Ag  Ag37  1  0.83567265  0.16446984  0.65658859  1
  Ag  Ag38  1  0.00318574  0.00044258  0.32979290  1
  Ag  Ag39  1  0.32473544  0.00522165  0.33325325  1
  Ag  Ag40  1  0.49900549  0.83497561  0.00341570  1
  Ag  Ag41  1  0.15890864  0.67779058  0.82917322  1
  Ag  Ag42  1  0.15973726  -0.00364216  0.83833726  1
  Ag  Ag43  1  0.49205023  0.16666492  0.33317657  1
  Ag  Ag44  1  0.00390391  0.84113804  0.16411238  1
  Ag  Ag45  1  0.16094782  0.00113775  0.16298296  1
  Ag  Ag46  1  0.15985013  0.83851372  -0.00378368  1
  Ag  Ag47  1  0.50167058  0.67175704  0.16840730  1
  Ag  Ag48  1  0.16666001  0.49792233  0.32939610  1
  Ag  Ag49  1  0.66596191  0.49742249  0.16503000  1
  Ag  Ag50  1  0.00175113  0.67917167  0.33553023  1
  Ag  Ag51  1  0.00283156  -0.00264776  0.67014598  1
  Ag  Ag52  1  0.16458448  0.50005287  0.00365557  1
  Ag  Ag53  1  0.32272641  -0.00310628  0.66297652  1
  Sb  Sb54  1  0.00356906  0.32444665  0.33065796  1
  Sb  Sb55  1  0.33110553  0.66940023  -0.00332122  1
  Sb  Sb56  1  0.50219073  0.16421570  0.66365977  1
  Sb  Sb57  1  0.49893222  0.00255094  0.83348887  1
  Sb  Sb58  1  0.00095070  0.49892091  0.49858551  1
  Sb  Sb59  1  -0.00205804  0.00242973  0.00040665  1
  Sb  Sb60  1  0.83297313  0.49515173  0.66714459  1
  Sb  Sb61  1  0.33009526  0.16780915  0.49574092  1
  Sb  Sb62  1  0.16305948  0.32825065  0.83620090  1
  Sb  Sb63  1  0.66742499  0.83231387  0.16418864  1
  Sb  Sb64  1  0.67246847  0.17106234  0.83076280  1
  Sb  Sb65  1  0.83525962  0.50184342  -0.00068175  1
  Sb  Sb66  1  0.66785026  0.16888256  0.16946905  1
  Sb  Sb67  1  0.84023792  0.16184686  0.00025085  1
  Sb  Sb68  1  0.66928496  0.66323383  0.66746814  1
  Sb  Sb69  1  0.67334814  0.83157668  0.83449661  1
  Sb  Sb70  1  0.15896892  -0.00306854  0.49924002  1
  Sb  Sb71  1  0.67202067  0.00344861  0.66945514  1
  Sb  Sb72  1  0.49861210  0.50115277  0.00169083  1
  Sb  Sb73  1  0.33404817  0.33112614  0.00362463  1
  Sb  Sb74  1  0.17007979  0.32438509  0.16636718  1
  Sb  Sb75  1  0.83766511  0.49512474  0.33358894  1
  Sb  Sb76  1  0.49597948  0.66438626  0.49682269  1
  Sb  Sb77  1  0.49592818  0.16474873  0.00339532  1
  Sb  Sb78  1  0.16681869  0.51079404  0.66672513  1
  Sb  Sb79  1  0.67150343  0.66633525  0.33218527  1
  Sb  Sb80  1  0.32589561  0.83936785  0.83440529  1
  Sb  Sb81  1  -0.00554227  0.32554932  0.66958268  1
  Sb  Sb82  1  0.49980221  0.66679349  0.83536342  1
  Sb  Sb83  1  0.67047661  0.00247987  0.32961776  1
  Sb  Sb84  1  0.00027444  0.66884283  -0.00107457  1
  Sb  Sb85  1  0.83574572  0.83906564  0.32799121  1
  Sb  Sb86  1  0.49795608  -0.00076720  0.16775720  1
  Sb  Sb87  1  0.67188901  0.83584255  0.50150647  1
  Sb  Sb88  1  0.84097744  0.83926748  0.67149731  1
  Sb  Sb89  1  0.32799779  0.66964869  0.33612949  1
  Sb  Sb90  1  0.66793925  0.66554973  0.00065539  1
  Sb  Sb91  1  0.16467911  0.67355051  0.16609133  1
  Sb  Sb92  1  0.33427927  0.49592354  0.82891818  1
  Sb  Sb93  1  0.84044690  0.66778985  0.50164013  1
  Sb  Sb94  1  0.33151115  -0.00019226  0.00232663  1
  Sb  Sb95  1  -0.00194553  0.50084232  0.16650613  1
  Sb  Sb96  1  0.83020916  0.32956825  0.16607296  1
  Sb  Sb97  1  0.16612280  0.83730875  0.33166937  1
  Sb  Sb98  1  0.33457532  0.50020019  0.17113807  1
  Sb  Sb99  1  0.33807283  0.32879974  0.66248186  1
  Sb  Sb100  1  -0.00210186  0.50062971  0.83398865  1
  Sb  Sb101  1  0.16519111  0.33543788  0.49830224  1
  Sb  Sb102  1  0.32768193  0.83214387  0.49936469  1
  Sb  Sb103  1  0.16170354  0.15936855  0.66646566  1
  Sb  Sb104  1  0.50346145  0.00354256  0.49860306  1
  Sb  Sb105  1  0.66179282  0.33205075  0.33651568  1
  Sb  Sb106  1  0.49526159  0.49743640  0.33330600  1
  Sb  Sb107  1  0.50089268  0.50198056  0.66622080  1
  Te  Te108  1  0.16625256  0.16347514  0.16682491  1
  Te  Te109  1  0.15984257  0.16748200  0.49577304  1
  Te  Te110  1  0.16386428  0.16294706  0.83295263  1
  Te  Te111  1  0.16705365  0.50172631  0.16573173  1
  Te  Te112  1  0.16873701  0.50328361  0.49673674  1
  Te  Te113  1  0.16794662  0.50116225  0.83827986  1
  Te  Te114  1  0.16603412  0.83803518  0.16441070  1
  Te  Te115  1  0.16058249  0.82866649  0.50260955  1
  Te  Te116  1  0.16491116  0.83570006  0.83522829  1
  Te  Te117  1  0.49732171  0.16907333  0.17092767  1
  Te  Te118  1  0.49811856  0.17115398  0.49565119  1
  Te  Te119  1  0.49710240  0.17073085  0.83305968  1
  Te  Te120  1  0.50270898  0.49976529  0.16612362  1
  Te  Te121  1  0.50160423  0.49626363  0.49923951  1
  Te  Te122  1  0.50389223  0.49491346  0.83453397  1
  Te  Te123  1  0.50085486  0.83309283  0.16613484  1
  Te  Te124  1  0.50187072  0.83325496  0.49921604  1
  Te  Te125  1  0.49937174  0.83303215  0.83615247  1
  Te  Te126  1  0.83711416  0.16249283  0.16786427  1
  Te  Te127  1  0.83697413  0.16496577  0.49964542  1
  Te  Te128  1  0.83723723  0.16611651  0.83545126  1
  Te  Te129  1  0.82785737  0.50370975  0.16738997  1
  Te  Te130  1  0.82767664  0.49748844  0.49899936  1
  Te  Te131  1  0.82888697  0.49604804  0.83392450  1
  Te  Te132  1  0.83427175  0.83444521  0.16319442  1
  Te  Te133  1  0.83959561  0.83709682  0.49945405  1
  Te  Te134  1  0.83814736  0.83338451  0.83761936  1
  Te  Te135  1  0.16940458  0.00005385  -0.00041881  1
  Te  Te136  1  0.16515343  0.00216786  0.33182829  1
  Te  Te137  1  0.16412578  -0.00453114  0.66763396  1
  Te  Te138  1  0.16407892  0.33048447  0.00041331  1
  Te  Te139  1  0.17186350  0.33320848  0.33261334  1
  Te  Te140  1  0.16714639  0.33508923  0.66709721  1
  Te  Te141  1  0.16600742  0.67120204  -0.00448658  1
  Te  Te142  1  0.16199151  0.66676136  0.33441848  1
  Te  Te143  1  0.16531530  0.67183073  0.66802279  1
  Te  Te144  1  0.50656347  -0.00435283  0.00001280  1
  Te  Te145  1  0.49847603  0.00161787  0.33357283  1
  Te  Te146  1  0.49934422  -0.00516370  0.66653661  1
  Te  Te147  1  0.50342945  0.33329585  0.00064124  1
  Te  Te148  1  0.49597071  0.33166187  0.33251546  1
  Te  Te149  1  0.50533173  0.33280672  0.66620193  1
  Te  Te150  1  0.49979951  0.67181509  0.00510973  1
  Te  Te151  1  0.49969673  0.66928358  0.32850543  1
  Te  Te152  1  0.49692043  0.67304210  0.66616724  1
  Te  Te153  1  0.83072518  -0.00235662  -0.00112303  1
  Te  Te154  1  0.83719509  0.00355626  0.33161371  1
  Te  Te155  1  0.83652526  0.00389935  0.67078385  1
  Te  Te156  1  0.83150948  0.33367397  -0.00119176  1
  Te  Te157  1  0.83468901  0.32645864  0.33545968  1
  Te  Te158  1  0.83037631  0.32897025  0.66819977  1
  Te  Te159  1  0.83361274  0.67112596  -0.00095847  1
  Te  Te160  1  0.84015657  0.66693084  0.33099613  1
  Te  Te161  1  0.83808590  0.66771305  0.67183883  1
  Te  Te162  1  0.00379919  0.16946522  -0.00061491  1
  Te  Te163  1  0.00266857  0.16361651  0.33110122  1
  Te  Te164  1  -0.00414737  0.16170601  0.66945705  1
  Te  Te165  1  0.00539732  0.49180561  0.00084956  1
  Te  Te166  1  0.00635972  0.50101185  0.33281967  1
  Te  Te167  1  0.00047555  0.50807726  0.66556581  1
  Te  Te168  1  0.00037138  0.83170537  0.00168833  1
  Te  Te169  1  -0.00001374  0.83780859  0.32976368  1
  Te  Te170  1  0.00137486  0.83612352  0.66871890  1
  Te  Te171  1  0.32734216  0.16641464  0.00215035  1
  Te  Te172  1  0.33136882  0.16483150  0.33279139  1
  Te  Te173  1  0.33285278  0.15970868  0.66875456  1
  Te  Te174  1  0.32524115  0.49959458  -0.00088418  1
  Te  Te175  1  0.32762656  0.50111685  0.33786894  1
  Te  Te176  1  0.33372961  0.50070700  0.65994674  1
  Te  Te177  1  0.33409876  0.83412425  0.00497582  1
  Te  Te178  1  0.33504276  0.83731624  0.33030420  1
  Te  Te179  1  0.33037659  0.83671830  0.66701689  1
  Te  Te180  1  0.66488488  0.16857650  0.00067535  1
  Te  Te181  1  0.66299344  0.16587545  0.33760160  1
  Te  Te182  1  0.66997752  0.17036206  0.66150429  1
  Te  Te183  1  0.66630460  0.49479682  0.00023839  1
  Te  Te184  1  0.66790836  0.49992496  0.33239747  1
  Te  Te185  1  0.66649209  0.49489779  0.66552592  1
  Te  Te186  1  0.66580173  0.83570260  -0.00120127  1
  Te  Te187  1  0.65638502  0.83405005  0.33522301  1
  Te  Te188  1  0.65828869  0.83315930  0.66678696  1
  Te  Te189  1  0.00045334  -0.00029338  0.16551971  1
  Te  Te190  1  -0.00097485  -0.00035675  0.49894319  1
  Te  Te191  1  0.00036174  -0.00066847  0.83519134  1
  Te  Te192  1  -0.00096890  0.33075426  0.16183539  1
  Te  Te193  1  -0.00576627  0.32949071  0.50073058  1
  Te  Te194  1  -0.00521471  0.33196910  0.83597752  1
  Te  Te195  1  -0.00351815  0.66862419  0.16965713  1
  Te  Te196  1  0.00329103  0.66637669  0.49938455  1
  Te  Te197  1  -0.00009695  0.66730633  0.83258772  1
  Te  Te198  1  0.33174123  -0.00046271  0.16947556  1
  Te  Te199  1  0.33462067  -0.00071202  0.49952150  1
  Te  Te200  1  0.33157914  0.00556919  0.82986300  1
  Te  Te201  1  0.33931465  0.33228109  0.17126992  1
  Te  Te202  1  0.33548979  0.33687232  0.49599616  1
  Te  Te203  1  0.33623372  0.32692980  0.83211208  1
  Te  Te204  1  0.33740273  0.67022919  0.16705508  1
  Te  Te205  1  0.32892356  0.66388170  0.50448348  1
  Te  Te206  1  0.33066685  0.66515210  0.82593923  1
  Te  Te207  1  0.67378160  0.00084614  0.16179990  1
  Te  Te208  1  0.67561476  0.00500560  0.50045441  1
  Te  Te209  1  0.67026520  0.00057390  0.83801998  1
  Te  Te210  1  0.66308803  0.33586697  0.16448367  1
  Te  Te211  1  0.66688417  0.33275699  0.49994972  1
  Te  Te212  1  0.66826741  0.33262743  0.83280201  1
  Te  Te213  1  0.66805991  0.66159319  0.16711200  1
  Te  Te214  1  0.66743141  0.66054374  0.50039672  1
  Te  Te215  1  0.67056406  0.65882105  0.83285823  1
