# generated using pymatgen
data_AgSbTe2
_symmetry_space_group_name_H-M   'P 1'
_cell_length_a   18.33281991
_cell_length_b   18.34066765
_cell_length_c   18.34266597
_cell_angle_alpha   89.99723929
_cell_angle_beta   90.00232063
_cell_angle_gamma   89.99861965
_symmetry_Int_Tables_number   1
_chemical_formula_structural   AgSbTe2
_chemical_formula_sum   'Ag54 Sb54 Te108'
_cell_volume   6167.46750132
_cell_formula_units_Z   54
loop_
 _symmetry_equiv_pos_site_id
 _symmetry_equiv_pos_as_xyz
  1  'x, y, z'
loop_
 _atom_site_type_symbol
 _atom_site_label
 _atom_site_symmetry_multiplicity
 _atom_site_fract_x
 _atom_site_fract_y
 _atom_site_fract_z
 _atom_site_occupancy
  Ag  Ag0  1  0.84252310  0.66292769  0.48622803  1
  Ag  Ag1  1  0.16709974  0.00147437  0.49899992  1
  Ag  Ag2  1  0.68344055  0.83525161  0.16634761  1
  Ag  Ag3  1  0.16755725  0.83199537  0.66304026  1
  Ag  Ag4  1  0.84004671  0.66751542  0.16818990  1
  Ag  Ag5  1  0.50264985  0.33638836  0.16385798  1
  Ag  Ag6  1  0.16192771  0.32631216  0.49503267  1
  Ag  Ag7  1  0.49625207  0.33447951  0.84323611  1
  Ag  Ag8  1  0.83829993  -0.00903130  0.16460571  1
  Ag  Ag9  1  0.49301019  0.16821036  0.66119868  1
  Ag  Ag10  1  0.32509307  0.16090339  0.50198648  1
  Ag  Ag11  1  0.15662671  0.50543873  0.33142647  1
  Ag  Ag12  1  0.00489692  0.66941955  0.67157733  1
  Ag  Ag13  1  0.84559053  0.66976017  0.83791636  1
  Ag  Ag14  1  0.49622113  0.49515193  0.00179674  1
  Ag  Ag15  1  0.32127894  0.66880919  0.33164466  1
  Ag  Ag16  1  0.00269530  0.65884600  0.32833796  1
  Ag  Ag17  1  0.00113601  0.82588527  0.17087085  1
  Ag  Ag18  1  0.48771542  0.00493547  0.49941384  1
  Ag  Ag19  1  -0.00177123  -0.00706158  0.00168631  1
  Ag  Ag20  1  0.84623149  0.17251166  0.33387159  1
  Ag  Ag21  1  0.16183466  0.16653330  0.34008777  1
  Ag  Ag22  1  0.49538945  0.49672387  0.66841330  1
  Ag  Ag23  1  0.16598784  0.82559332  0.00104967  1
  Ag  Ag24  1  0.33661331  0.34403332  0.00020017  1
  Ag  Ag25  1  0.49457770  0.16996774  0.33923476  1
  Ag  Ag26  1  0.16366265  0.82764660  0.33220767  1
  Ag  Ag27  1  -0.00136889  0.34423961  0.33569920  1
  Ag  Ag28  1  0.83467893  0.33932250  0.16960909  1
  Ag  Ag29  1  0.84383119  0.33762191  0.48749403  1
  Ag  Ag30  1  0.16398097  0.66841064  0.83927519  1
  Ag  Ag31  1  0.84675623  0.82591215  0.32838008  1
  Ag  Ag32  1  0.32884344  0.83801786  0.50121126  1
  Ag  Ag33  1  0.32424991  0.67504458  0.66752598  1
  Ag  Ag34  1  0.32641858  -0.00583009  0.66090817  1
  Ag  Ag35  1  0.32076327  0.66436550  0.00035637  1
  Ag  Ag36  1  0.00008278  0.51033928  0.83761402  1
  Ag  Ag37  1  0.16161830  0.50859549  0.00361744  1
  Ag  Ag38  1  0.84464823  0.50089538  0.32695902  1
  Ag  Ag39  1  0.00331343  0.66339997  0.00122798  1
  Ag  Ag40  1  0.84594564  0.50333302  0.00909258  1
  Ag  Ag41  1  0.00030936  0.49946543  0.48728047  1
  Ag  Ag42  1  0.67759377  0.00054783  0.00189954  1
  Ag  Ag43  1  0.49498470  0.49529393  0.33022792  1
  Ag  Ag44  1  0.84131304  -0.00543190  0.84321573  1
  Ag  Ag45  1  0.32836463  0.83288991  0.82928060  1
  Ag  Ag46  1  0.00018031  -0.00103773  0.33341563  1
  Ag  Ag47  1  0.32469177  0.83038983  0.16901169  1
  Ag  Ag48  1  0.00410928  0.16487199  0.82900705  1
  Ag  Ag49  1  0.00609890  -0.00498211  0.66378756  1
  Ag  Ag50  1  0.00566166  0.17040677  0.49278493  1
  Ag  Ag51  1  -0.00310518  0.50772499  0.17282118  1
  Ag  Ag52  1  0.66065725  0.33555571  0.00242150  1
  Ag  Ag53  1  0.32828207  0.16311295  0.82675544  1
  Sb  Sb54  1  0.15897235  0.66791664  0.16297494  1
  Sb  Sb55  1  0.32925693  0.33628588  0.32928833  1
  Sb  Sb56  1  0.16729674  0.50736267  0.66457966  1
  Sb  Sb57  1  -0.00164700  0.16659693  0.17362073  1
  Sb  Sb58  1  0.67557902  0.66630207  0.33170775  1
  Sb  Sb59  1  0.66841608  0.16594973  0.49811074  1
  Sb  Sb60  1  0.16154416  0.66895483  0.49893656  1
  Sb  Sb61  1  0.67185679  0.66568665  0.00230312  1
  Sb  Sb62  1  0.67039093  0.50013954  0.83677628  1
  Sb  Sb63  1  0.16829545  0.33671845  0.83135312  1
  Sb  Sb64  1  0.49785592  0.66750223  0.49916379  1
  Sb  Sb65  1  0.66465439  0.33367964  0.67046093  1
  Sb  Sb66  1  0.16172207  -0.00515082  0.82900295  1
  Sb  Sb67  1  0.84174769  -0.00067492  0.49495074  1
  Sb  Sb68  1  0.32867511  0.50505210  0.16535104  1
  Sb  Sb69  1  0.67424009  0.33370991  0.32743268  1
  Sb  Sb70  1  0.49824959  0.17285515  -0.00069053  1
  Sb  Sb71  1  0.16922936  0.16016869  0.66006208  1
  Sb  Sb72  1  0.00705811  0.83169320  0.49111969  1
  Sb  Sb73  1  0.49255138  0.82798564  0.00216658  1
  Sb  Sb74  1  0.66993491  0.66696402  0.66771673  1
  Sb  Sb75  1  0.50411914  0.00299546  0.17061601  1
  Sb  Sb76  1  0.49327321  0.83370835  0.33198056  1
  Sb  Sb77  1  0.67459917  0.50181245  0.16590833  1
  Sb  Sb78  1  0.16387597  0.33576123  0.17121937  1
  Sb  Sb79  1  0.00109027  0.33889693  0.00477462  1
  Sb  Sb80  1  0.00556224  0.83110860  0.83861577  1
  Sb  Sb81  1  0.49346743  0.66125034  0.83388290  1
  Sb  Sb82  1  0.83600854  0.16498688  0.66240621  1
  Sb  Sb83  1  0.83564721  0.50197980  0.66514201  1
  Sb  Sb84  1  0.00106365  0.33464797  0.65915918  1
  Sb  Sb85  1  0.66599746  0.83446526  0.84147518  1
  Sb  Sb86  1  0.48915026  0.83409559  0.66649190  1
  Sb  Sb87  1  0.15948838  -0.00422283  0.17265094  1
  Sb  Sb88  1  0.16416615  0.16689358  0.00252638  1
  Sb  Sb89  1  0.33374503  0.33185003  0.66930238  1
  Sb  Sb90  1  0.66830740  0.16706459  0.83479606  1
  Sb  Sb91  1  0.32703579  0.50084848  0.49821175  1
  Sb  Sb92  1  0.32899009  0.50247069  0.83543519  1
  Sb  Sb93  1  0.83692568  0.16728420  0.00519270  1
  Sb  Sb94  1  0.67470677  -0.00042618  0.32860044  1
  Sb  Sb95  1  0.49771109  0.32977390  0.49594393  1
  Sb  Sb96  1  0.49893823  0.00583876  0.83041530  1
  Sb  Sb97  1  0.50215009  0.66097980  0.16764500  1
  Sb  Sb98  1  0.66849593  0.16624474  0.16677376  1
  Sb  Sb99  1  0.66424897  0.83479223  0.49358703  1
  Sb  Sb100  1  0.32882726  -0.00498264  -0.00478844  1
  Sb  Sb101  1  0.32532440  -0.00434183  0.33998091  1
  Sb  Sb102  1  0.66633906  -0.00051832  0.67100172  1
  Sb  Sb103  1  0.83444968  0.33447999  0.83861692  1
  Sb  Sb104  1  0.84244735  0.82957347  0.00690343  1
  Sb  Sb105  1  0.67275308  0.49894082  0.49730219  1
  Sb  Sb106  1  0.33368949  0.16328001  0.16926075  1
  Sb  Sb107  1  0.84486890  0.83200214  0.66158524  1
  Te  Te108  1  0.16814708  0.16644067  0.17646245  1
  Te  Te109  1  0.16579286  0.16496171  0.49851483  1
  Te  Te110  1  0.16704198  0.16804826  0.83326616  1
  Te  Te111  1  0.16123257  0.49897058  0.16870919  1
  Te  Te112  1  0.16149277  0.49646104  0.49631674  1
  Te  Te113  1  0.16167710  0.50404995  0.83628673  1
  Te  Te114  1  0.16443058  0.83374300  0.16849563  1
  Te  Te115  1  0.17081309  0.83564637  0.49732144  1
  Te  Te116  1  0.17099651  0.82953590  0.83598032  1
  Te  Te117  1  0.50013700  0.17173041  0.17212276  1
  Te  Te118  1  0.49977825  0.16582546  0.50024152  1
  Te  Te119  1  0.49654557  0.17132805  0.83114692  1
  Te  Te120  1  0.50011982  0.49600542  0.16558941  1
  Te  Te121  1  0.50039894  0.49856628  0.49846159  1
  Te  Te122  1  0.50002963  0.49521183  0.83514946  1
  Te  Te123  1  0.49449889  0.83346195  0.16672472  1
  Te  Te124  1  0.49395120  0.83864046  0.50002575  1
  Te  Te125  1  0.49231948  0.83350888  0.83389906  1
  Te  Te126  1  0.83244205  0.17144789  0.17371626  1
  Te  Te127  1  0.83785739  0.16873645  0.49462799  1
  Te  Te128  1  0.83805995  0.16329842  0.83221725  1
  Te  Te129  1  0.83489135  0.50085798  0.16717162  1
  Te  Te130  1  0.83807335  0.50067016  0.49825393  1
  Te  Te131  1  0.83787278  0.50284823  0.83551569  1
  Te  Te132  1  0.83995195  0.83247354  0.16845875  1
  Te  Te133  1  0.83049693  0.82917555  0.49279593  1
  Te  Te134  1  0.83191510  0.83437566  0.83206802  1
  Te  Te135  1  0.15994987  -0.00239145  0.00056046  1
  Te  Te136  1  0.16175410  -0.00177836  0.33786106  1
  Te  Te137  1  0.16627091  -0.00531850  0.66342011  1
  Te  Te138  1  0.17261408  0.33563632  0.00040538  1
  Te  Te139  1  0.16316587  0.33604605  0.33588676  1
  Te  Te140  1  0.16703625  0.33605076  0.65969021  1
  Te  Te141  1  0.16471772  0.66533597  -0.00001673  1
  Te  Te142  1  0.16420732  0.66571596  0.33353726  1
  Te  Te143  1  0.16601341  0.67055548  0.66819312  1
  Te  Te144  1  0.50169654  -0.00003635  0.00062585  1
  Te  Te145  1  0.50165913  0.00274731  0.33745358  1
  Te  Te146  1  0.49765777  0.00315997  0.66304424  1
  Te  Te147  1  0.49781426  0.33442124  0.00207867  1
  Te  Te148  1  0.49995250  0.33277776  0.33023761  1
  Te  Te149  1  0.50033832  0.33406849  0.66680450  1
  Te  Te150  1  0.49960590  0.65926834  -0.00048176  1
  Te  Te151  1  0.49808374  0.66425181  0.33447373  1
  Te  Te152  1  0.49702208  0.66224320  0.66681985  1
  Te  Te153  1  0.83708585  -0.00005896  0.00261515  1
  Te  Te154  1  0.83788295  0.00056098  0.32990919  1
  Te  Te155  1  0.83691087  -0.00061908  0.66803993  1
  Te  Te156  1  0.83172131  0.33788386  0.00390211  1
  Te  Te157  1  0.83505486  0.33629562  0.33103827  1
  Te  Te158  1  0.83147467  0.33316814  0.66426790  1
  Te  Te159  1  0.83651371  0.66352564  0.00014492  1
  Te  Te160  1  0.83738940  0.66421038  0.32988980  1
  Te  Te161  1  0.83859914  0.66668875  0.67423348  1
  Te  Te162  1  0.00107022  0.16339014  -0.00567508  1
  Te  Te163  1  0.00188721  0.16174687  0.33423023  1
  Te  Te164  1  0.00014690  0.16314306  0.66729078  1
  Te  Te165  1  0.00183585  0.49964943  -0.00078783  1
  Te  Te166  1  -0.00059284  0.50141466  0.33254659  1
  Te  Te167  1  0.00027509  0.50521576  0.67562583  1
  Te  Te168  1  0.00489550  0.83237548  0.00535781  1
  Te  Te169  1  0.00229814  0.83611619  0.33169504  1
  Te  Te170  1  0.00664390  0.83258019  0.66501384  1
  Te  Te171  1  0.33149316  0.16472412  -0.00377291  1
  Te  Te172  1  0.33314698  0.16701543  0.33683787  1
  Te  Te173  1  0.33417137  0.16565041  0.66561549  1
  Te  Te174  1  0.33153403  0.50320979  0.00044020  1
  Te  Te175  1  0.33551055  0.50528808  0.33246147  1
  Te  Te176  1  0.33583147  0.50429265  0.66660851  1
  Te  Te177  1  0.32735251  0.82961349  0.00053169  1
  Te  Te178  1  0.32860521  0.82940333  0.33312432  1
  Te  Te179  1  0.32880779  0.83382688  0.66562020  1
  Te  Te180  1  0.66744281  0.16566732  -0.00014847  1
  Te  Te181  1  0.65823839  0.16658112  0.33340052  1
  Te  Te182  1  0.65607086  0.16606341  0.66669864  1
  Te  Te183  1  0.65939396  0.49669458  0.00048386  1
  Te  Te184  1  0.65438605  0.50047608  0.33256348  1
  Te  Te185  1  0.65620974  0.50042346  0.66682867  1
  Te  Te186  1  0.66352315  0.83648902  0.00602755  1
  Te  Te187  1  0.66769157  0.83339916  0.32607855  1
  Te  Te188  1  0.66543386  0.83352680  0.66698383  1
  Te  Te189  1  -0.00357731  0.00093078  0.16660197  1
  Te  Te190  1  0.00301225  0.00094593  0.50157899  1
  Te  Te191  1  -0.00067472  -0.00114987  0.83180058  1
  Te  Te192  1  -0.00378846  0.33516318  0.17210483  1
  Te  Te193  1  0.00046832  0.33279050  0.49782369  1
  Te  Te194  1  -0.00004011  0.32723783  0.83211435  1
  Te  Te195  1  -0.00272441  0.66575390  0.16628430  1
  Te  Te196  1  -0.00150188  0.66535731  0.49956221  1
  Te  Te197  1  0.00294804  0.66978420  0.83531912  1
  Te  Te198  1  0.33459240  -0.00652095  0.16562597  1
  Te  Te199  1  0.32996570  0.00093655  0.50099577  1
  Te  Te200  1  0.33290669  0.00092666  0.82787642  1
  Te  Te201  1  0.33726803  0.33241530  0.16116460  1
  Te  Te202  1  0.32933591  0.32861465  0.49946269  1
  Te  Te203  1  0.33570133  0.33036566  0.83660095  1
  Te  Te204  1  0.33703222  0.67099645  0.16644156  1
  Te  Te205  1  0.33405798  0.66899911  0.49986196  1
  Te  Te206  1  0.33006749  0.66907447  0.83381340  1
  Te  Te207  1  0.67157390  -0.00317674  0.16149501  1
  Te  Te208  1  0.66157659  -0.00099735  0.50139088  1
  Te  Te209  1  0.67329198  0.00024101  0.84028844  1
  Te  Te210  1  0.66774626  0.33468436  0.16091897  1
  Te  Te211  1  0.67504149  0.33304225  0.50087086  1
  Te  Te212  1  0.66107698  0.33260574  0.84074434  1
  Te  Te213  1  0.67365791  0.67428019  0.16610931  1
  Te  Te214  1  0.67721449  0.66752840  0.50120789  1
  Te  Te215  1  0.67447678  0.66843457  0.83374357  1
