# generated using pymatgen
data_AgSbTe2
_symmetry_space_group_name_H-M   'P 1'
_cell_length_a   18.34842101
_cell_length_b   18.35496093
_cell_length_c   18.34995832
_cell_angle_alpha   90.00073605
_cell_angle_beta   89.99545531
_cell_angle_gamma   90.00135157
_symmetry_Int_Tables_number   1
_chemical_formula_structural   AgSbTe2
_chemical_formula_sum   'Ag54 Sb54 Te108'
_cell_volume   6179.98244983
_cell_formula_units_Z   54
loop_
 _symmetry_equiv_pos_site_id
 _symmetry_equiv_pos_as_xyz
  1  'x, y, z'
loop_
 _atom_site_type_symbol
 _atom_site_label
 _atom_site_symmetry_multiplicity
 _atom_site_fract_x
 _atom_site_fract_y
 _atom_site_fract_z
 _atom_site_occupancy
  Ag  Ag0  1  0.67579303  0.15953023  0.16701092  1
  Ag  Ag1  1  0.66573148  0.15804227  0.83149956  1
  Ag  Ag2  1  -0.00251158  0.67552417  0.65920503  1
  Ag  Ag3  1  0.67468710  0.15887089  0.50067335  1
  Ag  Ag4  1  0.00493891  0.33401090  0.00363217  1
  Ag  Ag5  1  0.66676558  0.83661744  0.82545027  1
  Ag  Ag6  1  0.31710719  0.83306556  0.50169302  1
  Ag  Ag7  1  0.83718115  -0.00941665  0.50622558  1
  Ag  Ag8  1  0.49334152  0.66862760  0.83208534  1
  Ag  Ag9  1  0.83212471  0.51008255  0.66766947  1
  Ag  Ag10  1  0.15729649  0.67522107  0.50094817  1
  Ag  Ag11  1  0.84003545  0.32524846  0.16453783  1
  Ag  Ag12  1  0.15928719  0.32869560  0.15778499  1
  Ag  Ag13  1  0.32484808  0.16232628  0.83434894  1
  Ag  Ag14  1  0.50558990  0.50432071  0.66890468  1
  Ag  Ag15  1  -0.00037111  -0.01031962  0.33625686  1
  Ag  Ag16  1  -0.00373278  0.83128208  0.48993160  1
  Ag  Ag17  1  0.84573525  0.67983786  0.50468000  1
  Ag  Ag18  1  0.49752838  0.33544085  0.50049844  1
  Ag  Ag19  1  0.16255679  -0.00764868  0.83775788  1
  Ag  Ag20  1  0.50166400  0.50157802  0.33544517  1
  Ag  Ag21  1  0.16330338  0.68079107  0.16520012  1
  Ag  Ag22  1  0.00325264  0.15746148  0.17114988  1
  Ag  Ag23  1  0.31833577  0.83523431  0.16384167  1
  Ag  Ag24  1  0.15650911  0.83135033  0.66324772  1
  Ag  Ag25  1  -0.00019113  0.15861123  0.49311475  1
  Ag  Ag26  1  0.32414573  0.83192094  0.83511090  1
  Ag  Ag27  1  0.83991778  0.83214983  0.65913467  1
  Ag  Ag28  1  0.67019585  0.83958249  0.16691613  1
  Ag  Ag29  1  0.83817009  0.49865689  -0.00036119  1
  Ag  Ag30  1  0.66797344  0.50456861  0.16413016  1
  Ag  Ag31  1  0.16877425  0.83234231  0.00821650  1
  Ag  Ag32  1  0.16667951  0.33231825  0.84089962  1
  Ag  Ag33  1  0.16892532  0.67661895  0.83442692  1
  Ag  Ag34  1  0.00046218  0.51745824  0.50184356  1
  Ag  Ag35  1  0.16510405  0.49914474  -0.00234794  1
  Ag  Ag36  1  0.49645261  0.82955303  -0.00064740  1
  Ag  Ag37  1  0.32994126  0.51103628  0.83416028  1
  Ag  Ag38  1  0.16382749  0.16735795  0.00366930  1
  Ag  Ag39  1  0.83676150  -0.00329819  0.82338961  1
  Ag  Ag40  1  0.83888541  -0.00372319  0.16729868  1
  Ag  Ag41  1  0.84620757  0.83583810  0.34832685  1
  Ag  Ag42  1  0.16159175  0.15768523  0.32367900  1
  Ag  Ag43  1  0.50997308  -0.00522337  0.16654930  1
  Ag  Ag44  1  0.15582370  0.83520561  0.32380775  1
  Ag  Ag45  1  -0.00522110  -0.00859837  0.65891417  1
  Ag  Ag46  1  0.67560005  0.67421156  0.66619490  1
  Ag  Ag47  1  0.00213105  0.67898921  0.34705594  1
  Ag  Ag48  1  0.67395787  -0.00912105  0.66918496  1
  Ag  Ag49  1  0.00442680  0.84102125  0.17610153  1
  Ag  Ag50  1  0.50002030  0.50459323  -0.00210527  1
  Ag  Ag51  1  0.68202372  0.83591111  0.50927483  1
  Ag  Ag52  1  0.16314464  0.33473134  0.49958493  1
  Ag  Ag53  1  0.15770764  -0.00522614  0.16295254  1
  Sb  Sb54  1  0.67504454  -0.00230856  0.33369453  1
  Sb  Sb55  1  0.83593777  0.67185893  0.82611550  1
  Sb  Sb56  1  0.50933961  -0.00051955  0.49624063  1
  Sb  Sb57  1  0.32795728  0.16167132  0.50361257  1
  Sb  Sb58  1  -0.00127290  0.50114076  0.16912408  1
  Sb  Sb59  1  0.50271227  0.16837829  0.66706095  1
  Sb  Sb60  1  0.33030766  0.66901300  -0.00243981  1
  Sb  Sb61  1  0.50396461  0.82907075  0.67111357  1
  Sb  Sb62  1  0.49491256  0.33861857  0.83103629  1
  Sb  Sb63  1  0.66745738  0.66894778  -0.00463952  1
  Sb  Sb64  1  0.00465418  0.83479314  0.83059818  1
  Sb  Sb65  1  0.83309724  0.50592343  0.33344539  1
  Sb  Sb66  1  0.66904527  -0.00155242  -0.00198894  1
  Sb  Sb67  1  0.83402326  0.16045551  0.66563536  1
  Sb  Sb68  1  0.67118618  0.33450394  0.00081199  1
  Sb  Sb69  1  0.32320202  -0.00233111  0.33318916  1
  Sb  Sb70  1  0.83835460  0.16843326  0.00316199  1
  Sb  Sb71  1  0.49871762  0.83031493  0.32893915  1
  Sb  Sb72  1  0.00097196  0.33272178  0.66668957  1
  Sb  Sb73  1  0.49950764  -0.00712602  0.83666425  1
  Sb  Sb74  1  0.66780575  0.33283439  0.33316723  1
  Sb  Sb75  1  0.84030437  0.15896708  0.33199354  1
  Sb  Sb76  1  0.49770009  0.67179585  0.16149023  1
  Sb  Sb77  1  0.66377166  0.50369167  0.83500499  1
  Sb  Sb78  1  0.83734807  0.33294065  0.49586414  1
  Sb  Sb79  1  0.32994575  0.33414030  0.33358850  1
  Sb  Sb80  1  0.66816840  0.33405714  0.66678461  1
  Sb  Sb81  1  0.66937764  0.50180084  0.49910247  1
  Sb  Sb82  1  0.83689809  0.33011938  0.83653962  1
  Sb  Sb83  1  0.32976241  0.66871876  0.66880896  1
  Sb  Sb84  1  0.32553483  0.33526229  -0.00100416  1
  Sb  Sb85  1  0.00453215  0.50100554  0.83031832  1
  Sb  Sb86  1  0.00362127  0.66509278  -0.00049018  1
  Sb  Sb87  1  0.32478625  0.15948921  0.16108450  1
  Sb  Sb88  1  0.83832776  0.67198500  0.17117483  1
  Sb  Sb89  1  0.32614211  0.66860282  0.33400476  1
  Sb  Sb90  1  0.00270154  0.00049557  0.00415016  1
  Sb  Sb91  1  0.00216491  0.33212689  0.32921689  1
  Sb  Sb92  1  0.33346233  0.50495737  0.16061161  1
  Sb  Sb93  1  0.67228747  0.67024474  0.33759689  1
  Sb  Sb94  1  0.50099402  0.33314398  0.16810284  1
  Sb  Sb95  1  0.16370308  0.16002022  0.66846122  1
  Sb  Sb96  1  0.83697419  0.83099522  -0.00149082  1
  Sb  Sb97  1  0.49648418  0.16542666  -0.00009033  1
  Sb  Sb98  1  0.49753980  0.16798295  0.33259133  1
  Sb  Sb99  1  0.50057975  0.66582021  0.50512570  1
  Sb  Sb100  1  0.32996936  -0.00499588  0.66817932  1
  Sb  Sb101  1  0.00185544  0.16307894  0.83548916  1
  Sb  Sb102  1  0.16401617  0.50657489  0.67041724  1
  Sb  Sb103  1  0.33114710  0.33516345  0.66799788  1
  Sb  Sb104  1  0.15620278  -0.00603368  0.49947124  1
  Sb  Sb105  1  0.16742250  0.50375206  0.33063409  1
  Sb  Sb106  1  0.32968275  -0.00409118  0.00019837  1
  Sb  Sb107  1  0.32912285  0.50444642  0.50521420  1
  Te  Te108  1  0.16511454  0.16780628  0.16465485  1
  Te  Te109  1  0.16585038  0.16684877  0.50065799  1
  Te  Te110  1  0.16618187  0.16833757  0.83506256  1
  Te  Te111  1  0.16826304  0.49059438  0.16289862  1
  Te  Te112  1  0.16463190  0.49861688  0.50031910  1
  Te  Te113  1  0.16997920  0.49574482  0.83555462  1
  Te  Te114  1  0.16360116  0.83563890  0.16622977  1
  Te  Te115  1  0.16089688  0.83494666  0.50334303  1
  Te  Te116  1  0.16603701  0.83398261  0.83211985  1
  Te  Te117  1  0.49994419  0.16300285  0.16649835  1
  Te  Te118  1  0.50008531  0.17165559  0.49869043  1
  Te  Te119  1  0.50412318  0.16688760  0.83519192  1
  Te  Te120  1  0.50114336  0.50073615  0.16108185  1
  Te  Te121  1  0.49915492  0.49809816  0.50206875  1
  Te  Te122  1  0.49801262  0.50310772  0.83473397  1
  Te  Te123  1  0.50935155  0.83449305  0.16291224  1
  Te  Te124  1  0.49893413  0.83267955  0.49786787  1
  Te  Te125  1  0.50107723  0.82962009  0.83796337  1
  Te  Te126  1  0.83478430  0.16618466  0.16725942  1
  Te  Te127  1  0.83340346  0.16594763  0.49845107  1
  Te  Te128  1  0.82759202  0.16153139  0.83497072  1
  Te  Te129  1  0.83058475  0.50309797  0.16531976  1
  Te  Te130  1  0.83681052  0.49942496  0.50184948  1
  Te  Te131  1  0.83249773  0.49880671  0.83430287  1
  Te  Te132  1  0.82986355  0.83512604  0.16183053  1
  Te  Te133  1  0.83560440  0.83496869  0.50327901  1
  Te  Te134  1  0.82756601  0.83749797  0.83372380  1
  Te  Te135  1  0.16547312  -0.00043049  -0.00107646  1
  Te  Te136  1  0.16014208  -0.00249755  0.33145407  1
  Te  Te137  1  0.16302430  -0.00581370  0.67239715  1
  Te  Te138  1  0.16430614  0.33431006  -0.00111295  1
  Te  Te139  1  0.16649589  0.33458548  0.33950557  1
  Te  Te140  1  0.16577133  0.33367891  0.66203104  1
  Te  Te141  1  0.16527095  0.66608486  -0.00115243  1
  Te  Te142  1  0.16181024  0.66944569  0.33337993  1
  Te  Te143  1  0.16364885  0.66969888  0.66570947  1
  Te  Te144  1  0.50031374  -0.00427275  0.00692762  1
  Te  Te145  1  0.49813518  0.00021386  0.32594179  1
  Te  Te146  1  0.50830049  0.00035655  0.66614659  1
  Te  Te147  1  0.49966103  0.33998634  0.00057974  1
  Te  Te148  1  0.49858920  0.33860160  0.33724500  1
  Te  Te149  1  0.50061294  0.33999115  0.66207416  1
  Te  Te150  1  0.50106528  0.66664989  -0.00593728  1
  Te  Te151  1  0.49982150  0.66132300  0.33337207  1
  Te  Te152  1  0.50322801  0.66261589  0.67155302  1
  Te  Te153  1  0.83544933  -0.00007349  0.00298293  1
  Te  Te154  1  0.83974152  -0.00504973  0.32892441  1
  Te  Te155  1  0.83347927  -0.00156312  0.66603217  1
  Te  Te156  1  0.83872023  0.33845094  0.00408424  1
  Te  Te157  1  0.83409239  0.33484387  0.32432428  1
  Te  Te158  1  0.83425044  0.34287124  0.66717351  1
  Te  Te159  1  0.83525478  0.65873355  -0.00164775  1
  Te  Te160  1  0.83946325  0.67294915  0.33984298  1
  Te  Te161  1  0.83513841  0.66960652  0.66543464  1
  Te  Te162  1  0.00495322  0.17201335  0.00479190  1
  Te  Te163  1  0.00438908  0.16652636  0.33098629  1
  Te  Te164  1  -0.00114757  0.16303969  0.66099647  1
  Te  Te165  1  0.00208631  0.49664433  0.00008278  1
  Te  Te166  1  -0.00030353  0.50362679  0.34114595  1
  Te  Te167  1  -0.00338002  0.50007293  0.66134580  1
  Te  Te168  1  0.00538997  0.83241065  0.00853249  1
  Te  Te169  1  0.00022878  0.83373867  0.33103471  1
  Te  Te170  1  -0.00168547  0.83495367  0.67164863  1
  Te  Te171  1  0.32788606  0.16678482  -0.00668173  1
  Te  Te172  1  0.32374811  0.16630917  0.33377921  1
  Te  Te173  1  0.33456198  0.16435297  0.67509795  1
  Te  Te174  1  0.33282423  0.50085199  -0.00610316  1
  Te  Te175  1  0.34103855  0.50139293  0.33346255  1
  Te  Te176  1  0.34057306  0.50089632  0.67346062  1
  Te  Te177  1  0.33252644  0.83298810  -0.00054717  1
  Te  Te178  1  0.33006598  0.83284776  0.33274146  1
  Te  Te179  1  0.33182639  0.83345166  0.66818181  1
  Te  Te180  1  0.66565431  0.16706114  0.00448604  1
  Te  Te181  1  0.66621511  0.16558212  0.33288578  1
  Te  Te182  1  0.66718093  0.16407084  0.66382991  1
  Te  Te183  1  0.66535581  0.50128446  0.00266629  1
  Te  Te184  1  0.66256362  0.50170354  0.32866286  1
  Te  Te185  1  0.66789772  0.50245974  0.66702818  1
  Te  Te186  1  0.66465060  0.83234449  0.00326063  1
  Te  Te187  1  0.66678118  0.83289645  0.33003770  1
  Te  Te188  1  0.66503011  0.83269456  0.66669219  1
  Te  Te189  1  0.00022161  0.00074791  0.16628835  1
  Te  Te190  1  -0.00273317  -0.00186630  0.49876310  1
  Te  Te191  1  -0.00176385  0.00155473  0.82901744  1
  Te  Te192  1  0.00035302  0.33503085  0.16452269  1
  Te  Te193  1  0.00237475  0.32039917  0.49959734  1
  Te  Te194  1  0.00518389  0.33150487  0.83790121  1
  Te  Te195  1  0.00483165  0.66751688  0.16733698  1
  Te  Te196  1  0.00179425  0.67199735  0.50330277  1
  Te  Te197  1  0.00701067  0.66572152  0.82727926  1
  Te  Te198  1  0.32968865  -0.00650589  0.16744878  1
  Te  Te199  1  0.33873951  -0.00702008  0.50061774  1
  Te  Te200  1  0.32992908  -0.00290644  0.83257198  1
  Te  Te201  1  0.32797182  0.33199629  0.16677849  1
  Te  Te202  1  0.33256698  0.33247445  0.50106902  1
  Te  Te203  1  0.32794228  0.32786257  0.83285835  1
  Te  Te204  1  0.32631802  0.67379226  0.16708354  1
  Te  Te205  1  0.32891874  0.67315977  0.50119764  1
  Te  Te206  1  0.33095213  0.67004601  0.83280779  1
  Te  Te207  1  0.67013373  0.00130856  0.16688372  1
  Te  Te208  1  0.67287534  -0.00152870  0.50078715  1
  Te  Te209  1  0.66601386  -0.00155665  0.83147266  1
  Te  Te210  1  0.66912138  0.33213643  0.16631747  1
  Te  Te211  1  0.66490420  0.32903697  0.49990332  1
  Te  Te212  1  0.66653193  0.32448633  0.83327944  1
  Te  Te213  1  0.66616615  0.66370503  0.16761567  1
  Te  Te214  1  0.66816119  0.67043671  0.50553349  1
  Te  Te215  1  0.66666444  0.67107854  0.82770433  1
