# generated using pymatgen
data_AgSbTe2
_symmetry_space_group_name_H-M   'P 1'
_cell_length_a   18.33617359
_cell_length_b   18.33568549
_cell_length_c   18.32989473
_cell_angle_alpha   89.99981642
_cell_angle_beta   89.99897230
_cell_angle_gamma   89.99832310
_symmetry_Int_Tables_number   1
_chemical_formula_structural   AgSbTe2
_chemical_formula_sum   'Ag54 Sb54 Te108'
_cell_volume   6162.62630340
_cell_formula_units_Z   54
loop_
 _symmetry_equiv_pos_site_id
 _symmetry_equiv_pos_as_xyz
  1  'x, y, z'
loop_
 _atom_site_type_symbol
 _atom_site_label
 _atom_site_symmetry_multiplicity
 _atom_site_fract_x
 _atom_site_fract_y
 _atom_site_fract_z
 _atom_site_occupancy
  Ag  Ag0  1  0.33965879  0.66951845  0.32782157  1
  Ag  Ag1  1  0.34334495  0.83548272  0.17099767  1
  Ag  Ag2  1  0.49658536  0.16294217  0.32602710  1
  Ag  Ag3  1  0.18024579  -0.00204128  0.51264250  1
  Ag  Ag4  1  0.83169008  0.67579740  0.16697161  1
  Ag  Ag5  1  0.33227454  0.00231175  0.66455292  1
  Ag  Ag6  1  0.49975908  -0.00491649  0.16722668  1
  Ag  Ag7  1  -0.00162052  0.50595143  0.15418716  1
  Ag  Ag8  1  -0.00390057  0.00713609  -0.00647509  1
  Ag  Ag9  1  0.33920455  0.66706913  0.00157471  1
  Ag  Ag10  1  0.00363334  0.33415232  0.67589001  1
  Ag  Ag11  1  -0.00158103  0.32629192  -0.00875775  1
  Ag  Ag12  1  0.33656278  0.32658579  0.67083775  1
  Ag  Ag13  1  0.01003130  0.17231205  0.83698613  1
  Ag  Ag14  1  0.49771866  0.32373711  0.16169424  1
  Ag  Ag15  1  0.49912789  0.67187761  0.16383528  1
  Ag  Ag16  1  0.49820671  0.66085858  0.83690129  1
  Ag  Ag17  1  0.33526375  0.49030622  0.83092122  1
  Ag  Ag18  1  0.65906212  0.16297604  0.83498321  1
  Ag  Ag19  1  0.49689564  0.32564307  0.51245878  1
  Ag  Ag20  1  0.49798718  0.83514432  0.66359892  1
  Ag  Ag21  1  0.65322329  0.32855336  0.66945607  1
  Ag  Ag22  1  0.83479518  0.49570529  0.00029540  1
  Ag  Ag23  1  0.33794852  0.33025977  0.33946622  1
  Ag  Ag24  1  -0.00303667  0.83056373  0.16879303  1
  Ag  Ag25  1  0.33540288  0.84097700  0.50396179  1
  Ag  Ag26  1  0.50090418  0.49366431  -0.00429970  1
  Ag  Ag27  1  0.01094717  -0.00535032  0.67259816  1
  Ag  Ag28  1  0.16841859  0.16607841  -0.00505069  1
  Ag  Ag29  1  0.00120633  0.67008106  0.32867596  1
  Ag  Ag30  1  0.00526001  0.83586253  0.50999552  1
  Ag  Ag31  1  0.66280482  0.84172577  0.83271299  1
  Ag  Ag32  1  0.66014115  -0.00159248  0.67339726  1
  Ag  Ag33  1  0.17029655  0.49894435  0.67102968  1
  Ag  Ag34  1  0.00742522  0.48833983  0.83443141  1
  Ag  Ag35  1  0.83102874  0.33123783  0.50412095  1
  Ag  Ag36  1  0.84092699  0.83619682  0.66569326  1
  Ag  Ag37  1  0.33668102  0.15950534  0.50787537  1
  Ag  Ag38  1  0.49439017  0.49132510  0.67551769  1
  Ag  Ag39  1  0.49577953  0.00339113  0.50644469  1
  Ag  Ag40  1  0.65520916  0.67121752  0.32721749  1
  Ag  Ag41  1  0.65953598  0.83403772  0.16371216  1
  Ag  Ag42  1  0.34045607  0.16362550  0.16287436  1
  Ag  Ag43  1  0.17135819  0.32604457  0.83243884  1
  Ag  Ag44  1  0.16669800  0.84025004  0.66506445  1
  Ag  Ag45  1  0.16491955  0.00709974  0.83004295  1
  Ag  Ag46  1  0.00004775  0.67676679  0.66756934  1
  Ag  Ag47  1  0.33306319  0.17083112  0.83393704  1
  Ag  Ag48  1  0.83587025  0.16637048  -0.00207055  1
  Ag  Ag49  1  0.49421821  0.33510483  0.82997386  1
  Ag  Ag50  1  0.49662521  0.17039672  0.00138961  1
  Ag  Ag51  1  0.49716381  0.83436622  0.32799485  1
  Ag  Ag52  1  0.66738935  0.00180219  -0.00601593  1
  Ag  Ag53  1  0.82635550  -0.00678691  0.16153733  1
  Sb  Sb54  1  0.66139458  0.67134004  0.00291154  1
  Sb  Sb55  1  0.17062216  -0.00108767  0.16320375  1
  Sb  Sb56  1  0.83504124  0.50126517  0.32747947  1
  Sb  Sb57  1  0.83020056  0.83193051  0.33405366  1
  Sb  Sb58  1  0.83447025  0.00084927  0.83698663  1
  Sb  Sb59  1  0.16674694  0.83810737  -0.00500992  1
  Sb  Sb60  1  0.17123618  0.66586933  0.83099573  1
  Sb  Sb61  1  0.49695183  0.16628807  0.67144507  1
  Sb  Sb62  1  0.65738256  0.16605984  0.50694983  1
  Sb  Sb63  1  0.00590340  0.33601164  0.33382927  1
  Sb  Sb64  1  0.83475318  0.50061847  0.67272544  1
  Sb  Sb65  1  0.65834726  0.15886263  0.15866086  1
  Sb  Sb66  1  0.66224447  0.83563324  0.50184653  1
  Sb  Sb67  1  0.82911460  0.33172829  0.16589280  1
  Sb  Sb68  1  0.65712837  0.33610449  0.33772065  1
  Sb  Sb69  1  0.49894280  0.00282662  0.83293810  1
  Sb  Sb70  1  0.16812844  0.49476894  -0.00718932  1
  Sb  Sb71  1  0.33267333  0.66902544  0.66695296  1
  Sb  Sb72  1  0.33773962  0.83563479  0.83055040  1
  Sb  Sb73  1  0.17333706  0.32536308  0.51243816  1
  Sb  Sb74  1  0.83305686  0.16328827  0.67216184  1
  Sb  Sb75  1  0.83452511  0.33282257  0.82979677  1
  Sb  Sb76  1  0.17198530  0.33264600  0.15894086  1
  Sb  Sb77  1  0.33300407  0.50001929  0.16026540  1
  Sb  Sb78  1  0.33545803  0.00155822  -0.00358840  1
  Sb  Sb79  1  0.83301995  0.83513284  0.00062676  1
  Sb  Sb80  1  0.33505164  0.49845338  0.50679493  1
  Sb  Sb81  1  0.83573707  0.66520738  0.49678512  1
  Sb  Sb82  1  0.16746114  0.67309930  0.50296565  1
  Sb  Sb83  1  0.00296808  0.66530188  -0.00115339  1
  Sb  Sb84  1  0.66628577  0.32694424  -0.00565464  1
  Sb  Sb85  1  0.49782776  0.66927215  0.49955731  1
  Sb  Sb86  1  0.16953694  0.66754399  0.16635640  1
  Sb  Sb87  1  0.17270856  0.83370152  0.33856699  1
  Sb  Sb88  1  0.33525509  0.33273374  -0.00603982  1
  Sb  Sb89  1  0.66101227  -0.00391996  0.33041627  1
  Sb  Sb90  1  0.00067951  0.50263941  0.50662152  1
  Sb  Sb91  1  0.16956321  0.16249558  0.67562809  1
  Sb  Sb92  1  0.82694882  0.16720797  0.32770385  1
  Sb  Sb93  1  0.33657086  0.00002928  0.33906286  1
  Sb  Sb94  1  0.00650159  0.16153823  0.50916084  1
  Sb  Sb95  1  0.49991805  0.83531134  0.00139373  1
  Sb  Sb96  1  -0.00262513  0.83571645  0.83074865  1
  Sb  Sb97  1  0.49744359  0.50161538  0.33041042  1
  Sb  Sb98  1  0.00310132  0.16486524  0.15771623  1
  Sb  Sb99  1  0.17624568  0.16723361  0.32795079  1
  Sb  Sb100  1  0.66084844  0.49720517  0.83408551  1
  Sb  Sb101  1  0.66734413  0.67025264  0.66513236  1
  Sb  Sb102  1  0.66446735  0.49919182  0.50210988  1
  Sb  Sb103  1  0.16860998  0.50114749  0.33795134  1
  Sb  Sb104  1  -0.00028754  -0.00486031  0.33232982  1
  Sb  Sb105  1  0.82932831  0.66710999  0.83826547  1
  Sb  Sb106  1  0.83051812  0.00235456  0.50114735  1
  Sb  Sb107  1  0.66675299  0.50541271  0.16382881  1
  Te  Te108  1  0.17565861  0.16648983  0.15884417  1
  Te  Te109  1  0.17447748  0.15890316  0.49564706  1
  Te  Te110  1  0.16815783  0.16663690  0.83698198  1
  Te  Te111  1  0.15914010  0.49914940  0.16614020  1
  Te  Te112  1  0.16677150  0.49829581  0.51062839  1
  Te  Te113  1  0.16753550  0.49955496  0.82917323  1
  Te  Te114  1  0.16412795  0.83434649  0.16668229  1
  Te  Te115  1  0.16679856  0.83854831  0.50456207  1
  Te  Te116  1  0.16771568  0.83744264  0.82676857  1
  Te  Te117  1  0.49808647  0.16571980  0.16516279  1
  Te  Te118  1  0.49543945  0.16576612  0.49660360  1
  Te  Te119  1  0.49785343  0.16848946  0.83817943  1
  Te  Te120  1  0.49906493  0.50759146  0.16127516  1
  Te  Te121  1  0.49942933  0.49358497  0.50552800  1
  Te  Te122  1  0.49897179  0.49950890  0.83455361  1
  Te  Te123  1  0.50022007  0.83279108  0.16547449  1
  Te  Te124  1  0.49745179  0.83589011  0.50083937  1
  Te  Te125  1  0.50255817  0.83228091  0.83122835  1
  Te  Te126  1  0.83268925  0.16285585  0.16028876  1
  Te  Te127  1  0.83353384  0.17102238  0.49680526  1
  Te  Te128  1  0.83028777  0.16694380  0.83936503  1
  Te  Te129  1  0.83772387  0.49998823  0.16064639  1
  Te  Te130  1  0.83275265  0.49264859  0.50087464  1
  Te  Te131  1  0.83818848  0.50104441  0.84042944  1
  Te  Te132  1  0.83469730  0.83368290  0.16698143  1
  Te  Te133  1  0.83771993  0.83373324  0.50375951  1
  Te  Te134  1  0.82534299  0.83202096  0.82724729  1
  Te  Te135  1  0.16369947  0.00469136  -0.00440828  1
  Te  Te136  1  0.16560441  0.00140559  0.33983406  1
  Te  Te137  1  0.16846823  -0.00047180  0.66838583  1
  Te  Te138  1  0.16039282  0.32862339  -0.00634890  1
  Te  Te139  1  0.17599911  0.33436030  0.33383393  1
  Te  Te140  1  0.16592789  0.33580912  0.67250275  1
  Te  Te141  1  0.17611204  0.66719400  -0.00165206  1
  Te  Te142  1  0.16172988  0.66623201  0.33443602  1
  Te  Te143  1  0.16090359  0.66491053  0.66736034  1
  Te  Te144  1  0.50249524  0.00505817  0.00259006  1
  Te  Te145  1  0.50029476  -0.00217429  0.32924875  1
  Te  Te146  1  0.49848603  -0.00109511  0.66763150  1
  Te  Te147  1  0.50128617  0.33341532  0.00048141  1
  Te  Te148  1  0.49556788  0.33455894  0.32843358  1
  Te  Te149  1  0.49720919  0.33120645  0.66953157  1
  Te  Te150  1  0.49835843  0.66712656  0.00027558  1
  Te  Te151  1  0.49746350  0.66867979  0.33256571  1
  Te  Te152  1  0.50128467  0.67004438  0.66786025  1
  Te  Te153  1  0.83415324  0.00082600  0.00273863  1
  Te  Te154  1  0.83053908  0.00098085  0.32389283  1
  Te  Te155  1  0.82974307  -0.00385182  0.66496796  1
  Te  Te156  1  0.83610035  0.33299715  0.00087824  1
  Te  Te157  1  0.83155516  0.33349524  0.33988732  1
  Te  Te158  1  0.83925000  0.33298487  0.66330923  1
  Te  Te159  1  0.83338268  0.66337996  0.00627182  1
  Te  Te160  1  0.84137226  0.66627291  0.32705011  1
  Te  Te161  1  0.83641466  0.67097052  0.66606025  1
  Te  Te162  1  -0.00116094  0.16658997  -0.00282954  1
  Te  Te163  1  -0.00113027  0.16715277  0.33317108  1
  Te  Te164  1  -0.00049755  0.16768611  0.67337742  1
  Te  Te165  1  0.00163730  0.50010467  -0.00375571  1
  Te  Te166  1  0.00153890  0.50536860  0.33300087  1
  Te  Te167  1  -0.00060103  0.49535873  0.67127064  1
  Te  Te168  1  0.00052666  0.83741514  0.00346783  1
  Te  Te169  1  0.00032713  0.83043141  0.32987597  1
  Te  Te170  1  0.00100573  0.83578126  0.66837389  1
  Te  Te171  1  0.33581291  0.16677509  -0.00201215  1
  Te  Te172  1  0.33867673  0.16925157  0.32857845  1
  Te  Te173  1  0.33255593  0.16658996  0.66742834  1
  Te  Te174  1  0.33687297  0.50238687  -0.00613524  1
  Te  Te175  1  0.33224818  0.50369503  0.33351822  1
  Te  Te176  1  0.33501569  0.50198839  0.67135493  1
  Te  Te177  1  0.33193162  0.83025872  0.00547927  1
  Te  Te178  1  0.33662290  0.83167714  0.33068813  1
  Te  Te179  1  0.33510916  0.83437371  0.66399933  1
  Te  Te180  1  0.66685268  0.16211855  -0.00504165  1
  Te  Te181  1  0.65847807  0.16777650  0.33370236  1
  Te  Te182  1  0.66798279  0.16635915  0.67343144  1
  Te  Te183  1  0.66512261  0.49899428  -0.00033605  1
  Te  Te184  1  0.66690033  0.50921385  0.33243061  1
  Te  Te185  1  0.66315424  0.49686682  0.66796388  1
  Te  Te186  1  0.66738411  0.83996067  -0.00101134  1
  Te  Te187  1  0.66182253  0.83020487  0.32977495  1
  Te  Te188  1  0.65981908  0.83476661  0.66797635  1
  Te  Te189  1  0.00188806  -0.00325947  0.16389774  1
  Te  Te190  1  -0.00282752  -0.00457011  0.50510083  1
  Te  Te191  1  0.00087408  0.00102350  0.83262214  1
  Te  Te192  1  -0.00034885  0.33623046  0.16690256  1
  Te  Te193  1  0.00215336  0.33190469  0.50091486  1
  Te  Te194  1  -0.00266018  0.33163030  0.83388631  1
  Te  Te195  1  0.00018484  0.66703656  0.16436128  1
  Te  Te196  1  -0.00038381  0.67181883  0.50312882  1
  Te  Te197  1  -0.00144311  0.66595417  0.82957959  1
  Te  Te198  1  0.33634324  -0.00108262  0.16499912  1
  Te  Te199  1  0.33812454  -0.00101342  0.50259088  1
  Te  Te200  1  0.32981512  0.00333811  0.82847481  1
  Te  Te201  1  0.33778100  0.33236770  0.16705150  1
  Te  Te202  1  0.33706665  0.33150936  0.50325937  1
  Te  Te203  1  0.33301364  0.33229167  0.83229174  1
  Te  Te204  1  0.33586948  0.66731501  0.16733535  1
  Te  Te205  1  0.33297538  0.67274906  0.49340841  1
  Te  Te206  1  0.33882548  0.66749701  0.83495305  1
  Te  Te207  1  0.66394028  -0.00526858  0.16466891  1
  Te  Te208  1  0.66108925  0.00056842  0.50766126  1
  Te  Te209  1  0.66618165  0.00171451  0.83325651  1
  Te  Te210  1  0.65934045  0.33413842  0.16795163  1
  Te  Te211  1  0.66249888  0.33274956  0.50585013  1
  Te  Te212  1  0.66266809  0.32997970  0.82860455  1
  Te  Te213  1  0.66525449  0.67165437  0.16784716  1
  Te  Te214  1  0.66851033  0.66717311  0.49044975  1
  Te  Te215  1  0.66028220  0.66963946  0.83383653  1
