# generated using pymatgen
data_AgSbTe2
_symmetry_space_group_name_H-M   'P 1'
_cell_length_a   18.33234532
_cell_length_b   18.33891967
_cell_length_c   18.33834553
_cell_angle_alpha   89.99883733
_cell_angle_beta   89.99964884
_cell_angle_gamma   89.99909298
_symmetry_Int_Tables_number   1
_chemical_formula_structural   AgSbTe2
_chemical_formula_sum   'Ag54 Sb54 Te108'
_cell_volume   6165.26755645
_cell_formula_units_Z   54
loop_
 _symmetry_equiv_pos_site_id
 _symmetry_equiv_pos_as_xyz
  1  'x, y, z'
loop_
 _atom_site_type_symbol
 _atom_site_label
 _atom_site_symmetry_multiplicity
 _atom_site_fract_x
 _atom_site_fract_y
 _atom_site_fract_z
 _atom_site_occupancy
  Ag  Ag0  1  0.66652587  0.33162373  0.34042548  1
  Ag  Ag1  1  0.49945848  0.15884966  0.33415553  1
  Ag  Ag2  1  0.82482309  0.48722764  0.66448987  1
  Ag  Ag3  1  0.67232457  0.33767980  0.66255885  1
  Ag  Ag4  1  0.00098983  0.48716735  0.50097873  1
  Ag  Ag5  1  0.82376836  0.00183884  0.82131619  1
  Ag  Ag6  1  0.65959214  0.49620719  0.16291853  1
  Ag  Ag7  1  0.15387301  0.33197309  0.49903582  1
  Ag  Ag8  1  0.51334634  0.00133684  0.48845231  1
  Ag  Ag9  1  0.66484271  0.49815612  0.82898102  1
  Ag  Ag10  1  0.66835327  0.15959675  0.50074185  1
  Ag  Ag11  1  0.34488268  0.00296933  0.33195155  1
  Ag  Ag12  1  0.66906055  -0.00175870  0.65686756  1
  Ag  Ag13  1  0.17457031  0.33155905  0.16780933  1
  Ag  Ag14  1  0.66384437  0.66237273  -0.00381396  1
  Ag  Ag15  1  -0.01600583  0.33667088  0.65346852  1
  Ag  Ag16  1  0.33849523  0.49066512  0.49457872  1
  Ag  Ag17  1  0.33786011  0.83729229  0.16787924  1
  Ag  Ag18  1  0.83064889  0.17536384  0.66195393  1
  Ag  Ag19  1  -0.00632771  0.33398755  0.34321703  1
  Ag  Ag20  1  0.66805778  0.83481241  0.82606079  1
  Ag  Ag21  1  0.34196524  0.48865877  0.17152280  1
  Ag  Ag22  1  0.50837501  0.00067994  0.83228880  1
  Ag  Ag23  1  0.82625654  0.83587616  0.66449368  1
  Ag  Ag24  1  -0.01153590  0.65812238  0.65826677  1
  Ag  Ag25  1  0.66736418  0.84419789  0.50405750  1
  Ag  Ag26  1  0.50240128  0.66218490  0.49885046  1
  Ag  Ag27  1  0.33393818  0.17139607  0.16810386  1
  Ag  Ag28  1  0.33788647  0.17105547  0.49541586  1
  Ag  Ag29  1  0.16377354  0.32937161  0.83339241  1
  Ag  Ag30  1  0.66248480  0.33851018  0.00048044  1
  Ag  Ag31  1  0.16669703  0.66072900  0.16743319  1
  Ag  Ag32  1  0.50493396  0.83100179  0.00952633  1
  Ag  Ag33  1  -0.01200435  0.17582027  0.49598433  1
  Ag  Ag34  1  0.33229514  0.16766797  0.83808507  1
  Ag  Ag35  1  0.49848014  0.00463904  0.17787934  1
  Ag  Ag36  1  -0.00149387  0.66243141  0.33892415  1
  Ag  Ag37  1  0.82180389  0.83504313  -0.00046209  1
  Ag  Ag38  1  0.82377824  0.00802525  0.50499114  1
  Ag  Ag39  1  0.50500173  0.49926036  0.00999272  1
  Ag  Ag40  1  0.50832709  0.49802281  0.66131214  1
  Ag  Ag41  1  0.17039579  0.17046701  0.00018534  1
  Ag  Ag42  1  0.83929811  0.32767172  0.50830162  1
  Ag  Ag43  1  0.65714354  0.00297771  0.34505442  1
  Ag  Ag44  1  0.67055499  0.66287392  0.66766850  1
  Ag  Ag45  1  0.17117357  0.00983583  0.83326889  1
  Ag  Ag46  1  0.49655530  0.33627778  0.16691758  1
  Ag  Ag47  1  0.82346662  0.83581028  0.33639557  1
  Ag  Ag48  1  0.50635842  0.84613084  0.32871363  1
  Ag  Ag49  1  0.82990069  0.32819233  0.82139971  1
  Ag  Ag50  1  0.00598856  0.16900630  0.17374713  1
  Ag  Ag51  1  0.34027240  0.33121526  0.00835301  1
  Ag  Ag52  1  0.50254170  0.49779652  0.33240149  1
  Ag  Ag53  1  0.00112530  0.83644125  0.16912114  1
  Sb  Sb54  1  0.17441179  0.49241311  0.00270603  1
  Sb  Sb55  1  -0.01181864  0.00434545  0.66546068  1
  Sb  Sb56  1  0.50307427  0.66871788  0.83049211  1
  Sb  Sb57  1  0.16424548  0.66319310  0.83780230  1
  Sb  Sb58  1  0.34385865  0.84421204  0.83904726  1
  Sb  Sb59  1  0.33876000  0.66440657  0.66368542  1
  Sb  Sb60  1  -0.00291022  0.00298838  0.33396826  1
  Sb  Sb61  1  0.49783926  0.66361720  0.17216196  1
  Sb  Sb62  1  0.66196767  0.17161100  0.17399249  1
  Sb  Sb63  1  -0.00867310  0.49686825  0.82527926  1
  Sb  Sb64  1  -0.00959636  0.83461956  0.49592517  1
  Sb  Sb65  1  0.66381318  0.16582666  0.82803084  1
  Sb  Sb66  1  0.66681167  0.66656184  0.33560047  1
  Sb  Sb67  1  0.82761005  0.16444723  0.34012774  1
  Sb  Sb68  1  0.17312928  0.00481617  0.16452806  1
  Sb  Sb69  1  0.83440862  0.66762935  0.16806699  1
  Sb  Sb70  1  0.17088611  0.83784370  0.00230617  1
  Sb  Sb71  1  0.82925859  0.50099613  0.33914592  1
  Sb  Sb72  1  0.50408914  0.32960959  0.83755842  1
  Sb  Sb73  1  0.83082531  0.33204218  0.16884699  1
  Sb  Sb74  1  0.16738058  0.83344615  0.33173458  1
  Sb  Sb75  1  0.66481621  0.49790464  0.50358884  1
  Sb  Sb76  1  0.82778555  0.66574265  0.50297687  1
  Sb  Sb77  1  0.66414836  0.00000908  -0.00005108  1
  Sb  Sb78  1  0.33690536  0.33172120  0.66573015  1
  Sb  Sb79  1  0.00179596  0.49737328  0.17395926  1
  Sb  Sb80  1  0.16581497  0.49736902  0.66629607  1
  Sb  Sb81  1  0.00008430  0.00043952  0.00110903  1
  Sb  Sb82  1  -0.00660111  0.66805821  0.00298482  1
  Sb  Sb83  1  -0.00982222  0.83491425  0.83565731  1
  Sb  Sb84  1  0.50807412  0.83185978  0.66255368  1
  Sb  Sb85  1  -0.00043193  0.33368286  0.00147082  1
  Sb  Sb86  1  0.82696456  -0.00034563  0.16975682  1
  Sb  Sb87  1  0.34310459  0.00182815  0.66298955  1
  Sb  Sb88  1  0.33946210  0.32915346  0.32936109  1
  Sb  Sb89  1  0.16857825  0.00865642  0.50393277  1
  Sb  Sb90  1  0.00223005  0.16847852  0.83048114  1
  Sb  Sb91  1  0.83533891  0.16398882  -0.00494012  1
  Sb  Sb92  1  0.82371185  0.50187011  -0.00642235  1
  Sb  Sb93  1  0.50438365  0.33155823  0.49312109  1
  Sb  Sb94  1  0.17202925  0.49557072  0.33333492  1
  Sb  Sb95  1  0.17118449  0.17031115  0.33054240  1
  Sb  Sb96  1  0.33687144  0.00700624  0.00497776  1
  Sb  Sb97  1  0.34024369  0.66087669  0.00317495  1
  Sb  Sb98  1  0.15571907  0.83495916  0.66788659  1
  Sb  Sb99  1  0.50646967  0.16976527  0.66014564  1
  Sb  Sb100  1  0.16754903  0.66120867  0.49597464  1
  Sb  Sb101  1  0.82861944  0.66789987  0.82959571  1
  Sb  Sb102  1  0.66372120  0.83042066  0.16751902  1
  Sb  Sb103  1  0.34448359  0.83646119  0.49415654  1
  Sb  Sb104  1  0.33290680  0.66837704  0.33049638  1
  Sb  Sb105  1  0.16173881  0.16890493  0.66884793  1
  Sb  Sb106  1  0.34103512  0.49143103  0.83426684  1
  Sb  Sb107  1  0.49804703  0.16761334  0.00514519  1
  Te  Te108  1  0.16944416  0.16939410  0.16410039  1
  Te  Te109  1  0.17305632  0.17218532  0.50059289  1
  Te  Te110  1  0.16861199  0.16954544  0.83506656  1
  Te  Te111  1  0.17144703  0.49665400  0.16665252  1
  Te  Te112  1  0.16888972  0.49368747  0.49989777  1
  Te  Te113  1  0.16776787  0.49367900  0.83490901  1
  Te  Te114  1  0.16610746  0.83475482  0.16565948  1
  Te  Te115  1  0.16827378  0.83331354  0.50107137  1
  Te  Te116  1  0.16716210  0.83409700  0.83539907  1
  Te  Te117  1  0.49668809  0.16721111  0.17062483  1
  Te  Te118  1  0.50077232  0.16441353  0.49644524  1
  Te  Te119  1  0.49449130  0.16193694  0.83365225  1
  Te  Te120  1  0.49939912  0.50163118  0.16695074  1
  Te  Te121  1  0.49953959  0.49759202  0.49930648  1
  Te  Te122  1  0.50517661  0.50009762  0.83150264  1
  Te  Te123  1  0.49895643  0.83025207  0.16867353  1
  Te  Te124  1  0.50437073  0.83829544  0.49533900  1
  Te  Te125  1  0.50648838  0.83783023  0.83622520  1
  Te  Te126  1  0.84159145  0.16511136  0.16538600  1
  Te  Te127  1  0.83016840  0.16726362  0.50045498  1
  Te  Te128  1  0.83430567  0.16445398  0.82838693  1
  Te  Te129  1  0.82847263  0.49983308  0.16555435  1
  Te  Te130  1  0.83734501  0.49756663  0.50474910  1
  Te  Te131  1  0.82577026  0.49476980  0.82678975  1
  Te  Te132  1  0.83636506  0.83463378  0.16708592  1
  Te  Te133  1  0.82816547  0.83322855  0.49793171  1
  Te  Te134  1  0.82818217  0.83670824  0.83499168  1
  Te  Te135  1  0.16809280  0.00575227  -0.00657203  1
  Te  Te136  1  0.17111569  -0.00012146  0.33419417  1
  Te  Te137  1  0.16719179  -0.00007108  0.67350048  1
  Te  Te138  1  0.16645625  0.32965185  0.00107930  1
  Te  Te139  1  0.15932798  0.33341876  0.33350292  1
  Te  Te140  1  0.16766665  0.33346837  0.66774971  1
  Te  Te141  1  0.16569854  0.66612048  0.00581141  1
  Te  Te142  1  0.15941882  0.66553740  0.32797369  1
  Te  Te143  1  0.16256079  0.66685273  0.66762292  1
  Te  Te144  1  0.49925842  -0.00417994  -0.00580859  1
  Te  Te145  1  0.50108695  0.00150049  0.33315714  1
  Te  Te146  1  0.50796320  0.00002989  0.67042119  1
  Te  Te147  1  0.50114944  0.33440409  0.00404545  1
  Te  Te148  1  0.50469221  0.33792280  0.32771026  1
  Te  Te149  1  0.50517964  0.33743585  0.66846399  1
  Te  Te150  1  0.50546780  0.66614818  -0.00117879  1
  Te  Te151  1  0.49997527  0.65906981  0.33914743  1
  Te  Te152  1  0.50549634  0.66227698  0.66133250  1
  Te  Te153  1  0.83269702  -0.00486327  -0.00232118  1
  Te  Te154  1  0.82943180  -0.00459794  0.33704049  1
  Te  Te155  1  0.82910381  -0.00400939  0.66544024  1
  Te  Te156  1  0.82839418  0.33322629  -0.00250494  1
  Te  Te157  1  0.83073615  0.33285665  0.33635454  1
  Te  Te158  1  0.83009699  0.33178214  0.66621361  1
  Te  Te159  1  0.82579082  0.67368854  -0.00091140  1
  Te  Te160  1  0.83821690  0.67244704  0.33534471  1
  Te  Te161  1  0.83109391  0.67231755  0.66672835  1
  Te  Te162  1  0.00521107  0.16736274  0.00600766  1
  Te  Te163  1  0.00018658  0.16949355  0.33482947  1
  Te  Te164  1  -0.00555836  0.17174581  0.66149686  1
  Te  Te165  1  -0.00099311  0.50297639  0.00016840  1
  Te  Te166  1  -0.00187900  0.49886870  0.33883408  1
  Te  Te167  1  -0.00088982  0.49849301  0.66158677  1
  Te  Te168  1  -0.00194620  0.83222259  0.00712645  1
  Te  Te169  1  -0.00013277  0.83353569  0.32892631  1
  Te  Te170  1  -0.01019970  0.83070008  0.66654159  1
  Te  Te171  1  0.33160209  0.17206322  0.00181694  1
  Te  Te172  1  0.33709341  0.16467189  0.33243038  1
  Te  Te173  1  0.33423169  0.16586328  0.66242863  1
  Te  Te174  1  0.34159199  0.49337048  0.00285410  1
  Te  Te175  1  0.33838380  0.50098354  0.33265508  1
  Te  Te176  1  0.33924222  0.49997151  0.66292929  1
  Te  Te177  1  0.33957326  0.83211027  0.00616965  1
  Te  Te178  1  0.33770289  0.83666618  0.32854509  1
  Te  Te179  1  0.33100937  0.83284307  0.66862502  1
  Te  Te180  1  0.66791023  0.17515164  0.00121607  1
  Te  Te181  1  0.66197680  0.16797882  0.33808959  1
  Te  Te182  1  0.67036947  0.16696488  0.66235613  1
  Te  Te183  1  0.66390498  0.49902261  -0.00230482  1
  Te  Te184  1  0.66492308  0.49852638  0.33093420  1
  Te  Te185  1  0.66659011  0.50054873  0.66573824  1
  Te  Te186  1  0.66445015  0.83375077  0.00127816  1
  Te  Te187  1  0.66537205  0.83200681  0.33368357  1
  Te  Te188  1  0.66692234  0.83380566  0.66652464  1
  Te  Te189  1  0.00049653  0.00047334  0.16813758  1
  Te  Te190  1  -0.00097349  0.00507179  0.50018882  1
  Te  Te191  1  0.00149075  -0.00025556  0.83283063  1
  Te  Te192  1  0.00224117  0.33070362  0.16896310  1
  Te  Te193  1  -0.00131888  0.33120965  0.49907732  1
  Te  Te194  1  -0.00013706  0.33352292  0.83263175  1
  Te  Te195  1  0.00337661  0.66670677  0.17042915  1
  Te  Te196  1  0.00181009  0.66750216  0.49968561  1
  Te  Te197  1  -0.00043445  0.66592430  0.82583217  1
  Te  Te198  1  0.33799968  0.00032930  0.17006847  1
  Te  Te199  1  0.33560920  0.00443343  0.49558236  1
  Te  Te200  1  0.33183493  0.00688218  0.83209077  1
  Te  Te201  1  0.33377650  0.33225170  0.16764028  1
  Te  Te202  1  0.33535622  0.33232191  0.49839429  1
  Te  Te203  1  0.32976642  0.32818094  0.83586584  1
  Te  Te204  1  0.32717161  0.66950680  0.16574876  1
  Te  Te205  1  0.33762172  0.66304695  0.49868443  1
  Te  Te206  1  0.33097005  0.66756845  0.83354045  1
  Te  Te207  1  0.65887239  0.00128760  0.17022122  1
  Te  Te208  1  0.66878592  -0.00048108  0.50034259  1
  Te  Te209  1  0.66789380  -0.00059144  0.83496625  1
  Te  Te210  1  0.66438839  0.33603016  0.16780144  1
  Te  Te211  1  0.66834525  0.33251657  0.50042714  1
  Te  Te212  1  0.66857547  0.33250712  0.83021239  1
  Te  Te213  1  0.66666658  0.65960188  0.16363170  1
  Te  Te214  1  0.66200383  0.66811969  0.50339338  1
  Te  Te215  1  0.66597199  0.66746290  0.83200644  1
