# generated using pymatgen
data_AgSbTe2
_symmetry_space_group_name_H-M   'P 1'
_cell_length_a   18.34036939
_cell_length_b   18.32690129
_cell_length_c   18.34120354
_cell_angle_alpha   89.99983705
_cell_angle_beta   90.00024211
_cell_angle_gamma   90.00664459
_symmetry_Int_Tables_number   1
_chemical_formula_structural   AgSbTe2
_chemical_formula_sum   'Ag54 Sb54 Te108'
_cell_volume   6164.88453268
_cell_formula_units_Z   54
loop_
 _symmetry_equiv_pos_site_id
 _symmetry_equiv_pos_as_xyz
  1  'x, y, z'
loop_
 _atom_site_type_symbol
 _atom_site_label
 _atom_site_symmetry_multiplicity
 _atom_site_fract_x
 _atom_site_fract_y
 _atom_site_fract_z
 _atom_site_occupancy
  Ag  Ag0  1  0.32716750  0.17767629  0.83199731  1
  Ag  Ag1  1  0.00698052  0.16420187  0.50168698  1
  Ag  Ag2  1  0.33162412  0.33258961  0.33226376  1
  Ag  Ag3  1  0.49934771  0.83948198  -0.00044583  1
  Ag  Ag4  1  0.66373480  0.66148566  0.66932146  1
  Ag  Ag5  1  0.00104905  -0.00013365  0.00811272  1
  Ag  Ag6  1  0.50284944  0.00031048  0.49931614  1
  Ag  Ag7  1  0.83668163  0.50291036  0.67212687  1
  Ag  Ag8  1  0.48784981  0.32755854  0.16521457  1
  Ag  Ag9  1  0.66763145  0.00420892  0.33079744  1
  Ag  Ag10  1  0.50084338  0.00582814  0.84199196  1
  Ag  Ag11  1  0.17062072  0.17110032  0.32731254  1
  Ag  Ag12  1  0.15690425  0.00896678  0.16420102  1
  Ag  Ag13  1  0.49079797  0.16668520  0.33292011  1
  Ag  Ag14  1  0.00312929  0.49617743  0.51210735  1
  Ag  Ag15  1  0.32924734  0.65873331  0.34501756  1
  Ag  Ag16  1  0.16825480  0.49197751  0.33636326  1
  Ag  Ag17  1  0.16948278  0.65599579  0.83263095  1
  Ag  Ag18  1  0.16579695  0.49512210  -0.01200648  1
  Ag  Ag19  1  0.32755915  0.66137374  -0.00707666  1
  Ag  Ag20  1  0.84598317  0.00022947  0.16001571  1
  Ag  Ag21  1  0.00703689  0.33799418  0.66923555  1
  Ag  Ag22  1  0.65736334  0.32704493  0.33347588  1
  Ag  Ag23  1  0.32760931  0.16598825  0.50077026  1
  Ag  Ag24  1  0.83497737  0.00151835  0.83584375  1
  Ag  Ag25  1  0.16642859  0.49945646  0.67419011  1
  Ag  Ag26  1  0.32918959  0.33245864  -0.01040452  1
  Ag  Ag27  1  0.33208473  0.65859038  0.67019749  1
  Ag  Ag28  1  0.16916385  0.66161603  0.50705677  1
  Ag  Ag29  1  0.50023906  0.00615433  0.16098414  1
  Ag  Ag30  1  0.00637305  0.16207630  0.16226965  1
  Ag  Ag31  1  0.83368297  0.83122152  0.66603414  1
  Ag  Ag32  1  0.32809118  0.34022790  0.67862314  1
  Ag  Ag33  1  0.49170973  0.49971621  0.67037933  1
  Ag  Ag34  1  0.66667025  0.49985760  0.82834605  1
  Ag  Ag35  1  0.33657938  0.83878957  0.49997800  1
  Ag  Ag36  1  0.66362675  0.83380211  0.50241587  1
  Ag  Ag37  1  0.83357933  -0.00093161  0.50184355  1
  Ag  Ag38  1  0.00096337  0.84889681  0.16372980  1
  Ag  Ag39  1  0.00942670  0.66557046  -0.00178818  1
  Ag  Ag40  1  0.84428405  0.50147283  -0.00961375  1
  Ag  Ag41  1  0.01100827  0.49329849  0.82898913  1
  Ag  Ag42  1  0.16744504  0.17177934  0.00375911  1
  Ag  Ag43  1  0.48858663  0.33269800  0.83581570  1
  Ag  Ag44  1  0.65961763  -0.00301809  0.00279445  1
  Ag  Ag45  1  0.66462363  0.66657043  -0.00624885  1
  Ag  Ag46  1  0.32209739  0.48901477  0.83027199  1
  Ag  Ag47  1  -0.00181094  0.00432630  0.32156790  1
  Ag  Ag48  1  -0.00229844  0.00662883  0.66863755  1
  Ag  Ag49  1  0.67067357  0.50560806  0.51026500  1
  Ag  Ag50  1  0.33451816  0.00241416  -0.00119230  1
  Ag  Ag51  1  0.17119706  0.32927294  0.15906084  1
  Ag  Ag52  1  0.17476942  0.34173088  0.83875571  1
  Ag  Ag53  1  0.00833964  0.16824281  0.83333386  1
  Sb  Sb54  1  0.49727395  0.17039864  0.66501926  1
  Sb  Sb55  1  0.65932248  0.66715872  0.33679497  1
  Sb  Sb56  1  0.00322595  0.66189129  0.67239658  1
  Sb  Sb57  1  0.83577677  0.67214568  0.16174128  1
  Sb  Sb58  1  0.49642373  0.66243596  0.83308425  1
  Sb  Sb59  1  0.66946632  0.83800485  0.16809434  1
  Sb  Sb60  1  0.83637506  0.33364847  0.83278476  1
  Sb  Sb61  1  0.33012470  0.83657834  0.16839573  1
  Sb  Sb62  1  0.16953757  0.83339221  0.00001715  1
  Sb  Sb63  1  0.16571362  0.17273560  0.66838758  1
  Sb  Sb64  1  0.83746029  0.66918444  0.50357838  1
  Sb  Sb65  1  0.33419283  0.83227386  0.83199097  1
  Sb  Sb66  1  0.49748375  0.33050508  0.50094496  1
  Sb  Sb67  1  0.49483899  0.50138658  -0.00737253  1
  Sb  Sb68  1  0.83608555  0.66551332  0.83303291  1
  Sb  Sb69  1  0.32662878  0.16746639  0.16321392  1
  Sb  Sb70  1  0.16515482  0.00575472  0.84016364  1
  Sb  Sb71  1  0.00986585  0.33222793  -0.00639445  1
  Sb  Sb72  1  0.00060673  0.83631857  0.49795671  1
  Sb  Sb73  1  0.49369061  0.49219635  0.34004126  1
  Sb  Sb74  1  0.16550942  0.00023248  0.49628364  1
  Sb  Sb75  1  0.83132027  0.83459520  -0.00440060  1
  Sb  Sb76  1  0.65800095  0.33323357  0.00239090  1
  Sb  Sb77  1  0.50163851  0.83097098  0.66942223  1
  Sb  Sb78  1  0.33293604  0.00571664  0.32981067  1
  Sb  Sb79  1  0.16824018  0.33735614  0.50335977  1
  Sb  Sb80  1  0.49817963  0.84229885  0.33129516  1
  Sb  Sb81  1  0.00404857  0.49473066  0.16228860  1
  Sb  Sb82  1  0.83729513  0.32818338  0.16475831  1
  Sb  Sb83  1  0.84246770  0.16662613  -0.00112760  1
  Sb  Sb84  1  0.66594188  0.82963246  0.83118180  1
  Sb  Sb85  1  0.49347009  0.66877819  0.50097447  1
  Sb  Sb86  1  0.83779408  0.49779504  0.33686627  1
  Sb  Sb87  1  0.33007829  0.00125230  0.66955709  1
  Sb  Sb88  1  0.16386542  0.82795648  0.66602191  1
  Sb  Sb89  1  0.66807641  0.16400612  0.16731824  1
  Sb  Sb90  1  0.00570296  0.32677515  0.33748595  1
  Sb  Sb91  1  0.83417778  0.33043342  0.50110347  1
  Sb  Sb92  1  -0.00008399  0.83584636  0.83623172  1
  Sb  Sb93  1  0.49102322  0.16195134  0.00410613  1
  Sb  Sb94  1  0.66375440  0.16889572  0.83518441  1
  Sb  Sb95  1  0.66617264  0.49915528  0.16473051  1
  Sb  Sb96  1  0.83875427  0.16561315  0.66692833  1
  Sb  Sb97  1  0.33198581  0.49591225  0.16050036  1
  Sb  Sb98  1  0.49792617  0.66697628  0.16268601  1
  Sb  Sb99  1  0.83295274  0.83800433  0.33764264  1
  Sb  Sb100  1  0.00714007  0.66921555  0.33027888  1
  Sb  Sb101  1  0.16832064  0.83654154  0.33229560  1
  Sb  Sb102  1  0.32947582  0.49724088  0.50774446  1
  Sb  Sb103  1  0.66377307  0.34331993  0.66437732  1
  Sb  Sb104  1  0.66562020  0.16352100  0.49751039  1
  Sb  Sb105  1  0.83797918  0.16358220  0.33346222  1
  Sb  Sb106  1  0.67152557  -0.00541177  0.66678042  1
  Sb  Sb107  1  0.16824938  0.66383297  0.16346349  1
  Te  Te108  1  0.16590314  0.16806377  0.16604262  1
  Te  Te109  1  0.16721330  0.16584514  0.49817632  1
  Te  Te110  1  0.16788394  0.16993286  0.83483704  1
  Te  Te111  1  0.16730696  0.49414782  0.17457010  1
  Te  Te112  1  0.16457301  0.50231925  0.49707815  1
  Te  Te113  1  0.16679087  0.50030845  0.83353802  1
  Te  Te114  1  0.16194715  0.84049069  0.16629363  1
  Te  Te115  1  0.17245608  0.82653340  0.49880082  1
  Te  Te116  1  0.16646743  0.82037551  0.83244408  1
  Te  Te117  1  0.50182197  0.16856244  0.17147058  1
  Te  Te118  1  0.49812891  0.16207318  0.49665961  1
  Te  Te119  1  0.49621435  0.16729943  0.83319244  1
  Te  Te120  1  0.50001117  0.49226628  0.16844223  1
  Te  Te121  1  0.50661679  0.50057986  0.50702947  1
  Te  Te122  1  0.50387450  0.49696371  0.82953542  1
  Te  Te123  1  0.49996535  0.83816978  0.16179657  1
  Te  Te124  1  0.49966416  0.83785954  0.50027937  1
  Te  Te125  1  0.50073833  0.84339035  0.83757354  1
  Te  Te126  1  0.84242666  0.16014129  0.16618032  1
  Te  Te127  1  0.83890993  0.15940979  0.50024935  1
  Te  Te128  1  0.83684058  0.16161219  0.83369636  1
  Te  Te129  1  0.83478737  0.49931774  0.16176800  1
  Te  Te130  1  0.83599916  0.50067195  0.50441643  1
  Te  Te131  1  0.82983437  0.49999410  0.83285647  1
  Te  Te132  1  0.83833170  0.84095069  0.16583687  1
  Te  Te133  1  0.83167086  0.83769588  0.50480276  1
  Te  Te134  1  0.83272665  0.84094015  0.82665740  1
  Te  Te135  1  0.16596614  0.00049863  0.00311976  1
  Te  Te136  1  0.16394485  0.00505425  0.32892213  1
  Te  Te137  1  0.15998590  -0.00246684  0.66804120  1
  Te  Te138  1  0.16983797  0.33460580  -0.00057513  1
  Te  Te139  1  0.16786949  0.33098352  0.33436693  1
  Te  Te140  1  0.16734667  0.33816030  0.67015102  1
  Te  Te141  1  0.16792470  0.66503167  -0.00071953  1
  Te  Te142  1  0.17135886  0.66489179  0.33105036  1
  Te  Te143  1  0.16919426  0.66184081  0.66732080  1
  Te  Te144  1  0.49972214  0.00166687  -0.00049665  1
  Te  Te145  1  0.50111397  0.00499482  0.33715360  1
  Te  Te146  1  0.49986897  0.00037903  0.66299377  1
  Te  Te147  1  0.49303576  0.33235713  0.00139331  1
  Te  Te148  1  0.49770061  0.32842728  0.33236566  1
  Te  Te149  1  0.49517228  0.33798579  0.67143893  1
  Te  Te150  1  0.50185929  0.67158254  -0.00062026  1
  Te  Te151  1  0.49107504  0.66587416  0.33107591  1
  Te  Te152  1  0.49909939  0.66276514  0.66735493  1
  Te  Te153  1  0.83793503  0.00001984  -0.00103766  1
  Te  Te154  1  0.83110398  0.00004091  0.33490438  1
  Te  Te155  1  0.83589776  -0.00084595  0.66694357  1
  Te  Te156  1  0.82867355  0.34111175  0.00110801  1
  Te  Te157  1  0.82313189  0.33232430  0.33180884  1
  Te  Te158  1  0.83681323  0.34108359  0.66651573  1
  Te  Te159  1  0.82842266  0.66257039  -0.00139237  1
  Te  Te160  1  0.83142657  0.66673180  0.33117860  1
  Te  Te161  1  0.82963051  0.66570708  0.66723588  1
  Te  Te162  1  0.00609394  0.16494986  -0.00382162  1
  Te  Te163  1  0.00391214  0.16312088  0.33948581  1
  Te  Te164  1  0.00060622  0.16741105  0.66643887  1
  Te  Te165  1  0.00294340  0.49954604  -0.00294984  1
  Te  Te166  1  0.00489713  0.49918186  0.33534190  1
  Te  Te167  1  0.00215328  0.50138896  0.66885411  1
  Te  Te168  1  -0.00078913  0.83328027  0.00282754  1
  Te  Te169  1  0.00035177  0.83950231  0.32750155  1
  Te  Te170  1  -0.00475615  0.83415648  0.66617611  1
  Te  Te171  1  0.32799806  0.16628507  -0.00376750  1
  Te  Te172  1  0.33128555  0.16775291  0.33591626  1
  Te  Te173  1  0.33209159  0.17012117  0.66624308  1
  Te  Te174  1  0.32970529  0.50017955  -0.00526379  1
  Te  Te175  1  0.33012519  0.49873649  0.33406999  1
  Te  Te176  1  0.33154612  0.49929602  0.66829105  1
  Te  Te177  1  0.33706730  0.83564665  0.00043840  1
  Te  Te178  1  0.33352337  0.82609783  0.33888417  1
  Te  Te179  1  0.33330840  0.83040176  0.66036143  1
  Te  Te180  1  0.66975078  0.15912028  -0.00016546  1
  Te  Te181  1  0.66418553  0.16411157  0.33366360  1
  Te  Te182  1  0.66773435  0.16946771  0.66619557  1
  Te  Te183  1  0.66380651  0.50218661  -0.00235653  1
  Te  Te184  1  0.66728228  0.50050149  0.33594947  1
  Te  Te185  1  0.67081106  0.50310595  0.66684409  1
  Te  Te186  1  0.66383243  0.83528966  -0.00008992  1
  Te  Te187  1  0.66548545  0.83640737  0.34076649  1
  Te  Te188  1  0.66914198  0.82654092  0.66238874  1
  Te  Te189  1  0.00111276  0.00515354  0.16603663  1
  Te  Te190  1  -0.00137116  0.00026784  0.50482836  1
  Te  Te191  1  0.00005729  0.00253758  0.83105241  1
  Te  Te192  1  0.00495400  0.32582110  0.16809659  1
  Te  Te193  1  -0.00049606  0.33334632  0.50544283  1
  Te  Te194  1  0.00062839  0.33245356  0.82880307  1
  Te  Te195  1  0.00086283  0.66661618  0.15926581  1
  Te  Te196  1  0.00611787  0.66495072  0.49785126  1
  Te  Te197  1  0.00213693  0.66332812  0.83910036  1
  Te  Te198  1  0.34141753  -0.00017588  0.16148388  1
  Te  Te199  1  0.33388844  0.00139638  0.50027039  1
  Te  Te200  1  0.33533797  0.00032656  0.83700738  1
  Te  Te201  1  0.33105309  0.33266263  0.17260981  1
  Te  Te202  1  0.33417653  0.32708783  0.49278870  1
  Te  Te203  1  0.33370678  0.33369700  0.83405673  1
  Te  Te204  1  0.33387897  0.66747590  0.15688270  1
  Te  Te205  1  0.32950215  0.66348490  0.50327243  1
  Te  Te206  1  0.33252706  0.66630874  0.83270339  1
  Te  Te207  1  0.65916482  -0.00057429  0.16713061  1
  Te  Te208  1  0.66738055  -0.00179859  0.49927123  1
  Te  Te209  1  0.66608558  0.00059374  0.83619172  1
  Te  Te210  1  0.66563168  0.33166205  0.17180959  1
  Te  Te211  1  0.66615080  0.33630836  0.49477026  1
  Te  Te212  1  0.66382598  0.33740211  0.83380825  1
  Te  Te213  1  0.66663329  0.66842926  0.16133579  1
  Te  Te214  1  0.66728559  0.66697085  0.50143678  1
  Te  Te215  1  0.66609716  0.66263397  0.83301309  1
