# generated using pymatgen
data_AgSbTe2
_symmetry_space_group_name_H-M   'P 1'
_cell_length_a   18.34736489
_cell_length_b   18.33139285
_cell_length_c   18.34995628
_cell_angle_alpha   90.00262397
_cell_angle_beta   90.00118519
_cell_angle_gamma   89.99815691
_symmetry_Int_Tables_number   1
_chemical_formula_structural   AgSbTe2
_chemical_formula_sum   'Ag54 Sb54 Te108'
_cell_volume   6171.69131196
_cell_formula_units_Z   54
loop_
 _symmetry_equiv_pos_site_id
 _symmetry_equiv_pos_as_xyz
  1  'x, y, z'
loop_
 _atom_site_type_symbol
 _atom_site_label
 _atom_site_symmetry_multiplicity
 _atom_site_fract_x
 _atom_site_fract_y
 _atom_site_fract_z
 _atom_site_occupancy
  Ag  Ag0  1  0.34687461  0.82767783  0.83597773  1
  Ag  Ag1  1  0.51011369  0.67308309  0.15867892  1
  Ag  Ag2  1  0.66624468  0.16278570  0.51188726  1
  Ag  Ag3  1  0.50198199  0.83328301  0.67811886  1
  Ag  Ag4  1  0.50187715  -0.01254802  0.83064330  1
  Ag  Ag5  1  0.65722747  0.82584377  0.15316067  1
  Ag  Ag6  1  0.66633606  0.66637524  0.00006781  1
  Ag  Ag7  1  -0.00009971  0.50513132  0.83692137  1
  Ag  Ag8  1  0.66390212  0.67222421  0.67437027  1
  Ag  Ag9  1  0.83271233  0.16890222  -0.00414576  1
  Ag  Ag10  1  0.67081882  0.51340721  0.15817555  1
  Ag  Ag11  1  0.16330414  0.50523862  -0.00349485  1
  Ag  Ag12  1  0.83269017  0.33383654  0.50282137  1
  Ag  Ag13  1  0.66570689  0.66847014  0.31611039  1
  Ag  Ag14  1  0.66526204  0.34771701  -0.00137624  1
  Ag  Ag15  1  0.34349275  0.83370184  0.50446225  1
  Ag  Ag16  1  0.50393483  0.50667504  0.67411606  1
  Ag  Ag17  1  0.33802891  0.34040316  -0.00554606  1
  Ag  Ag18  1  0.50677489  0.67337424  0.83943259  1
  Ag  Ag19  1  0.82834981  0.16637236  0.32940392  1
  Ag  Ag20  1  0.82172699  0.82231487  -0.00307397  1
  Ag  Ag21  1  0.33843257  -0.00941198  0.33022452  1
  Ag  Ag22  1  0.33555273  0.50716768  0.83474622  1
  Ag  Ag23  1  0.33512419  0.33912883  0.67039213  1
  Ag  Ag24  1  0.66126265  0.83479678  0.51053491  1
  Ag  Ag25  1  0.16378057  0.50272362  0.32851379  1
  Ag  Ag26  1  0.17787540  0.82904610  0.67523443  1
  Ag  Ag27  1  0.66224267  -0.00612455  0.66824242  1
  Ag  Ag28  1  -0.00943821  0.16060372  0.83897740  1
  Ag  Ag29  1  0.50680891  0.16112943  0.33727420  1
  Ag  Ag30  1  -0.00407500  0.16675936  0.15938618  1
  Ag  Ag31  1  0.50909043  0.15270488  0.66720710  1
  Ag  Ag32  1  0.67052390  0.15845050  0.82711877  1
  Ag  Ag33  1  -0.00340582  0.50331288  0.15840101  1
  Ag  Ag34  1  0.17137868  -0.00382260  0.16397698  1
  Ag  Ag35  1  0.16981662  0.82587597  -0.00460939  1
  Ag  Ag36  1  0.83100061  0.49910800  0.67572106  1
  Ag  Ag37  1  0.82646115  0.66666181  0.83936949  1
  Ag  Ag38  1  0.82212706  0.66422614  0.15920869  1
  Ag  Ag39  1  0.50210590  -0.00365907  0.50680004  1
  Ag  Ag40  1  -0.00351116  0.66353454  0.33003883  1
  Ag  Ag41  1  0.34321712  0.83293819  0.15919071  1
  Ag  Ag42  1  0.82483454  0.17222204  0.67325908  1
  Ag  Ag43  1  0.65953946  0.83033259  0.83478644  1
  Ag  Ag44  1  -0.00195752  0.82897085  0.83680817  1
  Ag  Ag45  1  0.16577866  0.50454393  0.67107268  1
  Ag  Ag46  1  0.16488876  0.33802743  0.50286156  1
  Ag  Ag47  1  0.50980023  0.51060979  -0.00538345  1
  Ag  Ag48  1  0.00186291  0.49976760  0.50483793  1
  Ag  Ag49  1  0.82780572  0.50394346  -0.00462606  1
  Ag  Ag50  1  0.50419148  0.82993130  -0.00679912  1
  Ag  Ag51  1  -0.00023854  -0.00372162  -0.00084771  1
  Ag  Ag52  1  0.34113514  0.67202289  0.33068408  1
  Ag  Ag53  1  0.49879255  -0.01025541  0.16455360  1
  Sb  Sb54  1  0.17028060  0.82768343  0.33140883  1
  Sb  Sb55  1  0.66830085  -0.00612119  -0.00477728  1
  Sb  Sb56  1  0.83012750  -0.00428494  0.16333223  1
  Sb  Sb57  1  0.66983456  0.50151564  0.49986222  1
  Sb  Sb58  1  0.34202393  0.66628479  0.00140832  1
  Sb  Sb59  1  0.50082293  0.33533464  0.16392152  1
  Sb  Sb60  1  -0.00644195  -0.00129385  0.67413519  1
  Sb  Sb61  1  0.16604758  0.16738314  0.66681203  1
  Sb  Sb62  1  0.16745737  0.66983368  0.16438008  1
  Sb  Sb63  1  0.65994436  -0.00395280  0.33704768  1
  Sb  Sb64  1  0.83056097  0.66367107  0.50063889  1
  Sb  Sb65  1  0.50622294  0.16401215  -0.00330955  1
  Sb  Sb66  1  0.49967044  0.83686995  0.33054893  1
  Sb  Sb67  1  0.82528896  0.82905125  0.67531620  1
  Sb  Sb68  1  0.16490070  0.17021513  0.33311160  1
  Sb  Sb69  1  0.33448905  0.50697824  0.15924911  1
  Sb  Sb70  1  -0.00117785  0.83025511  0.15877267  1
  Sb  Sb71  1  0.34070843  -0.00252092  0.66494090  1
  Sb  Sb72  1  0.17053357  -0.00490006  0.83659987  1
  Sb  Sb73  1  0.16765915  0.66680244  0.83440222  1
  Sb  Sb74  1  0.34106294  0.16338726  0.50069060  1
  Sb  Sb75  1  -0.00917126  0.17153934  0.50093801  1
  Sb  Sb76  1  0.33799972  0.16584225  0.83284735  1
  Sb  Sb77  1  0.66798728  0.33558560  0.32984450  1
  Sb  Sb78  1  0.82704308  -0.00208395  0.83530610  1
  Sb  Sb79  1  0.50178472  0.33779450  0.83342957  1
  Sb  Sb80  1  0.17347040  0.00096825  0.49614343  1
  Sb  Sb81  1  0.16710510  0.66279763  0.50006244  1
  Sb  Sb82  1  0.32950375  0.50431976  0.50600189  1
  Sb  Sb83  1  0.83016258  0.83427447  0.32764700  1
  Sb  Sb84  1  -0.00848291  0.66820360  0.00132432  1
  Sb  Sb85  1  0.00428559  -0.00391081  0.32640170  1
  Sb  Sb86  1  0.16140912  0.16750845  -0.00032561  1
  Sb  Sb87  1  0.50145518  0.67314383  0.50043292  1
  Sb  Sb88  1  0.49677974  0.50126687  0.33207051  1
  Sb  Sb89  1  0.16797178  0.33755803  0.83097798  1
  Sb  Sb90  1  0.83290628  0.33757188  0.16726591  1
  Sb  Sb91  1  0.16665013  0.33376845  0.16694247  1
  Sb  Sb92  1  0.33245614  -0.00287718  0.00232854  1
  Sb  Sb93  1  -0.00086437  0.33863363  0.33382529  1
  Sb  Sb94  1  0.66350351  0.33360695  0.67350931  1
  Sb  Sb95  1  0.00139277  0.33654770  0.66739489  1
  Sb  Sb96  1  -0.00488491  0.66393939  0.66814803  1
  Sb  Sb97  1  0.66624934  0.50722675  0.83709022  1
  Sb  Sb98  1  0.66941741  0.16211907  0.16427654  1
  Sb  Sb99  1  0.33947335  0.66636512  0.66653510  1
  Sb  Sb100  1  -0.00068987  0.82860493  0.50685692  1
  Sb  Sb101  1  0.50298755  0.32945917  0.50373250  1
  Sb  Sb102  1  0.33194537  0.16021507  0.16565583  1
  Sb  Sb103  1  0.82637491  0.00384153  0.50104680  1
  Sb  Sb104  1  0.33347958  0.33550172  0.33555948  1
  Sb  Sb105  1  0.83763545  0.50004101  0.33144794  1
  Sb  Sb106  1  0.83068165  0.33609357  0.83131045  1
  Sb  Sb107  1  -0.00261995  0.33525933  -0.00144011  1
  Te  Te108  1  0.16020653  0.16185792  0.16761089  1
  Te  Te109  1  0.16488741  0.17319979  0.49964825  1
  Te  Te110  1  0.15920489  0.16525869  0.83283298  1
  Te  Te111  1  0.16373453  0.49961363  0.16373525  1
  Te  Te112  1  0.16345371  0.49805028  0.50788076  1
  Te  Te113  1  0.16559958  0.50168170  0.83278367  1
  Te  Te114  1  0.16658903  0.83709420  0.16285283  1
  Te  Te115  1  0.16832241  0.83437340  0.50537742  1
  Te  Te116  1  0.16053277  0.83217308  0.83451005  1
  Te  Te117  1  0.50030535  0.16349836  0.16708974  1
  Te  Te118  1  0.50528813  0.16303447  0.50364716  1
  Te  Te119  1  0.50359243  0.16365536  0.82873210  1
  Te  Te120  1  0.50286279  0.50358578  0.16318895  1
  Te  Te121  1  0.49948165  0.49906812  0.50507143  1
  Te  Te122  1  0.49876842  0.50301499  0.83477366  1
  Te  Te123  1  0.49915975  0.83242500  0.16818691  1
  Te  Te124  1  0.50120957  0.83679728  0.49879443  1
  Te  Te125  1  0.50218632  0.83077195  0.83362445  1
  Te  Te126  1  0.83580142  0.16661728  0.16504676  1
  Te  Te127  1  0.82795821  0.16995077  0.50413369  1
  Te  Te128  1  0.83258663  0.16604359  0.83342695  1
  Te  Te129  1  0.83438014  0.50264795  0.16527978  1
  Te  Te130  1  0.83818659  0.49598774  0.50052168  1
  Te  Te131  1  0.83336971  0.50174584  0.83479257  1
  Te  Te132  1  0.83126021  0.82786230  0.15965757  1
  Te  Te133  1  0.82942583  0.83455920  0.50219580  1
  Te  Te134  1  0.83723140  0.83108907  0.83810906  1
  Te  Te135  1  0.16366667  0.00003202  0.00417507  1
  Te  Te136  1  0.17293392  0.00014951  0.32750434  1
  Te  Te137  1  0.16685854  -0.00499848  0.66533769  1
  Te  Te138  1  0.17156146  0.33904007  -0.00057522  1
  Te  Te139  1  0.16739576  0.34075035  0.33855355  1
  Te  Te140  1  0.17145467  0.33612131  0.66392270  1
  Te  Te141  1  0.16705967  0.66642860  -0.00026532  1
  Te  Te142  1  0.16387324  0.66127992  0.33284149  1
  Te  Te143  1  0.16579860  0.66756146  0.66740927  1
  Te  Te144  1  0.49922189  -0.00424018  0.00155545  1
  Te  Te145  1  0.49699854  0.00380953  0.33062660  1
  Te  Te146  1  0.50203572  -0.00398049  0.66723435  1
  Te  Te147  1  0.50096314  0.33520014  0.00025632  1
  Te  Te148  1  0.49979745  0.32455697  0.33378598  1
  Te  Te149  1  0.49544632  0.34359965  0.66706741  1
  Te  Te150  1  0.50302468  0.66849840  -0.00000274  1
  Te  Te151  1  0.50282629  0.66306658  0.33066573  1
  Te  Te152  1  0.50298556  0.66749999  0.66668502  1
  Te  Te153  1  0.83962904  0.00581261  0.00065959  1
  Te  Te154  1  0.83511221  0.00631733  0.33252414  1
  Te  Te155  1  0.82591351  0.00608644  0.66729683  1
  Te  Te156  1  0.82907514  0.33424863  0.00030812  1
  Te  Te157  1  0.83268620  0.32613761  0.33903330  1
  Te  Te158  1  0.83251462  0.33636177  0.66387136  1
  Te  Te159  1  0.83019875  0.66512959  -0.00031914  1
  Te  Te160  1  0.82979749  0.66693134  0.33003482  1
  Te  Te161  1  0.82776554  0.66120499  0.66974240  1
  Te  Te162  1  -0.00339499  0.16810753  -0.00127305  1
  Te  Te163  1  -0.00410949  0.16556600  0.33120214  1
  Te  Te164  1  -0.00441482  0.16583280  0.67156708  1
  Te  Te165  1  0.00000923  0.50030438  -0.00132807  1
  Te  Te166  1  0.00307260  0.50323363  0.33152327  1
  Te  Te167  1  0.00009812  0.50061133  0.66977308  1
  Te  Te168  1  0.00563574  0.83506086  -0.00305551  1
  Te  Te169  1  -0.00000098  0.82664144  0.33666619  1
  Te  Te170  1  0.00173029  0.83232477  0.67259702  1
  Te  Te171  1  0.33361296  0.17517175  -0.00111885  1
  Te  Te172  1  0.33633653  0.16557957  0.33281396  1
  Te  Te173  1  0.33601886  0.17228568  0.66777328  1
  Te  Te174  1  0.33011568  0.50024498  -0.00400860  1
  Te  Te175  1  0.32795719  0.50392937  0.33274988  1
  Te  Te176  1  0.33137270  0.50115162  0.67097633  1
  Te  Te177  1  0.33171866  0.83311106  -0.00147553  1
  Te  Te178  1  0.33169609  0.83126950  0.33441028  1
  Te  Te179  1  0.33630329  0.83259140  0.66817086  1
  Te  Te180  1  0.67219272  0.16139024  -0.00231245  1
  Te  Te181  1  0.66708303  0.16705344  0.33148979  1
  Te  Te182  1  0.66498406  0.17207304  0.66747202  1
  Te  Te183  1  0.66745263  0.50358915  0.00013794  1
  Te  Te184  1  0.66615988  0.50499370  0.32970309  1
  Te  Te185  1  0.66718061  0.50021237  0.66586344  1
  Te  Te186  1  0.66536530  0.83305457  -0.00376869  1
  Te  Te187  1  0.66887944  0.82802051  0.33767344  1
  Te  Te188  1  0.66462465  0.83393428  0.67004433  1
  Te  Te189  1  0.00062868  0.00165813  0.16246399  1
  Te  Te190  1  0.00237760  -0.00032939  0.49829887  1
  Te  Te191  1  0.00145327  -0.00019323  0.83806922  1
  Te  Te192  1  0.00086266  0.33290240  0.16638505  1
  Te  Te193  1  -0.00029022  0.33899600  0.50060932  1
  Te  Te194  1  0.00014820  0.33600063  0.83361278  1
  Te  Te195  1  0.00013632  0.66273131  0.17024845  1
  Te  Te196  1  -0.00146252  0.66049586  0.49432654  1
  Te  Te197  1  -0.00575444  0.66499145  0.83376777  1
  Te  Te198  1  0.33516848  -0.00475753  0.16849244  1
  Te  Te199  1  0.33939693  -0.00415350  0.49460812  1
  Te  Te200  1  0.33933644  -0.00536574  0.83386373  1
  Te  Te201  1  0.33275391  0.33299278  0.16222770  1
  Te  Te202  1  0.33058777  0.33336457  0.50367724  1
  Te  Te203  1  0.33421468  0.33545169  0.83300401  1
  Te  Te204  1  0.33425226  0.67277602  0.17172833  1
  Te  Te205  1  0.33387617  0.67314165  0.49225339  1
  Te  Te206  1  0.33888511  0.66710078  0.83274027  1
  Te  Te207  1  0.66194354  -0.00701656  0.16836063  1
  Te  Te208  1  0.66218770  -0.00044008  0.50344345  1
  Te  Te209  1  0.66186069  -0.00266374  0.82978483  1
  Te  Te210  1  0.66702322  0.33604657  0.16014790  1
  Te  Te211  1  0.67028377  0.33000828  0.49798232  1
  Te  Te212  1  0.66640884  0.31993802  0.84038069  1
  Te  Te213  1  0.66619284  0.66954118  0.16123158  1
  Te  Te214  1  0.66680226  0.67035345  0.50919526  1
  Te  Te215  1  0.66708562  0.66808214  0.83444692  1
