# generated using pymatgen
data_AgSbTe2
_symmetry_space_group_name_H-M   'P 1'
_cell_length_a   18.34190690
_cell_length_b   18.33674504
_cell_length_c   18.34088644
_cell_angle_alpha   89.99895009
_cell_angle_beta   90.00021759
_cell_angle_gamma   90.00322983
_symmetry_Int_Tables_number   1
_chemical_formula_structural   AgSbTe2
_chemical_formula_sum   'Ag54 Sb54 Te108'
_cell_volume   6168.60628670
_cell_formula_units_Z   54
loop_
 _symmetry_equiv_pos_site_id
 _symmetry_equiv_pos_as_xyz
  1  'x, y, z'
loop_
 _atom_site_type_symbol
 _atom_site_label
 _atom_site_symmetry_multiplicity
 _atom_site_fract_x
 _atom_site_fract_y
 _atom_site_fract_z
 _atom_site_occupancy
  Ag  Ag0  1  0.16714343  0.83459583  -0.00296412  1
  Ag  Ag1  1  0.67202085  0.50112308  0.17889456  1
  Ag  Ag2  1  0.00298628  -0.00535366  -0.00165961  1
  Ag  Ag3  1  0.32732923  -0.00508160  -0.00197490  1
  Ag  Ag4  1  0.33296884  0.83586609  0.49963175  1
  Ag  Ag5  1  0.50317282  0.49719155  0.65219544  1
  Ag  Ag6  1  0.16124082  0.82764619  0.32956956  1
  Ag  Ag7  1  0.83493890  0.82972203  0.00925484  1
  Ag  Ag8  1  -0.00977626  0.49723431  0.48967970  1
  Ag  Ag9  1  -0.00440630  0.82963804  0.17077481  1
  Ag  Ag10  1  0.50396414  0.65903368  0.49348064  1
  Ag  Ag11  1  -0.00345167  0.66311907  0.33278938  1
  Ag  Ag12  1  0.66165214  0.34748757  0.33441884  1
  Ag  Ag13  1  0.00096529  -0.00207250  0.66335681  1
  Ag  Ag14  1  0.66693128  0.65938048  0.33290855  1
  Ag  Ag15  1  0.16349873  0.67651766  0.83632694  1
  Ag  Ag16  1  0.50696104  0.34003627  0.18003608  1
  Ag  Ag17  1  0.82315160  0.34189926  0.49139396  1
  Ag  Ag18  1  0.66772050  0.33730272  0.01741316  1
  Ag  Ag19  1  0.83949996  0.82473549  0.32947580  1
  Ag  Ag20  1  0.66848345  0.49760195  0.49030204  1
  Ag  Ag21  1  0.16634628  -0.00704228  0.82931805  1
  Ag  Ag22  1  0.33598477  0.16732608  0.17846207  1
  Ag  Ag23  1  0.66305835  0.33396404  0.65485694  1
  Ag  Ag24  1  0.82994032  0.66245631  0.49018410  1
  Ag  Ag25  1  0.67176040  0.82621386  0.17138255  1
  Ag  Ag26  1  0.83210545  0.50675016  0.01387459  1
  Ag  Ag27  1  0.49696377  0.83433374  -0.00045288  1
  Ag  Ag28  1  0.16429388  -0.00454729  0.50069480  1
  Ag  Ag29  1  -0.00989070  0.50743956  0.17848429  1
  Ag  Ag30  1  0.34772572  0.34218095  0.33345213  1
  Ag  Ag31  1  0.50004326  0.66412749  0.17771366  1
  Ag  Ag32  1  0.16724638  0.33671317  0.83370506  1
  Ag  Ag33  1  0.51860226  0.49293414  0.33616216  1
  Ag  Ag34  1  0.33547227  0.16263789  0.49557778  1
  Ag  Ag35  1  0.49964618  -0.00426807  0.82993535  1
  Ag  Ag36  1  0.49679498  0.83526537  0.66725804  1
  Ag  Ag37  1  0.50118201  0.16531461  0.65621534  1
  Ag  Ag38  1  0.00311523  0.16742747  0.49610978  1
  Ag  Ag39  1  0.82505078  0.34197489  0.17613135  1
  Ag  Ag40  1  -0.00695787  0.34824990  0.33499206  1
  Ag  Ag41  1  0.32823379  0.83599990  0.83180341  1
  Ag  Ag42  1  0.16969278  0.83632925  0.66737210  1
  Ag  Ag43  1  0.66869483  -0.00423797  0.33764559  1
  Ag  Ag44  1  0.50413954  0.34141312  0.49155896  1
  Ag  Ag45  1  0.83274231  0.50298808  0.33174061  1
  Ag  Ag46  1  0.16796115  0.66974587  0.17553031  1
  Ag  Ag47  1  0.49890216  0.18023403  0.33775687  1
  Ag  Ag48  1  0.66441979  -0.00090490  0.66159682  1
  Ag  Ag49  1  0.14722261  0.50764713  0.33405349  1
  Ag  Ag50  1  0.33824177  0.66252607  0.33313081  1
  Ag  Ag51  1  0.83841591  -0.00721376  0.83375192  1
  Ag  Ag52  1  -0.00231315  -0.00569527  0.33457000  1
  Ag  Ag53  1  0.83724820  0.67216452  0.83241125  1
  Sb  Sb54  1  0.82785963  0.50001547  0.65837348  1
  Sb  Sb55  1  0.33367129  -0.00213249  0.33270031  1
  Sb  Sb56  1  0.33376839  0.15945111  0.82975478  1
  Sb  Sb57  1  0.49737498  0.00003004  0.50261984  1
  Sb  Sb58  1  0.66500808  0.83407603  0.83662008  1
  Sb  Sb59  1  0.66285412  0.82950316  0.49328638  1
  Sb  Sb60  1  0.50683410  0.50415791  0.00709132  1
  Sb  Sb61  1  0.49984766  0.16222057  0.00300726  1
  Sb  Sb62  1  0.33790113  0.50131908  0.49404357  1
  Sb  Sb63  1  0.16789098  0.67216147  0.49275628  1
  Sb  Sb64  1  0.83749839  -0.00142066  0.49965033  1
  Sb  Sb65  1  0.16609563  -0.00794935  0.16827243  1
  Sb  Sb66  1  -0.00130893  0.50172890  0.83433665  1
  Sb  Sb67  1  -0.00225526  0.67335678  0.01005646  1
  Sb  Sb68  1  0.33823927  0.33168721  0.65970128  1
  Sb  Sb69  1  0.33251595  0.67342754  0.00529363  1
  Sb  Sb70  1  0.00441915  0.16600136  0.17526787  1
  Sb  Sb71  1  0.66227403  0.17193748  0.17207174  1
  Sb  Sb72  1  0.50049194  0.82816009  0.33320732  1
  Sb  Sb73  1  0.66556437  0.66791375  0.65952361  1
  Sb  Sb74  1  0.33685753  0.49902502  0.17192137  1
  Sb  Sb75  1  0.33472646  -0.00338028  0.66965133  1
  Sb  Sb76  1  0.50089736  -0.00263605  0.16562480  1
  Sb  Sb77  1  0.83401508  0.83468912  0.66475249  1
  Sb  Sb78  1  0.83326711  0.16343162  0.00129898  1
  Sb  Sb79  1  0.49739863  0.32945508  0.82993080  1
  Sb  Sb80  1  0.16056360  0.50676003  0.00679507  1
  Sb  Sb81  1  0.67008315  0.66507878  0.00894049  1
  Sb  Sb82  1  0.66820194  -0.00071724  0.00027588  1
  Sb  Sb83  1  0.83362229  -0.00103348  0.16677334  1
  Sb  Sb84  1  0.16905309  0.50518874  0.66014324  1
  Sb  Sb85  1  0.66301278  0.17309686  0.49760867  1
  Sb  Sb86  1  0.66542451  0.16527573  0.83138699  1
  Sb  Sb87  1  0.00441979  0.83316867  0.49086554  1
  Sb  Sb88  1  0.16726669  0.34055181  0.16949155  1
  Sb  Sb89  1  0.33709815  0.32752478  0.00595623  1
  Sb  Sb90  1  0.83473546  0.33476291  0.83395618  1
  Sb  Sb91  1  0.82802310  0.16473034  0.66331727  1
  Sb  Sb92  1  0.66726813  0.50067980  0.83217416  1
  Sb  Sb93  1  0.33387459  0.67061298  0.65914740  1
  Sb  Sb94  1  0.83202183  0.66270435  0.17343166  1
  Sb  Sb95  1  -0.00389717  0.33119834  0.00694247  1
  Sb  Sb96  1  0.16696210  0.15905425  -0.00010875  1
  Sb  Sb97  1  0.33327856  0.83477754  0.16852813  1
  Sb  Sb98  1  0.16937479  0.33156592  0.49876391  1
  Sb  Sb99  1  0.83017893  0.17144162  0.33466472  1
  Sb  Sb100  1  0.17093065  0.16533638  0.33458355  1
  Sb  Sb101  1  0.00149820  0.16222244  0.82712860  1
  Sb  Sb102  1  0.17094665  0.16028859  0.66361496  1
  Sb  Sb103  1  0.33248087  0.50717251  0.83269231  1
  Sb  Sb104  1  0.49937339  0.67298281  0.83125646  1
  Sb  Sb105  1  0.00098492  0.67267169  0.65968252  1
  Sb  Sb106  1  0.00567298  0.83440367  0.83930382  1
  Sb  Sb107  1  -0.00406421  0.32893908  0.65769399  1
  Te  Te108  1  0.17420047  0.16882806  0.16610108  1
  Te  Te109  1  0.16892700  0.16141536  0.50020190  1
  Te  Te110  1  0.16786256  0.16402809  0.83203035  1
  Te  Te111  1  0.16248794  0.50747461  0.17176508  1
  Te  Te112  1  0.16510031  0.50082119  0.49530927  1
  Te  Te113  1  0.16649993  0.50086434  0.83343658  1
  Te  Te114  1  0.16591856  0.82907168  0.16820374  1
  Te  Te115  1  0.17004717  0.83527866  0.50192734  1
  Te  Te116  1  0.16739838  0.83582892  0.83496707  1
  Te  Te117  1  0.49599165  0.16979428  0.16989471  1
  Te  Te118  1  0.49782715  0.16622283  0.49813708  1
  Te  Te119  1  0.49817841  0.15919547  0.83026010  1
  Te  Te120  1  0.50395696  0.50136841  0.17039568  1
  Te  Te121  1  0.49973712  0.50056141  0.49607366  1
  Te  Te122  1  0.49900108  0.50121733  0.83336676  1
  Te  Te123  1  0.50158975  0.83027025  0.16254940  1
  Te  Te124  1  0.49533586  0.83236980  0.50437779  1
  Te  Te125  1  0.49745830  0.83573765  0.83326083  1
  Te  Te126  1  0.83488312  0.17629841  0.16612649  1
  Te  Te127  1  0.84132375  0.17078949  0.50020073  1
  Te  Te128  1  0.83361553  0.15834690  0.83263331  1
  Te  Te129  1  0.83208451  0.50043964  0.16937549  1
  Te  Te130  1  0.83078688  0.50068004  0.49829651  1
  Te  Te131  1  0.83398933  0.50389216  0.83429978  1
  Te  Te132  1  0.83345805  0.83426268  0.16842057  1
  Te  Te133  1  0.83277647  0.82744580  0.49542238  1
  Te  Te134  1  0.83269783  0.83394316  0.83252900  1
  Te  Te135  1  0.16439247  -0.00540895  -0.00066610  1
  Te  Te136  1  0.16536506  -0.00428507  0.33650147  1
  Te  Te137  1  0.16535864  -0.00344409  0.66708233  1
  Te  Te138  1  0.16651938  0.33407292  -0.00375485  1
  Te  Te139  1  0.15740265  0.33685194  0.33351228  1
  Te  Te140  1  0.16664723  0.33466335  0.67135286  1
  Te  Te141  1  0.16529238  0.67230951  -0.00337521  1
  Te  Te142  1  0.16401536  0.66664887  0.33429213  1
  Te  Te143  1  0.16712674  0.67262003  0.67266602  1
  Te  Te144  1  0.50008873  -0.00482876  -0.00446749  1
  Te  Te145  1  0.50268459  -0.00090268  0.33357807  1
  Te  Te146  1  0.50167857  -0.00275542  0.66855113  1
  Te  Te147  1  0.50527656  0.33371710  -0.00041178  1
  Te  Te148  1  0.50246870  0.33520615  0.33486607  1
  Te  Te149  1  0.50316793  0.33359104  0.66521794  1
  Te  Te150  1  0.50082529  0.67323850  0.00070487  1
  Te  Te151  1  0.50150131  0.66838437  0.33392144  1
  Te  Te152  1  0.50053659  0.66972552  0.66311898  1
  Te  Te153  1  0.83641958  -0.00425535  -0.00381062  1
  Te  Te154  1  0.83279035  -0.00129748  0.33403595  1
  Te  Te155  1  0.83213392  -0.00028311  0.67078764  1
  Te  Te156  1  0.82963409  0.33547805  -0.00032752  1
  Te  Te157  1  0.83334216  0.33122511  0.33508233  1
  Te  Te158  1  0.82674289  0.33241678  0.66409635  1
  Te  Te159  1  0.83403904  0.66914392  -0.00611909  1
  Te  Te160  1  0.83271853  0.66756141  0.33359518  1
  Te  Te161  1  0.83355784  0.66692429  0.67012592  1
  Te  Te162  1  0.00015712  0.15832677  0.00130509  1
  Te  Te163  1  0.00161492  0.15441460  0.33780454  1
  Te  Te164  1  0.00092296  0.16010001  0.65858310  1
  Te  Te165  1  -0.00770457  0.49892816  0.00411816  1
  Te  Te166  1  -0.00760875  0.50356455  0.33385040  1
  Te  Te167  1  0.00135544  0.49883943  0.66125793  1
  Te  Te168  1  -0.00216973  0.83646554  0.00549044  1
  Te  Te169  1  0.00011556  0.83429982  0.33128143  1
  Te  Te170  1  0.00329363  0.83939040  0.66482701  1
  Te  Te171  1  0.33379786  0.15888439  0.00098326  1
  Te  Te172  1  0.33617607  0.16495603  0.33617574  1
  Te  Te173  1  0.34118379  0.16701438  0.65955730  1
  Te  Te174  1  0.33190531  0.49821066  0.00075415  1
  Te  Te175  1  0.33381671  0.50034487  0.33207026  1
  Te  Te176  1  0.34173441  0.50038156  0.66506344  1
  Te  Te177  1  0.33307326  0.83615277  -0.00011770  1
  Te  Te178  1  0.32850005  0.83016912  0.33611807  1
  Te  Te179  1  0.33250248  0.83313829  0.66631984  1
  Te  Te180  1  0.66671254  0.17563378  0.00070807  1
  Te  Te181  1  0.66087338  0.15542808  0.33342541  1
  Te  Te182  1  0.66029912  0.16410015  0.66489854  1
  Te  Te183  1  0.67234925  0.49607864  0.00074788  1
  Te  Te184  1  0.67332305  0.50263792  0.33453729  1
  Te  Te185  1  0.66107851  0.49795266  0.66346973  1
  Te  Te186  1  0.67043290  0.83384138  0.00665949  1
  Te  Te187  1  0.66748625  0.83621801  0.33026466  1
  Te  Te188  1  0.66289041  0.83755167  0.66634881  1
  Te  Te189  1  -0.00009734  -0.00258619  0.16933066  1
  Te  Te190  1  0.00205875  -0.00011566  0.50004472  1
  Te  Te191  1  0.00143506  0.00022741  0.83204044  1
  Te  Te192  1  -0.00164109  0.33490031  0.17188092  1
  Te  Te193  1  0.00161911  0.33353376  0.49622246  1
  Te  Te194  1  0.00436369  0.33122598  0.83264851  1
  Te  Te195  1  0.00366079  0.66784727  0.17150028  1
  Te  Te196  1  -0.00340224  0.66229955  0.49526762  1
  Te  Te197  1  0.00054174  0.66666944  0.83050097  1
  Te  Te198  1  0.33382743  0.00529058  0.16095772  1
  Te  Te199  1  0.32862158  -0.00172424  0.49998101  1
  Te  Te200  1  0.33116960  -0.00445860  0.83683190  1
  Te  Te201  1  0.33685915  0.32911215  0.17125790  1
  Te  Te202  1  0.33744707  0.32919651  0.49372293  1
  Te  Te203  1  0.32839916  0.33327305  0.83473885  1
  Te  Te204  1  0.33397690  0.66633651  0.17181376  1
  Te  Te205  1  0.33802376  0.67096581  0.49348681  1
  Te  Te206  1  0.32928669  0.67385684  0.83416128  1
  Te  Te207  1  0.66715358  -0.00358473  0.16918922  1
  Te  Te208  1  0.66916604  0.00073968  0.50181944  1
  Te  Te209  1  0.66484210  0.00010653  0.83175082  1
  Te  Te210  1  0.66590500  0.33420808  0.17365917  1
  Te  Te211  1  0.66421577  0.33428474  0.49625421  1
  Te  Te212  1  0.66754031  0.33273749  0.82603793  1
  Te  Te213  1  0.66249939  0.66567375  0.17155617  1
  Te  Te214  1  0.66630306  0.66284479  0.49557550  1
  Te  Te215  1  0.67207502  0.66660949  0.83343916  1
