# generated using pymatgen
data_AgSbTe2
_symmetry_space_group_name_H-M   'P 1'
_cell_length_a   18.36086095
_cell_length_b   18.35824264
_cell_length_c   18.36435581
_cell_angle_alpha   90.00082922
_cell_angle_beta   89.99946079
_cell_angle_gamma   89.99870977
_symmetry_Int_Tables_number   1
_chemical_formula_structural   AgSbTe2
_chemical_formula_sum   'Ag54 Sb54 Te108'
_cell_volume   6190.13108457
_cell_formula_units_Z   54
loop_
 _symmetry_equiv_pos_site_id
 _symmetry_equiv_pos_as_xyz
  1  'x, y, z'
loop_
 _atom_site_type_symbol
 _atom_site_label
 _atom_site_symmetry_multiplicity
 _atom_site_fract_x
 _atom_site_fract_y
 _atom_site_fract_z
 _atom_site_occupancy
  Ag  Ag0  1  0.18183618  0.66599223  0.16480369  1
  Ag  Ag1  1  0.50117957  0.33562961  0.15719663  1
  Ag  Ag2  1  0.83184644  0.84258448  0.32609052  1
  Ag  Ag3  1  -0.00672445  0.83149060  0.83419089  1
  Ag  Ag4  1  0.50186823  0.32442057  0.82838821  1
  Ag  Ag5  1  0.17827113  0.17763282  0.67304644  1
  Ag  Ag6  1  0.66621275  0.48225712  0.83488861  1
  Ag  Ag7  1  0.66236001  0.85081691  0.83465279  1
  Ag  Ag8  1  0.49964486  0.65928241  0.15379603  1
  Ag  Ag9  1  0.49880820  0.17262527  -0.00992333  1
  Ag  Ag10  1  -0.00861843  0.49807684  0.83013353  1
  Ag  Ag11  1  0.34287577  0.82644144  0.15488550  1
  Ag  Ag12  1  0.49780542  0.32991765  0.51288381  1
  Ag  Ag13  1  0.49923447  0.48889681  0.66859464  1
  Ag  Ag14  1  0.50115403  0.17063445  0.33424629  1
  Ag  Ag15  1  0.33709491  0.65675834  0.67351730  1
  Ag  Ag16  1  0.49799938  0.17276248  0.67684695  1
  Ag  Ag17  1  0.34120854  0.00644977  -0.00888075  1
  Ag  Ag18  1  0.34332317  0.16707538  0.83456789  1
  Ag  Ag19  1  0.18203429  0.49372722  0.66866838  1
  Ag  Ag20  1  0.82028366  0.00759170  0.83337317  1
  Ag  Ag21  1  0.66146489  0.33216851  -0.00785907  1
  Ag  Ag22  1  0.65442505  0.65544315  0.67863817  1
  Ag  Ag23  1  0.65861958  0.00859889  0.67898482  1
  Ag  Ag24  1  0.33483388  0.66404869  0.32458865  1
  Ag  Ag25  1  0.66240335  0.82861613  0.15259188  1
  Ag  Ag26  1  0.34222733  0.32594940  -0.01158135  1
  Ag  Ag27  1  0.17260554  0.65699442  0.50293113  1
  Ag  Ag28  1  0.33761226  0.33338483  0.34331827  1
  Ag  Ag29  1  0.82475775  0.83444795  -0.00251196  1
  Ag  Ag30  1  0.81940681  0.33081361  0.83129052  1
  Ag  Ag31  1  0.34120741  0.66767809  -0.00319508  1
  Ag  Ag32  1  0.00042128  0.16871001  0.49762102  1
  Ag  Ag33  1  0.81918952  0.33168285  0.16126776  1
  Ag  Ag34  1  0.50461837  0.01017276  0.83277644  1
  Ag  Ag35  1  0.82879179  0.16832154  0.33256854  1
  Ag  Ag36  1  0.34139622  0.01424426  0.67390335  1
  Ag  Ag37  1  0.33288844  0.49730316  0.50616417  1
  Ag  Ag38  1  0.65899709  0.67186080  -0.00638253  1
  Ag  Ag39  1  0.82247664  0.49545013  0.67046606  1
  Ag  Ag40  1  0.49914236  0.01341598  0.51763036  1
  Ag  Ag41  1  0.18226456  0.33250071  0.82676084  1
  Ag  Ag42  1  -0.00370840  0.00560628  0.33374873  1
  Ag  Ag43  1  0.65753485  0.16590571  0.83399910  1
  Ag  Ag44  1  0.66269637  0.49822977  0.15596807  1
  Ag  Ag45  1  0.17860078  0.16926620  -0.01018260  1
  Ag  Ag46  1  0.33726013  0.33438762  0.66889639  1
  Ag  Ag47  1  0.82934169  0.33128300  0.51050622  1
  Ag  Ag48  1  0.65332111  0.33481411  0.67809310  1
  Ag  Ag49  1  0.18111671  0.33467098  0.51131316  1
  Ag  Ag50  1  0.00026069  0.16845018  0.17004252  1
  Ag  Ag51  1  0.66187000  -0.00583086  -0.00717313  1
  Ag  Ag52  1  0.34475723  0.84212182  0.83552917  1
  Ag  Ag53  1  0.50268855  0.66649567  0.83618611  1
  Sb  Sb54  1  0.82968772  0.83120956  0.67257334  1
  Sb  Sb55  1  -0.00204582  0.33136412  -0.00188975  1
  Sb  Sb56  1  0.33363766  0.16703501  0.15917974  1
  Sb  Sb57  1  0.82678148  0.66397307  0.16637254  1
  Sb  Sb58  1  0.50047131  0.49490692  -0.00778405  1
  Sb  Sb59  1  -0.00394407  0.49469207  0.16090745  1
  Sb  Sb60  1  0.17024352  0.83555330  -0.00201557  1
  Sb  Sb61  1  0.00357140  0.66445992  0.66929780  1
  Sb  Sb62  1  0.66290507  0.16836198  0.50624817  1
  Sb  Sb63  1  0.17533328  0.66122798  0.83240293  1
  Sb  Sb64  1  0.50035893  0.00254450  0.15811578  1
  Sb  Sb65  1  0.00072933  0.66843045  -0.00272566  1
  Sb  Sb66  1  0.33405079  0.00294617  0.33313852  1
  Sb  Sb67  1  0.16623892  0.83183875  0.33181867  1
  Sb  Sb68  1  0.49482917  0.66210492  0.50504946  1
  Sb  Sb69  1  0.83639657  0.66187423  0.50158319  1
  Sb  Sb70  1  0.50417731  0.83473389  -0.00444494  1
  Sb  Sb71  1  0.00430619  0.67359065  0.33254829  1
  Sb  Sb72  1  0.83141861  0.00298107  0.16128422  1
  Sb  Sb73  1  0.66131953  0.33237119  0.33331675  1
  Sb  Sb74  1  0.49841382  0.49498112  0.33730944  1
  Sb  Sb75  1  0.17267871  0.33582498  0.16474545  1
  Sb  Sb76  1  0.17017198  0.49557431  -0.00689748  1
  Sb  Sb77  1  0.34183351  0.49410459  0.82770454  1
  Sb  Sb78  1  0.50188069  0.83697228  0.32852495  1
  Sb  Sb79  1  0.33972128  0.50355690  0.16800503  1
  Sb  Sb80  1  0.16978493  0.50030956  0.33811435  1
  Sb  Sb81  1  0.66522999  0.83415959  0.50519308  1
  Sb  Sb82  1  0.17131681  0.00506599  0.50311245  1
  Sb  Sb83  1  0.66190056  0.49707929  0.50780407  1
  Sb  Sb84  1  0.00184490  0.32817911  0.33446871  1
  Sb  Sb85  1  0.33462598  0.82821992  0.50415803  1
  Sb  Sb86  1  0.82684140  0.50110412  -0.00683407  1
  Sb  Sb87  1  0.49970467  0.83701652  0.67046667  1
  Sb  Sb88  1  0.00112672  0.16845846  0.83227231  1
  Sb  Sb89  1  0.82071072  0.66539877  0.83340228  1
  Sb  Sb90  1  0.33493445  0.17441255  0.50971147  1
  Sb  Sb91  1  -0.00096303  0.00283512  0.66697442  1
  Sb  Sb92  1  0.83114146  0.49274669  0.33703155  1
  Sb  Sb93  1  -0.00041782  0.83761769  0.50294776  1
  Sb  Sb94  1  0.82876497  0.00494339  0.50328124  1
  Sb  Sb95  1  -0.00223342  0.83687148  0.16337036  1
  Sb  Sb96  1  0.00238804  0.33283408  0.66846725  1
  Sb  Sb97  1  0.00507355  0.49198367  0.50727218  1
  Sb  Sb98  1  0.82967398  0.16593677  0.00095545  1
  Sb  Sb99  1  0.16806729  -0.00109780  0.16544355  1
  Sb  Sb100  1  0.66061974  0.66844411  0.33000475  1
  Sb  Sb101  1  0.66582131  0.16859990  0.16097137  1
  Sb  Sb102  1  0.66882918  0.00174911  0.33147946  1
  Sb  Sb103  1  0.17013644  0.16879946  0.33519324  1
  Sb  Sb104  1  0.17018679  0.83160442  0.66975370  1
  Sb  Sb105  1  -0.00139898  0.00233038  -0.00049197  1
  Sb  Sb106  1  0.82917911  0.17222640  0.66528993  1
  Sb  Sb107  1  0.17388333  0.00494800  0.83349426  1
  Te  Te108  1  0.16164617  0.16708770  0.16518981  1
  Te  Te109  1  0.16384359  0.17195718  0.50286347  1
  Te  Te110  1  0.16483617  0.17135128  0.83228076  1
  Te  Te111  1  0.16340807  0.50598115  0.16546959  1
  Te  Te112  1  0.16925576  0.49645575  0.50492391  1
  Te  Te113  1  0.16347937  0.49470360  0.82814213  1
  Te  Te114  1  0.16745352  0.82664520  0.16593607  1
  Te  Te115  1  0.16579743  0.82976259  0.50025355  1
  Te  Te116  1  0.16285331  0.83224899  0.83403308  1
  Te  Te117  1  0.50009974  0.17139503  0.17172908  1
  Te  Te118  1  0.49949466  0.16940497  0.49543956  1
  Te  Te119  1  0.49701706  0.16557945  0.83457802  1
  Te  Te120  1  0.50498039  0.50063194  0.17150878  1
  Te  Te121  1  0.49583959  0.49377956  0.50483637  1
  Te  Te122  1  0.50656830  0.50713557  0.82816399  1
  Te  Te123  1  0.50135461  0.83077854  0.16655428  1
  Te  Te124  1  0.50039713  0.83802825  0.49514487  1
  Te  Te125  1  0.50129354  0.82629624  0.83422629  1
  Te  Te126  1  0.83492518  0.17018385  0.16893934  1
  Te  Te127  1  0.83408920  0.16935759  0.49686138  1
  Te  Te128  1  0.83376013  0.16776993  0.83328950  1
  Te  Te129  1  0.82837417  0.49304862  0.16777384  1
  Te  Te130  1  0.83407343  0.49334117  0.50526236  1
  Te  Te131  1  0.82880161  0.49716862  0.82989190  1
  Te  Te132  1  0.82990475  0.83264187  0.16570010  1
  Te  Te133  1  0.83426055  0.83339227  0.49457988  1
  Te  Te134  1  0.82756811  0.83262396  0.83628989  1
  Te  Te135  1  0.17186123  0.00669441  0.00119618  1
  Te  Te136  1  0.16015705  -0.00019692  0.33455238  1
  Te  Te137  1  0.17172952  0.00268746  0.66501685  1
  Te  Te138  1  0.17044484  0.32836388  -0.00152207  1
  Te  Te139  1  0.17438422  0.33414254  0.33419044  1
  Te  Te140  1  0.16511591  0.33430115  0.66689272  1
  Te  Te141  1  0.16881829  0.66699706  0.00382040  1
  Te  Te142  1  0.17227415  0.66773146  0.33262048  1
  Te  Te143  1  0.17179841  0.66254229  0.66385976  1
  Te  Te144  1  0.50038159  0.00609875  -0.00451688  1
  Te  Te145  1  0.49982849  0.00648291  0.32939179  1
  Te  Te146  1  0.49964681  0.00019940  0.67287689  1
  Te  Te147  1  0.49984036  0.33385434  -0.00196765  1
  Te  Te148  1  0.49658310  0.33146629  0.33051107  1
  Te  Te149  1  0.49828351  0.33200097  0.66832168  1
  Te  Te150  1  0.50155099  0.66348059  -0.00167312  1
  Te  Te151  1  0.49335227  0.66892361  0.33885330  1
  Te  Te152  1  0.49844788  0.66949638  0.66677224  1
  Te  Te153  1  0.83081305  -0.00270233  -0.00564262  1
  Te  Te154  1  0.83525927  0.00362561  0.33488491  1
  Te  Te155  1  0.82852312  -0.00060819  0.67219093  1
  Te  Te156  1  0.82794257  0.33352343  -0.00134652  1
  Te  Te157  1  0.83457474  0.32769494  0.33082978  1
  Te  Te158  1  0.83559008  0.33481249  0.67008143  1
  Te  Te159  1  0.83174430  0.67176960  0.00224035  1
  Te  Te160  1  0.83407269  0.66773852  0.33464459  1
  Te  Te161  1  0.83252025  0.66099797  0.66448380  1
  Te  Te162  1  0.00189578  0.16590193  0.00558436  1
  Te  Te163  1  0.00198898  0.16518254  0.33339702  1
  Te  Te164  1  0.00357216  0.16433605  0.66092891  1
  Te  Te165  1  -0.00055354  0.50017318  -0.00804223  1
  Te  Te166  1  -0.00069914  0.50308860  0.33263377  1
  Te  Te167  1  -0.00589089  0.50139731  0.67183858  1
  Te  Te168  1  -0.00579884  0.83519060  -0.00445690  1
  Te  Te169  1  -0.00653336  0.83994622  0.33326584  1
  Te  Te170  1  -0.00076941  0.83398476  0.67255303  1
  Te  Te171  1  0.33646272  0.16690505  -0.00186883  1
  Te  Te172  1  0.33758061  0.16922986  0.32932777  1
  Te  Te173  1  0.33566566  0.16990266  0.66952504  1
  Te  Te174  1  0.33251650  0.50618070  0.00277587  1
  Te  Te175  1  0.33305192  0.49975051  0.33905645  1
  Te  Te176  1  0.33789446  0.49710019  0.66748736  1
  Te  Te177  1  0.33240484  0.82977904  -0.00272105  1
  Te  Te178  1  0.33326972  0.83013543  0.33222294  1
  Te  Te179  1  0.33203569  0.82835830  0.67288445  1
  Te  Te180  1  0.66382007  0.17041057  -0.00213952  1
  Te  Te181  1  0.66887621  0.16544063  0.33131493  1
  Te  Te182  1  0.66298057  0.16973662  0.66990706  1
  Te  Te183  1  0.66665410  0.49825228  -0.00257238  1
  Te  Te184  1  0.66669062  0.50223037  0.32761306  1
  Te  Te185  1  0.66258073  0.49673555  0.66872318  1
  Te  Te186  1  0.66567703  0.83232692  -0.00404448  1
  Te  Te187  1  0.67347921  0.83411655  0.33545674  1
  Te  Te188  1  0.66807760  0.83160802  0.67254886  1
  Te  Te189  1  -0.00001790  0.00474015  0.17082913  1
  Te  Te190  1  -0.00048418  0.00539498  0.49717964  1
  Te  Te191  1  -0.00013395  -0.00460855  0.83350321  1
  Te  Te192  1  0.00056834  0.32982494  0.16645242  1
  Te  Te193  1  -0.00847440  0.32816624  0.49754898  1
  Te  Te194  1  -0.00290307  0.33649720  0.83577560  1
  Te  Te195  1  0.00043250  0.66590712  0.16603855  1
  Te  Te196  1  0.00840402  0.66630823  0.49939869  1
  Te  Te197  1  0.00197067  0.66703871  0.83346004  1
  Te  Te198  1  0.33231446  -0.01059204  0.16386986  1
  Te  Te199  1  0.33956957  -0.00251272  0.50164039  1
  Te  Te200  1  0.33439706  -0.00082476  0.83320271  1
  Te  Te201  1  0.33840491  0.33513027  0.16449377  1
  Te  Te202  1  0.33674969  0.33371106  0.50178469  1
  Te  Te203  1  0.33859430  0.33262993  0.83174690  1
  Te  Te204  1  0.33913404  0.66647637  0.16648878  1
  Te  Te205  1  0.33065944  0.66334260  0.50522889  1
  Te  Te206  1  0.33588685  0.66514803  0.83445482  1
  Te  Te207  1  0.66728709  -0.00819439  0.16123302  1
  Te  Te208  1  0.65943464  0.00014093  0.50266309  1
  Te  Te209  1  0.66523169  0.00572152  0.83470079  1
  Te  Te210  1  0.66300007  0.33441040  0.16746209  1
  Te  Te211  1  0.66736097  0.33349621  0.50126360  1
  Te  Te212  1  0.66407722  0.32777246  0.83312420  1
  Te  Te213  1  0.66117980  0.66668196  0.16444531  1
  Te  Te214  1  0.66869749  0.66592839  0.50311834  1
  Te  Te215  1  0.66368650  0.66573374  0.83372503  1
