# generated using pymatgen
data_AgSbTe2
_symmetry_space_group_name_H-M   'P 1'
_cell_length_a   18.31987405
_cell_length_b   18.32222643
_cell_length_c   18.32114367
_cell_angle_alpha   89.99970601
_cell_angle_beta   89.99926319
_cell_angle_gamma   90.00042110
_symmetry_Int_Tables_number   1
_chemical_formula_structural   AgSbTe2
_chemical_formula_sum   'Ag54 Sb54 Te108'
_cell_volume   6149.69121526
_cell_formula_units_Z   54
loop_
 _symmetry_equiv_pos_site_id
 _symmetry_equiv_pos_as_xyz
  1  'x, y, z'
loop_
 _atom_site_type_symbol
 _atom_site_label
 _atom_site_symmetry_multiplicity
 _atom_site_fract_x
 _atom_site_fract_y
 _atom_site_fract_z
 _atom_site_occupancy
  Ag  Ag0  1  0.83613220  0.82906767  0.34336651  1
  Ag  Ag1  1  0.49279205  0.67464385  0.83410383  1
  Ag  Ag2  1  0.16424679  0.33735720  0.50348159  1
  Ag  Ag3  1  0.83639393  0.49330365  0.65946291  1
  Ag  Ag4  1  0.16636459  -0.00035896  0.49721488  1
  Ag  Ag5  1  -0.00255185  0.50370186  0.17038420  1
  Ag  Ag6  1  0.33594968  0.17285351  0.82503345  1
  Ag  Ag7  1  0.67477251  0.50588139  0.49948659  1
  Ag  Ag8  1  0.50085910  0.16832534  0.66410765  1
  Ag  Ag9  1  0.33830784  0.82990347  0.82837766  1
  Ag  Ag10  1  0.50028295  0.49719388  0.33674823  1
  Ag  Ag11  1  0.83563317  0.50125732  0.33981949  1
  Ag  Ag12  1  0.66712764  0.67040956  0.65963021  1
  Ag  Ag13  1  0.83663018  0.33389959  0.82043162  1
  Ag  Ag14  1  0.16586619  0.00086702  0.18086489  1
  Ag  Ag15  1  0.33179732  0.66826814  -0.00894023  1
  Ag  Ag16  1  0.17397356  0.66224743  0.82649330  1
  Ag  Ag17  1  0.16288395  0.49524641  0.66081747  1
  Ag  Ag18  1  0.67361075  0.82573382  0.50120664  1
  Ag  Ag19  1  0.66171266  0.16634150  0.17186750  1
  Ag  Ag20  1  0.33196493  0.50291968  0.83108652  1
  Ag  Ag21  1  0.49947909  0.66796594  0.16521434  1
  Ag  Ag22  1  0.00122838  0.33515782  0.66067483  1
  Ag  Ag23  1  0.83594552  0.50437691  -0.00358940  1
  Ag  Ag24  1  -0.00708459  0.83543137  0.49902667  1
  Ag  Ag25  1  0.83835572  0.33952336  0.50311711  1
  Ag  Ag26  1  0.82715289  0.17500428  0.66432512  1
  Ag  Ag27  1  0.16231675  0.66311290  0.50314169  1
  Ag  Ag28  1  0.49198972  0.16954389  0.34175242  1
  Ag  Ag29  1  0.00494035  0.00078628  0.33656245  1
  Ag  Ag30  1  0.83705229  -0.00731205  0.50364086  1
  Ag  Ag31  1  0.49663408  0.33168901  0.50427964  1
  Ag  Ag32  1  0.17210931  0.16173353  0.33750772  1
  Ag  Ag33  1  0.83105858  -0.00097675  0.82311629  1
  Ag  Ag34  1  0.66799099  0.66434125  0.34164976  1
  Ag  Ag35  1  0.48903638  0.33213280  0.82335258  1
  Ag  Ag36  1  0.49993464  0.83580132  0.66885562  1
  Ag  Ag37  1  0.33275870  0.83726604  0.50410161  1
  Ag  Ag38  1  0.66657002  -0.00423141  0.66452906  1
  Ag  Ag39  1  0.49890609  -0.00709877  0.82758538  1
  Ag  Ag40  1  -0.00225201  0.82946839  0.17227719  1
  Ag  Ag41  1  0.00014805  0.66877622  -0.00172190  1
  Ag  Ag42  1  0.83467140  0.82803783  -0.00019700  1
  Ag  Ag43  1  0.33402208  0.16486611  0.49904279  1
  Ag  Ag44  1  0.17110478  0.34158680  0.82147310  1
  Ag  Ag45  1  -0.00012260  0.33492698  0.34185584  1
  Ag  Ag46  1  -0.00004317  0.83226811  0.82925184  1
  Ag  Ag47  1  0.33555759  0.16628868  0.18118834  1
  Ag  Ag48  1  0.16053605  0.49569661  0.34335731  1
  Ag  Ag49  1  0.33110684  0.33202856  0.66650417  1
  Ag  Ag50  1  0.83060335  0.66651172  0.49903476  1
  Ag  Ag51  1  0.32499233  0.00365164  0.33709636  1
  Ag  Ag52  1  0.83628516  0.33627938  0.17589155  1
  Ag  Ag53  1  0.50141744  0.82906918  -0.01287266  1
  Sb  Sb54  1  0.67212121  0.33746610  0.33681575  1
  Sb  Sb55  1  0.32998541  0.49649192  0.16501872  1
  Sb  Sb56  1  0.83315111  0.16793079  -0.00490320  1
  Sb  Sb57  1  0.49768247  0.16380371  -0.00418712  1
  Sb  Sb58  1  0.66224906  0.16691598  0.83163577  1
  Sb  Sb59  1  0.49684287  -0.00236892  0.16450365  1
  Sb  Sb60  1  0.16874836  -0.00154423  0.82740717  1
  Sb  Sb61  1  0.17192795  0.17428720  0.66008068  1
  Sb  Sb62  1  0.66891348  -0.00220224  0.34120262  1
  Sb  Sb63  1  0.16058538  0.83541202  0.33801579  1
  Sb  Sb64  1  0.33592232  0.66931791  0.33464749  1
  Sb  Sb65  1  0.16265901  0.33027451  0.17459861  1
  Sb  Sb66  1  -0.00513421  0.00232280  0.66095635  1
  Sb  Sb67  1  0.50179418  0.33476981  0.17214299  1
  Sb  Sb68  1  0.83696466  0.00221813  0.17091919  1
  Sb  Sb69  1  0.33650950  0.66313531  0.67022470  1
  Sb  Sb70  1  0.83400895  0.16867456  0.34001673  1
  Sb  Sb71  1  0.00509760  0.16597391  0.50050714  1
  Sb  Sb72  1  0.83341341  0.66734242  0.82860157  1
  Sb  Sb73  1  0.66731410  -0.00215226  -0.00565722  1
  Sb  Sb74  1  0.66839778  0.33421307  0.00010725  1
  Sb  Sb75  1  0.50244882  0.66430349  0.50248907  1
  Sb  Sb76  1  0.66333771  0.16737996  0.49934716  1
  Sb  Sb77  1  -0.00207970  -0.00978493  0.00385601  1
  Sb  Sb78  1  0.17138448  0.82822018  0.66345248  1
  Sb  Sb79  1  0.50416552  0.50513749  0.00051972  1
  Sb  Sb80  1  0.66780475  0.66828370  -0.00137289  1
  Sb  Sb81  1  0.82939045  0.83260547  0.66342496  1
  Sb  Sb82  1  0.32833198  0.32824620  0.34173661  1
  Sb  Sb83  1  0.33350211  0.33808840  -0.01015741  1
  Sb  Sb84  1  0.49893353  0.00298775  0.50447351  1
  Sb  Sb85  1  0.66467794  0.83320304  0.82513675  1
  Sb  Sb86  1  0.83153712  0.66350452  0.17143141  1
  Sb  Sb87  1  0.67201605  0.49893390  0.17417428  1
  Sb  Sb88  1  0.66493899  0.50063756  0.82618828  1
  Sb  Sb89  1  -0.00401607  0.50097526  0.49592771  1
  Sb  Sb90  1  0.33032318  0.83582646  0.16696075  1
  Sb  Sb91  1  0.00256022  0.50361928  0.83426619  1
  Sb  Sb92  1  0.33216446  0.49935350  0.50429639  1
  Sb  Sb93  1  0.67038976  0.83522875  0.17249795  1
  Sb  Sb94  1  0.33340259  -0.00472735  0.00111623  1
  Sb  Sb95  1  0.16275056  0.50200132  -0.00195413  1
  Sb  Sb96  1  0.16712000  0.66906437  0.16975791  1
  Sb  Sb97  1  0.50317901  0.83363124  0.33823911  1
  Sb  Sb98  1  0.33623575  0.00430584  0.66240964  1
  Sb  Sb99  1  0.16963246  0.16802544  0.00354423  1
  Sb  Sb100  1  0.50111833  0.49816855  0.66371216  1
  Sb  Sb101  1  0.16510322  0.83118229  -0.00204426  1
  Sb  Sb102  1  -0.00201886  0.33990513  -0.00117345  1
  Sb  Sb103  1  0.00408121  0.16503617  0.82919255  1
  Sb  Sb104  1  0.00043944  0.16685476  0.17051260  1
  Sb  Sb105  1  0.66789881  0.33407695  0.66444862  1
  Sb  Sb106  1  -0.00257278  0.66321909  0.66666693  1
  Sb  Sb107  1  -0.00351033  0.66615779  0.33389139  1
  Te  Te108  1  0.17088524  0.16292246  0.17188593  1
  Te  Te109  1  0.17160137  0.16918040  0.49670587  1
  Te  Te110  1  0.17343817  0.16791215  0.83267384  1
  Te  Te111  1  0.16115218  0.49987779  0.17068818  1
  Te  Te112  1  0.16630891  0.49933022  0.50100086  1
  Te  Te113  1  0.16886469  0.50110356  0.83201870  1
  Te  Te114  1  0.16084193  0.83774557  0.16714395  1
  Te  Te115  1  0.17090972  0.83250826  0.50013334  1
  Te  Te116  1  0.16865112  0.83026920  0.83108458  1
  Te  Te117  1  0.49706883  0.16649771  0.16654228  1
  Te  Te118  1  0.49705768  0.16939847  0.50150942  1
  Te  Te119  1  0.49646345  0.16938871  0.83059188  1
  Te  Te120  1  0.50003405  0.50329920  0.17135031  1
  Te  Te121  1  0.49954624  0.49559960  0.49604785  1
  Te  Te122  1  0.49705982  0.49515911  0.83337744  1
  Te  Te123  1  0.50055173  0.82919495  0.16698080  1
  Te  Te124  1  0.49620702  0.83356090  0.50467928  1
  Te  Te125  1  0.50064061  0.83395853  0.83041141  1
  Te  Te126  1  0.83182306  0.17174722  0.16609757  1
  Te  Te127  1  0.83085188  0.16890578  0.50433756  1
  Te  Te128  1  0.83264270  0.16609316  0.82875870  1
  Te  Te129  1  0.83625195  0.49736379  0.17223093  1
  Te  Te130  1  0.83477200  0.50084631  0.49996868  1
  Te  Te131  1  0.83319286  0.49828458  0.83238599  1
  Te  Te132  1  0.83783702  0.83387670  0.16447662  1
  Te  Te133  1  0.83397136  0.83178514  0.50212155  1
  Te  Te134  1  0.83442966  0.83495322  0.83312623  1
  Te  Te135  1  0.16604233  0.00036928  0.00303892  1
  Te  Te136  1  0.16571896  -0.00081963  0.33835238  1
  Te  Te137  1  0.16467400  0.00255928  0.65753301  1
  Te  Te138  1  0.16539896  0.33438127  -0.00887180  1
  Te  Te139  1  0.16190499  0.33612388  0.33755385  1
  Te  Te140  1  0.16474653  0.33452427  0.66477945  1
  Te  Te141  1  0.16722382  0.66625040  -0.00143194  1
  Te  Te142  1  0.16747362  0.65986156  0.33806399  1
  Te  Te143  1  0.16621865  0.65957474  0.66547841  1
  Te  Te144  1  0.50045506  -0.00839765  -0.00722884  1
  Te  Te145  1  0.49881326  0.00468364  0.33213308  1
  Te  Te146  1  0.50184734  0.00152990  0.66970795  1
  Te  Te147  1  0.50099763  0.33467335  -0.00703949  1
  Te  Te148  1  0.49924799  0.33269002  0.33635210  1
  Te  Te149  1  0.50132616  0.33111645  0.66549703  1
  Te  Te150  1  0.50014438  0.66947239  -0.00337095  1
  Te  Te151  1  0.50330417  0.66488132  0.33178395  1
  Te  Te152  1  0.50384162  0.66680912  0.67049170  1
  Te  Te153  1  0.83274411  -0.00488298  -0.00474409  1
  Te  Te154  1  0.83753063  -0.00121272  0.33894198  1
  Te  Te155  1  0.83072024  -0.00005437  0.66416072  1
  Te  Te156  1  0.83422912  0.33731421  -0.00194417  1
  Te  Te157  1  0.83820045  0.33442516  0.33722263  1
  Te  Te158  1  0.83112195  0.33390106  0.66347764  1
  Te  Te159  1  0.83489852  0.66734659  -0.00048547  1
  Te  Te160  1  0.83061051  0.66585231  0.33727211  1
  Te  Te161  1  0.83008578  0.66082489  0.66090670  1
  Te  Te162  1  0.00062153  0.16499412  0.00023491  1
  Te  Te163  1  0.00459083  0.16709211  0.33328081  1
  Te  Te164  1  -0.00943108  0.17388589  0.66691702  1
  Te  Te165  1  -0.00504152  0.50644693  0.00514896  1
  Te  Te166  1  -0.00102406  0.49929076  0.33097766  1
  Te  Te167  1  -0.00014922  0.49563711  0.66831172  1
  Te  Te168  1  -0.00273777  0.82798664  -0.00274244  1
  Te  Te169  1  -0.00446069  0.83331187  0.33562180  1
  Te  Te170  1  0.00175665  0.83336780  0.66712100  1
  Te  Te171  1  0.33345907  0.16544282  -0.00503134  1
  Te  Te172  1  0.33289718  0.16643535  0.33771006  1
  Te  Te173  1  0.33754126  0.17018316  0.66496559  1
  Te  Te174  1  0.33443699  0.50714480  -0.00470678  1
  Te  Te175  1  0.33608612  0.49990734  0.33150717  1
  Te  Te176  1  0.33031414  0.49360694  0.67136319  1
  Te  Te177  1  0.33729424  0.82826686  -0.00112864  1
  Te  Te178  1  0.33406892  0.83846554  0.33671139  1
  Te  Te179  1  0.33812917  0.83434619  0.66659160  1
  Te  Te180  1  0.66562858  0.16576236  0.01010968  1
  Te  Te181  1  0.66173397  0.16638810  0.33165050  1
  Te  Te182  1  0.66404508  0.16047602  0.66650038  1
  Te  Te183  1  0.67678617  0.50154120  0.00152265  1
  Te  Te184  1  0.66794924  0.50323797  0.33849319  1
  Te  Te185  1  0.67086184  0.50461384  0.66034413  1
  Te  Te186  1  0.66918372  0.83329213  0.00351174  1
  Te  Te187  1  0.67239154  0.82985409  0.33992840  1
  Te  Te188  1  0.66290139  0.83290589  0.66059452  1
  Te  Te189  1  0.00388503  -0.00365544  0.17229947  1
  Te  Te190  1  -0.00160504  -0.00235725  0.49665266  1
  Te  Te191  1  -0.00132101  -0.00574689  0.83358776  1
  Te  Te192  1  -0.00410692  0.33663584  0.16771272  1
  Te  Te193  1  0.00014122  0.33237198  0.50053353  1
  Te  Te194  1  -0.00253246  0.33374139  0.83059185  1
  Te  Te195  1  0.00018786  0.66852783  0.16269670  1
  Te  Te196  1  0.00177522  0.67447733  0.50001538  1
  Te  Te197  1  0.00132749  0.67157453  0.83549645  1
  Te  Te198  1  0.32941063  0.00373982  0.17079904  1
  Te  Te199  1  0.33250293  -0.00023104  0.49726884  1
  Te  Te200  1  0.33501844  -0.00538155  0.83289866  1
  Te  Te201  1  0.33218065  0.32695048  0.16205144  1
  Te  Te202  1  0.33324836  0.33249605  0.50513962  1
  Te  Te203  1  0.33170668  0.33368990  0.82883518  1
  Te  Te204  1  0.33653404  0.66641599  0.16348286  1
  Te  Te205  1  0.32879031  0.67120911  0.50181469  1
  Te  Te206  1  0.33311191  0.66811034  0.83179492  1
  Te  Te207  1  0.66661209  0.00446581  0.16780195  1
  Te  Te208  1  0.67078590  -0.00360093  0.50491767  1
  Te  Te209  1  0.66813703  0.00023951  0.82690731  1
  Te  Te210  1  0.67135434  0.32873248  0.16757445  1
  Te  Te211  1  0.66601114  0.33797539  0.49938339  1
  Te  Te212  1  0.67439422  0.33353384  0.83343219  1
  Te  Te213  1  0.66077698  0.66703548  0.17043931  1
  Te  Te214  1  0.66555366  0.66604883  0.50001449  1
  Te  Te215  1  0.66073239  0.66585561  0.82869459  1
