# generated using pymatgen
data_AgSbTe2
_symmetry_space_group_name_H-M   'P 1'
_cell_length_a   18.35300738
_cell_length_b   18.36030461
_cell_length_c   18.35004197
_cell_angle_alpha   90.00340679
_cell_angle_beta   90.00534283
_cell_angle_gamma   90.00147351
_symmetry_Int_Tables_number   1
_chemical_formula_structural   AgSbTe2
_chemical_formula_sum   'Ag54 Sb54 Te108'
_cell_volume   6183.35499434
_cell_formula_units_Z   54
loop_
 _symmetry_equiv_pos_site_id
 _symmetry_equiv_pos_as_xyz
  1  'x, y, z'
loop_
 _atom_site_type_symbol
 _atom_site_label
 _atom_site_symmetry_multiplicity
 _atom_site_fract_x
 _atom_site_fract_y
 _atom_site_fract_z
 _atom_site_occupancy
  Ag  Ag0  1  0.33447515  -0.00463922  0.66854228  1
  Ag  Ag1  1  0.83310651  0.66014253  0.49961605  1
  Ag  Ag2  1  0.32999146  0.67602804  0.00615628  1
  Ag  Ag3  1  0.16336965  0.49497914  0.67266934  1
  Ag  Ag4  1  0.16759839  0.84143651  0.67518206  1
  Ag  Ag5  1  0.32492309  -0.00508674  0.01084493  1
  Ag  Ag6  1  0.34062569  -0.00166412  0.32141201  1
  Ag  Ag7  1  0.83293496  0.17263606  0.67027589  1
  Ag  Ag8  1  0.67230615  0.84089093  0.84432758  1
  Ag  Ag9  1  -0.01076080  0.32627488  0.33556071  1
  Ag  Ag10  1  0.67087930  0.16690899  0.50286350  1
  Ag  Ag11  1  0.82733156  0.17065390  0.33810297  1
  Ag  Ag12  1  -0.00578879  0.84116780  0.84406832  1
  Ag  Ag13  1  0.50109069  0.32008198  0.16993031  1
  Ag  Ag14  1  0.67414704  0.49292778  0.83340106  1
  Ag  Ag15  1  0.16397707  0.16552650  0.32196232  1
  Ag  Ag16  1  0.65623866  0.83736254  0.16063510  1
  Ag  Ag17  1  -0.01345009  0.32917991  0.66740841  1
  Ag  Ag18  1  0.83235764  0.33353403  0.51433015  1
  Ag  Ag19  1  0.16293688  0.15484414  0.00373285  1
  Ag  Ag20  1  0.49097970  -0.00087282  0.16849179  1
  Ag  Ag21  1  -0.00083147  0.83257824  0.50541454  1
  Ag  Ag22  1  0.00213249  0.84162756  0.15667363  1
  Ag  Ag23  1  0.00290762  -0.00630197  0.00061922  1
  Ag  Ag24  1  0.15862851  0.16650653  0.67137337  1
  Ag  Ag25  1  0.83492364  0.48704392  0.66964151  1
  Ag  Ag26  1  0.67592497  0.31889594  0.66610458  1
  Ag  Ag27  1  0.49118331  0.83653755  0.66366090  1
  Ag  Ag28  1  0.16204881  0.50348790  -0.00428126  1
  Ag  Ag29  1  0.33101536  0.67534020  0.66637406  1
  Ag  Ag30  1  0.32678057  0.15382523  0.17011922  1
  Ag  Ag31  1  0.67262077  -0.00406963  -0.00044676  1
  Ag  Ag32  1  0.66168965  0.00313473  0.32472807  1
  Ag  Ag33  1  0.67356175  0.31978720  0.33696906  1
  Ag  Ag34  1  0.33519837  0.67713688  0.32520210  1
  Ag  Ag35  1  0.67753124  0.16052163  0.82671197  1
  Ag  Ag36  1  0.66683072  0.00165129  0.67601387  1
  Ag  Ag37  1  0.33822594  0.84199762  0.16247618  1
  Ag  Ag38  1  0.67601692  0.68088816  -0.00011127  1
  Ag  Ag39  1  -0.00351190  0.16418239  0.83568615  1
  Ag  Ag40  1  0.83565751  0.32376681  0.82584533  1
  Ag  Ag41  1  0.49806859  0.68075472  0.16611488  1
  Ag  Ag42  1  0.00422475  0.16109201  0.15778866  1
  Ag  Ag43  1  0.84261584  0.83239443  -0.00175883  1
  Ag  Ag44  1  0.49788025  0.83990409  0.32459422  1
  Ag  Ag45  1  0.83107658  0.00593346  0.83470671  1
  Ag  Ag46  1  0.15575875  0.32951410  0.83162744  1
  Ag  Ag47  1  0.50979242  0.15817810  0.32795214  1
  Ag  Ag48  1  0.83257310  0.48587003  0.34194450  1
  Ag  Ag49  1  -0.00280007  0.68014655  0.00036318  1
  Ag  Ag50  1  0.15498919  0.83819699  -0.00214973  1
  Ag  Ag51  1  0.83545157  0.50509339  -0.00686041  1
  Ag  Ag52  1  0.17768796  0.00167166  0.16178283  1
  Ag  Ag53  1  0.33059599  0.50266820  0.50139989  1
  Sb  Sb54  1  0.50734205  -0.00171421  0.83791873  1
  Sb  Sb55  1  0.66522632  0.67178936  0.67213438  1
  Sb  Sb56  1  0.66992889  0.83877047  0.49975446  1
  Sb  Sb57  1  0.83335427  0.66710688  0.83242261  1
  Sb  Sb58  1  0.16586046  0.00098316  0.49842570  1
  Sb  Sb59  1  0.50245697  0.66836080  0.49645391  1
  Sb  Sb60  1  0.16538820  0.66532035  0.83522134  1
  Sb  Sb61  1  0.50386264  0.49925335  0.33180877  1
  Sb  Sb62  1  0.00327057  0.66640502  0.32898773  1
  Sb  Sb63  1  0.17097670  0.67670435  0.16219989  1
  Sb  Sb64  1  0.33214192  0.83567861  0.83766058  1
  Sb  Sb65  1  0.16877266  0.32496595  0.16223656  1
  Sb  Sb66  1  0.32926780  0.16326192  0.83762370  1
  Sb  Sb67  1  0.66439144  0.67019858  0.32797804  1
  Sb  Sb68  1  -0.00362478  0.49639987  0.83395942  1
  Sb  Sb69  1  0.83050706  0.33067779  0.16663323  1
  Sb  Sb70  1  0.33248436  0.33134682  0.66614224  1
  Sb  Sb71  1  0.33234777  0.50343810  0.16803136  1
  Sb  Sb72  1  0.00269746  0.66544032  0.67138112  1
  Sb  Sb73  1  0.83084896  0.83735275  0.32925219  1
  Sb  Sb74  1  0.66876805  0.49541874  0.50379969  1
  Sb  Sb75  1  -0.00097893  0.00392118  0.67357362  1
  Sb  Sb76  1  0.50536167  0.15988190  0.66178040  1
  Sb  Sb77  1  0.49648336  0.16334332  0.00610330  1
  Sb  Sb78  1  0.33516673  0.32864149  0.33223433  1
  Sb  Sb79  1  0.32917179  0.83203035  0.49952742  1
  Sb  Sb80  1  0.50167896  0.67188315  0.83858313  1
  Sb  Sb81  1  0.50018471  -0.00068972  0.49229791  1
  Sb  Sb82  1  0.66753194  0.16039761  0.16646812  1
  Sb  Sb83  1  -0.00490929  0.16451182  0.50208914  1
  Sb  Sb84  1  0.50725385  0.33175377  0.49709292  1
  Sb  Sb85  1  0.67057114  0.32933180  -0.00095951  1
  Sb  Sb86  1  0.16479974  0.66748549  0.50144213  1
  Sb  Sb87  1  0.16386620  0.49307733  0.33292723  1
  Sb  Sb88  1  -0.00115692  0.32974582  -0.00222984  1
  Sb  Sb89  1  0.66801711  0.50256074  0.16238546  1
  Sb  Sb90  1  -0.00103584  0.00564988  0.32595337  1
  Sb  Sb91  1  0.15943734  0.33200163  0.50564719  1
  Sb  Sb92  1  0.50713205  0.33066169  0.83540102  1
  Sb  Sb93  1  0.33312756  0.50175219  0.83217651  1
  Sb  Sb94  1  0.17051398  0.84017373  0.32836352  1
  Sb  Sb95  1  -0.00054639  0.49777999  0.16382784  1
  Sb  Sb96  1  0.83680115  0.83570854  0.67221677  1
  Sb  Sb97  1  0.50132650  0.50341088  0.66729698  1
  Sb  Sb98  1  0.50121034  0.50272200  0.00112016  1
  Sb  Sb99  1  0.16153370  0.00324647  0.83904470  1
  Sb  Sb100  1  0.83075977  0.66911123  0.16593651  1
  Sb  Sb101  1  0.50145309  0.83479711  0.00373796  1
  Sb  Sb102  1  0.33032650  0.33139694  0.00169449  1
  Sb  Sb103  1  0.83269118  -0.00049456  0.16068667  1
  Sb  Sb104  1  -0.00113754  0.50138338  0.50185682  1
  Sb  Sb105  1  0.33606776  0.16778216  0.49554358  1
  Sb  Sb106  1  0.83141573  0.00370314  0.50428520  1
  Sb  Sb107  1  0.83683426  0.16285214  -0.00271226  1
  Te  Te108  1  0.16616280  0.16388611  0.16328768  1
  Te  Te109  1  0.16724435  0.16726516  0.51084147  1
  Te  Te110  1  0.16473374  0.16969013  0.83163776  1
  Te  Te111  1  0.16604595  0.49764551  0.16156778  1
  Te  Te112  1  0.16894530  0.49956394  0.50342434  1
  Te  Te113  1  0.16612615  0.49474674  0.83280982  1
  Te  Te114  1  0.16611152  0.84011152  0.16323162  1
  Te  Te115  1  0.16058359  0.83337365  0.50436038  1
  Te  Te116  1  0.16477666  0.83438386  0.83540385  1
  Te  Te117  1  0.49975486  0.16168084  0.17027005  1
  Te  Te118  1  0.50669087  0.16717399  0.48968709  1
  Te  Te119  1  0.50456794  0.16705423  0.83347902  1
  Te  Te120  1  0.49984427  0.49978028  0.16743729  1
  Te  Te121  1  0.49268654  0.49999390  0.49966592  1
  Te  Te122  1  0.50937834  0.49982172  0.83313239  1
  Te  Te123  1  0.49817939  0.83748746  0.16783968  1
  Te  Te124  1  0.50066855  0.83260881  0.50275489  1
  Te  Te125  1  0.50765292  0.83357780  0.82230888  1
  Te  Te126  1  0.84135751  0.16639014  0.16874516  1
  Te  Te127  1  0.83044946  0.17009015  0.50072533  1
  Te  Te128  1  0.83516514  0.16565205  0.83476652  1
  Te  Te129  1  0.83352019  0.50107908  0.16185014  1
  Te  Te130  1  0.83321676  0.49659764  0.50157341  1
  Te  Te131  1  0.83271123  0.50130420  0.83111711  1
  Te  Te132  1  0.83857915  0.83303959  0.16120652  1
  Te  Te133  1  0.83767622  0.83177606  0.49901934  1
  Te  Te134  1  0.83263012  0.83380449  0.83658372  1
  Te  Te135  1  0.16597389  -0.00223892  0.00029642  1
  Te  Te136  1  0.16940659  0.00569684  0.33022723  1
  Te  Te137  1  0.16614577  0.00082552  0.66734084  1
  Te  Te138  1  0.16575017  0.33916798  -0.00537879  1
  Te  Te139  1  0.16440623  0.32745990  0.33425237  1
  Te  Te140  1  0.16761029  0.33219431  0.67068070  1
  Te  Te141  1  0.16967328  0.66654129  -0.00042409  1
  Te  Te142  1  0.17386124  0.66352172  0.33285439  1
  Te  Te143  1  0.17021662  0.66206684  0.66824149  1
  Te  Te144  1  0.49481669  0.00124485  0.00520716  1
  Te  Te145  1  0.49980268  -0.00126347  0.33049999  1
  Te  Te146  1  0.50349042  -0.00387492  0.66679495  1
  Te  Te147  1  0.49958774  0.33382806  0.00723068  1
  Te  Te148  1  0.50443376  0.33199561  0.32981057  1
  Te  Te149  1  0.50726599  0.33387316  0.66634636  1
  Te  Te150  1  0.49123132  0.66529777  0.00561238  1
  Te  Te151  1  0.49609028  0.66915900  0.32884073  1
  Te  Te152  1  0.49493825  0.67143678  0.66582113  1
  Te  Te153  1  0.83160917  -0.00278314  -0.00489042  1
  Te  Te154  1  0.82859812  0.00584601  0.33523126  1
  Te  Te155  1  0.83020715  0.00339784  0.67192398  1
  Te  Te156  1  0.83391979  0.34162800  -0.00471542  1
  Te  Te157  1  0.83205944  0.33080786  0.32735311  1
  Te  Te158  1  0.83094704  0.33177212  0.66978899  1
  Te  Te159  1  0.83348269  0.66714868  0.00022555  1
  Te  Te160  1  0.83365261  0.66711041  0.33700699  1
  Te  Te161  1  0.83430291  0.66505303  0.66091817  1
  Te  Te162  1  0.00305571  0.16519569  -0.00254304  1
  Te  Te163  1  0.00322638  0.16812482  0.33634559  1
  Te  Te164  1  -0.00177206  0.16849769  0.66860079  1
  Te  Te165  1  -0.00024284  0.50158116  -0.00074224  1
  Te  Te166  1  -0.00565052  0.49617489  0.33249305  1
  Te  Te167  1  0.00075583  0.49679640  0.66767077  1
  Te  Te168  1  -0.00081460  0.83550461  0.00000655  1
  Te  Te169  1  0.00109457  0.83322805  0.32909226  1
  Te  Te170  1  0.00492675  0.83302835  0.66717352  1
  Te  Te171  1  0.32709190  0.16268503  0.00506486  1
  Te  Te172  1  0.32845028  0.16249956  0.33211848  1
  Te  Te173  1  0.33497851  0.16343925  0.66521711  1
  Te  Te174  1  0.32870434  0.50293361  -0.00020304  1
  Te  Te175  1  0.33241655  0.50125197  0.33631924  1
  Te  Te176  1  0.33139101  0.49953699  0.66545774  1
  Te  Te177  1  0.33459289  0.83476057  0.00117336  1
  Te  Te178  1  0.33516911  0.83648311  0.33319434  1
  Te  Te179  1  0.32874168  0.83353860  0.66771815  1
  Te  Te180  1  0.66729129  0.16096388  -0.00398075  1
  Te  Te181  1  0.66842154  0.16388994  0.32786414  1
  Te  Te182  1  0.66714317  0.16259336  0.66665844  1
  Te  Te183  1  0.66974341  0.49876676  -0.00460158  1
  Te  Te184  1  0.67271342  0.50106651  0.33385856  1
  Te  Te185  1  0.66961099  0.50385059  0.67093283  1
  Te  Te186  1  0.66168361  0.83588947  0.00062357  1
  Te  Te187  1  0.66183518  0.83827780  0.33102514  1
  Te  Te188  1  0.66804319  0.83811274  0.66632981  1
  Te  Te189  1  -0.00116972  0.00132395  0.16221543  1
  Te  Te190  1  -0.00101684  -0.00715399  0.49876691  1
  Te  Te191  1  -0.00401896  0.00185775  0.83761095  1
  Te  Te192  1  0.00141501  0.32753446  0.17155664  1
  Te  Te193  1  -0.00704749  0.33337068  0.50137945  1
  Te  Te194  1  -0.00324886  0.33083346  0.83061622  1
  Te  Te195  1  0.00168544  0.66922956  0.16133065  1
  Te  Te196  1  -0.00434275  0.67062464  0.49876193  1
  Te  Te197  1  0.00010970  0.67595986  0.83953202  1
  Te  Te198  1  0.33331389  -0.00166768  0.16622121  1
  Te  Te199  1  0.33308544  0.00007008  0.51018064  1
  Te  Te200  1  0.33675875  0.00053873  0.82696906  1
  Te  Te201  1  0.33941587  0.33174074  0.16747295  1
  Te  Te202  1  0.33398398  0.33797401  0.49905638  1
  Te  Te203  1  0.33393326  0.33270258  0.83361526  1
  Te  Te204  1  0.33644622  0.66917548  0.16678701  1
  Te  Te205  1  0.33397901  0.66471722  0.50372287  1
  Te  Te206  1  0.33437982  0.66714548  0.83139186  1
  Te  Te207  1  0.66727276  -0.00325808  0.16544589  1
  Te  Te208  1  0.66638336  0.00584866  0.50017524  1
  Te  Te209  1  0.66898783  0.00013622  0.83645203  1
  Te  Te210  1  0.66256780  0.33397874  0.17001103  1
  Te  Te211  1  0.67232215  0.33002758  0.49906856  1
  Te  Te212  1  0.67101445  0.33199310  0.83154374  1
  Te  Te213  1  0.66176178  0.67188007  0.16056760  1
  Te  Te214  1  0.67113468  0.66669503  0.49948599  1
  Te  Te215  1  0.66640991  0.67061579  0.84015860  1
