# generated using pymatgen
data_AgSbTe2
_symmetry_space_group_name_H-M   'P 1'
_cell_length_a   18.34059502
_cell_length_b   18.33776396
_cell_length_c   18.34315178
_cell_angle_alpha   90.00581738
_cell_angle_beta   90.00344282
_cell_angle_gamma   90.00163059
_symmetry_Int_Tables_number   1
_chemical_formula_structural   AgSbTe2
_chemical_formula_sum   'Ag54 Sb54 Te108'
_cell_volume   6169.26969067
_cell_formula_units_Z   54
loop_
 _symmetry_equiv_pos_site_id
 _symmetry_equiv_pos_as_xyz
  1  'x, y, z'
loop_
 _atom_site_type_symbol
 _atom_site_label
 _atom_site_symmetry_multiplicity
 _atom_site_fract_x
 _atom_site_fract_y
 _atom_site_fract_z
 _atom_site_occupancy
  Ag  Ag0  1  0.84056552  0.33805101  0.49628512  1
  Ag  Ag1  1  0.15956462  0.50177839  0.33520506  1
  Ag  Ag2  1  0.15657064  0.82781853  0.67315940  1
  Ag  Ag3  1  0.83716056  0.66969552  0.83821521  1
  Ag  Ag4  1  0.50970019  0.15493120  0.00256314  1
  Ag  Ag5  1  0.83025164  -0.01056200  0.84002948  1
  Ag  Ag6  1  0.15815419  -0.00443311  0.17103899  1
  Ag  Ag7  1  -0.00253568  0.82537559  0.83398721  1
  Ag  Ag8  1  -0.00108375  0.33817408  0.66202421  1
  Ag  Ag9  1  0.83723842  0.67192158  0.16500738  1
  Ag  Ag10  1  0.50850222  -0.00114638  0.16207124  1
  Ag  Ag11  1  0.15767204  0.50563654  0.67008044  1
  Ag  Ag12  1  -0.00204792  0.50468759  0.83972261  1
  Ag  Ag13  1  0.68008324  0.50696060  0.83382543  1
  Ag  Ag14  1  0.83618386  0.83403737  0.32536019  1
  Ag  Ag15  1  0.67634673  0.66409689  0.33175352  1
  Ag  Ag16  1  0.33822454  -0.00300418  0.00044899  1
  Ag  Ag17  1  0.83683824  0.16294104  0.32682515  1
  Ag  Ag18  1  0.49933678  -0.00155432  0.49780710  1
  Ag  Ag19  1  0.67066572  0.15837575  0.16744420  1
  Ag  Ag20  1  -0.00349208  0.66551529  0.32546515  1
  Ag  Ag21  1  0.67645886  0.83188095  0.83472126  1
  Ag  Ag22  1  0.32231104  0.83242925  0.83398524  1
  Ag  Ag23  1  0.67545801  0.83525430  0.16740526  1
  Ag  Ag24  1  0.83769563  0.49947846  -0.00380390  1
  Ag  Ag25  1  0.83744261  0.50883197  0.67400409  1
  Ag  Ag26  1  -0.00545021  0.82697164  0.17179465  1
  Ag  Ag27  1  -0.00255345  0.16644796  0.83674704  1
  Ag  Ag28  1  0.15623751  0.66705697  0.83294161  1
  Ag  Ag29  1  0.15686614  0.83090216  0.33377139  1
  Ag  Ag30  1  0.67707509  0.34366899  0.33262262  1
  Ag  Ag31  1  0.83200139  0.16868850  0.00564957  1
  Ag  Ag32  1  0.16465727  0.83155304  -0.00550995  1
  Ag  Ag33  1  0.15876275  0.33944845  0.49903647  1
  Ag  Ag34  1  0.16918142  -0.00501506  0.49332782  1
  Ag  Ag35  1  0.16047382  0.34752468  0.82639918  1
  Ag  Ag36  1  0.15794033  0.50767375  -0.00720187  1
  Ag  Ag37  1  0.50871181  -0.00398562  0.84418135  1
  Ag  Ag38  1  0.51549735  0.49993204  0.33152685  1
  Ag  Ag39  1  -0.00350370  0.34056916  0.33741353  1
  Ag  Ag40  1  0.66943403  0.50420217  0.49122259  1
  Ag  Ag41  1  0.32424885  0.50030715  0.49916808  1
  Ag  Ag42  1  -0.00392751  0.83528272  0.49391836  1
  Ag  Ag43  1  0.50748275  0.33207008  0.16755432  1
  Ag  Ag44  1  0.66909330  -0.00508421  0.66739443  1
  Ag  Ag45  1  0.15754906  0.16301289  0.33300965  1
  Ag  Ag46  1  -0.00510800  0.50659068  0.16304589  1
  Ag  Ag47  1  0.67624353  0.83144488  0.49678355  1
  Ag  Ag48  1  0.83715063  0.82962509  0.67477647  1
  Ag  Ag49  1  0.83154242  -0.00871572  0.16306049  1
  Ag  Ag50  1  0.32649413  0.66768188  0.66874621  1
  Ag  Ag51  1  0.49632015  0.83644893  -0.00150696  1
  Ag  Ag52  1  0.67522145  0.50142997  0.17245880  1
  Ag  Ag53  1  -0.00155436  0.66659300  0.00086484  1
  Sb  Sb54  1  0.00060884  -0.00697619  -0.00026821  1
  Sb  Sb55  1  0.16562034  0.33302690  0.16995092  1
  Sb  Sb56  1  0.83689500  0.83160215  0.00024001  1
  Sb  Sb57  1  -0.00272842  0.50293189  0.50006195  1
  Sb  Sb58  1  0.33105410  0.16881867  0.49898265  1
  Sb  Sb59  1  0.83467886  0.66686356  0.49846337  1
  Sb  Sb60  1  0.50598317  0.83432191  0.66959968  1
  Sb  Sb61  1  0.15783423  0.67048640  0.16443106  1
  Sb  Sb62  1  0.67358041  0.33468802  0.66156788  1
  Sb  Sb63  1  0.83524582  0.16385409  0.66765285  1
  Sb  Sb64  1  0.50325924  0.16218117  0.67227110  1
  Sb  Sb65  1  0.32907039  0.83515620  0.16262451  1
  Sb  Sb66  1  -0.00349564  -0.00288180  0.66862119  1
  Sb  Sb67  1  0.83094065  0.33492026  0.17204059  1
  Sb  Sb68  1  0.66831765  -0.00338192  0.33269411  1
  Sb  Sb69  1  0.33186518  0.33150525  -0.00039372  1
  Sb  Sb70  1  0.67319599  0.16322398  0.83963312  1
  Sb  Sb71  1  0.66759918  0.66976601  0.66495057  1
  Sb  Sb72  1  0.67590880  0.66722226  0.00293613  1
  Sb  Sb73  1  0.33471834  -0.00689668  0.67074618  1
  Sb  Sb74  1  0.16358312  0.66629338  0.50375082  1
  Sb  Sb75  1  0.33652785  0.16423279  0.16657146  1
  Sb  Sb76  1  0.32791442  0.15948834  0.83625079  1
  Sb  Sb77  1  0.50185593  0.66813167  0.49887447  1
  Sb  Sb78  1  0.83473953  -0.00338154  0.49846045  1
  Sb  Sb79  1  0.00072955  -0.00444444  0.33215576  1
  Sb  Sb80  1  0.50451566  0.67140000  0.83521070  1
  Sb  Sb81  1  0.51268033  0.66974332  0.16708534  1
  Sb  Sb82  1  0.83933444  0.33786003  0.82934212  1
  Sb  Sb83  1  0.16371191  0.16663820  0.66452065  1
  Sb  Sb84  1  0.00004673  0.16535034  0.49946799  1
  Sb  Sb85  1  0.66543374  -0.00512960  0.00023043  1
  Sb  Sb86  1  0.33036500  -0.00118167  0.32984312  1
  Sb  Sb87  1  0.50268051  0.50006199  0.66351422  1
  Sb  Sb88  1  0.32994489  0.33495579  0.33336170  1
  Sb  Sb89  1  0.00020332  0.66546359  0.67127642  1
  Sb  Sb90  1  0.50495222  0.16917669  0.32715367  1
  Sb  Sb91  1  0.32755372  0.66598970  0.33620115  1
  Sb  Sb92  1  -0.00039516  0.34056155  0.00032709  1
  Sb  Sb93  1  0.32976184  0.83060934  0.50472999  1
  Sb  Sb94  1  0.32376055  0.34089581  0.66580965  1
  Sb  Sb95  1  0.50586174  0.83042622  0.33055495  1
  Sb  Sb96  1  0.50013740  0.33084142  0.83774758  1
  Sb  Sb97  1  0.83441854  0.50386594  0.33083391  1
  Sb  Sb98  1  0.32414860  0.67105693  -0.00351811  1
  Sb  Sb99  1  0.50115711  0.33345536  0.49495269  1
  Sb  Sb100  1  0.66851622  0.16455848  0.49402728  1
  Sb  Sb101  1  0.16252943  -0.00708923  0.83443488  1
  Sb  Sb102  1  0.32566516  0.50680038  0.82935576  1
  Sb  Sb103  1  0.66812840  0.33472171  0.00480882  1
  Sb  Sb104  1  0.32915117  0.50058984  0.17041181  1
  Sb  Sb105  1  0.50381273  0.50306024  0.00454254  1
  Sb  Sb106  1  -0.00516188  0.16557286  0.16529923  1
  Sb  Sb107  1  0.16203436  0.16344381  0.00303900  1
  Te  Te108  1  0.16570389  0.16163600  0.17180593  1
  Te  Te109  1  0.16689032  0.16368965  0.49463039  1
  Te  Te110  1  0.15835367  0.16529754  0.83383634  1
  Te  Te111  1  0.16326659  0.49961859  0.16934872  1
  Te  Te112  1  0.16364850  0.49920702  0.50057568  1
  Te  Te113  1  0.16550764  0.50334338  0.83226598  1
  Te  Te114  1  0.16518041  0.83732999  0.16750852  1
  Te  Te115  1  0.16443268  0.83446487  0.49925669  1
  Te  Te116  1  0.16111764  0.83264587  0.83293023  1
  Te  Te117  1  0.50333805  0.16272844  0.16381494  1
  Te  Te118  1  0.49903367  0.16086149  0.49866160  1
  Te  Te119  1  0.50090650  0.16187340  0.84191128  1
  Te  Te120  1  0.50241293  0.50197879  0.16966708  1
  Te  Te121  1  0.50884111  0.49928707  0.49600728  1
  Te  Te122  1  0.49958766  0.49890659  0.83347872  1
  Te  Te123  1  0.50049215  0.83737874  0.16393299  1
  Te  Te124  1  0.50146848  0.83847682  0.49942497  1
  Te  Te125  1  0.50860292  0.83616936  0.83455404  1
  Te  Te126  1  0.83043704  0.16647187  0.16708754  1
  Te  Te127  1  0.83372234  0.16834667  0.49600620  1
  Te  Te128  1  0.83847586  0.16613095  0.83501172  1
  Te  Te129  1  0.83451769  0.50074188  0.16363285  1
  Te  Te130  1  0.82972060  0.49858424  0.50725336  1
  Te  Te131  1  0.83594845  0.49956667  0.83357022  1
  Te  Te132  1  0.83498678  0.83300332  0.16447767  1
  Te  Te133  1  0.83497848  0.83402663  0.49988203  1
  Te  Te134  1  0.83459337  0.83212980  0.83587589  1
  Te  Te135  1  0.16881196  -0.00305562  0.00323538  1
  Te  Te136  1  0.16651262  -0.00312568  0.33273860  1
  Te  Te137  1  0.16757175  -0.00393530  0.66356375  1
  Te  Te138  1  0.16762262  0.33451124  -0.00051287  1
  Te  Te139  1  0.16338274  0.33864355  0.33482843  1
  Te  Te140  1  0.16034628  0.33324130  0.66549268  1
  Te  Te141  1  0.16097524  0.66679305  -0.00255114  1
  Te  Te142  1  0.16205099  0.66690639  0.33149025  1
  Te  Te143  1  0.16503851  0.66671120  0.66922110  1
  Te  Te144  1  0.50161547  -0.00257403  0.00078888  1
  Te  Te145  1  0.49915045  -0.00037477  0.33353646  1
  Te  Te146  1  0.50420170  -0.00020076  0.66210394  1
  Te  Te147  1  0.49844583  0.33326450  0.00620332  1
  Te  Te148  1  0.49976000  0.33746058  0.32941780  1
  Te  Te149  1  0.49825531  0.33141602  0.66745956  1
  Te  Te150  1  0.49450381  0.67317306  -0.00017856  1
  Te  Te151  1  0.50156446  0.66107611  0.33368828  1
  Te  Te152  1  0.49301902  0.66573293  0.66760546  1
  Te  Te153  1  0.83448239  0.00441561  0.00032331  1
  Te  Te154  1  0.83251724  -0.00150245  0.32971674  1
  Te  Te155  1  0.82954230  -0.00411727  0.66757264  1
  Te  Te156  1  0.83265766  0.33176775  -0.00212752  1
  Te  Te157  1  0.83453528  0.33430003  0.33597214  1
  Te  Te158  1  0.83791645  0.33251486  0.65997755  1
  Te  Te159  1  0.83783444  0.66154970  -0.00008658  1
  Te  Te160  1  0.83399940  0.67172326  0.33225058  1
  Te  Te161  1  0.83177570  0.66840269  0.67169107  1
  Te  Te162  1  -0.00531658  0.16819997  -0.00269430  1
  Te  Te163  1  -0.00198893  0.17109945  0.33246567  1
  Te  Te164  1  -0.00036467  0.17254795  0.67340047  1
  Te  Te165  1  0.00025801  0.50186062  0.00124709  1
  Te  Te166  1  0.00052743  0.50151839  0.33361757  1
  Te  Te167  1  -0.00097804  0.49822572  0.66440347  1
  Te  Te168  1  0.00275012  0.82909964  -0.00129286  1
  Te  Te169  1  -0.00167773  0.83443455  0.33131434  1
  Te  Te170  1  -0.00264437  0.83250238  0.66966560  1
  Te  Te171  1  0.33455994  0.16101509  -0.00072278  1
  Te  Te172  1  0.32220398  0.16704783  0.33368092  1
  Te  Te173  1  0.33430539  0.16734740  0.66809043  1
  Te  Te174  1  0.32858694  0.49957120  -0.00020270  1
  Te  Te175  1  0.32610138  0.50084428  0.33819569  1
  Te  Te176  1  0.33115511  0.50539571  0.66177450  1
  Te  Te177  1  0.32975224  0.83611494  -0.00332956  1
  Te  Te178  1  0.32575052  0.83211385  0.33559293  1
  Te  Te179  1  0.32853514  0.82966512  0.67144713  1
  Te  Te180  1  0.66886749  0.16936811  0.00626379  1
  Te  Te181  1  0.67148122  0.16967866  0.32664905  1
  Te  Te182  1  0.66738014  0.16139175  0.66607765  1
  Te  Te183  1  0.66979483  0.50100769  -0.00382467  1
  Te  Te184  1  0.67177653  0.50132866  0.33313438  1
  Te  Te185  1  0.67199911  0.49935946  0.67067726  1
  Te  Te186  1  0.66152051  0.82908860  0.00046290  1
  Te  Te187  1  0.66951978  0.82904727  0.33190320  1
  Te  Te188  1  0.67085509  0.83536207  0.66723971  1
  Te  Te189  1  -0.00174698  -0.00338023  0.16565269  1
  Te  Te190  1  0.00661664  -0.00460358  0.50219455  1
  Te  Te191  1  -0.00642217  -0.00093058  0.83357935  1
  Te  Te192  1  0.00147324  0.33918168  0.17311034  1
  Te  Te193  1  0.00085088  0.33072471  0.49858815  1
  Te  Te194  1  0.00338195  0.34199697  0.83467215  1
  Te  Te195  1  -0.00264431  0.66628291  0.16511319  1
  Te  Te196  1  -0.00030407  0.67561698  0.48816814  1
  Te  Te197  1  -0.00115016  0.66447279  0.83294994  1
  Te  Te198  1  0.33612626  -0.00014562  0.16174072  1
  Te  Te199  1  0.33178294  0.00061361  0.50095689  1
  Te  Te200  1  0.33721872  -0.00603005  0.83768622  1
  Te  Te201  1  0.34309773  0.33242293  0.16655018  1
  Te  Te202  1  0.33002233  0.33924749  0.50053397  1
  Te  Te203  1  0.32755664  0.33155008  0.83258822  1
  Te  Te204  1  0.33825715  0.66603539  0.16727679  1
  Te  Te205  1  0.33456151  0.66060367  0.50391437  1
  Te  Te206  1  0.33299123  0.67361674  0.82956857  1
  Te  Te207  1  0.67014831  -0.00308726  0.16678420  1
  Te  Te208  1  0.66553087  -0.00375010  0.50232209  1
  Te  Te209  1  0.66923026  -0.00100848  0.83175962  1
  Te  Te210  1  0.66536782  0.34019406  0.17007092  1
  Te  Te211  1  0.66891086  0.33492542  0.49428428  1
  Te  Te212  1  0.66545757  0.33631082  0.83065009  1
  Te  Te213  1  0.67532810  0.66683772  0.16960402  1
  Te  Te214  1  0.66711738  0.66939698  0.49679916  1
  Te  Te215  1  0.67246862  0.66610556  0.83255184  1
