# generated using pymatgen
data_AgSbTe2
_symmetry_space_group_name_H-M   'P 1'
_cell_length_a   18.33890538
_cell_length_b   18.33947625
_cell_length_c   18.33385846
_cell_angle_alpha   89.99557470
_cell_angle_beta   90.00050860
_cell_angle_gamma   89.99658606
_symmetry_Int_Tables_number   1
_chemical_formula_structural   AgSbTe2
_chemical_formula_sum   'Ag54 Sb54 Te108'
_cell_volume   6166.15177680
_cell_formula_units_Z   54
loop_
 _symmetry_equiv_pos_site_id
 _symmetry_equiv_pos_as_xyz
  1  'x, y, z'
loop_
 _atom_site_type_symbol
 _atom_site_label
 _atom_site_symmetry_multiplicity
 _atom_site_fract_x
 _atom_site_fract_y
 _atom_site_fract_z
 _atom_site_occupancy
  Ag  Ag0  1  0.82422667  0.32740710  0.49526485  1
  Ag  Ag1  1  0.82200332  0.15972608  0.66151774  1
  Ag  Ag2  1  0.50592680  0.16656822  0.33884635  1
  Ag  Ag3  1  0.00217864  0.50037799  0.17381098  1
  Ag  Ag4  1  0.81938430  -0.00380444  0.82796043  1
  Ag  Ag5  1  0.66348921  0.83802950  0.17707586  1
  Ag  Ag6  1  0.66294891  0.00056311  -0.00506981  1
  Ag  Ag7  1  0.82053091  0.00652047  0.50036144  1
  Ag  Ag8  1  0.82354230  0.16536728  0.34119903  1
  Ag  Ag9  1  0.66844141  0.33045311  0.33760195  1
  Ag  Ag10  1  0.66394215  0.32559748  -0.00050104  1
  Ag  Ag11  1  0.50380835  -0.00149289  0.82159978  1
  Ag  Ag12  1  0.50069767  0.49673792  0.33620194  1
  Ag  Ag13  1  0.33508056  0.16625979  0.83207283  1
  Ag  Ag14  1  0.17455127  0.33211335  0.83119210  1
  Ag  Ag15  1  0.82273376  0.84144774  0.66898572  1
  Ag  Ag16  1  0.00298563  0.16388052  0.83369372  1
  Ag  Ag17  1  0.66557698  0.66970308  0.33721304  1
  Ag  Ag18  1  0.66517171  0.84797205  0.49966850  1
  Ag  Ag19  1  0.82611348  -0.00137272  0.17939623  1
  Ag  Ag20  1  0.50248381  0.33511237  0.17295668  1
  Ag  Ag21  1  0.50592870  0.84556571  0.67128742  1
  Ag  Ag22  1  0.66203725  0.49559383  0.49476683  1
  Ag  Ag23  1  0.16463145  0.33411781  0.49197411  1
  Ag  Ag24  1  0.33379797  0.50305560  0.17713705  1
  Ag  Ag25  1  0.17089859  0.66350209  0.83453627  1
  Ag  Ag26  1  0.34715374  -0.00121470  0.33233992  1
  Ag  Ag27  1  0.16874107  0.16627187  -0.00704586  1
  Ag  Ag28  1  0.34457035  -0.00047980  -0.00367639  1
  Ag  Ag29  1  0.66553557  0.32109737  0.65579381  1
  Ag  Ag30  1  0.33907074  0.66049160  0.33337814  1
  Ag  Ag31  1  0.34843113  0.00090036  0.67131465  1
  Ag  Ag32  1  -0.01271927  0.83393555  0.83375485  1
  Ag  Ag33  1  0.50286044  0.83714017  -0.00577704  1
  Ag  Ag34  1  0.66480750  0.00004219  0.34437541  1
  Ag  Ag35  1  -0.00045884  0.66779665  -0.00374495  1
  Ag  Ag36  1  0.33648753  0.49672234  0.83354674  1
  Ag  Ag37  1  0.50139102  0.67940120  0.82925556  1
  Ag  Ag38  1  0.34228821  0.49869508  0.49076051  1
  Ag  Ag39  1  0.17096334  0.49573801  0.33414021  1
  Ag  Ag40  1  0.66300027  0.00105966  0.65878996  1
  Ag  Ag41  1  -0.00848175  0.65630230  0.33118490  1
  Ag  Ag42  1  0.50071423  0.32916652  0.83389149  1
  Ag  Ag43  1  0.82664922  0.49872639  0.33478448  1
  Ag  Ag44  1  0.16844297  0.17459131  0.33446183  1
  Ag  Ag45  1  0.34252126  0.83412705  0.17032464  1
  Ag  Ag46  1  0.50466221  0.15845252  0.66311554  1
  Ag  Ag47  1  0.82723036  0.83892574  0.33751917  1
  Ag  Ag48  1  0.66721175  0.83778798  0.82879896  1
  Ag  Ag49  1  0.83051629  0.67777136  0.83197686  1
  Ag  Ag50  1  -0.00884791  0.33732816  0.33417319  1
  Ag  Ag51  1  0.66677843  0.16271800  0.49921131  1
  Ag  Ag52  1  0.50863306  -0.00215516  0.50856443  1
  Ag  Ag53  1  0.50422669  0.67038940  0.49819957  1
  Sb  Sb54  1  0.16860095  0.49603730  0.00269782  1
  Sb  Sb55  1  -0.00145908  0.17072682  0.16665902  1
  Sb  Sb56  1  0.66773406  0.67020592  0.00098259  1
  Sb  Sb57  1  -0.00931224  0.00365780  0.33341978  1
  Sb  Sb58  1  -0.00306546  0.49905261  0.49126668  1
  Sb  Sb59  1  -0.00842156  0.16786497  0.50126205  1
  Sb  Sb60  1  0.33801166  0.32847835  -0.00261132  1
  Sb  Sb61  1  0.00355541  0.50198328  0.83852535  1
  Sb  Sb62  1  0.83247324  0.50098883  0.00572683  1
  Sb  Sb63  1  -0.00247785  -0.00355371  -0.00314181  1
  Sb  Sb64  1  0.82463412  0.66693557  0.49883800  1
  Sb  Sb65  1  0.50031866  0.50144934  0.00206832  1
  Sb  Sb66  1  0.82908244  0.49924815  0.66129227  1
  Sb  Sb67  1  -0.00507279  0.33088202  0.66228101  1
  Sb  Sb68  1  0.49922463  0.16203301  -0.00437417  1
  Sb  Sb69  1  0.16945465  0.83461646  0.66997542  1
  Sb  Sb70  1  0.34109863  0.32883932  0.66748558  1
  Sb  Sb71  1  0.33804745  0.33526802  0.33535305  1
  Sb  Sb72  1  0.34087655  0.83607688  0.83550632  1
  Sb  Sb73  1  0.16636192  0.66529557  0.16492495  1
  Sb  Sb74  1  0.17234717  0.00214168  0.83297125  1
  Sb  Sb75  1  0.49996235  0.66618175  0.17158522  1
  Sb  Sb76  1  -0.01082174  0.00117639  0.66928392  1
  Sb  Sb77  1  0.82751008  0.32871943  0.82710654  1
  Sb  Sb78  1  0.17112706  0.83660562  -0.00257416  1
  Sb  Sb79  1  0.16969578  0.16794484  0.66571207  1
  Sb  Sb80  1  0.66586668  0.16011176  0.17570198  1
  Sb  Sb81  1  0.66444635  0.50113825  0.17594102  1
  Sb  Sb82  1  0.66168327  0.50293435  0.82777392  1
  Sb  Sb83  1  -0.00290141  0.66908455  0.66775516  1
  Sb  Sb84  1  0.34045737  0.16961887  0.50116104  1
  Sb  Sb85  1  0.17193917  0.33429847  0.16839125  1
  Sb  Sb86  1  0.83276740  0.16403969  -0.00279124  1
  Sb  Sb87  1  0.16526820  0.83141292  0.33404132  1
  Sb  Sb88  1  -0.00444790  0.82952063  0.16398337  1
  Sb  Sb89  1  -0.00335382  0.33510538  0.00323285  1
  Sb  Sb90  1  0.50525804  0.00085448  0.16939958  1
  Sb  Sb91  1  0.83192422  0.67055643  0.16890604  1
  Sb  Sb92  1  0.17255291  0.66162976  0.49949164  1
  Sb  Sb93  1  0.66519695  0.67566501  0.66094800  1
  Sb  Sb94  1  0.16603165  0.00164355  0.16785145  1
  Sb  Sb95  1  0.33630647  0.16539876  0.16633879  1
  Sb  Sb96  1  0.50830458  0.83482874  0.33567221  1
  Sb  Sb97  1  0.34274989  0.83223839  0.49464789  1
  Sb  Sb98  1  0.82659065  0.32998097  0.17639277  1
  Sb  Sb99  1  0.82563424  0.83452051  -0.00361756  1
  Sb  Sb100  1  0.50549212  0.33160261  0.49903328  1
  Sb  Sb101  1  0.66340735  0.15841587  0.82509528  1
  Sb  Sb102  1  -0.01256310  0.83236613  0.50174620  1
  Sb  Sb103  1  0.50112343  0.49820569  0.66165650  1
  Sb  Sb104  1  0.33291196  0.67085895  0.00194657  1
  Sb  Sb105  1  0.17355845  0.00651169  0.49694919  1
  Sb  Sb106  1  0.33712910  0.67079090  0.66475421  1
  Sb  Sb107  1  0.16904788  0.49782356  0.66197921  1
  Te  Te108  1  0.16719713  0.16722660  0.17084309  1
  Te  Te109  1  0.16599027  0.17308949  0.49677255  1
  Te  Te110  1  0.16936449  0.16875930  0.83203430  1
  Te  Te111  1  0.17042876  0.49968837  0.17187682  1
  Te  Te112  1  0.17041376  0.49611396  0.49535997  1
  Te  Te113  1  0.17061151  0.49811216  0.83385279  1
  Te  Te114  1  0.17221326  0.83382512  0.16560216  1
  Te  Te115  1  0.16492525  0.83280263  0.50208242  1
  Te  Te116  1  0.16287756  0.82838257  0.83351463  1
  Te  Te117  1  0.49947321  0.17441955  0.17399934  1
  Te  Te118  1  0.50367831  0.16456104  0.49948214  1
  Te  Te119  1  0.49775067  0.16537310  0.83236493  1
  Te  Te120  1  0.49610919  0.49816119  0.17033372  1
  Te  Te121  1  0.49989108  0.49959334  0.49678980  1
  Te  Te122  1  0.49658268  0.49519823  0.83383516  1
  Te  Te123  1  0.50104129  0.83255491  0.16273403  1
  Te  Te124  1  0.50525939  0.83321431  0.50289292  1
  Te  Te125  1  0.50121711  0.83686914  0.83204301  1
  Te  Te126  1  0.83446170  0.16006778  0.17137175  1
  Te  Te127  1  0.83095763  0.16656719  0.50068042  1
  Te  Te128  1  0.83725375  0.16329069  0.82956878  1
  Te  Te129  1  0.83654695  0.49996404  0.17325008  1
  Te  Te130  1  0.82938151  0.49680740  0.49414951  1
  Te  Te131  1  0.83317597  0.50241173  0.83362856  1
  Te  Te132  1  0.82965896  0.83791525  0.16996928  1
  Te  Te133  1  0.82583793  0.83382613  0.50072450  1
  Te  Te134  1  0.82979811  0.83566911  0.83375809  1
  Te  Te135  1  0.16899476  0.00615443  0.00114947  1
  Te  Te136  1  0.16549832  0.00293980  0.33300007  1
  Te  Te137  1  0.17245284  0.00047991  0.66390732  1
  Te  Te138  1  0.16550056  0.32740692  -0.00441802  1
  Te  Te139  1  0.16955933  0.33503990  0.33244785  1
  Te  Te140  1  0.16523709  0.33300334  0.67187809  1
  Te  Te141  1  0.16284193  0.66644202  -0.00606062  1
  Te  Te142  1  0.17069056  0.66229600  0.33323960  1
  Te  Te143  1  0.16612137  0.66622824  0.67466964  1
  Te  Te144  1  0.50115455  -0.00169788  0.00409864  1
  Te  Te145  1  0.50441696  0.00115851  0.33289202  1
  Te  Te146  1  0.50285087  0.00166399  0.66547478  1
  Te  Te147  1  0.50453743  0.33271782  -0.00455552  1
  Te  Te148  1  0.50417303  0.33332297  0.33448926  1
  Te  Te149  1  0.50591320  0.32984261  0.67125579  1
  Te  Te150  1  0.50011520  0.67161063  -0.00768746  1
  Te  Te151  1  0.50069714  0.66690026  0.33617659  1
  Te  Te152  1  0.50017199  0.66782160  0.66832917  1
  Te  Te153  1  0.82954261  0.00058245  -0.00895983  1
  Te  Te154  1  0.82991483  0.00088909  0.33800906  1
  Te  Te155  1  0.82912077  -0.00021468  0.66661034  1
  Te  Te156  1  0.82676796  0.33276279  0.00167360  1
  Te  Te157  1  0.83085111  0.33117390  0.33567911  1
  Te  Te158  1  0.82735832  0.33069506  0.65866022  1
  Te  Te159  1  0.83732179  0.66649777  -0.00588868  1
  Te  Te160  1  0.83098225  0.66526340  0.33439678  1
  Te  Te161  1  0.83264000  0.66998925  0.67141030  1
  Te  Te162  1  0.00426554  0.16720278  -0.00412431  1
  Te  Te163  1  0.00486383  0.17126410  0.33353032  1
  Te  Te164  1  -0.00154756  0.16708443  0.67417603  1
  Te  Te165  1  0.00039135  0.50486892  0.00845594  1
  Te  Te166  1  0.00026020  0.49884834  0.33159980  1
  Te  Te167  1  -0.00064507  0.50020152  0.66659346  1
  Te  Te168  1  0.00219022  0.82818448  -0.00417726  1
  Te  Te169  1  -0.00567734  0.83044760  0.33238298  1
  Te  Te170  1  -0.00340733  0.83400209  0.67303022  1
  Te  Te171  1  0.33077620  0.16102891  -0.00303433  1
  Te  Te172  1  0.33210198  0.16320328  0.33371643  1
  Te  Te173  1  0.33887967  0.16142950  0.67014574  1
  Te  Te174  1  0.33301395  0.50095532  -0.00565973  1
  Te  Te175  1  0.33669213  0.49883304  0.33366346  1
  Te  Te176  1  0.33381128  0.50037141  0.67406077  1
  Te  Te177  1  0.33781796  0.83875763  0.00516299  1
  Te  Te178  1  0.33119262  0.83431687  0.32982004  1
  Te  Te179  1  0.33800569  0.84011008  0.66417689  1
  Te  Te180  1  0.66682541  0.16570223  0.00309863  1
  Te  Te181  1  0.66638982  0.16455806  0.33617513  1
  Te  Te182  1  0.66540137  0.16346421  0.66529532  1
  Te  Te183  1  0.66706014  0.49671567  0.00132374  1
  Te  Te184  1  0.66519422  0.50045827  0.33344360  1
  Te  Te185  1  0.66669263  0.49254773  0.65919060  1
  Te  Te186  1  0.66258979  0.83465682  -0.00443777  1
  Te  Te187  1  0.66818831  0.83551640  0.33635402  1
  Te  Te188  1  0.66600051  0.83554669  0.66568623  1
  Te  Te189  1  -0.00849725  -0.00077905  0.16458706  1
  Te  Te190  1  -0.00139504  -0.00094404  0.50114173  1
  Te  Te191  1  0.00272749  -0.00036278  0.83417185  1
  Te  Te192  1  -0.00014214  0.33828905  0.17156609  1
  Te  Te193  1  0.00380009  0.33339049  0.49489200  1
  Te  Te194  1  -0.00063886  0.33105479  0.83431938  1
  Te  Te195  1  -0.00060137  0.66260001  0.17018125  1
  Te  Te196  1  0.00239266  0.66675744  0.49288020  1
  Te  Te197  1  -0.00307499  0.66764211  0.83425590  1
  Te  Te198  1  0.33344643  -0.00189970  0.17090737  1
  Te  Te199  1  0.34007405  0.00061533  0.49275159  1
  Te  Te200  1  0.33723438  0.00193362  0.83491399  1
  Te  Te201  1  0.33995333  0.33924032  0.16435671  1
  Te  Te202  1  0.32699472  0.33867235  0.50274889  1
  Te  Te203  1  0.33459138  0.33080468  0.83295290  1
  Te  Te204  1  0.33326828  0.66579552  0.17052470  1
  Te  Te205  1  0.33947233  0.66179455  0.49570936  1
  Te  Te206  1  0.33586060  0.66716182  0.83335059  1
  Te  Te207  1  0.66934523  -0.00454555  0.16001008  1
  Te  Te208  1  0.66599707  0.00302671  0.49968831  1
  Te  Te209  1  0.66356231  -0.00072023  0.83569856  1
  Te  Te210  1  0.66188007  0.33384661  0.16809462  1
  Te  Te211  1  0.66529449  0.33220307  0.49757521  1
  Te  Te212  1  0.66339572  0.33491217  0.83667666  1
  Te  Te213  1  0.66623127  0.67490177  0.17152083  1
  Te  Te214  1  0.66192333  0.65761261  0.49616015  1
  Te  Te215  1  0.66469301  0.67054117  0.83255637  1
