# generated using pymatgen
data_AgSbTe2
_symmetry_space_group_name_H-M   'P 1'
_cell_length_a   18.32674696
_cell_length_b   18.33826206
_cell_length_c   18.33368515
_cell_angle_alpha   90.00191057
_cell_angle_beta   89.99673357
_cell_angle_gamma   90.00004513
_symmetry_Int_Tables_number   1
_chemical_formula_structural   AgSbTe2
_chemical_formula_sum   'Ag54 Sb54 Te108'
_cell_volume   6161.59751295
_cell_formula_units_Z   54
loop_
 _symmetry_equiv_pos_site_id
 _symmetry_equiv_pos_as_xyz
  1  'x, y, z'
loop_
 _atom_site_type_symbol
 _atom_site_label
 _atom_site_symmetry_multiplicity
 _atom_site_fract_x
 _atom_site_fract_y
 _atom_site_fract_z
 _atom_site_occupancy
  Ag  Ag0  1  -0.00162336  0.00819005  0.66443283  1
  Ag  Ag1  1  0.51057945  0.49905848  0.67522685  1
  Ag  Ag2  1  0.82393488  0.83175786  -0.00024960  1
  Ag  Ag3  1  0.82577701  0.66130128  0.83611579  1
  Ag  Ag4  1  0.66105211  0.33989825  0.00093691  1
  Ag  Ag5  1  0.00148392  0.50097754  0.16689131  1
  Ag  Ag6  1  0.66840211  0.49364802  0.50875259  1
  Ag  Ag7  1  0.33591784  0.32590170  -0.00382745  1
  Ag  Ag8  1  -0.00063709  0.16390165  0.16601019  1
  Ag  Ag9  1  0.16401114  0.33689409  0.16393646  1
  Ag  Ag10  1  0.66660141  0.16850906  0.16479546  1
  Ag  Ag11  1  0.16552984  0.00701889  0.50083729  1
  Ag  Ag12  1  0.66374074  0.00313272  0.66672973  1
  Ag  Ag13  1  0.32407285  0.83176175  0.16058583  1
  Ag  Ag14  1  0.16476489  0.83317359  0.31941144  1
  Ag  Ag15  1  0.50184455  0.00333078  0.50631988  1
  Ag  Ag16  1  0.34001791  0.16738903  0.83769561  1
  Ag  Ag17  1  0.66738912  0.50141567  0.83316567  1
  Ag  Ag18  1  0.66597218  0.82490732  0.16075444  1
  Ag  Ag19  1  0.66866408  0.50479818  0.16199714  1
  Ag  Ag20  1  0.50728142  0.66791372  0.16248972  1
  Ag  Ag21  1  -0.00090140  0.67426465  0.00495049  1
  Ag  Ag22  1  -0.00066675  0.16736558  0.50097462  1
  Ag  Ag23  1  0.83135902  0.17040205  0.66846901  1
  Ag  Ag24  1  0.50821218  0.16438483  0.32501952  1
  Ag  Ag25  1  0.82877001  0.49254112  0.66959744  1
  Ag  Ag26  1  0.00256891  0.32761169  0.66490986  1
  Ag  Ag27  1  0.00778810  -0.00415170  0.00834106  1
  Ag  Ag28  1  0.66417901  0.66463449  -0.00081309  1
  Ag  Ag29  1  0.66764123  0.16858794  0.49967051  1
  Ag  Ag30  1  0.16704589  0.67040853  0.16325368  1
  Ag  Ag31  1  0.34317445  0.67618479  0.00327738  1
  Ag  Ag32  1  0.16347790  0.32893438  0.49949388  1
  Ag  Ag33  1  0.34182007  0.00485416  0.67456714  1
  Ag  Ag34  1  0.66691566  0.82520516  0.84349173  1
  Ag  Ag35  1  0.16314716  0.49941384  0.32910300  1
  Ag  Ag36  1  0.66308567  0.16778338  0.83795105  1
  Ag  Ag37  1  0.33315718  0.00147292  -0.00416340  1
  Ag  Ag38  1  0.16756605  0.83829124  0.00272162  1
  Ag  Ag39  1  0.50243265  0.82939819  0.00290908  1
  Ag  Ag40  1  0.50255723  0.00269800  0.83349383  1
  Ag  Ag41  1  0.16619567  0.33152648  0.83757484  1
  Ag  Ag42  1  0.66553651  0.66469364  0.31608918  1
  Ag  Ag43  1  0.32759831  0.32517343  0.67807979  1
  Ag  Ag44  1  0.00771215  0.83386275  0.16155216  1
  Ag  Ag45  1  0.66447636  0.32912738  0.32504857  1
  Ag  Ag46  1  0.82885528  0.33533398  0.83162171  1
  Ag  Ag47  1  0.49987851  0.16472314  0.00028669  1
  Ag  Ag48  1  0.66567186  0.00571959  0.33518467  1
  Ag  Ag49  1  0.17104634  0.16494900  0.00078510  1
  Ag  Ag50  1  -0.00009942  0.00243769  0.32887712  1
  Ag  Ag51  1  0.50531644  0.50459897  -0.00173616  1
  Ag  Ag52  1  0.66672514  0.65536461  0.67522315  1
  Ag  Ag53  1  -0.00146742  0.49232838  0.49756335  1
  Sb  Sb54  1  0.50184844  -0.00243310  0.16173098  1
  Sb  Sb55  1  0.33384221  0.33204651  0.32968161  1
  Sb  Sb56  1  -0.00594453  0.83575758  0.84365726  1
  Sb  Sb57  1  0.34087635  0.49225215  0.83639753  1
  Sb  Sb58  1  0.83299865  0.49991197  0.33633992  1
  Sb  Sb59  1  0.50236182  0.32912344  0.83442307  1
  Sb  Sb60  1  0.66611020  0.83689998  0.49775280  1
  Sb  Sb61  1  0.33388689  0.00127380  0.33060259  1
  Sb  Sb62  1  0.33332510  0.16389644  0.15814405  1
  Sb  Sb63  1  -0.00437068  0.66816669  0.32674138  1
  Sb  Sb64  1  0.16748779  0.16590949  0.32916068  1
  Sb  Sb65  1  0.49936537  0.83870174  0.32543680  1
  Sb  Sb66  1  0.50490738  0.16804823  0.67014546  1
  Sb  Sb67  1  0.50640578  0.66964643  0.84314377  1
  Sb  Sb68  1  0.50370980  0.83387109  0.67361457  1
  Sb  Sb69  1  0.16370622  0.16770722  0.67074514  1
  Sb  Sb70  1  0.33507160  0.49660202  0.50307102  1
  Sb  Sb71  1  0.82834465  0.16675537  0.33686125  1
  Sb  Sb72  1  0.83510828  0.83398537  0.32442255  1
  Sb  Sb73  1  0.50020765  0.32880776  0.50253792  1
  Sb  Sb74  1  0.83094219  0.66338789  0.50727829  1
  Sb  Sb75  1  0.33280038  0.83697688  0.49497791  1
  Sb  Sb76  1  0.17012257  0.00478260  0.83448026  1
  Sb  Sb77  1  0.34019911  0.84036945  0.84301388  1
  Sb  Sb78  1  0.49966846  0.33525106  0.16203781  1
  Sb  Sb79  1  0.83180774  0.66647778  0.15912717  1
  Sb  Sb80  1  0.83344999  0.00019978  0.16309867  1
  Sb  Sb81  1  0.83048719  0.83500989  0.67406801  1
  Sb  Sb82  1  0.83254772  0.00226429  0.50198094  1
  Sb  Sb83  1  -0.00462883  0.66472447  0.67083379  1
  Sb  Sb84  1  0.33340577  0.16568607  0.50592255  1
  Sb  Sb85  1  0.83052009  0.16262021  -0.00396857  1
  Sb  Sb86  1  0.00097050  0.33194402  -0.00190244  1
  Sb  Sb87  1  0.16955487  0.49774906  0.00557564  1
  Sb  Sb88  1  0.33373411  0.50336924  0.16304718  1
  Sb  Sb89  1  0.82601867  0.00184571  0.83445684  1
  Sb  Sb90  1  0.50394925  0.66953540  0.49513994  1
  Sb  Sb91  1  0.66170087  -0.00204812  -0.00104177  1
  Sb  Sb92  1  0.16406333  0.66382373  0.49097113  1
  Sb  Sb93  1  0.82597988  0.50439175  -0.00475123  1
  Sb  Sb94  1  0.16227552  0.66155730  0.84328247  1
  Sb  Sb95  1  -0.00575491  0.49766578  0.83626073  1
  Sb  Sb96  1  0.66880653  0.33276982  0.67063808  1
  Sb  Sb97  1  0.34072107  0.66784342  0.67710981  1
  Sb  Sb98  1  0.16485031  -0.00239558  0.16652308  1
  Sb  Sb99  1  -0.00340194  0.33001346  0.33517642  1
  Sb  Sb100  1  0.33629946  0.66777059  0.32410939  1
  Sb  Sb101  1  0.00266671  0.84071926  0.49319413  1
  Sb  Sb102  1  0.16328636  0.49616199  0.66291450  1
  Sb  Sb103  1  0.83587776  0.33224726  0.50679556  1
  Sb  Sb104  1  0.50327263  0.49655515  0.33056951  1
  Sb  Sb105  1  0.83272136  0.33377582  0.15976200  1
  Sb  Sb106  1  0.16582161  0.83791730  0.67152346  1
  Sb  Sb107  1  -0.00196645  0.16662963  0.83379369  1
  Te  Te108  1  0.16433387  0.17019952  0.16337677  1
  Te  Te109  1  0.16429385  0.16754962  0.49792457  1
  Te  Te110  1  0.16842060  0.17173573  0.83954698  1
  Te  Te111  1  0.16575904  0.49900961  0.16893538  1
  Te  Te112  1  0.16304190  0.49627650  0.49495622  1
  Te  Te113  1  0.16655038  0.49274252  0.83269360  1
  Te  Te114  1  0.16456411  0.83373609  0.16311770  1
  Te  Te115  1  0.16683045  0.83555633  0.49826741  1
  Te  Te116  1  0.16686032  0.83131677  0.84101800  1
  Te  Te117  1  0.50303667  0.16741143  0.16353118  1
  Te  Te118  1  0.50345733  0.16236459  0.50127527  1
  Te  Te119  1  0.50158158  0.16353834  0.83584739  1
  Te  Te120  1  0.50461265  0.50369853  0.16281490  1
  Te  Te121  1  0.50651141  0.50024640  0.49975631  1
  Te  Te122  1  0.50710125  0.50094233  0.83539371  1
  Te  Te123  1  0.50659862  0.83095678  0.16223566  1
  Te  Te124  1  0.49875010  0.84254836  0.49855386  1
  Te  Te125  1  0.50687946  0.84042266  0.84035774  1
  Te  Te126  1  0.83435985  0.16764885  0.16614679  1
  Te  Te127  1  0.83377516  0.16707814  0.50635169  1
  Te  Te128  1  0.82855243  0.17077107  0.82883344  1
  Te  Te129  1  0.83429627  0.49893880  0.16767500  1
  Te  Te130  1  0.83174316  0.49857618  0.50585383  1
  Te  Te131  1  0.82846716  0.49819925  0.83000576  1
  Te  Te132  1  0.82885351  0.83373187  0.15879799  1
  Te  Te133  1  0.83536884  0.83162568  0.49916382  1
  Te  Te134  1  0.82672982  0.82981540  0.83985430  1
  Te  Te135  1  0.16780256  0.00221295  -0.00081870  1
  Te  Te136  1  0.16568067  -0.00178450  0.33836825  1
  Te  Te137  1  0.16467378  0.00069438  0.66276983  1
  Te  Te138  1  0.16657098  0.33110543  0.00062002  1
  Te  Te139  1  0.16592121  0.33456768  0.33197084  1
  Te  Te140  1  0.16654294  0.33338710  0.66507732  1
  Te  Te141  1  0.16313003  0.66518270  0.00446863  1
  Te  Te142  1  0.16599192  0.66767581  0.32542370  1
  Te  Te143  1  0.16871460  0.66755284  0.66766090  1
  Te  Te144  1  0.49659899  0.00405068  -0.00292465  1
  Te  Te145  1  0.50181728  0.00405546  0.33634041  1
  Te  Te146  1  0.50107983  0.00042446  0.66799547  1
  Te  Te147  1  0.50080016  0.32987659  -0.00058334  1
  Te  Te148  1  0.50462394  0.32778694  0.33333622  1
  Te  Te149  1  0.48989321  0.33887396  0.66663465  1
  Te  Te150  1  0.50197157  0.66691336  0.00315476  1
  Te  Te151  1  0.50517674  0.66754258  0.32686515  1
  Te  Te152  1  0.50457200  0.66241955  0.66497512  1
  Te  Te153  1  0.84726416  -0.00624817  -0.00285179  1
  Te  Te154  1  0.83430685  -0.00078065  0.33414545  1
  Te  Te155  1  0.83286627  0.00299847  0.66805305  1
  Te  Te156  1  0.82881900  0.33170381  -0.00777956  1
  Te  Te157  1  0.82365067  0.33397646  0.33217212  1
  Te  Te158  1  0.83603765  0.33242034  0.67168300  1
  Te  Te159  1  0.83073561  0.66999905  -0.00488122  1
  Te  Te160  1  0.82382603  0.66783423  0.33636620  1
  Te  Te161  1  0.82815580  0.66517996  0.67469439  1
  Te  Te162  1  0.00127287  0.16397757  0.00245838  1
  Te  Te163  1  -0.00044203  0.16290460  0.33302111  1
  Te  Te164  1  -0.00190282  0.16772513  0.66535162  1
  Te  Te165  1  -0.00085861  0.50180367  0.00526360  1
  Te  Te166  1  0.00096217  0.49972488  0.33290449  1
  Te  Te167  1  -0.00468920  0.49899675  0.66381162  1
  Te  Te168  1  0.00662238  0.83417503  0.00343007  1
  Te  Te169  1  0.00311304  0.83697792  0.32572564  1
  Te  Te170  1  -0.00129094  0.83543794  0.66488539  1
  Te  Te171  1  0.33374489  0.16609803  -0.00181811  1
  Te  Te172  1  0.34290996  0.16686170  0.33275890  1
  Te  Te173  1  0.33347303  0.16513247  0.67242982  1
  Te  Te174  1  0.34183711  0.49619796  -0.00008667  1
  Te  Te175  1  0.32670618  0.50005080  0.33476828  1
  Te  Te176  1  0.33697385  0.49941536  0.66827995  1
  Te  Te177  1  0.33447789  0.83455019  0.00173272  1
  Te  Te178  1  0.32681421  0.83341005  0.32480102  1
  Te  Te179  1  0.33446108  0.83856213  0.66882233  1
  Te  Te180  1  0.66579351  0.16362635  0.00064648  1
  Te  Te181  1  0.66702046  0.16556937  0.33369610  1
  Te  Te182  1  0.66826182  0.16640453  0.66467227  1
  Te  Te183  1  0.66570636  0.49916518  0.00103198  1
  Te  Te184  1  0.66605210  0.50153838  0.32821183  1
  Te  Te185  1  0.66815456  0.49547387  0.66743403  1
  Te  Te186  1  0.66410070  0.83787011  0.00049282  1
  Te  Te187  1  0.66692074  0.83355890  0.32900333  1
  Te  Te188  1  0.66697986  0.84021193  0.66755507  1
  Te  Te189  1  -0.00067096  0.00218422  0.16783671  1
  Te  Te190  1  0.00212764  0.00431512  0.50169259  1
  Te  Te191  1  0.00125619  0.00029754  0.82491679  1
  Te  Te192  1  0.00187035  0.33290523  0.16713082  1
  Te  Te193  1  0.00230485  0.33177026  0.50128684  1
  Te  Te194  1  0.00262881  0.33355199  0.82801111  1
  Te  Te195  1  0.00026009  0.66551057  0.16452785  1
  Te  Te196  1  -0.00057252  0.65933937  0.49976436  1
  Te  Te197  1  -0.00616406  0.66659300  0.84025763  1
  Te  Te198  1  0.33414317  -0.00572257  0.16101987  1
  Te  Te199  1  0.33152021  0.00027292  0.50316386  1
  Te  Te200  1  0.33604776  0.00521831  0.83385882  1
  Te  Te201  1  0.32673547  0.33291608  0.16147714  1
  Te  Te202  1  0.32601851  0.33279189  0.50134730  1
  Te  Te203  1  0.33044893  0.32867557  0.83551234  1
  Te  Te204  1  0.33084009  0.66992376  0.16102419  1
  Te  Te205  1  0.33370836  0.66722163  0.50275789  1
  Te  Te206  1  0.33178865  0.66582186  0.84265875  1
  Te  Te207  1  0.66677267  0.00735306  0.17152036  1
  Te  Te208  1  0.66547709  0.00258150  0.50050949  1
  Te  Te209  1  0.66391221  0.00665781  0.83139439  1
  Te  Te210  1  0.66624853  0.32971754  0.16287041  1
  Te  Te211  1  0.66610328  0.33150051  0.49944719  1
  Te  Te212  1  0.66798176  0.33147707  0.83573548  1
  Te  Te213  1  0.66799994  0.66552492  0.16061924  1
  Te  Te214  1  0.66569078  0.66444925  0.51040629  1
  Te  Te215  1  0.66622101  0.66594553  0.83576085  1
