# generated using pymatgen
data_AgSbTe2
_symmetry_space_group_name_H-M   'P 1'
_cell_length_a   18.32706942
_cell_length_b   18.32345826
_cell_length_c   18.32323420
_cell_angle_alpha   89.99818826
_cell_angle_beta   90.00097672
_cell_angle_gamma   90.00172614
_symmetry_Int_Tables_number   1
_chemical_formula_structural   AgSbTe2
_chemical_formula_sum   'Ag54 Sb54 Te108'
_cell_volume   6153.22222641
_cell_formula_units_Z   54
loop_
 _symmetry_equiv_pos_site_id
 _symmetry_equiv_pos_as_xyz
  1  'x, y, z'
loop_
 _atom_site_type_symbol
 _atom_site_label
 _atom_site_symmetry_multiplicity
 _atom_site_fract_x
 _atom_site_fract_y
 _atom_site_fract_z
 _atom_site_occupancy
  Ag  Ag0  1  -0.00068501  0.16589755  0.16672589  1
  Ag  Ag1  1  0.49980073  0.49905874  -0.00295232  1
  Ag  Ag2  1  0.33409755  0.00513650  0.32991587  1
  Ag  Ag3  1  0.83624233  0.16550922  0.66409194  1
  Ag  Ag4  1  0.00209713  0.66376579  0.67873057  1
  Ag  Ag5  1  0.66915450  0.84061484  0.50078915  1
  Ag  Ag6  1  0.66705405  0.83297352  0.15781310  1
  Ag  Ag7  1  0.33251095  0.65325635  0.66844438  1
  Ag  Ag8  1  -0.00641847  0.67097823  -0.00327843  1
  Ag  Ag9  1  0.00372523  0.32768013  0.31904031  1
  Ag  Ag10  1  0.84465947  0.33302035  0.15902218  1
  Ag  Ag11  1  0.15379684  0.82704217  0.00293389  1
  Ag  Ag12  1  -0.00629599  0.82564726  0.84263406  1
  Ag  Ag13  1  0.34009251  -0.00256509  0.00099189  1
  Ag  Ag14  1  -0.00251667  0.00630853  0.32372433  1
  Ag  Ag15  1  0.66791169  0.00052688  0.32852737  1
  Ag  Ag16  1  0.50078529  0.33495283  0.83601504  1
  Ag  Ag17  1  0.16838060  0.66174677  0.16222721  1
  Ag  Ag18  1  0.66660580  -0.00930525  0.00468502  1
  Ag  Ag19  1  0.67479702  0.67278302  -0.00233651  1
  Ag  Ag20  1  0.83127098  0.00302181  0.49909797  1
  Ag  Ag21  1  0.16879207  0.17081156  0.66721446  1
  Ag  Ag22  1  0.49904126  0.33444317  0.16048367  1
  Ag  Ag23  1  0.33477819  0.83688243  0.16289181  1
  Ag  Ag24  1  0.83937684  0.82918671  -0.00093454  1
  Ag  Ag25  1  0.00278072  0.00445724  0.67348110  1
  Ag  Ag26  1  0.16049307  0.50392490  -0.00132291  1
  Ag  Ag27  1  -0.00195278  0.33734513  0.00035847  1
  Ag  Ag28  1  0.17131424  0.49832383  0.67258880  1
  Ag  Ag29  1  0.49757941  0.00415133  0.83863038  1
  Ag  Ag30  1  0.49024143  0.16944073  0.66999696  1
  Ag  Ag31  1  0.15973812  0.33822463  0.16704521  1
  Ag  Ag32  1  0.67242274  0.83214780  0.84185454  1
  Ag  Ag33  1  0.49931614  0.66696531  0.16207051  1
  Ag  Ag34  1  -0.00014088  0.33007940  0.67525801  1
  Ag  Ag35  1  -0.00145077  0.83913317  0.15482086  1
  Ag  Ag36  1  0.83718904  0.33739067  0.83986683  1
  Ag  Ag37  1  0.33706442  0.16724621  0.50857899  1
  Ag  Ag38  1  0.48982581  0.49626911  0.67765869  1
  Ag  Ag39  1  0.33162296  0.49338312  0.51121227  1
  Ag  Ag40  1  0.83663088  0.16401217  0.33679779  1
  Ag  Ag41  1  0.50027650  -0.00097037  0.16032245  1
  Ag  Ag42  1  0.66538158  0.66695222  0.67797350  1
  Ag  Ag43  1  0.33714661  0.16968927  0.82687176  1
  Ag  Ag44  1  0.66160852  0.50537780  0.16187218  1
  Ag  Ag45  1  0.32717142  0.33064497  0.32900525  1
  Ag  Ag46  1  0.16747645  0.49515329  0.31971375  1
  Ag  Ag47  1  -0.00150935  -0.01335389  0.00048178  1
  Ag  Ag48  1  0.00282787  0.50370998  0.83576513  1
  Ag  Ag49  1  0.84063270  0.50582485  -0.00263346  1
  Ag  Ag50  1  0.66727062  0.16049151  0.50216378  1
  Ag  Ag51  1  0.33121290  0.49764267  0.83095173  1
  Ag  Ag52  1  0.33208782  0.00873885  0.66996039  1
  Ag  Ag53  1  0.83646653  0.66367018  0.83789623  1
  Sb  Sb54  1  0.00096524  0.49814943  0.15542597  1
  Sb  Sb55  1  0.17060632  0.00100157  0.83439539  1
  Sb  Sb56  1  0.66878206  0.33512750  0.66913564  1
  Sb  Sb57  1  0.50353710  0.66474527  0.83782584  1
  Sb  Sb58  1  0.16566505  0.83098632  0.32266018  1
  Sb  Sb59  1  0.15977141  0.66424194  0.83933045  1
  Sb  Sb60  1  0.83547201  0.16615626  -0.00094878  1
  Sb  Sb61  1  0.50111731  0.83657375  0.32769635  1
  Sb  Sb62  1  0.49946449  0.16743783  -0.00430571  1
  Sb  Sb63  1  0.83335257  0.83973831  0.32624154  1
  Sb  Sb64  1  0.33801814  0.83711002  0.49807051  1
  Sb  Sb65  1  0.50381431  0.83220984  0.00073968  1
  Sb  Sb66  1  0.32747521  0.33220749  0.66755446  1
  Sb  Sb67  1  0.33272947  0.66874742  -0.00311425  1
  Sb  Sb68  1  0.16704349  -0.00040171  0.16490960  1
  Sb  Sb69  1  0.16467377  0.83081003  0.67403717  1
  Sb  Sb70  1  0.16800109  0.33399980  0.49662214  1
  Sb  Sb71  1  0.00230987  0.16776228  0.83350721  1
  Sb  Sb72  1  0.00466020  0.49870688  0.50806748  1
  Sb  Sb73  1  0.16442486  0.33623036  0.83709355  1
  Sb  Sb74  1  0.49483272  0.49631331  0.32813872  1
  Sb  Sb75  1  0.16392356  0.17042430  0.33593250  1
  Sb  Sb76  1  0.33240326  0.66544730  0.33351054  1
  Sb  Sb77  1  0.66385049  0.16195936  0.82958291  1
  Sb  Sb78  1  0.33005550  0.16401683  0.16615742  1
  Sb  Sb79  1  -0.00499704  0.83671932  0.50202194  1
  Sb  Sb80  1  0.66866711  0.32845906  0.32946419  1
  Sb  Sb81  1  0.83159664  0.00013177  0.83206613  1
  Sb  Sb82  1  0.33045159  0.33209902  0.00198101  1
  Sb  Sb83  1  0.83613900  0.49731865  0.67403432  1
  Sb  Sb84  1  0.83307300  0.66347020  0.15751161  1
  Sb  Sb85  1  0.83133840  0.67178762  0.51161570  1
  Sb  Sb86  1  0.16652547  0.66368704  0.49894333  1
  Sb  Sb87  1  0.16511384  0.16727854  -0.00239890  1
  Sb  Sb88  1  -0.00083727  0.16566993  0.49954123  1
  Sb  Sb89  1  0.83251862  0.00348307  0.16787093  1
  Sb  Sb90  1  0.66739028  0.50469852  0.83998801  1
  Sb  Sb91  1  0.67042684  0.33554774  0.00179605  1
  Sb  Sb92  1  0.00065445  0.66536032  0.32457358  1
  Sb  Sb93  1  0.83439486  0.32833728  0.50072647  1
  Sb  Sb94  1  0.50073785  0.83353887  0.66970352  1
  Sb  Sb95  1  0.50392681  0.00204977  0.50121542  1
  Sb  Sb96  1  0.50008994  0.66499174  0.49965377  1
  Sb  Sb97  1  0.66815406  0.67309024  0.32632193  1
  Sb  Sb98  1  0.84008077  0.49190061  0.32202176  1
  Sb  Sb99  1  0.49657106  0.33222732  0.50435489  1
  Sb  Sb100  1  0.66164175  0.50021757  0.49861949  1
  Sb  Sb101  1  0.16394112  0.00178943  0.50120775  1
  Sb  Sb102  1  0.83298916  0.83717592  0.67395004  1
  Sb  Sb103  1  0.67012528  0.16350107  0.16907850  1
  Sb  Sb104  1  0.33437866  0.50169435  0.16242905  1
  Sb  Sb105  1  0.50117309  0.16632311  0.33589388  1
  Sb  Sb106  1  0.33317617  0.83376616  0.83809244  1
  Sb  Sb107  1  0.66536517  -0.00242036  0.66733293  1
  Te  Te108  1  0.16076470  0.17495351  0.16751186  1
  Te  Te109  1  0.17505020  0.16746817  0.50761926  1
  Te  Te110  1  0.17431814  0.16902277  0.82679382  1
  Te  Te111  1  0.16754508  0.49952539  0.16223851  1
  Te  Te112  1  0.17283368  0.50012101  0.51040034  1
  Te  Te113  1  0.16764176  0.49946556  0.83419190  1
  Te  Te114  1  0.16568551  0.83157823  0.16135952  1
  Te  Te115  1  0.16731774  0.83228596  0.49774442  1
  Te  Te116  1  0.16062780  0.83296215  0.84205067  1
  Te  Te117  1  0.49984947  0.16593843  0.16679974  1
  Te  Te118  1  0.49938547  0.16678600  0.50677625  1
  Te  Te119  1  0.49730672  0.16697785  0.82969218  1
  Te  Te120  1  0.50069050  0.49948195  0.16378805  1
  Te  Te121  1  0.49301564  0.49952902  0.50461237  1
  Te  Te122  1  0.50136014  0.49864099  0.83491007  1
  Te  Te123  1  0.50057446  0.83560984  0.16609441  1
  Te  Te124  1  0.50864473  0.83316876  0.49918203  1
  Te  Te125  1  0.50434609  0.83972674  0.83367724  1
  Te  Te126  1  0.83729760  0.17261145  0.16901160  1
  Te  Te127  1  0.83235048  0.16402164  0.50078672  1
  Te  Te128  1  0.83303110  0.17302385  0.82737979  1
  Te  Te129  1  0.82714569  0.49396632  0.15986702  1
  Te  Te130  1  0.83086642  0.50009367  0.49805762  1
  Te  Te131  1  0.83412266  0.49765844  0.83834230  1
  Te  Te132  1  0.83279006  0.83159637  0.16066987  1
  Te  Te133  1  0.82791999  0.83930568  0.49832441  1
  Te  Te134  1  0.83355432  0.83326974  0.83822382  1
  Te  Te135  1  0.15907376  -0.00102477  0.00038244  1
  Te  Te136  1  0.16543623  -0.00027062  0.33336493  1
  Te  Te137  1  0.16594143  0.00089046  0.66719624  1
  Te  Te138  1  0.16306668  0.33746488  0.00477179  1
  Te  Te139  1  0.16493493  0.33597363  0.33009286  1
  Te  Te140  1  0.16040857  0.33507582  0.66738280  1
  Te  Te141  1  0.16690616  0.66459845  0.00394431  1
  Te  Te142  1  0.16637628  0.65806736  0.32678394  1
  Te  Te143  1  0.16694691  0.66330993  0.66644963  1
  Te  Te144  1  0.49922553  0.00133916  0.00015514  1
  Te  Te145  1  0.49828746  0.00144394  0.32806649  1
  Te  Te146  1  0.49688323  0.00393069  0.66966251  1
  Te  Te147  1  0.50001698  0.33662289  -0.00167303  1
  Te  Te148  1  0.49655548  0.33277127  0.32727566  1
  Te  Te149  1  0.50117928  0.33395058  0.67179157  1
  Te  Te150  1  0.50067124  0.66040753  0.00356940  1
  Te  Te151  1  0.49997002  0.66492528  0.32350619  1
  Te  Te152  1  0.49854269  0.66263655  0.66719601  1
  Te  Te153  1  0.83553152  -0.00221534  -0.00018369  1
  Te  Te154  1  0.83572454  0.00392382  0.33470107  1
  Te  Te155  1  0.83631178  0.00369786  0.66389809  1
  Te  Te156  1  0.83546429  0.33302029  -0.00055220  1
  Te  Te157  1  0.83815084  0.32642419  0.32963724  1
  Te  Te158  1  0.83769543  0.32970749  0.66894048  1
  Te  Te159  1  0.83324280  0.66548282  -0.00251305  1
  Te  Te160  1  0.83498765  0.66473498  0.33785838  1
  Te  Te161  1  0.83470361  0.66732988  0.67669953  1
  Te  Te162  1  0.00068566  0.17379455  0.00425264  1
  Te  Te163  1  -0.00131703  0.16671464  0.33264487  1
  Te  Te164  1  0.00066661  0.16548520  0.66667791  1
  Te  Te165  1  -0.00004803  0.49879160  -0.00352569  1
  Te  Te166  1  0.00659523  0.49625961  0.33764486  1
  Te  Te167  1  0.00116252  0.50086457  0.67341345  1
  Te  Te168  1  -0.00216472  0.83104549  -0.00056858  1
  Te  Te169  1  -0.00015221  0.83727088  0.32993532  1
  Te  Te170  1  0.00062087  0.83455318  0.67034300  1
  Te  Te171  1  0.33141024  0.15847496  -0.00563340  1
  Te  Te172  1  0.33251318  0.16557185  0.33456857  1
  Te  Te173  1  0.33219102  0.16845147  0.66748154  1
  Te  Te174  1  0.33419018  0.50009489  -0.00605954  1
  Te  Te175  1  0.32768596  0.49783335  0.33412453  1
  Te  Te176  1  0.33346764  0.49579175  0.66898893  1
  Te  Te177  1  0.33144752  0.83771231  0.00317605  1
  Te  Te178  1  0.33280947  0.83866719  0.32883075  1
  Te  Te179  1  0.33219707  0.83899934  0.66649398  1
  Te  Te180  1  0.66753209  0.15493240  -0.00025720  1
  Te  Te181  1  0.67104167  0.16104102  0.33769123  1
  Te  Te182  1  0.67147332  0.16629300  0.66225848  1
  Te  Te183  1  0.66433745  0.50111285  0.00356328  1
  Te  Te184  1  0.66732848  0.50109308  0.32832786  1
  Te  Te185  1  0.66513327  0.50649560  0.66391677  1
  Te  Te186  1  0.66653833  0.83319520  0.00104782  1
  Te  Te187  1  0.66742089  0.84058936  0.33289988  1
  Te  Te188  1  0.66720573  0.82787911  0.66595776  1
  Te  Te189  1  -0.00007161  0.00112074  0.16465363  1
  Te  Te190  1  -0.00534285  -0.00002701  0.50208075  1
  Te  Te191  1  0.00014743  -0.00027069  0.83454071  1
  Te  Te192  1  0.00035881  0.33621131  0.16383848  1
  Te  Te193  1  -0.00000661  0.33353566  0.50340315  1
  Te  Te194  1  -0.00160359  0.33418519  0.83484742  1
  Te  Te195  1  0.00314237  0.67129712  0.16111072  1
  Te  Te196  1  -0.00146666  0.66777510  0.50718470  1
  Te  Te197  1  -0.00207932  0.66522030  0.83541009  1
  Te  Te198  1  0.33427268  -0.00112912  0.16570751  1
  Te  Te199  1  0.33443679  0.00279924  0.50082746  1
  Te  Te200  1  0.33682764  -0.00113145  0.83192775  1
  Te  Te201  1  0.33657352  0.33237384  0.16931392  1
  Te  Te202  1  0.33393220  0.33256556  0.49186648  1
  Te  Te203  1  0.33753594  0.33416035  0.83449265  1
  Te  Te204  1  0.33395275  0.67219936  0.16727011  1
  Te  Te205  1  0.33413287  0.66656034  0.50606178  1
  Te  Te206  1  0.33540860  0.66439077  0.82792765  1
  Te  Te207  1  0.66550726  -0.00203175  0.16699627  1
  Te  Te208  1  0.66916998  0.00118657  0.49990751  1
  Te  Te209  1  0.66285763  -0.00542242  0.83612833  1
  Te  Te210  1  0.65943961  0.33413727  0.16650719  1
  Te  Te211  1  0.66534703  0.32720601  0.49878655  1
  Te  Te212  1  0.66461540  0.33218986  0.83422917  1
  Te  Te213  1  0.66546731  0.66899660  0.16216554  1
  Te  Te214  1  0.66592807  0.67041395  0.50008891  1
  Te  Te215  1  0.66973711  0.67043470  0.83640321  1
