# generated using pymatgen
data_AgSbTe2
_symmetry_space_group_name_H-M   'P 1'
_cell_length_a   18.33139499
_cell_length_b   18.32844492
_cell_length_c   18.33135921
_cell_angle_alpha   89.99917706
_cell_angle_beta   89.99568363
_cell_angle_gamma   89.99898689
_symmetry_Int_Tables_number   1
_chemical_formula_structural   AgSbTe2
_chemical_formula_sum   'Ag54 Sb54 Te108'
_cell_volume   6159.07936437
_cell_formula_units_Z   54
loop_
 _symmetry_equiv_pos_site_id
 _symmetry_equiv_pos_as_xyz
  1  'x, y, z'
loop_
 _atom_site_type_symbol
 _atom_site_label
 _atom_site_symmetry_multiplicity
 _atom_site_fract_x
 _atom_site_fract_y
 _atom_site_fract_z
 _atom_site_occupancy
  Ag  Ag0  1  0.33318216  -0.00063114  0.00878306  1
  Ag  Ag1  1  0.83461162  0.17123313  0.66696771  1
  Ag  Ag2  1  0.49582372  0.83190028  0.00253312  1
  Ag  Ag3  1  0.66744797  0.33544323  0.32641986  1
  Ag  Ag4  1  0.00377805  0.00564159  0.66680698  1
  Ag  Ag5  1  0.65896971  0.49228816  0.83118293  1
  Ag  Ag6  1  0.33453347  0.84229274  0.49134157  1
  Ag  Ag7  1  0.17671087  0.49527934  0.00256320  1
  Ag  Ag8  1  0.66105546  0.33592579  0.67386429  1
  Ag  Ag9  1  0.82594629  0.33308061  0.17110819  1
  Ag  Ag10  1  0.49373790  0.49231470  0.00307879  1
  Ag  Ag11  1  0.17880004  0.83796627  0.00481964  1
  Ag  Ag12  1  0.33880718  0.17255441  0.83413308  1
  Ag  Ag13  1  0.49678684  0.17327107  0.32854859  1
  Ag  Ag14  1  0.49752261  0.00985172  0.83913476  1
  Ag  Ag15  1  0.83196719  0.65411016  0.49916420  1
  Ag  Ag16  1  0.00984077  0.84291039  0.16687510  1
  Ag  Ag17  1  0.66149676  0.17199925  0.16149433  1
  Ag  Ag18  1  0.00606161  0.49072399  0.83492123  1
  Ag  Ag19  1  0.65748558  0.33497914  0.00144317  1
  Ag  Ag20  1  0.33297249  0.83826967  0.16234224  1
  Ag  Ag21  1  0.33371743  0.65571084  0.00607715  1
  Ag  Ag22  1  0.33105132  0.16222078  0.50361541  1
  Ag  Ag23  1  0.33192846  0.66381919  0.33053334  1
  Ag  Ag24  1  0.17857517  0.00372599  0.49263895  1
  Ag  Ag25  1  0.33560906  0.49316977  0.84515536  1
  Ag  Ag26  1  0.83365743  0.49539824  0.33098502  1
  Ag  Ag27  1  0.00183673  0.16900759  0.16779421  1
  Ag  Ag28  1  -0.00679681  0.33592005  0.32938474  1
  Ag  Ag29  1  0.17421594  0.49728090  0.67142447  1
  Ag  Ag30  1  0.17183430  0.49693440  0.32952698  1
  Ag  Ag31  1  0.00815663  0.65297399  0.33262054  1
  Ag  Ag32  1  0.33917942  0.33984183  -0.00157090  1
  Ag  Ag33  1  0.49711994  0.83570407  0.67323914  1
  Ag  Ag34  1  0.65507615  0.17453041  0.83881599  1
  Ag  Ag35  1  0.33760504  0.66008203  0.66546922  1
  Ag  Ag36  1  0.82980671  0.33583112  0.49280643  1
  Ag  Ag37  1  0.33287091  0.49867682  0.16016005  1
  Ag  Ag38  1  0.49378996  0.00249076  0.49698640  1
  Ag  Ag39  1  0.66657527  0.49559295  0.50599333  1
  Ag  Ag40  1  0.16976831  0.17213758  0.00320217  1
  Ag  Ag41  1  0.00634594  0.16729494  0.49820885  1
  Ag  Ag42  1  0.17308950  0.32996195  0.16620759  1
  Ag  Ag43  1  0.17471160  0.00466887  0.16768033  1
  Ag  Ag44  1  0.50066088  0.33069012  0.84105894  1
  Ag  Ag45  1  0.33871165  0.33822331  0.67547832  1
  Ag  Ag46  1  0.65857508  0.65506764  0.66498349  1
  Ag  Ag47  1  0.49977691  0.32910877  0.16176047  1
  Ag  Ag48  1  0.49240377  0.00488576  0.16514389  1
  Ag  Ag49  1  0.49461792  0.49246971  0.32609291  1
  Ag  Ag50  1  0.65183410  0.84206208  0.16491560  1
  Ag  Ag51  1  0.33435236  -0.00133053  0.32711003  1
  Ag  Ag52  1  0.00244898  0.17154695  0.83291298  1
  Ag  Ag53  1  0.83016131  0.49578436  0.00434335  1
  Sb  Sb54  1  0.65964993  0.49365337  0.16496536  1
  Sb  Sb55  1  0.66007126  0.65909312  -0.00261036  1
  Sb  Sb56  1  0.83131846  0.49414495  0.66561371  1
  Sb  Sb57  1  0.33658747  0.83223854  0.83969877  1
  Sb  Sb58  1  0.65717602  0.00953650  0.33062735  1
  Sb  Sb59  1  0.49146609  0.17091034  0.00235891  1
  Sb  Sb60  1  0.33577568  0.33350027  0.32968358  1
  Sb  Sb61  1  0.17266038  0.00432188  0.83595911  1
  Sb  Sb62  1  0.83160458  0.66182820  0.82979048  1
  Sb  Sb63  1  0.65998229  0.82887241  0.49650998  1
  Sb  Sb64  1  -0.00064267  0.33004554  0.66555476  1
  Sb  Sb65  1  0.50029368  0.16612574  0.66696656  1
  Sb  Sb66  1  0.17080109  0.17042520  0.32921052  1
  Sb  Sb67  1  0.17038907  0.83049820  0.32675442  1
  Sb  Sb68  1  0.16960597  0.66075925  0.83421325  1
  Sb  Sb69  1  0.17074596  0.66453319  0.16640303  1
  Sb  Sb70  1  0.49623644  0.66037631  0.83363159  1
  Sb  Sb71  1  0.49846177  0.49942671  0.66920637  1
  Sb  Sb72  1  0.66125902  0.83256428  0.83780022  1
  Sb  Sb73  1  0.16637810  0.17068394  0.66904318  1
  Sb  Sb74  1  0.00710431  0.66372722  0.00517142  1
  Sb  Sb75  1  0.00174963  0.83583584  0.83753326  1
  Sb  Sb76  1  0.17555150  0.33434902  0.84007864  1
  Sb  Sb77  1  0.33312125  0.00139819  0.66545126  1
  Sb  Sb78  1  0.66540283  0.17303520  0.50052403  1
  Sb  Sb79  1  0.16743986  0.66728886  0.49880443  1
  Sb  Sb80  1  0.49661858  0.83486737  0.32932514  1
  Sb  Sb81  1  0.66507107  0.00411242  0.66730686  1
  Sb  Sb82  1  0.65622703  0.00997732  0.00125690  1
  Sb  Sb83  1  -0.00289053  0.49483306  0.49844207  1
  Sb  Sb84  1  0.49830722  0.66684556  0.50071218  1
  Sb  Sb85  1  0.82591876  0.33298584  0.83609028  1
  Sb  Sb86  1  0.83635110  0.17225212  -0.00079370  1
  Sb  Sb87  1  0.49611957  0.66444336  0.16604797  1
  Sb  Sb88  1  0.66242573  0.65865954  0.33418953  1
  Sb  Sb89  1  0.00594131  0.83773340  0.49532008  1
  Sb  Sb90  1  0.00667620  0.49438200  0.16707245  1
  Sb  Sb91  1  0.00787597  0.00600360  0.33337393  1
  Sb  Sb92  1  0.17312005  0.83171077  0.66953271  1
  Sb  Sb93  1  0.82940766  0.00510843  0.83440275  1
  Sb  Sb94  1  0.83145858  0.17391112  0.33414952  1
  Sb  Sb95  1  0.83432264  0.65705471  0.16955351  1
  Sb  Sb96  1  0.33451687  0.16753345  0.16293864  1
  Sb  Sb97  1  0.83329637  0.00523135  0.49936391  1
  Sb  Sb98  1  0.00372189  0.33440277  0.00205574  1
  Sb  Sb99  1  0.50125547  0.33070699  0.49769358  1
  Sb  Sb100  1  0.83408024  0.82342716  0.33069732  1
  Sb  Sb101  1  0.82793879  0.83497561  0.66462627  1
  Sb  Sb102  1  0.00839659  0.00259113  -0.00099975  1
  Sb  Sb103  1  0.83028959  0.82430001  0.00594530  1
  Sb  Sb104  1  0.33606422  0.49738028  0.49849320  1
  Sb  Sb105  1  0.16645515  0.33122267  0.49504602  1
  Sb  Sb106  1  0.83366214  0.00722973  0.16682426  1
  Sb  Sb107  1  0.00153632  0.66574129  0.66292966  1
  Te  Te108  1  0.16493175  0.16663218  0.16462920  1
  Te  Te109  1  0.16729685  0.16298695  0.49908258  1
  Te  Te110  1  0.16306763  0.16745645  0.83810474  1
  Te  Te111  1  0.17173919  0.49802975  0.16578401  1
  Te  Te112  1  0.16618660  0.50040415  0.49679002  1
  Te  Te113  1  0.16880381  0.49806768  0.83523850  1
  Te  Te114  1  0.17070985  0.83622711  0.16365863  1
  Te  Te115  1  0.17390023  0.83984647  0.50100077  1
  Te  Te116  1  0.16638640  0.83329103  0.84328645  1
  Te  Te117  1  0.50208820  0.16688074  0.16796624  1
  Te  Te118  1  0.49703192  0.16289367  0.49708607  1
  Te  Te119  1  0.49887410  0.16924392  0.83332581  1
  Te  Te120  1  0.49393936  0.49835918  0.16518878  1
  Te  Te121  1  0.50663678  0.50014338  0.49468760  1
  Te  Te122  1  0.49828681  0.49522000  0.83583088  1
  Te  Te123  1  0.49550278  0.83481143  0.16427108  1
  Te  Te124  1  0.49429037  0.83696442  0.49839318  1
  Te  Te125  1  0.50189647  0.84034908  0.83499759  1
  Te  Te126  1  0.83507440  0.17364661  0.16649503  1
  Te  Te127  1  0.83452025  0.17083419  0.50385754  1
  Te  Te128  1  0.84030721  0.16699931  0.82960871  1
  Te  Te129  1  0.83614569  0.49284719  0.16763336  1
  Te  Te130  1  0.83190849  0.49708953  0.49881574  1
  Te  Te131  1  0.83400124  0.50022258  0.83608035  1
  Te  Te132  1  0.83754583  0.83531915  0.16716568  1
  Te  Te133  1  0.83305550  0.83382840  0.49913728  1
  Te  Te134  1  0.83138323  0.83316361  0.83410033  1
  Te  Te135  1  0.17194867  0.00082860  0.00269387  1
  Te  Te136  1  0.17297705  0.00091695  0.33168007  1
  Te  Te137  1  0.16180595  -0.00039077  0.66641923  1
  Te  Te138  1  0.16948882  0.33423476  0.00573162  1
  Te  Te139  1  0.16532182  0.33773359  0.32722311  1
  Te  Te140  1  0.16994561  0.33931540  0.66457467  1
  Te  Te141  1  0.17337249  0.66133474  -0.00031046  1
  Te  Te142  1  0.16872530  0.65996162  0.33302836  1
  Te  Te143  1  0.17113874  0.66077979  0.66651658  1
  Te  Te144  1  0.49650338  -0.00123138  0.00272623  1
  Te  Te145  1  0.49475174  0.00200203  0.33066741  1
  Te  Te146  1  0.50068726  -0.00324642  0.66513347  1
  Te  Te147  1  0.49872500  0.33326454  0.00191031  1
  Te  Te148  1  0.50189804  0.33258276  0.33121199  1
  Te  Te149  1  0.49920577  0.33301595  0.66773164  1
  Te  Te150  1  0.49390911  0.67010051  -0.00124697  1
  Te  Te151  1  0.49393753  0.65832505  0.33351343  1
  Te  Te152  1  0.49983327  0.67017993  0.66736139  1
  Te  Te153  1  0.83193211  -0.00283996  0.00153316  1
  Te  Te154  1  0.83195860  -0.00186463  0.33204706  1
  Te  Te155  1  0.83709402  0.00445684  0.66694901  1
  Te  Te156  1  0.83151615  0.33775476  0.00444322  1
  Te  Te157  1  0.83226694  0.33407705  0.33241698  1
  Te  Te158  1  0.83091549  0.32945062  0.66334090  1
  Te  Te159  1  0.83338817  0.65642205  -0.00030326  1
  Te  Te160  1  0.83163111  0.65681116  0.33805930  1
  Te  Te161  1  0.83113026  0.66800912  0.65905665  1
  Te  Te162  1  0.00439568  0.16702128  0.00166383  1
  Te  Te163  1  0.00098035  0.17178986  0.33191349  1
  Te  Te164  1  0.00059310  0.16560272  0.66703421  1
  Te  Te165  1  -0.00088140  0.50199254  -0.00413288  1
  Te  Te166  1  0.00063283  0.49648607  0.33344722  1
  Te  Te167  1  0.00451625  0.50225983  0.67156237  1
  Te  Te168  1  -0.00084377  0.83210566  0.00640976  1
  Te  Te169  1  0.00112500  0.83431490  0.32769862  1
  Te  Te170  1  0.00097297  0.83674745  0.66726185  1
  Te  Te171  1  0.32809956  0.16538023  -0.00467489  1
  Te  Te172  1  0.33739759  0.16670297  0.33952401  1
  Te  Te173  1  0.33302218  0.17246573  0.66930545  1
  Te  Te174  1  0.33474639  0.49956030  0.00120714  1
  Te  Te175  1  0.33348380  0.50064807  0.33323297  1
  Te  Te176  1  0.33213421  0.49851201  0.66285910  1
  Te  Te177  1  0.33536828  0.83854419  -0.00016851  1
  Te  Te178  1  0.33248848  0.83101570  0.33250728  1
  Te  Te179  1  0.33693804  0.82868673  0.67154859  1
  Te  Te180  1  0.67041968  0.17373048  -0.00028916  1
  Te  Te181  1  0.66175560  0.17425734  0.32974315  1
  Te  Te182  1  0.67041392  0.17123159  0.66951159  1
  Te  Te183  1  0.66555827  0.49561584  -0.00212261  1
  Te  Te184  1  0.66633686  0.49544983  0.33040657  1
  Te  Te185  1  0.66557915  0.49821659  0.66768604  1
  Te  Te186  1  0.66250388  0.83070668  0.00552640  1
  Te  Te187  1  0.66653260  0.83141783  0.32613081  1
  Te  Te188  1  0.65935495  0.83309443  0.66666608  1
  Te  Te189  1  0.00287506  0.00407869  0.16587769  1
  Te  Te190  1  -0.00006945  0.00577678  0.50270906  1
  Te  Te191  1  0.00002457  0.00375865  0.82996579  1
  Te  Te192  1  0.00362801  0.33017145  0.16795122  1
  Te  Te193  1  -0.00204793  0.32695985  0.49603863  1
  Te  Te194  1  -0.00296113  0.33360658  0.83381948  1
  Te  Te195  1  -0.00132599  0.67027247  0.17410997  1
  Te  Te196  1  -0.00338125  0.66930891  0.49307967  1
  Te  Te197  1  -0.00037133  0.66530490  0.83336294  1
  Te  Te198  1  0.33332889  0.00296560  0.16848803  1
  Te  Te199  1  0.33423346  0.00163337  0.50294766  1
  Te  Te200  1  0.33880804  0.00514759  0.83266282  1
  Te  Te201  1  0.33546157  0.33467990  0.16298225  1
  Te  Te202  1  0.33312759  0.32708887  0.50358182  1
  Te  Te203  1  0.33556226  0.33365949  0.83445210  1
  Te  Te204  1  0.33341274  0.66518558  0.16822305  1
  Te  Te205  1  0.33244098  0.66858165  0.49906052  1
  Te  Te206  1  0.33353090  0.66068622  0.82978121  1
  Te  Te207  1  0.66406920  0.00341006  0.16651078  1
  Te  Te208  1  0.66082239  -0.00121684  0.49887442  1
  Te  Te209  1  0.66008131  0.00797200  0.83427123  1
  Te  Te210  1  0.66178708  0.33393868  0.16525235  1
  Te  Te211  1  0.66782139  0.33704461  0.49995224  1
  Te  Te212  1  0.66528661  0.33310111  0.83366446  1
  Te  Te213  1  0.66910343  0.67442678  0.16504451  1
  Te  Te214  1  0.66907142  0.66220916  0.50317363  1
  Te  Te215  1  0.66537619  0.66126516  0.82755800  1
