# generated using pymatgen
data_AgSbTe2
_symmetry_space_group_name_H-M   'P 1'
_cell_length_a   18.34024752
_cell_length_b   18.33708684
_cell_length_c   18.33886327
_cell_angle_alpha   90.00163560
_cell_angle_beta   89.99910377
_cell_angle_gamma   90.00298914
_symmetry_Int_Tables_number   1
_chemical_formula_structural   AgSbTe2
_chemical_formula_sum   'Ag54 Sb54 Te108'
_cell_volume   6167.48278593
_cell_formula_units_Z   54
loop_
 _symmetry_equiv_pos_site_id
 _symmetry_equiv_pos_as_xyz
  1  'x, y, z'
loop_
 _atom_site_type_symbol
 _atom_site_label
 _atom_site_symmetry_multiplicity
 _atom_site_fract_x
 _atom_site_fract_y
 _atom_site_fract_z
 _atom_site_occupancy
  Ag  Ag0  1  0.16093849  0.49495593  0.34453706  1
  Ag  Ag1  1  0.00178821  0.48999801  0.17636813  1
  Ag  Ag2  1  0.15931450  0.17593460  0.33689361  1
  Ag  Ag3  1  0.01162502  0.49482413  0.49934195  1
  Ag  Ag4  1  0.50850082  0.00120233  0.16857855  1
  Ag  Ag5  1  0.82614512  0.16742107  0.33170541  1
  Ag  Ag6  1  0.16492522  0.49347437  0.65541356  1
  Ag  Ag7  1  0.33316565  0.00523962  -0.00098139  1
  Ag  Ag8  1  0.50449478  0.49170242  0.66685065  1
  Ag  Ag9  1  0.33107390  0.66289708  -0.00413924  1
  Ag  Ag10  1  0.16889443  0.17705247  -0.00050618  1
  Ag  Ag11  1  0.66480586  0.82802331  0.48996171  1
  Ag  Ag12  1  0.83032728  0.49486513  0.66700649  1
  Ag  Ag13  1  0.66889346  0.16401336  0.17706873  1
  Ag  Ag14  1  0.49392652  0.49413709  -0.00674217  1
  Ag  Ag15  1  0.66148243  0.17901837  0.83376316  1
  Ag  Ag16  1  0.82294926  0.83679201  0.33319084  1
  Ag  Ag17  1  0.17046407  0.17503783  0.66416149  1
  Ag  Ag18  1  0.66579630  0.33357910  -0.01563919  1
  Ag  Ag19  1  0.67064571  0.32968182  0.33833297  1
  Ag  Ag20  1  0.33524043  0.83495637  0.83620904  1
  Ag  Ag21  1  0.83190795  0.83483171  0.00173369  1
  Ag  Ag22  1  0.50774453  0.83389850  0.66158849  1
  Ag  Ag23  1  0.66338472  0.33519201  0.66911173  1
  Ag  Ag24  1  0.00375606  0.17868244  0.49134865  1
  Ag  Ag25  1  0.66806136  0.84595227  0.17851827  1
  Ag  Ag26  1  0.66632508  0.68148121  0.33551257  1
  Ag  Ag27  1  0.16893608  0.49389843  -0.00142549  1
  Ag  Ag28  1  0.32775407  0.33558621  -0.00431994  1
  Ag  Ag29  1  0.82080212  0.33436723  0.83191085  1
  Ag  Ag30  1  0.00082564  0.65281676  0.33501727  1
  Ag  Ag31  1  -0.00384102  0.17279747  0.17561447  1
  Ag  Ag32  1  0.33382171  0.66231462  0.66663031  1
  Ag  Ag33  1  -0.00139680  0.49442338  0.82465366  1
  Ag  Ag34  1  0.82664649  0.00096472  0.16949550  1
  Ag  Ag35  1  0.66623758  -0.00362781  0.33357896  1
  Ag  Ag36  1  0.16872652  0.65308473  0.49813724  1
  Ag  Ag37  1  -0.00121203  0.33390291  0.34139273  1
  Ag  Ag38  1  0.50932217  0.16792325  0.33613970  1
  Ag  Ag39  1  0.17005348  0.83093122  -0.00087068  1
  Ag  Ag40  1  0.50171182  0.17575264  0.66558085  1
  Ag  Ag41  1  0.50686458  0.33334199  0.82532203  1
  Ag  Ag42  1  0.66455276  0.01004161  0.66168826  1
  Ag  Ag43  1  0.33760942  0.16870478  0.83457214  1
  Ag  Ag44  1  0.82451821  0.83054707  0.66554182  1
  Ag  Ag45  1  0.00425458  0.33650575  -0.00183078  1
  Ag  Ag46  1  0.66545601  0.49712138  0.50206275  1
  Ag  Ag47  1  -0.00140238  0.33669645  0.66001451  1
  Ag  Ag48  1  0.16096258  0.34008974  0.50237970  1
  Ag  Ag49  1  0.66736110  0.49103263  0.82030904  1
  Ag  Ag50  1  0.50148671  0.33509492  0.50759124  1
  Ag  Ag51  1  0.32337148  0.49946072  0.50555247  1
  Ag  Ag52  1  0.51076248  0.83574981  0.33866044  1
  Ag  Ag53  1  0.33264630  0.66421602  0.33892721  1
  Sb  Sb54  1  0.83788020  0.49698083  0.33942459  1
  Sb  Sb55  1  0.33494724  0.16695405  0.16377154  1
  Sb  Sb56  1  0.16738712  0.33432732  0.82994798  1
  Sb  Sb57  1  0.16646552  0.66440686  0.17135338  1
  Sb  Sb58  1  0.00388248  0.65566423  0.66026580  1
  Sb  Sb59  1  -0.00717839  0.00967239  0.66556984  1
  Sb  Sb60  1  0.49719746  0.17362210  -0.00192727  1
  Sb  Sb61  1  0.16822013  0.00312664  0.83412121  1
  Sb  Sb62  1  0.83504098  0.16652291  0.00503440  1
  Sb  Sb63  1  0.66279416  0.00524189  0.00429301  1
  Sb  Sb64  1  0.33880819  0.83342798  0.16254733  1
  Sb  Sb65  1  0.82894686  0.00496271  0.83658588  1
  Sb  Sb66  1  0.50082599  0.00577628  0.83546153  1
  Sb  Sb67  1  0.82808544  0.00004593  0.49528070  1
  Sb  Sb68  1  -0.00628477  0.83504327  0.16757206  1
  Sb  Sb69  1  0.33138203  0.33583321  0.33264600  1
  Sb  Sb70  1  0.82930750  0.17241302  0.66235216  1
  Sb  Sb71  1  0.49704942  0.65847046  0.50069439  1
  Sb  Sb72  1  -0.00422272  0.82851109  0.49897754  1
  Sb  Sb73  1  0.16687538  0.00659985  0.49892237  1
  Sb  Sb74  1  0.16952562  0.66210414  0.82973156  1
  Sb  Sb75  1  0.83451633  0.66507774  0.49872961  1
  Sb  Sb76  1  0.16542619  0.00320309  0.16631374  1
  Sb  Sb77  1  0.33922667  -0.00105846  0.67097313  1
  Sb  Sb78  1  0.33496777  0.49576401  0.83088383  1
  Sb  Sb79  1  0.00600867  0.65826394  0.00688252  1
  Sb  Sb80  1  0.16709461  0.82899834  0.33044636  1
  Sb  Sb81  1  0.50387934  0.32928084  0.16694101  1
  Sb  Sb82  1  0.16824575  0.83058931  0.66879989  1
  Sb  Sb83  1  -0.00101876  0.17654482  0.83332560  1
  Sb  Sb84  1  0.66368695  0.66195012  0.00543716  1
  Sb  Sb85  1  0.67160919  0.49465863  0.17130055  1
  Sb  Sb86  1  0.00217041  0.82425471  0.83354716  1
  Sb  Sb87  1  0.83514143  0.33461293  0.50394389  1
  Sb  Sb88  1  0.66221117  0.66034880  0.66045925  1
  Sb  Sb89  1  -0.00706876  0.00873035  0.33182936  1
  Sb  Sb90  1  0.49934725  0.83103654  -0.00012982  1
  Sb  Sb91  1  0.00413081  0.00577915  0.00175257  1
  Sb  Sb92  1  0.50065598  0.66942520  0.16857393  1
  Sb  Sb93  1  0.83208385  0.66048875  0.83129703  1
  Sb  Sb94  1  0.34046578  0.82417761  0.50384675  1
  Sb  Sb95  1  0.83453055  0.49883385  -0.00506078  1
  Sb  Sb96  1  0.83529323  0.32902229  0.16503792  1
  Sb  Sb97  1  0.83281464  0.67100055  0.16860810  1
  Sb  Sb98  1  0.66338531  0.83276591  0.82997725  1
  Sb  Sb99  1  0.49867257  0.49805075  0.33615756  1
  Sb  Sb100  1  0.66871210  0.17247905  0.49735084  1
  Sb  Sb101  1  0.33547687  0.33788801  0.67091753  1
  Sb  Sb102  1  0.32888016  0.49996895  0.16585348  1
  Sb  Sb103  1  0.34051645  -0.00249965  0.32843470  1
  Sb  Sb104  1  0.50291264  0.00570191  0.49743441  1
  Sb  Sb105  1  0.16342973  0.33310911  0.16878937  1
  Sb  Sb106  1  0.49833441  0.66037391  0.83110070  1
  Sb  Sb107  1  0.33105249  0.17539274  0.50400584  1
  Te  Te108  1  0.16358118  0.16620373  0.16543551  1
  Te  Te109  1  0.16428695  0.17220845  0.50089798  1
  Te  Te110  1  0.16956197  0.16704854  0.83422701  1
  Te  Te111  1  0.16056564  0.49993042  0.15880730  1
  Te  Te112  1  0.16753960  0.49726450  0.49980367  1
  Te  Te113  1  0.16414733  0.49973133  0.83942465  1
  Te  Te114  1  0.16476914  0.83493278  0.16040616  1
  Te  Te115  1  0.16702352  0.83304993  0.50007394  1
  Te  Te116  1  0.17094065  0.83332691  0.83786232  1
  Te  Te117  1  0.50333475  0.16257257  0.17085157  1
  Te  Te118  1  0.49878080  0.17246011  0.50125678  1
  Te  Te119  1  0.50104244  0.17050260  0.83140455  1
  Te  Te120  1  0.50134661  0.50017012  0.16190404  1
  Te  Te121  1  0.50594400  0.49434952  0.50212095  1
  Te  Te122  1  0.50145432  0.49523430  0.83166263  1
  Te  Te123  1  0.50624893  0.83700253  0.16952791  1
  Te  Te124  1  0.50424356  0.83448385  0.49979944  1
  Te  Te125  1  0.49615646  0.83340588  0.83032049  1
  Te  Te126  1  0.83185696  0.16319619  0.17029792  1
  Te  Te127  1  0.84244425  0.16600519  0.49422598  1
  Te  Te128  1  0.82795772  0.17239459  0.83327757  1
  Te  Te129  1  0.84146900  0.50095216  0.16569200  1
  Te  Te130  1  0.82505873  0.50079588  0.50714685  1
  Te  Te131  1  0.83213385  0.49516160  0.82830194  1
  Te  Te132  1  0.82942866  0.83731579  0.16900843  1
  Te  Te133  1  0.82830997  0.83277038  0.50028792  1
  Te  Te134  1  0.83321826  0.83393636  0.83180565  1
  Te  Te135  1  0.17169557  -0.00283587  0.00046817  1
  Te  Te136  1  0.16781922  0.00450500  0.33285763  1
  Te  Te137  1  0.16521325  0.00678867  0.66627003  1
  Te  Te138  1  0.16514057  0.33365405  -0.00090114  1
  Te  Te139  1  0.16606969  0.33484575  0.33583765  1
  Te  Te140  1  0.16888467  0.33363970  0.66422708  1
  Te  Te141  1  0.17083863  0.66798653  0.00046886  1
  Te  Te142  1  0.16771912  0.66455802  0.33721138  1
  Te  Te143  1  0.17115676  0.66302318  0.66106396  1
  Te  Te144  1  0.49510059  0.00020231  0.00522150  1
  Te  Te145  1  0.50423537  0.00180672  0.33110361  1
  Te  Te146  1  0.50621794  -0.00322647  0.66717819  1
  Te  Te147  1  0.50679190  0.33625061  0.00108699  1
  Te  Te148  1  0.49849849  0.32937601  0.33461176  1
  Te  Te149  1  0.49905071  0.33365653  0.66565937  1
  Te  Te150  1  0.49482441  0.65967631  -0.00011179  1
  Te  Te151  1  0.49993147  0.66877570  0.33444626  1
  Te  Te152  1  0.49398281  0.67171997  0.66619306  1
  Te  Te153  1  0.83393430  -0.00443162  0.00437740  1
  Te  Te154  1  0.82761161  -0.00032503  0.32992243  1
  Te  Te155  1  0.82568270  -0.00317906  0.66743941  1
  Te  Te156  1  0.83067185  0.33301419  -0.00565304  1
  Te  Te157  1  0.83694231  0.32987817  0.33219262  1
  Te  Te158  1  0.83231872  0.33561101  0.67069242  1
  Te  Te159  1  0.83413457  0.67459724  -0.00040804  1
  Te  Te160  1  0.83174926  0.66975267  0.33435272  1
  Te  Te161  1  0.83554227  0.66952735  0.66617495  1
  Te  Te162  1  0.00433232  0.17250910  0.00137805  1
  Te  Te163  1  0.00272502  0.16980431  0.33220724  1
  Te  Te164  1  0.00248777  0.17413873  0.66613337  1
  Te  Te165  1  0.00154714  0.49629871  0.00016008  1
  Te  Te166  1  0.00051477  0.49571563  0.33597398  1
  Te  Te167  1  0.00340650  0.49632571  0.66322219  1
  Te  Te168  1  0.00130686  0.83224312  -0.00044281  1
  Te  Te169  1  -0.00300611  0.83426875  0.33353370  1
  Te  Te170  1  -0.00320983  0.83521113  0.66694321  1
  Te  Te171  1  0.33020576  0.16873241  -0.00222825  1
  Te  Te172  1  0.33216744  0.16619498  0.33379538  1
  Te  Te173  1  0.33476087  0.16437014  0.67101022  1
  Te  Te174  1  0.33313024  0.49951324  -0.00107986  1
  Te  Te175  1  0.32983601  0.50384394  0.33394793  1
  Te  Te176  1  0.33278165  0.50281376  0.66645701  1
  Te  Te177  1  0.33312329  0.82827842  -0.00260977  1
  Te  Te178  1  0.33621606  0.82795780  0.33326284  1
  Te  Te179  1  0.33409885  0.83040754  0.67181231  1
  Te  Te180  1  0.66648621  0.17181315  -0.00309522  1
  Te  Te181  1  0.66660487  0.16794546  0.33656333  1
  Te  Te182  1  0.66455869  0.16999042  0.66377334  1
  Te  Te183  1  0.66617280  0.49487987  0.00473112  1
  Te  Te184  1  0.66744439  0.48980400  0.33650152  1
  Te  Te185  1  0.66462138  0.49933112  0.66383536  1
  Te  Te186  1  0.66941595  0.83212409  -0.00067680  1
  Te  Te187  1  0.66671365  0.83755741  0.33326128  1
  Te  Te188  1  0.66642805  0.82638904  0.66805886  1
  Te  Te189  1  -0.00631073  0.00694966  0.16594845  1
  Te  Te190  1  -0.00066082  0.00300376  0.50015487  1
  Te  Te191  1  -0.00204223  -0.00157876  0.83311560  1
  Te  Te192  1  -0.00078497  0.33172601  0.16443110  1
  Te  Te193  1  -0.00076594  0.33570301  0.50121657  1
  Te  Te194  1  0.00034756  0.33757529  0.83466667  1
  Te  Te195  1  -0.00010060  0.66420667  0.17565341  1
  Te  Te196  1  0.00545257  0.66151380  0.49376660  1
  Te  Te197  1  0.00062547  0.65567502  0.83388841  1
  Te  Te198  1  0.33706538  -0.00057276  0.15969092  1
  Te  Te199  1  0.33379768  -0.00100990  0.49979754  1
  Te  Te200  1  0.33425668  0.00135423  0.83842168  1
  Te  Te201  1  0.33477972  0.33337180  0.15444352  1
  Te  Te202  1  0.33497846  0.34049359  0.49841502  1
  Te  Te203  1  0.34009628  0.32908173  0.83844750  1
  Te  Te204  1  0.33325801  0.66752341  0.16654212  1
  Te  Te205  1  0.33077862  0.66052114  0.49976429  1
  Te  Te206  1  0.33325067  0.67065481  0.83419162  1
  Te  Te207  1  0.66628164  0.00372360  0.16538805  1
  Te  Te208  1  0.66526016  -0.00752888  0.50078880  1
  Te  Te209  1  0.66572145  0.00422840  0.82785282  1
  Te  Te210  1  0.66927559  0.32660989  0.17809177  1
  Te  Te211  1  0.66647690  0.33416965  0.50016611  1
  Te  Te212  1  0.66381668  0.33512315  0.82853968  1
  Te  Te213  1  0.66669548  0.66807128  0.17447056  1
  Te  Te214  1  0.66572955  0.66660136  0.49390027  1
  Te  Te215  1  0.66610973  0.65658904  0.83610055  1
