# generated using pymatgen
data_AgSbTe2
_symmetry_space_group_name_H-M   'P 1'
_cell_length_a   18.33356535
_cell_length_b   18.33942176
_cell_length_c   18.33771378
_cell_angle_alpha   90.00139860
_cell_angle_beta   89.99722861
_cell_angle_gamma   89.99847991
_symmetry_Int_Tables_number   1
_chemical_formula_structural   AgSbTe2
_chemical_formula_sum   'Ag54 Sb54 Te108'
_cell_volume   6165.63424467
_cell_formula_units_Z   54
loop_
 _symmetry_equiv_pos_site_id
 _symmetry_equiv_pos_as_xyz
  1  'x, y, z'
loop_
 _atom_site_type_symbol
 _atom_site_label
 _atom_site_symmetry_multiplicity
 _atom_site_fract_x
 _atom_site_fract_y
 _atom_site_fract_z
 _atom_site_occupancy
  Ag  Ag0  1  0.33169764  0.33274215  0.66973538  1
  Ag  Ag1  1  0.82844115  0.65446940  0.16010534  1
  Ag  Ag2  1  0.34042834  0.82657783  0.83816057  1
  Ag  Ag3  1  0.50180586  0.65626508  0.83023725  1
  Ag  Ag4  1  0.16558301  0.49462318  0.66587003  1
  Ag  Ag5  1  0.82639837  0.65310127  0.83691788  1
  Ag  Ag6  1  0.00583898  0.49898025  0.50713972  1
  Ag  Ag7  1  0.83031040  0.66361717  0.50078722  1
  Ag  Ag8  1  0.50134010  -0.00142151  0.49775037  1
  Ag  Ag9  1  0.67199444  0.33537962  0.00992347  1
  Ag  Ag10  1  -0.01257161  0.49626969  0.82860554  1
  Ag  Ag11  1  0.66057006  0.00163868  0.66434339  1
  Ag  Ag12  1  0.33599079  0.65879934  0.32587225  1
  Ag  Ag13  1  0.50420225  0.33354692  0.16432282  1
  Ag  Ag14  1  0.82789020  0.17436503  0.67276714  1
  Ag  Ag15  1  -0.00573041  0.82274174  0.50087018  1
  Ag  Ag16  1  0.33443399  0.17807937  0.50547261  1
  Ag  Ag17  1  0.66137648  0.82632408  0.83517801  1
  Ag  Ag18  1  0.16652103  0.49856803  -0.00163564  1
  Ag  Ag19  1  0.49714062  0.16617314  0.66712703  1
  Ag  Ag20  1  0.66682758  0.83401924  0.49876184  1
  Ag  Ag21  1  0.82025985  0.00885834  0.16517859  1
  Ag  Ag22  1  0.00712799  0.33618456  0.33571977  1
  Ag  Ag23  1  0.00268153  0.33697889  0.66685226  1
  Ag  Ag24  1  0.17004654  0.17813558  0.33210081  1
  Ag  Ag25  1  0.66540084  0.48790846  0.16235097  1
  Ag  Ag26  1  0.33814440  0.49587163  0.17070358  1
  Ag  Ag27  1  0.33198105  0.66095276  0.00192758  1
  Ag  Ag28  1  0.83778956  0.49339876  0.67988657  1
  Ag  Ag29  1  0.33912447  0.83005099  0.16027471  1
  Ag  Ag30  1  0.49312643  0.49870674  0.33151388  1
  Ag  Ag31  1  0.83235455  0.17909342  -0.00317451  1
  Ag  Ag32  1  0.17086693  0.33706294  0.17385397  1
  Ag  Ag33  1  0.66288949  0.83746582  0.16675839  1
  Ag  Ag34  1  0.33436892  0.17402634  0.82902679  1
  Ag  Ag35  1  0.50237814  0.33813334  0.83573842  1
  Ag  Ag36  1  0.32895054  0.49614986  0.49530234  1
  Ag  Ag37  1  0.82697875  0.33884819  0.83792820  1
  Ag  Ag38  1  0.16956187  0.33762508  0.49373190  1
  Ag  Ag39  1  0.17282750  0.49461509  0.33352042  1
  Ag  Ag40  1  -0.00613587  0.18082845  0.83226649  1
  Ag  Ag41  1  0.66851511  0.33325878  0.32407476  1
  Ag  Ag42  1  0.83526258  0.49735148  -0.00734361  1
  Ag  Ag43  1  0.34082440  0.17642152  0.16605043  1
  Ag  Ag44  1  0.50170103  0.66546597  0.50251457  1
  Ag  Ag45  1  0.33407862  0.00018653  -0.00169547  1
  Ag  Ag46  1  0.66284478  0.17532637  0.16689004  1
  Ag  Ag47  1  0.50300949  0.00928104  0.17174752  1
  Ag  Ag48  1  0.33977436  0.01305623  0.67109085  1
  Ag  Ag49  1  -0.00491042  0.66069065  -0.00086804  1
  Ag  Ag50  1  0.66392642  0.00299195  0.32318151  1
  Ag  Ag51  1  0.33473974  0.49819553  0.83420414  1
  Ag  Ag52  1  0.67592667  0.49865402  0.83777466  1
  Ag  Ag53  1  0.81869480  0.33593352  0.15755387  1
  Sb  Sb54  1  -0.00185494  0.49677279  0.16382417  1
  Sb  Sb55  1  0.17457438  0.00634104  0.49964892  1
  Sb  Sb56  1  0.17237544  0.17520024  0.66469239  1
  Sb  Sb57  1  0.50060646  0.83992249  0.66694940  1
  Sb  Sb58  1  -0.00241613  0.83012483  0.17073052  1
  Sb  Sb59  1  0.83207858  0.83212520  0.66692904  1
  Sb  Sb60  1  0.16533443  0.17579148  0.00292471  1
  Sb  Sb61  1  0.66661412  0.66852679  0.66897340  1
  Sb  Sb62  1  -0.00180587  0.00923211  0.66567541  1
  Sb  Sb63  1  0.83690120  0.33852172  0.50212853  1
  Sb  Sb64  1  0.66153060  0.16344370  0.49700226  1
  Sb  Sb65  1  0.16903708  0.65798314  0.16569603  1
  Sb  Sb66  1  0.17002655  0.66078840  0.83494793  1
  Sb  Sb67  1  0.49975357  0.49876005  0.00086724  1
  Sb  Sb68  1  0.83333083  0.17038554  0.33192425  1
  Sb  Sb69  1  0.16809270  0.65660728  0.49904362  1
  Sb  Sb70  1  0.66293290  0.00432490  0.00341031  1
  Sb  Sb71  1  0.17579779  0.00747758  0.16751975  1
  Sb  Sb72  1  0.66654500  0.33060295  0.66684144  1
  Sb  Sb73  1  0.83298823  0.49783125  0.33028674  1
  Sb  Sb74  1  0.83060487  0.83243417  0.33266219  1
  Sb  Sb75  1  0.17106693  0.82693752  0.00077576  1
  Sb  Sb76  1  0.49914935  0.00247778  0.83308370  1
  Sb  Sb77  1  0.33661648  0.33701920  -0.00151057  1
  Sb  Sb78  1  0.49942667  0.83268759  0.00027244  1
  Sb  Sb79  1  0.33675419  0.82973464  0.50116265  1
  Sb  Sb80  1  0.50108366  0.16877989  0.00010032  1
  Sb  Sb81  1  0.66493570  0.17174787  0.83654532  1
  Sb  Sb82  1  0.50171586  0.66247939  0.16545413  1
  Sb  Sb83  1  0.66296822  0.66454131  0.33146809  1
  Sb  Sb84  1  0.66604578  0.50300414  0.49906105  1
  Sb  Sb85  1  0.33113856  0.33895956  0.33234020  1
  Sb  Sb86  1  0.16946958  0.82788484  0.66565337  1
  Sb  Sb87  1  -0.00592825  0.00655578  0.33416593  1
  Sb  Sb88  1  0.49497123  0.33525546  0.49809884  1
  Sb  Sb89  1  0.00297980  0.65767495  0.33196490  1
  Sb  Sb90  1  0.50064743  0.82976487  0.33249783  1
  Sb  Sb91  1  0.34001538  -0.00053052  0.33181872  1
  Sb  Sb92  1  0.66629575  0.65930909  -0.00026526  1
  Sb  Sb93  1  -0.00258902  0.82461886  0.82894842  1
  Sb  Sb94  1  0.16945038  0.82991994  0.33376491  1
  Sb  Sb95  1  0.82504175  -0.00292241  0.49832031  1
  Sb  Sb96  1  -0.00561070  0.34010796  -0.00298475  1
  Sb  Sb97  1  0.33569895  0.65902480  0.66908764  1
  Sb  Sb98  1  0.00191494  -0.00158253  0.00074201  1
  Sb  Sb99  1  0.17212487  0.00254171  0.83277763  1
  Sb  Sb100  1  0.00463046  0.17384037  0.50411783  1
  Sb  Sb101  1  -0.00319853  0.65605152  0.66878903  1
  Sb  Sb102  1  0.16696128  0.33683609  0.83315810  1
  Sb  Sb103  1  0.82905252  0.00394215  0.83723888  1
  Sb  Sb104  1  -0.00393674  0.17152295  0.16263372  1
  Sb  Sb105  1  0.49973520  0.49426746  0.66726421  1
  Sb  Sb106  1  0.83159644  0.82898189  0.00092047  1
  Sb  Sb107  1  0.49586035  0.17259741  0.33324082  1
  Te  Te108  1  0.16874021  0.17265199  0.17005337  1
  Te  Te109  1  0.17290950  0.17303141  0.49545314  1
  Te  Te110  1  0.16981941  0.16836436  0.83442745  1
  Te  Te111  1  0.16703394  0.49718711  0.16686851  1
  Te  Te112  1  0.16789861  0.49728339  0.50131714  1
  Te  Te113  1  0.17499114  0.49984885  0.83471717  1
  Te  Te114  1  0.17283786  0.83478942  0.16809960  1
  Te  Te115  1  0.16234185  0.83328687  0.49980797  1
  Te  Te116  1  0.17261506  0.83245829  0.83253893  1
  Te  Te117  1  0.50028083  0.16947935  0.16700450  1
  Te  Te118  1  0.49423502  0.16389692  0.50215438  1
  Te  Te119  1  0.49657851  0.17136043  0.83130087  1
  Te  Te120  1  0.50098520  0.49858168  0.16791997  1
  Te  Te121  1  0.49737318  0.50333023  0.49805370  1
  Te  Te122  1  0.49502549  0.49795591  0.83196263  1
  Te  Te123  1  0.49881058  0.83226984  0.16691698  1
  Te  Te124  1  0.50442796  0.83211623  0.49983203  1
  Te  Te125  1  0.50050495  0.83134330  0.83286690  1
  Te  Te126  1  0.83034975  0.17111196  0.16531567  1
  Te  Te127  1  0.83438129  0.16594185  0.50728544  1
  Te  Te128  1  0.83241528  0.16912578  0.83418006  1
  Te  Te129  1  0.83090376  0.49675920  0.16529042  1
  Te  Te130  1  0.83471103  0.50416555  0.49883552  1
  Te  Te131  1  0.83172402  0.49839572  0.83521730  1
  Te  Te132  1  0.83020760  0.83376259  0.16661395  1
  Te  Te133  1  0.83048776  0.82875948  0.49987626  1
  Te  Te134  1  0.82892725  0.82999467  0.83303782  1
  Te  Te135  1  0.17293743  0.00085596  0.00092013  1
  Te  Te136  1  0.16460025  0.00404487  0.33359115  1
  Te  Te137  1  0.17339931  -0.00008759  0.66505658  1
  Te  Te138  1  0.16502678  0.33958886  0.00787071  1
  Te  Te139  1  0.16823779  0.33624065  0.33429664  1
  Te  Te140  1  0.16746156  0.33737418  0.66530821  1
  Te  Te141  1  0.16827938  0.65882697  0.00092581  1
  Te  Te142  1  0.17333347  0.66010105  0.33301330  1
  Te  Te143  1  0.16615357  0.65677573  0.66675593  1
  Te  Te144  1  0.49350882  0.00205789  0.00747916  1
  Te  Te145  1  0.50479069  0.00016898  0.33333659  1
  Te  Te146  1  0.49911173  0.00561207  0.66673181  1
  Te  Te147  1  0.50842590  0.33277897  -0.00115508  1
  Te  Te148  1  0.50546881  0.33740191  0.33015191  1
  Te  Te149  1  0.49684559  0.32778781  0.66831745  1
  Te  Te150  1  0.49291731  0.66613990  -0.00805676  1
  Te  Te151  1  0.49593616  0.66082093  0.33617382  1
  Te  Te152  1  0.50061762  0.66684816  0.66661525  1
  Te  Te153  1  0.83506177  0.00091109  0.00584817  1
  Te  Te154  1  0.82574530  0.00250264  0.32710982  1
  Te  Te155  1  0.82988892  0.00556481  0.66751807  1
  Te  Te156  1  0.83342879  0.33565729  -0.00122538  1
  Te  Te157  1  0.83170124  0.33250331  0.33062191  1
  Te  Te158  1  0.83361294  0.33376349  0.66803772  1
  Te  Te159  1  0.83205721  0.66290275  -0.00030412  1
  Te  Te160  1  0.83411075  0.66598907  0.33501885  1
  Te  Te161  1  0.83272046  0.66255539  0.66600329  1
  Te  Te162  1  -0.00463126  0.16437546  -0.00765043  1
  Te  Te163  1  0.00550203  0.17340953  0.33500232  1
  Te  Te164  1  -0.00227475  0.17306404  0.67205955  1
  Te  Te165  1  -0.00107924  0.50238211  -0.00304387  1
  Te  Te166  1  0.00477360  0.49551607  0.33670848  1
  Te  Te167  1  -0.00112520  0.49588556  0.66794792  1
  Te  Te168  1  0.00304551  0.82514512  -0.00091013  1
  Te  Te169  1  0.00141204  0.83285307  0.34027170  1
  Te  Te170  1  0.00106075  0.83624820  0.66043815  1
  Te  Te171  1  0.33175647  0.16558075  0.00220484  1
  Te  Te172  1  0.33041067  0.16366445  0.32995096  1
  Te  Te173  1  0.33336968  0.17002649  0.66706108  1
  Te  Te174  1  0.33187364  0.50023089  -0.00008071  1
  Te  Te175  1  0.33291044  0.49984035  0.33226686  1
  Te  Te176  1  0.33323232  0.49492402  0.66851803  1
  Te  Te177  1  0.33352907  0.83213816  -0.00056202  1
  Te  Te178  1  0.33312699  0.82644429  0.32863408  1
  Te  Te179  1  0.33260566  0.83669744  0.67204313  1
  Te  Te180  1  0.67200916  0.17104132  0.00417411  1
  Te  Te181  1  0.66583636  0.16646659  0.32930285  1
  Te  Te182  1  0.66526236  0.16296965  0.66663770  1
  Te  Te183  1  0.66961875  0.49684852  0.00097927  1
  Te  Te184  1  0.66383029  0.49750796  0.32968679  1
  Te  Te185  1  0.67168911  0.49926158  0.67048621  1
  Te  Te186  1  0.66659608  0.83415538  -0.00096664  1
  Te  Te187  1  0.66578974  0.83779894  0.33283260  1
  Te  Te188  1  0.66720355  0.83953253  0.66640808  1
  Te  Te189  1  -0.00468443  -0.00087115  0.16780677  1
  Te  Te190  1  -0.00085281  -0.00130778  0.49932814  1
  Te  Te191  1  0.00001086  -0.00278978  0.83272841  1
  Te  Te192  1  0.00737595  0.33224928  0.17214359  1
  Te  Te193  1  0.00377204  0.33806337  0.50126331  1
  Te  Te194  1  0.00023930  0.33718920  0.83188074  1
  Te  Te195  1  -0.00804749  0.66728956  0.16278570  1
  Te  Te196  1  -0.00344885  0.66295578  0.49911194  1
  Te  Te197  1  -0.00513464  0.66216367  0.83755419  1
  Te  Te198  1  0.33845654  -0.00005221  0.16537226  1
  Te  Te199  1  0.34037168  -0.00203393  0.50255800  1
  Te  Te200  1  0.33557039  0.00199216  0.83391358  1
  Te  Te201  1  0.33622971  0.33530567  0.16483430  1
  Te  Te202  1  0.33166107  0.33535330  0.50359700  1
  Te  Te203  1  0.33406195  0.33336517  0.83345687  1
  Te  Te204  1  0.33504920  0.66314130  0.16436498  1
  Te  Te205  1  0.33786747  0.66301658  0.49970720  1
  Te  Te206  1  0.33601375  0.66594500  0.83500828  1
  Te  Te207  1  0.66372519  -0.00322085  0.16461069  1
  Te  Te208  1  0.66198944  -0.00341257  0.50229467  1
  Te  Te209  1  0.66496493  -0.00543313  0.83204827  1
  Te  Te210  1  0.66424038  0.33272727  0.16737297  1
  Te  Te211  1  0.66607814  0.33314804  0.49297449  1
  Te  Te212  1  0.66573814  0.33675748  0.83184535  1
  Te  Te213  1  0.66929322  0.67561099  0.16586766  1
  Te  Te214  1  0.66587517  0.67128800  0.49949024  1
  Te  Te215  1  0.66462072  0.66481389  0.83443712  1
