# generated using pymatgen
data_AgSbTe2
_symmetry_space_group_name_H-M   'P 1'
_cell_length_a   18.32621123
_cell_length_b   18.32462326
_cell_length_c   18.32424283
_cell_angle_alpha   90.00042696
_cell_angle_beta   90.00064858
_cell_angle_gamma   90.00032819
_symmetry_Int_Tables_number   1
_chemical_formula_structural   AgSbTe2
_chemical_formula_sum   'Ag54 Sb54 Te108'
_cell_volume   6153.66402135
_cell_formula_units_Z   54
loop_
 _symmetry_equiv_pos_site_id
 _symmetry_equiv_pos_as_xyz
  1  'x, y, z'
loop_
 _atom_site_type_symbol
 _atom_site_label
 _atom_site_symmetry_multiplicity
 _atom_site_fract_x
 _atom_site_fract_y
 _atom_site_fract_z
 _atom_site_occupancy
  Ag  Ag0  1  0.17225717  0.50353726  0.33540006  1
  Ag  Ag1  1  0.50028324  0.50219891  0.65603293  1
  Ag  Ag2  1  0.33959123  0.00220020  0.33464291  1
  Ag  Ag3  1  0.17326906  -0.00088135  0.49727091  1
  Ag  Ag4  1  0.83614209  0.66245742  0.82675119  1
  Ag  Ag5  1  0.16860725  0.50572034  0.00568135  1
  Ag  Ag6  1  -0.00028534  0.82955253  0.83112045  1
  Ag  Ag7  1  0.65968546  0.50288423  0.49819048  1
  Ag  Ag8  1  0.66977780  0.50254168  0.82901101  1
  Ag  Ag9  1  0.49892466  0.16793778  0.00619727  1
  Ag  Ag10  1  0.32885932  0.66093932  0.00248622  1
  Ag  Ag11  1  0.33943461  0.17182447  0.49593557  1
  Ag  Ag12  1  0.83380747  0.50078359  -0.00213643  1
  Ag  Ag13  1  -0.00143800  0.16669794  0.83155449  1
  Ag  Ag14  1  0.16472831  0.66434633  0.49797477  1
  Ag  Ag15  1  0.50345290  0.00000487  0.49699194  1
  Ag  Ag16  1  0.66177685  -0.00040067  0.33894315  1
  Ag  Ag17  1  0.67133267  0.66574183  0.33771082  1
  Ag  Ag18  1  0.83309702  0.34019510  0.82587717  1
  Ag  Ag19  1  0.33487076  0.50183037  0.17266104  1
  Ag  Ag20  1  0.82929418  0.83134813  0.65651994  1
  Ag  Ag21  1  0.82481059  0.33845589  0.50527678  1
  Ag  Ag22  1  0.16574133  0.16719181  0.65642709  1
  Ag  Ag23  1  0.83338469  0.83060746  0.34007040  1
  Ag  Ag24  1  0.82769654  0.16337292  0.34267432  1
  Ag  Ag25  1  0.16601324  0.82401787  0.00398133  1
  Ag  Ag26  1  0.83067593  0.16846366  0.66024737  1
  Ag  Ag27  1  0.66637435  0.00356821  0.65572015  1
  Ag  Ag28  1  0.66328566  0.66260410  0.00468343  1
  Ag  Ag29  1  0.66417783  0.16458416  0.49715341  1
  Ag  Ag30  1  0.16226455  0.66721922  0.83956667  1
  Ag  Ag31  1  0.33777901  0.16820189  0.17623824  1
  Ag  Ag32  1  -0.01053412  0.82662175  0.49895950  1
  Ag  Ag33  1  0.50606984  0.34369563  0.50237410  1
  Ag  Ag34  1  0.66474783  0.33338567  0.66110110  1
  Ag  Ag35  1  0.49810761  0.00111846  0.17921506  1
  Ag  Ag36  1  0.33423840  0.66209631  0.65823125  1
  Ag  Ag37  1  0.34003017  0.33904416  0.66133012  1
  Ag  Ag38  1  0.32971224  0.82208680  0.16792011  1
  Ag  Ag39  1  -0.00210718  0.66795680  0.33881500  1
  Ag  Ag40  1  0.82861316  0.66688141  0.50116697  1
  Ag  Ag41  1  0.34331884  0.49940590  0.49544958  1
  Ag  Ag42  1  0.49753350  0.50423765  0.34257518  1
  Ag  Ag43  1  0.67005691  0.82912241  0.49950678  1
  Ag  Ag44  1  0.50341178  0.65742168  0.50076202  1
  Ag  Ag45  1  0.50546091  0.82734917  0.66090179  1
  Ag  Ag46  1  0.66025561  0.50024849  0.17268540  1
  Ag  Ag47  1  0.00581842  0.82999197  0.16868528  1
  Ag  Ag48  1  0.33206161  0.34116362  -0.00127220  1
  Ag  Ag49  1  0.16916368  0.16751283  0.33941311  1
  Ag  Ag50  1  0.66009349  0.17015773  0.17714679  1
  Ag  Ag51  1  -0.00161635  0.50769241  0.49755260  1
  Ag  Ag52  1  0.17019377  0.66611881  0.16381592  1
  Ag  Ag53  1  0.00241706  0.33660056  -0.00199918  1
  Sb  Sb54  1  -0.00416145  0.50271622  0.83135727  1
  Sb  Sb55  1  0.16253880  0.82817963  0.33198022  1
  Sb  Sb56  1  0.66404998  -0.00375074  0.00405845  1
  Sb  Sb57  1  0.66287969  0.66404440  0.65845322  1
  Sb  Sb58  1  -0.00467510  -0.00083056  0.66234067  1
  Sb  Sb59  1  0.33579003  0.50148242  0.83226201  1
  Sb  Sb60  1  0.67090617  0.17198110  0.82797596  1
  Sb  Sb61  1  0.83547060  0.66546442  0.17061054  1
  Sb  Sb62  1  0.49829718  0.49809883  0.00193286  1
  Sb  Sb63  1  0.00423576  0.66301547  0.00276151  1
  Sb  Sb64  1  -0.00237372  0.16603380  0.50167973  1
  Sb  Sb65  1  0.33177959  0.66629510  0.33516079  1
  Sb  Sb66  1  0.50092315  0.16584206  0.33430632  1
  Sb  Sb67  1  0.50207340  0.66532887  0.82698659  1
  Sb  Sb68  1  0.00136489  0.16301407  0.16622875  1
  Sb  Sb69  1  0.67371726  0.82442961  0.82393708  1
  Sb  Sb70  1  0.50379501  0.83106053  0.34074496  1
  Sb  Sb71  1  0.49886315  0.33197522  0.17246446  1
  Sb  Sb72  1  0.17384398  -0.00506730  0.17473201  1
  Sb  Sb73  1  0.16974985  0.33913441  0.16611462  1
  Sb  Sb74  1  0.49617523  0.83339160  -0.00135787  1
  Sb  Sb75  1  0.83693437  0.82339880  -0.00025818  1
  Sb  Sb76  1  0.16826599  0.33588913  0.50122475  1
  Sb  Sb77  1  -0.00095621  0.33784292  0.33301048  1
  Sb  Sb78  1  0.50446224  0.33514375  0.82749122  1
  Sb  Sb79  1  0.82624608  0.50066685  0.66534402  1
  Sb  Sb80  1  0.16563232  -0.00372999  0.82677966  1
  Sb  Sb81  1  0.32855647  0.82908230  0.83626540  1
  Sb  Sb82  1  0.50112815  0.00069986  0.82699401  1
  Sb  Sb83  1  0.83073623  0.33538743  0.16885672  1
  Sb  Sb84  1  0.00201572  0.00081172  0.00055312  1
  Sb  Sb85  1  0.49672072  0.66825197  0.17232150  1
  Sb  Sb86  1  0.66500391  0.33982276  -0.00450818  1
  Sb  Sb87  1  0.66479129  0.83139856  0.17408630  1
  Sb  Sb88  1  0.17331732  0.49905564  0.66302841  1
  Sb  Sb89  1  0.83271202  -0.00122575  0.83071630  1
  Sb  Sb90  1  0.82941496  0.17523320  -0.00115562  1
  Sb  Sb91  1  0.33823475  -0.00009990  0.65596531  1
  Sb  Sb92  1  0.33350454  -0.00017448  0.01000603  1
  Sb  Sb93  1  -0.00050335  -0.00573466  0.33637096  1
  Sb  Sb94  1  0.33539052  0.83040125  0.49514778  1
  Sb  Sb95  1  0.33433055  0.33230995  0.33710187  1
  Sb  Sb96  1  0.00249352  0.66673756  0.65965572  1
  Sb  Sb97  1  0.66660966  0.33414000  0.34225296  1
  Sb  Sb98  1  0.16174516  0.33900755  0.83258386  1
  Sb  Sb99  1  0.50197489  0.16873192  0.66234370  1
  Sb  Sb100  1  -0.00354460  0.33232586  0.66794090  1
  Sb  Sb101  1  0.82685305  -0.00038134  0.17087937  1
  Sb  Sb102  1  0.32938792  0.16937027  0.82882493  1
  Sb  Sb103  1  0.83070303  0.50247443  0.33587145  1
  Sb  Sb104  1  0.16611440  0.83366340  0.66515123  1
  Sb  Sb105  1  0.00290974  0.50539307  0.16936633  1
  Sb  Sb106  1  0.82706162  -0.00388390  0.49968426  1
  Sb  Sb107  1  0.17138263  0.16871368  0.00203524  1
  Te  Te108  1  0.17120832  0.16561731  0.17134380  1
  Te  Te109  1  0.16494960  0.16900276  0.49877958  1
  Te  Te110  1  0.16071723  0.16568728  0.83242815  1
  Te  Te111  1  0.16944512  0.50457684  0.16769661  1
  Te  Te112  1  0.16662128  0.50270300  0.49780799  1
  Te  Te113  1  0.16532400  0.50700901  0.83608027  1
  Te  Te114  1  0.16879164  0.82981638  0.16570351  1
  Te  Te115  1  0.16719388  0.82846424  0.49997939  1
  Te  Te116  1  0.16087838  0.82876889  0.83479643  1
  Te  Te117  1  0.49993742  0.16656274  0.16839720  1
  Te  Te118  1  0.49991862  0.16199540  0.50034915  1
  Te  Te119  1  0.50041303  0.16696507  0.84005582  1
  Te  Te120  1  0.49884826  0.49992099  0.16971962  1
  Te  Te121  1  0.49900486  0.50070948  0.50012758  1
  Te  Te122  1  0.50871447  0.50016744  0.82853398  1
  Te  Te123  1  0.49506864  0.83859636  0.16582967  1
  Te  Te124  1  0.50233090  0.83740386  0.50240109  1
  Te  Te125  1  0.50184899  0.83413199  0.82481940  1
  Te  Te126  1  0.82906107  0.16714230  0.16964138  1
  Te  Te127  1  0.83258578  0.16545382  0.50093869  1
  Te  Te128  1  0.83740179  0.16990539  0.83088526  1
  Te  Te129  1  0.82867503  0.49973754  0.16271246  1
  Te  Te130  1  0.83242255  0.50329462  0.49966732  1
  Te  Te131  1  0.83122788  0.50165947  0.83264527  1
  Te  Te132  1  0.83638718  0.83312612  0.16979939  1
  Te  Te133  1  0.83153482  0.83205292  0.49984753  1
  Te  Te134  1  0.84033872  0.82808189  0.83206810  1
  Te  Te135  1  0.16723029  -0.00598895  -0.00051900  1
  Te  Te136  1  0.16861089  0.00361859  0.33870611  1
  Te  Te137  1  0.16825595  0.00573020  0.65975786  1
  Te  Te138  1  0.16877094  0.33806286  -0.00098617  1
  Te  Te139  1  0.16531739  0.33219197  0.33302549  1
  Te  Te140  1  0.17169377  0.32715887  0.66864472  1
  Te  Te141  1  0.16614037  0.66570053  0.00115273  1
  Te  Te142  1  0.16579518  0.66380635  0.33711548  1
  Te  Te143  1  0.17318924  0.66687852  0.66245891  1
  Te  Te144  1  0.49966949  0.00413099  -0.00005378  1
  Te  Te145  1  0.50135643  -0.00183923  0.33584572  1
  Te  Te146  1  0.50546309  -0.00277704  0.66067936  1
  Te  Te147  1  0.49538157  0.32990987  -0.00104746  1
  Te  Te148  1  0.49976828  0.34387852  0.34146426  1
  Te  Te149  1  0.49994799  0.33479418  0.66223495  1
  Te  Te150  1  0.49839564  0.66708089  -0.00072872  1
  Te  Te151  1  0.50502783  0.66421037  0.33901454  1
  Te  Te152  1  0.49566022  0.66652496  0.66265609  1
  Te  Te153  1  0.83267554  -0.00019975  0.00042670  1
  Te  Te154  1  0.82843294  0.00186125  0.33305075  1
  Te  Te155  1  0.82699261  0.00125232  0.66770096  1
  Te  Te156  1  0.83372079  0.33986426  -0.00305250  1
  Te  Te157  1  0.83467482  0.32647307  0.33949172  1
  Te  Te158  1  0.83079272  0.33301176  0.66537812  1
  Te  Te159  1  0.83133293  0.66061474  -0.00073290  1
  Te  Te160  1  0.83273828  0.66858374  0.33697355  1
  Te  Te161  1  0.83357525  0.66934444  0.66565830  1
  Te  Te162  1  0.00018648  0.17151453  -0.00335208  1
  Te  Te163  1  0.00128171  0.16648182  0.33188284  1
  Te  Te164  1  -0.00162451  0.16578884  0.67021562  1
  Te  Te165  1  0.00063354  0.49653790  0.00077174  1
  Te  Te166  1  0.00282108  0.50505011  0.33621356  1
  Te  Te167  1  0.00303604  0.49851595  0.65878563  1
  Te  Te168  1  0.00411138  0.83327055  0.00131153  1
  Te  Te169  1  -0.00412786  0.82933423  0.33621409  1
  Te  Te170  1  -0.00405715  0.83377459  0.66511887  1
  Te  Te171  1  0.33602110  0.16809166  0.00075881  1
  Te  Te172  1  0.33317920  0.16662048  0.33594853  1
  Te  Te173  1  0.33135470  0.16852987  0.66145626  1
  Te  Te174  1  0.33145817  0.50040147  -0.00011049  1
  Te  Te175  1  0.33258812  0.50040188  0.33341712  1
  Te  Te176  1  0.33813127  0.50020216  0.66537159  1
  Te  Te177  1  0.32895893  0.82892020  0.00512065  1
  Te  Te178  1  0.33315877  0.83821031  0.32705359  1
  Te  Te179  1  0.33663139  0.82960380  0.66747966  1
  Te  Te180  1  0.66194982  0.16602429  0.00156945  1
  Te  Te181  1  0.66670095  0.16558311  0.33501894  1
  Te  Te182  1  0.66903049  0.16843266  0.66346721  1
  Te  Te183  1  0.66612312  0.50309586  0.00358514  1
  Te  Te184  1  0.66658113  0.50223412  0.33481974  1
  Te  Te185  1  0.66274338  0.49754762  0.66044567  1
  Te  Te186  1  0.66647397  0.82651189  -0.00023223  1
  Te  Te187  1  0.67054526  0.83209190  0.33727244  1
  Te  Te188  1  0.66811507  0.83348347  0.66149125  1
  Te  Te189  1  0.00103779  -0.00862168  0.16747129  1
  Te  Te190  1  0.01130285  -0.00602217  0.49951311  1
  Te  Te191  1  0.00031396  -0.00046053  0.83286496  1
  Te  Te192  1  -0.00091265  0.33286813  0.15884917  1
  Te  Te193  1  -0.00688886  0.33756416  0.49985976  1
  Te  Te194  1  -0.00547279  0.33272813  0.83595081  1
  Te  Te195  1  0.00496120  0.67100954  0.17267732  1
  Te  Te196  1  -0.00010680  0.66756366  0.49906310  1
  Te  Te197  1  -0.00099984  0.66906485  0.83349189  1
  Te  Te198  1  0.33875673  0.00842532  0.17322503  1
  Te  Te199  1  0.33363943  0.00106595  0.49486420  1
  Te  Te200  1  0.33303374  -0.00097341  0.83315734  1
  Te  Te201  1  0.33421497  0.33491996  0.16110371  1
  Te  Te202  1  0.33409724  0.33317010  0.50277879  1
  Te  Te203  1  0.33340756  0.33323117  0.83394825  1
  Te  Te204  1  0.33122724  0.66323975  0.16698606  1
  Te  Te205  1  0.33444072  0.66350880  0.49953364  1
  Te  Te206  1  0.32939836  0.66664297  0.83808441  1
  Te  Te207  1  0.65973781  0.00291821  0.17167170  1
  Te  Te208  1  0.66651841  0.00316023  0.49890694  1
  Te  Te209  1  0.66623974  -0.00122640  0.82985874  1
  Te  Te210  1  0.66577097  0.33274942  0.16447232  1
  Te  Te211  1  0.66625918  0.33271173  0.50270052  1
  Te  Te212  1  0.67274234  0.33928849  0.82724276  1
  Te  Te213  1  0.66551339  0.66295122  0.16872025  1
  Te  Te214  1  0.66678432  0.66598207  0.49906481  1
  Te  Te215  1  0.66992486  0.66163300  0.83761882  1
