# generated using pymatgen
data_AgSbTe2
_symmetry_space_group_name_H-M   'P 1'
_cell_length_a   18.36061221
_cell_length_b   18.34793699
_cell_length_c   18.35563098
_cell_angle_alpha   89.99228532
_cell_angle_beta   89.99831369
_cell_angle_gamma   89.99921023
_symmetry_Int_Tables_number   1
_chemical_formula_structural   AgSbTe2
_chemical_formula_sum   'Ag54 Sb54 Te108'
_cell_volume   6183.63308259
_cell_formula_units_Z   54
loop_
 _symmetry_equiv_pos_site_id
 _symmetry_equiv_pos_as_xyz
  1  'x, y, z'
loop_
 _atom_site_type_symbol
 _atom_site_label
 _atom_site_symmetry_multiplicity
 _atom_site_fract_x
 _atom_site_fract_y
 _atom_site_fract_z
 _atom_site_occupancy
  Ag  Ag0  1  -0.00587162  0.66520349  -0.00122249  1
  Ag  Ag1  1  0.82757827  0.17045861  0.66758564  1
  Ag  Ag2  1  0.65663027  0.82043813  0.84296418  1
  Ag  Ag3  1  -0.00635263  0.34327411  0.32638503  1
  Ag  Ag4  1  0.33293587  0.66906614  0.67046326  1
  Ag  Ag5  1  0.66845607  0.50383184  0.16031449  1
  Ag  Ag6  1  0.50843049  0.50295722  0.00117021  1
  Ag  Ag7  1  0.50976988  0.82167447  -0.00276831  1
  Ag  Ag8  1  0.16680333  0.50215019  0.67845545  1
  Ag  Ag9  1  0.33208553  0.50748194  0.83674820  1
  Ag  Ag10  1  0.66615616  -0.01349484  -0.01140574  1
  Ag  Ag11  1  0.50763457  0.34143357  0.17095729  1
  Ag  Ag12  1  0.83363871  0.66154578  0.15531353  1
  Ag  Ag13  1  0.33265262  0.82703666  0.51224196  1
  Ag  Ag14  1  0.33919390  0.82718724  0.83202231  1
  Ag  Ag15  1  0.16834119  0.66396189  0.83007737  1
  Ag  Ag16  1  0.50428648  0.66765293  0.83107737  1
  Ag  Ag17  1  0.66147258  0.50722750  0.83966141  1
  Ag  Ag18  1  0.66584689  0.66844853  0.67456141  1
  Ag  Ag19  1  0.83582807  0.34245303  0.16449852  1
  Ag  Ag20  1  0.33941852  -0.00824545  0.67363710  1
  Ag  Ag21  1  0.66543611  0.17196175  0.50445544  1
  Ag  Ag22  1  -0.00088942  0.66428684  0.32357726  1
  Ag  Ag23  1  0.82850709  0.82814440  0.32285629  1
  Ag  Ag24  1  0.83604481  0.34362043  0.83840500  1
  Ag  Ag25  1  0.17819659  -0.01291454  0.83195284  1
  Ag  Ag26  1  0.34021005  0.50027258  0.15660669  1
  Ag  Ag27  1  0.00575735  0.82528589  0.49323739  1
  Ag  Ag28  1  0.67123751  0.33720332  0.33339649  1
  Ag  Ag29  1  0.00665387  0.66608488  0.67216268  1
  Ag  Ag30  1  0.83384109  0.50391945  0.00097381  1
  Ag  Ag31  1  0.50621573  0.82315798  0.32675956  1
  Ag  Ag32  1  0.49818525  0.66461947  0.50855745  1
  Ag  Ag33  1  -0.01197699  0.82057716  0.16614915  1
  Ag  Ag34  1  0.33162956  0.16023708  0.82894593  1
  Ag  Ag35  1  0.81944713  0.66299505  0.84256658  1
  Ag  Ag36  1  0.16575714  0.66360094  0.50928199  1
  Ag  Ag37  1  0.50469115  0.34078797  0.49609164  1
  Ag  Ag38  1  0.50092736  0.16760961  0.66818124  1
  Ag  Ag39  1  -0.00069390  0.34634458  0.00633326  1
  Ag  Ag40  1  0.68084621  0.67106038  -0.01219669  1
  Ag  Ag41  1  0.49711822  -0.01485803  0.83206552  1
  Ag  Ag42  1  0.16456539  0.34170464  0.50420190  1
  Ag  Ag43  1  0.83350460  0.33385516  0.49821260  1
  Ag  Ag44  1  0.65830724  -0.00751845  0.67108885  1
  Ag  Ag45  1  0.16075631  0.50087895  -0.00240587  1
  Ag  Ag46  1  0.16477295  0.82005011  -0.00227440  1
  Ag  Ag47  1  0.17000737  0.17514937  0.67136702  1
  Ag  Ag48  1  0.82228419  0.81869291  0.00290875  1
  Ag  Ag49  1  0.15723122  0.33867913  0.15892465  1
  Ag  Ag50  1  0.50189921  0.50353227  0.32034199  1
  Ag  Ag51  1  0.16468618  0.34194359  0.83284088  1
  Ag  Ag52  1  0.67150425  0.82248348  0.15515762  1
  Ag  Ag53  1  -0.00602401  0.50259783  0.16313897  1
  Sb  Sb54  1  0.33289246  0.50266059  0.50429597  1
  Sb  Sb55  1  0.00109114  -0.00502509  0.66906102  1
  Sb  Sb56  1  0.33214588  0.33509401  0.66871084  1
  Sb  Sb57  1  0.50144232  -0.00141280  0.15929529  1
  Sb  Sb58  1  0.33352921  0.17571288  0.15875452  1
  Sb  Sb59  1  0.16955983  0.50229679  0.32832206  1
  Sb  Sb60  1  0.82976357  0.50250018  0.32599025  1
  Sb  Sb61  1  0.16577580  0.17318017  0.34014235  1
  Sb  Sb62  1  0.83335154  0.83228558  0.66939933  1
  Sb  Sb63  1  0.66379578  0.83263805  0.50260275  1
  Sb  Sb64  1  0.50223230  0.16948726  -0.00546434  1
  Sb  Sb65  1  0.33476450  -0.00508962  0.34215449  1
  Sb  Sb66  1  -0.00316093  -0.01065287  -0.00170906  1
  Sb  Sb67  1  0.00020293  0.17504098  0.16630761  1
  Sb  Sb68  1  0.16740979  -0.00376543  0.50908147  1
  Sb  Sb69  1  0.66560330  0.49717701  0.50063488  1
  Sb  Sb70  1  0.00154595  0.34010725  0.66724727  1
  Sb  Sb71  1  0.49940176  0.34020819  0.83347584  1
  Sb  Sb72  1  0.67035809  0.34333874  0.00300831  1
  Sb  Sb73  1  0.66801265  0.33625118  0.66516338  1
  Sb  Sb74  1  0.33689951  0.82485935  0.16056298  1
  Sb  Sb75  1  0.50194743  0.17169524  0.33975941  1
  Sb  Sb76  1  0.16760918  0.00108265  0.15715588  1
  Sb  Sb77  1  0.49834327  0.83138015  0.67182407  1
  Sb  Sb78  1  0.50088347  -0.00447603  0.50708740  1
  Sb  Sb79  1  0.00415033  0.16987355  0.83156450  1
  Sb  Sb80  1  0.83093431  -0.00701383  0.16451131  1
  Sb  Sb81  1  0.33226714  0.66482038  0.33959132  1
  Sb  Sb82  1  0.82900551  -0.00378232  0.83416640  1
  Sb  Sb83  1  0.66699150  0.17154113  0.16834037  1
  Sb  Sb84  1  0.66381065  0.16680681  0.82825272  1
  Sb  Sb85  1  0.16626754  0.17376016  -0.00798108  1
  Sb  Sb86  1  0.49832625  0.50181540  0.67083703  1
  Sb  Sb87  1  0.00089731  0.50467866  0.49404832  1
  Sb  Sb88  1  0.83414303  0.66318469  0.50246120  1
  Sb  Sb89  1  0.33482827  0.33644049  0.33272338  1
  Sb  Sb90  1  -0.00205880  0.16861488  0.50288798  1
  Sb  Sb91  1  0.50439308  0.66067944  0.16143691  1
  Sb  Sb92  1  -0.00041620  0.82695193  0.83649671  1
  Sb  Sb93  1  0.83142206  0.17239919  -0.00429255  1
  Sb  Sb94  1  0.33742442  -0.00399733  -0.00842637  1
  Sb  Sb95  1  0.00309284  0.50286115  0.84211844  1
  Sb  Sb96  1  -0.00007795  -0.00767700  0.33224366  1
  Sb  Sb97  1  0.66497600  0.00002980  0.33501150  1
  Sb  Sb98  1  0.32970728  0.33943758  -0.00205404  1
  Sb  Sb99  1  0.16564009  0.82819429  0.32952450  1
  Sb  Sb100  1  0.33536270  0.66385323  -0.00854709  1
  Sb  Sb101  1  0.83748466  0.49933634  0.67515242  1
  Sb  Sb102  1  0.16831742  0.82581911  0.67274164  1
  Sb  Sb103  1  0.83186534  0.00157482  0.50125052  1
  Sb  Sb104  1  0.33642610  0.16554723  0.50881189  1
  Sb  Sb105  1  0.66778822  0.66351920  0.33211168  1
  Sb  Sb106  1  0.83253334  0.17036549  0.33612706  1
  Sb  Sb107  1  0.16038648  0.66068428  0.15714048  1
  Te  Te108  1  0.16807772  0.17411732  0.16772070  1
  Te  Te109  1  0.16700947  0.16773230  0.50931724  1
  Te  Te110  1  0.16991047  0.17514421  0.82858961  1
  Te  Te111  1  0.16548280  0.49650922  0.16391214  1
  Te  Te112  1  0.16756679  0.50156773  0.49756101  1
  Te  Te113  1  0.16618790  0.50111801  0.83501760  1
  Te  Te114  1  0.16819931  0.83636971  0.16003137  1
  Te  Te115  1  0.16801728  0.82976280  0.49726978  1
  Te  Te116  1  0.16454650  0.83051045  0.83708313  1
  Te  Te117  1  0.49883706  0.17409711  0.16722795  1
  Te  Te118  1  0.50220543  0.16811577  0.50612100  1
  Te  Te119  1  0.49484530  0.17329913  0.82890271  1
  Te  Te120  1  0.50214099  0.50065087  0.16351071  1
  Te  Te121  1  0.49879968  0.50091729  0.50151663  1
  Te  Te122  1  0.49900552  0.50430437  0.83696235  1
  Te  Te123  1  0.50344367  0.83283005  0.16360604  1
  Te  Te124  1  0.49692906  0.82805242  0.49681293  1
  Te  Te125  1  0.50061727  0.82991736  0.83500743  1
  Te  Te126  1  0.83353166  0.17002985  0.16665580  1
  Te  Te127  1  0.83095061  0.17080897  0.50316006  1
  Te  Te128  1  0.83420646  0.16665033  0.82729876  1
  Te  Te129  1  0.83106139  0.50052920  0.16634836  1
  Te  Te130  1  0.83342704  0.49299542  0.50147591  1
  Te  Te131  1  0.83038576  0.50192466  0.83805814  1
  Te  Te132  1  0.83161081  0.83145157  0.16521012  1
  Te  Te133  1  0.83586819  0.83301428  0.49956604  1
  Te  Te134  1  0.83200426  0.82868401  0.83828242  1
  Te  Te135  1  0.16515525  0.00423128  -0.00909883  1
  Te  Te136  1  0.16745523  0.00261658  0.33156344  1
  Te  Te137  1  0.16844648  0.00288244  0.67315338  1
  Te  Te138  1  0.16184093  0.33801801  -0.00115662  1
  Te  Te139  1  0.16318944  0.33452053  0.33860467  1
  Te  Te140  1  0.16566133  0.33816491  0.66783647  1
  Te  Te141  1  0.16720474  0.66235627  -0.00487068  1
  Te  Te142  1  0.16165452  0.66732455  0.34559249  1
  Te  Te143  1  0.16790079  0.66569301  0.66682214  1
  Te  Te144  1  0.50509858  0.00071343  -0.00680098  1
  Te  Te145  1  0.49922630  -0.00254428  0.33278938  1
  Te  Te146  1  0.50008262  0.00340249  0.67000741  1
  Te  Te147  1  0.50141107  0.33906059  0.00556851  1
  Te  Te148  1  0.50127024  0.33615473  0.33454365  1
  Te  Te149  1  0.49973158  0.33027445  0.66173506  1
  Te  Te150  1  0.50003183  0.66469711  -0.00335902  1
  Te  Te151  1  0.50024021  0.66504261  0.33363775  1
  Te  Te152  1  0.50098584  0.66540104  0.66814737  1
  Te  Te153  1  0.82789155  0.00008994  -0.00054564  1
  Te  Te154  1  0.83338051  -0.00600273  0.33306712  1
  Te  Te155  1  0.83194793  0.00602014  0.66765953  1
  Te  Te156  1  0.83723623  0.33672769  -0.00049954  1
  Te  Te157  1  0.83380136  0.33461420  0.33402769  1
  Te  Te158  1  0.83536456  0.33080136  0.66625378  1
  Te  Te159  1  0.83694346  0.66476967  0.00059500  1
  Te  Te160  1  0.83719345  0.66954954  0.33588212  1
  Te  Te161  1  0.82788075  0.66657411  0.67197558  1
  Te  Te162  1  -0.00222823  0.16690419  0.00046009  1
  Te  Te163  1  0.00043301  0.17004271  0.33433275  1
  Te  Te164  1  0.00089868  0.16349771  0.66532139  1
  Te  Te165  1  -0.00060751  0.50276101  0.00261437  1
  Te  Te166  1  0.00073498  0.50129336  0.32607694  1
  Te  Te167  1  0.00529619  0.50746733  0.66208913  1
  Te  Te168  1  0.00434290  0.82806305  0.00565410  1
  Te  Te169  1  -0.00156104  0.82866257  0.32939950  1
  Te  Te170  1  0.00004921  0.82718539  0.65992149  1
  Te  Te171  1  0.33440069  0.16645708  -0.00964439  1
  Te  Te172  1  0.33332398  0.16403259  0.33205639  1
  Te  Te173  1  0.33300451  0.16781808  0.67093316  1
  Te  Te174  1  0.33202735  0.49910505  -0.00137738  1
  Te  Te175  1  0.34154237  0.49970935  0.32823051  1
  Te  Te176  1  0.32810908  0.50582537  0.67131634  1
  Te  Te177  1  0.32586011  0.83328871  -0.00478724  1
  Te  Te178  1  0.33988574  0.83329000  0.33113244  1
  Te  Te179  1  0.33305518  0.83191573  0.66949184  1
  Te  Te180  1  0.66633477  0.15723569  0.00091546  1
  Te  Te181  1  0.66689983  0.17156097  0.33937442  1
  Te  Te182  1  0.66650970  0.17010364  0.66422335  1
  Te  Te183  1  0.66870821  0.50417896  -0.00085629  1
  Te  Te184  1  0.66192914  0.49608134  0.33205750  1
  Te  Te185  1  0.66796853  0.50621645  0.67265435  1
  Te  Te186  1  0.66514202  0.83090904  -0.00061800  1
  Te  Te187  1  0.66613594  0.83448647  0.33402149  1
  Te  Te188  1  0.66707529  0.83382801  0.66958608  1
  Te  Te189  1  0.00116666  -0.00026259  0.16620343  1
  Te  Te190  1  0.00052251  -0.00931805  0.49913545  1
  Te  Te191  1  0.00428593  -0.00092521  0.83374098  1
  Te  Te192  1  -0.00203837  0.33676046  0.16717444  1
  Te  Te193  1  0.00123418  0.33323774  0.49836321  1
  Te  Te194  1  -0.00220931  0.33394921  0.83415614  1
  Te  Te195  1  -0.00001362  0.66440202  0.16510453  1
  Te  Te196  1  -0.00088292  0.66869806  0.50371262  1
  Te  Te197  1  0.00665450  0.66783638  0.83221149  1
  Te  Te198  1  0.33283799  0.00314280  0.16715203  1
  Te  Te199  1  0.33350849  -0.00743578  0.50992603  1
  Te  Te200  1  0.33654063  -0.00321898  0.83071270  1
  Te  Te201  1  0.33330787  0.33946120  0.16588018  1
  Te  Te202  1  0.32950794  0.33227462  0.50017927  1
  Te  Te203  1  0.33044184  0.33944419  0.83340997  1
  Te  Te204  1  0.32873389  0.65985431  0.17122198  1
  Te  Te205  1  0.33542304  0.66809780  0.50527860  1
  Te  Te206  1  0.32972110  0.66757830  0.83126500  1
  Te  Te207  1  0.66523189  -0.00138989  0.16720697  1
  Te  Te208  1  0.66656855  0.00681965  0.50600290  1
  Te  Te209  1  0.66359797  0.00175834  0.82886094  1
  Te  Te210  1  0.66810041  0.33567555  0.16905060  1
  Te  Te211  1  0.66568178  0.33237760  0.49815551  1
  Te  Te212  1  0.67196575  0.33530802  0.83516836  1
  Te  Te213  1  0.67062958  0.66539749  0.16812668  1
  Te  Te214  1  0.66017013  0.66658520  0.50275959  1
  Te  Te215  1  0.66408422  0.66503137  0.83218794  1
