# generated using pymatgen
data_AgSbTe2
_symmetry_space_group_name_H-M   'P 1'
_cell_length_a   18.34136292
_cell_length_b   18.33502526
_cell_length_c   18.33961164
_cell_angle_alpha   90.00054827
_cell_angle_beta   90.00241452
_cell_angle_gamma   89.99791663
_symmetry_Int_Tables_number   1
_chemical_formula_structural   AgSbTe2
_chemical_formula_sum   'Ag54 Sb54 Te108'
_cell_volume   6167.41611088
_cell_formula_units_Z   54
loop_
 _symmetry_equiv_pos_site_id
 _symmetry_equiv_pos_as_xyz
  1  'x, y, z'
loop_
 _atom_site_type_symbol
 _atom_site_label
 _atom_site_symmetry_multiplicity
 _atom_site_fract_x
 _atom_site_fract_y
 _atom_site_fract_z
 _atom_site_occupancy
  Ag  Ag0  1  0.65755003  0.66614448  0.66476582  1
  Ag  Ag1  1  -0.00553582  -0.00207361  0.33833231  1
  Ag  Ag2  1  0.66941376  -0.00243334  0.01169427  1
  Ag  Ag3  1  0.17330651  0.82866353  0.34026175  1
  Ag  Ag4  1  0.82917796  0.33609019  0.83577464  1
  Ag  Ag5  1  0.18078871  0.50875809  0.65706495  1
  Ag  Ag6  1  0.83795417  0.00075330  0.49271532  1
  Ag  Ag7  1  0.67164238  0.16203931  0.16533979  1
  Ag  Ag8  1  0.50127372  0.51047636  0.33366976  1
  Ag  Ag9  1  0.33653223  0.50194754  0.81957157  1
  Ag  Ag10  1  0.33087335  -0.01122993  0.66306366  1
  Ag  Ag11  1  0.00657113  0.66974634  0.66086044  1
  Ag  Ag12  1  -0.00334892  0.32928771  -0.00148000  1
  Ag  Ag13  1  0.00378370  -0.00162936  0.65596635  1
  Ag  Ag14  1  0.17448959  0.82582446  0.65684307  1
  Ag  Ag15  1  0.82854294  0.50563903  0.00353971  1
  Ag  Ag16  1  0.66930911  0.66544199  0.01307233  1
  Ag  Ag17  1  0.34097542  0.82813449  0.18166822  1
  Ag  Ag18  1  0.83187606  0.66032131  0.84382138  1
  Ag  Ag19  1  0.67191662  0.16945843  0.83229029  1
  Ag  Ag20  1  0.66835865  0.51077744  0.16775350  1
  Ag  Ag21  1  0.33679413  0.66557329  0.00255082  1
  Ag  Ag22  1  -0.00881391  0.16420077  0.16396809  1
  Ag  Ag23  1  0.50269283  0.17314721  0.66633451  1
  Ag  Ag24  1  0.66062747  0.83385097  0.49086772  1
  Ag  Ag25  1  0.50779213  0.33672874  0.82759721  1
  Ag  Ag26  1  -0.00146064  0.15859553  0.49914862  1
  Ag  Ag27  1  0.16120032  -0.00791604  0.49972403  1
  Ag  Ag28  1  0.65854298  0.67325781  0.32457265  1
  Ag  Ag29  1  -0.00699635  0.16710288  0.84010105  1
  Ag  Ag30  1  0.82525275  0.66830994  0.16516456  1
  Ag  Ag31  1  0.33478578  0.66492097  0.65647923  1
  Ag  Ag32  1  0.16923824  0.51248753  0.33894041  1
  Ag  Ag33  1  0.00269589  0.66996902  0.33386910  1
  Ag  Ag34  1  -0.01128979  0.66281917  0.00281436  1
  Ag  Ag35  1  0.50732697  0.50345222  -0.00148688  1
  Ag  Ag36  1  0.49525180  0.50357199  0.66634747  1
  Ag  Ag37  1  0.66326779  0.82322987  0.17435566  1
  Ag  Ag38  1  0.65877278  0.33867404  0.66872117  1
  Ag  Ag39  1  0.50106255  0.82760687  0.33766155  1
  Ag  Ag40  1  0.83559323  0.17034810  0.00054295  1
  Ag  Ag41  1  0.16196393  0.16081326  0.33422690  1
  Ag  Ag42  1  0.15488335  0.16521052  0.00419828  1
  Ag  Ag43  1  0.67357770  -0.00987369  0.32927319  1
  Ag  Ag44  1  0.82480572  0.50725646  0.32681174  1
  Ag  Ag45  1  0.67138632  0.15764478  0.50106947  1
  Ag  Ag46  1  0.33166313  0.82922446  0.49983617  1
  Ag  Ag47  1  0.33587903  0.66905281  0.33787888  1
  Ag  Ag48  1  0.49593215  0.82169951  0.65908437  1
  Ag  Ag49  1  0.34214147  0.35037571  0.66760131  1
  Ag  Ag50  1  0.51166300  0.66668242  0.17394622  1
  Ag  Ag51  1  0.16872991  0.67361857  0.49887540  1
  Ag  Ag52  1  0.33165202  0.51220361  0.50762667  1
  Ag  Ag53  1  0.82829336  -0.00146582  0.17141484  1
  Sb  Sb54  1  0.49305635  0.66763615  0.49501542  1
  Sb  Sb55  1  0.66322672  0.49828055  0.83577560  1
  Sb  Sb56  1  -0.00078072  0.33276535  0.67094843  1
  Sb  Sb57  1  0.33316032  0.34402568  0.33997476  1
  Sb  Sb58  1  0.33117985  -0.00934541  0.33889879  1
  Sb  Sb59  1  0.83131361  0.82993868  0.00235640  1
  Sb  Sb60  1  0.50117966  0.33476356  0.50724465  1
  Sb  Sb61  1  0.50593702  0.17299849  -0.00352786  1
  Sb  Sb62  1  0.16550573  0.66740186  0.17494802  1
  Sb  Sb63  1  0.33197246  0.16272778  0.50204310  1
  Sb  Sb64  1  -0.00047110  0.83439527  0.83089033  1
  Sb  Sb65  1  0.66662081  0.33511001  0.33739798  1
  Sb  Sb66  1  0.66190251  0.50699183  0.49715943  1
  Sb  Sb67  1  -0.00029898  0.33188377  0.33001381  1
  Sb  Sb68  1  0.33429755  0.17239970  0.82982159  1
  Sb  Sb69  1  -0.00367777  0.83447718  0.17057275  1
  Sb  Sb70  1  -0.00617752  0.49980632  0.16775805  1
  Sb  Sb71  1  0.82950111  0.83063234  0.33341841  1
  Sb  Sb72  1  0.00330649  0.83793599  0.49877679  1
  Sb  Sb73  1  0.50386605  0.34232330  0.16084561  1
  Sb  Sb74  1  0.16020093  -0.00085892  0.17545217  1
  Sb  Sb75  1  0.66611964  -0.00140469  0.66188057  1
  Sb  Sb76  1  0.33718958  -0.00523025  -0.00348199  1
  Sb  Sb77  1  0.00366091  0.49945875  0.49902992  1
  Sb  Sb78  1  0.50171277  0.82412562  0.00270551  1
  Sb  Sb79  1  0.50199192  0.00587541  0.82956857  1
  Sb  Sb80  1  0.00122545  0.49869906  0.83386897  1
  Sb  Sb81  1  0.50383980  0.66079728  0.83263644  1
  Sb  Sb82  1  0.50153827  -0.00395501  0.50034480  1
  Sb  Sb83  1  0.16699311  0.33454858  0.50143743  1
  Sb  Sb84  1  0.33982578  0.50987266  0.17045172  1
  Sb  Sb85  1  0.67234483  0.33629909  -0.00484197  1
  Sb  Sb86  1  0.33497189  0.82368472  0.82424090  1
  Sb  Sb87  1  0.82948225  0.16633472  0.67064537  1
  Sb  Sb88  1  0.83170175  0.83222195  0.66358993  1
  Sb  Sb89  1  0.83236203  0.00189020  0.83457259  1
  Sb  Sb90  1  0.83199312  0.33420405  0.16111146  1
  Sb  Sb91  1  0.82974350  0.50363401  0.66772675  1
  Sb  Sb92  1  0.16499997  0.33323561  0.83201707  1
  Sb  Sb93  1  0.16555507  0.50148286  0.00131547  1
  Sb  Sb94  1  -0.00541523  0.00163843  0.00297695  1
  Sb  Sb95  1  0.50943285  -0.00803328  0.16708717  1
  Sb  Sb96  1  0.16792888  0.83429906  0.00335179  1
  Sb  Sb97  1  0.16627838  0.33259512  0.16630940  1
  Sb  Sb98  1  0.83656038  0.67143360  0.49548093  1
  Sb  Sb99  1  0.66547345  0.83366462  0.83348000  1
  Sb  Sb100  1  0.83208783  0.32929058  0.50411975  1
  Sb  Sb101  1  0.83573931  0.16604829  0.32888880  1
  Sb  Sb102  1  0.16529703  0.00260840  0.82645157  1
  Sb  Sb103  1  0.16376751  0.66535180  0.82482078  1
  Sb  Sb104  1  0.16837064  0.16562455  0.66413579  1
  Sb  Sb105  1  0.33435583  0.15816509  0.16732243  1
  Sb  Sb106  1  0.33040754  0.34005070  -0.00572294  1
  Sb  Sb107  1  0.50065965  0.16496628  0.33718345  1
  Te  Te108  1  0.16620115  0.16532985  0.16740937  1
  Te  Te109  1  0.16407493  0.16386216  0.49638765  1
  Te  Te110  1  0.16198818  0.16781180  0.83815573  1
  Te  Te111  1  0.16684979  0.49897306  0.17410164  1
  Te  Te112  1  0.16904907  0.50063880  0.49875857  1
  Te  Te113  1  0.17305149  0.49919651  0.83239892  1
  Te  Te114  1  0.17164586  0.83456060  0.17189406  1
  Te  Te115  1  0.16592363  0.83330617  0.50032651  1
  Te  Te116  1  0.16718165  0.83437893  0.82807262  1
  Te  Te117  1  0.50352122  0.16756104  0.16650463  1
  Te  Te118  1  0.50447321  0.16577288  0.50420961  1
  Te  Te119  1  0.50369378  0.17425011  0.82874570  1
  Te  Te120  1  0.50591828  0.50617193  0.16665416  1
  Te  Te121  1  0.49518935  0.50005408  0.49971665  1
  Te  Te122  1  0.49728457  0.49678014  0.83127051  1
  Te  Te123  1  0.50178584  0.82687213  0.16870464  1
  Te  Te124  1  0.49973835  0.83283010  0.49955237  1
  Te  Te125  1  0.50038998  0.83542434  0.82478452  1
  Te  Te126  1  0.83243842  0.16703237  0.16383829  1
  Te  Te127  1  0.83271785  0.16229442  0.49897432  1
  Te  Te128  1  0.83260575  0.16732091  0.83714668  1
  Te  Te129  1  0.82922703  0.50150423  0.16578686  1
  Te  Te130  1  0.83315498  0.49859818  0.49395848  1
  Te  Te131  1  0.83385684  0.49950292  0.83632377  1
  Te  Te132  1  0.82756081  0.83404922  0.16706358  1
  Te  Te133  1  0.82338129  0.84103799  0.49978447  1
  Te  Te134  1  0.83288294  0.82421578  0.83248851  1
  Te  Te135  1  0.16754717  0.00384035  0.00059385  1
  Te  Te136  1  0.16496580  0.00105664  0.33868597  1
  Te  Te137  1  0.16519583  0.00042131  0.66166943  1
  Te  Te138  1  0.16019489  0.32921261  -0.00046380  1
  Te  Te139  1  0.16761756  0.32855246  0.33340710  1
  Te  Te140  1  0.16932723  0.33838554  0.66715826  1
  Te  Te141  1  0.16777123  0.66672659  -0.00029455  1
  Te  Te142  1  0.16496214  0.66885982  0.33593387  1
  Te  Te143  1  0.16689956  0.66655311  0.66432130  1
  Te  Te144  1  0.50667293  0.00110188  -0.00171915  1
  Te  Te145  1  0.50368748  -0.00394041  0.33287452  1
  Te  Te146  1  0.49660476  0.00170332  0.66622533  1
  Te  Te147  1  0.49862227  0.34162421  -0.00733559  1
  Te  Te148  1  0.49899144  0.33932052  0.33195866  1
  Te  Te149  1  0.50131709  0.33459510  0.66862815  1
  Te  Te150  1  0.50222524  0.66172319  -0.00074662  1
  Te  Te151  1  0.50072004  0.66759938  0.33241409  1
  Te  Te152  1  0.49736483  0.66421291  0.66827553  1
  Te  Te153  1  0.82891090  0.00224530  0.00264956  1
  Te  Te154  1  0.83367100  0.00159710  0.33240596  1
  Te  Te155  1  0.84060234  -0.00074505  0.66494886  1
  Te  Te156  1  0.83696600  0.33256941  -0.00456987  1
  Te  Te157  1  0.83389253  0.34543858  0.33423699  1
  Te  Te158  1  0.82970973  0.33513875  0.67356630  1
  Te  Te159  1  0.83014810  0.66650875  0.00302225  1
  Te  Te160  1  0.83731369  0.66513064  0.33166666  1
  Te  Te161  1  0.83829676  0.66654273  0.66581472  1
  Te  Te162  1  -0.00291362  0.16295178  0.00118901  1
  Te  Te163  1  0.00093046  0.16580042  0.33215581  1
  Te  Te164  1  0.00071404  0.16499000  0.66426125  1
  Te  Te165  1  -0.00295466  0.50288285  0.00073103  1
  Te  Te166  1  0.00634136  0.50203333  0.33332658  1
  Te  Te167  1  0.00135452  0.50374618  0.66665393  1
  Te  Te168  1  0.00203467  0.82548983  0.00061938  1
  Te  Te169  1  0.00557661  0.83298517  0.33217954  1
  Te  Te170  1  0.00357780  0.83173783  0.66672092  1
  Te  Te171  1  0.33137540  0.16562868  -0.00080038  1
  Te  Te172  1  0.33009295  0.16808670  0.33319581  1
  Te  Te173  1  0.33778747  0.16286458  0.66722003  1
  Te  Te174  1  0.33394029  0.50513860  0.00263997  1
  Te  Te175  1  0.33404131  0.50648899  0.33635374  1
  Te  Te176  1  0.33531335  0.50510034  0.66373425  1
  Te  Te177  1  0.33384331  0.82714579  -0.00184456  1
  Te  Te178  1  0.33541577  0.83053272  0.33852544  1
  Te  Te179  1  0.33418351  0.82903387  0.66290345  1
  Te  Te180  1  0.66859677  0.16911765  -0.00063679  1
  Te  Te181  1  0.66565409  0.16665270  0.33617667  1
  Te  Te182  1  0.66420099  0.16381772  0.66682443  1
  Te  Te183  1  0.66805257  0.50238792  0.00212972  1
  Te  Te184  1  0.66433522  0.50206768  0.33171116  1
  Te  Te185  1  0.66240919  0.50138954  0.66492982  1
  Te  Te186  1  0.66524649  0.83182047  0.00219335  1
  Te  Te187  1  0.66615868  0.83223108  0.33285507  1
  Te  Te188  1  0.66173609  0.83031196  0.66663189  1
  Te  Te189  1  -0.00698370  0.00295169  0.17103292  1
  Te  Te190  1  -0.00109405  0.00028282  0.49813986  1
  Te  Te191  1  -0.00137314  0.00558227  0.83156138  1
  Te  Te192  1  -0.00059239  0.32581100  0.16020010  1
  Te  Te193  1  -0.00100072  0.32235250  0.50051152  1
  Te  Te194  1  -0.00487435  0.32888342  0.83725500  1
  Te  Te195  1  -0.00502593  0.66699799  0.16823015  1
  Te  Te196  1  0.00453763  0.66568419  0.49920151  1
  Te  Te197  1  -0.00555603  0.66664922  0.83565898  1
  Te  Te198  1  0.33495815  -0.01038504  0.16505145  1
  Te  Te199  1  0.32835105  -0.00410134  0.50440910  1
  Te  Te200  1  0.33336344  -0.00057991  0.82701441  1
  Te  Te201  1  0.33537199  0.33078982  0.16537547  1
  Te  Te202  1  0.33382090  0.33361778  0.50758878  1
  Te  Te203  1  0.33585756  0.33926921  0.82806924  1
  Te  Te204  1  0.33173724  0.67142936  0.16754903  1
  Te  Te205  1  0.32960618  0.66881828  0.49791366  1
  Te  Te206  1  0.33345124  0.66052196  0.83862293  1
  Te  Te207  1  0.66997254  0.00289927  0.16874206  1
  Te  Te208  1  0.66820441  -0.00192049  0.49739894  1
  Te  Te209  1  0.66847709  0.00619174  0.83716320  1
  Te  Te210  1  0.66656247  0.32349539  0.16787628  1
  Te  Te211  1  0.66802319  0.32724828  0.50747470  1
  Te  Te212  1  0.66827943  0.33130771  0.82971842  1
  Te  Te213  1  0.66864535  0.66623863  0.16912449  1
  Te  Te214  1  0.66986971  0.67109683  0.50538076  1
  Te  Te215  1  0.67100528  0.66684911  0.82561807  1
