# generated using pymatgen
data_AgSbTe2
_symmetry_space_group_name_H-M   'P 1'
_cell_length_a   18.31394002
_cell_length_b   18.32469280
_cell_length_c   18.32631669
_cell_angle_alpha   90.00179851
_cell_angle_beta   90.00430083
_cell_angle_gamma   90.00339196
_symmetry_Int_Tables_number   1
_chemical_formula_structural   AgSbTe2
_chemical_formula_sum   'Ag54 Sb54 Te108'
_cell_volume   6150.26282056
_cell_formula_units_Z   54
loop_
 _symmetry_equiv_pos_site_id
 _symmetry_equiv_pos_as_xyz
  1  'x, y, z'
loop_
 _atom_site_type_symbol
 _atom_site_label
 _atom_site_symmetry_multiplicity
 _atom_site_fract_x
 _atom_site_fract_y
 _atom_site_fract_z
 _atom_site_occupancy
  Ag  Ag0  1  0.33023942  0.16232978  0.82765456  1
  Ag  Ag1  1  0.16082964  0.00062036  0.83054805  1
  Ag  Ag2  1  0.16677016  0.83511320  0.33487836  1
  Ag  Ag3  1  0.16528545  0.15784606  0.33790040  1
  Ag  Ag4  1  0.00354548  0.50019362  0.50532594  1
  Ag  Ag5  1  0.15970515  0.50084745  0.66169858  1
  Ag  Ag6  1  0.83533497  0.15732834  0.65988266  1
  Ag  Ag7  1  0.32523950  0.50026982  0.49140255  1
  Ag  Ag8  1  0.33100526  0.83629919  0.83538880  1
  Ag  Ag9  1  0.67468080  0.00388945  0.00431132  1
  Ag  Ag10  1  0.33018830  0.16866560  0.50085402  1
  Ag  Ag11  1  -0.00636101  0.00484666  -0.00142472  1
  Ag  Ag12  1  0.67388092  -0.00472617  0.33659538  1
  Ag  Ag13  1  0.83213788  0.84551305  0.00063560  1
  Ag  Ag14  1  0.82776558  0.15742014  0.34074194  1
  Ag  Ag15  1  0.66655103  0.67328025  0.33706296  1
  Ag  Ag16  1  -0.00743349  0.33538836  -0.00372720  1
  Ag  Ag17  1  0.50374033  0.17265578  0.00175870  1
  Ag  Ag18  1  0.16586012  0.50376181  0.33097289  1
  Ag  Ag19  1  0.16964162  0.65922622  0.17228179  1
  Ag  Ag20  1  0.67288644  0.33093262  0.00373805  1
  Ag  Ag21  1  0.83499170  0.50223972  0.33406677  1
  Ag  Ag22  1  0.67094998  0.83655392  0.49727047  1
  Ag  Ag23  1  0.67647221  0.15846959  0.49510063  1
  Ag  Ag24  1  0.50623785  0.49665158  0.00472415  1
  Ag  Ag25  1  0.66524015  0.49546363  0.16534516  1
  Ag  Ag26  1  0.83145284  -0.00068764  0.16601296  1
  Ag  Ag27  1  0.83576117  0.00222905  0.83486797  1
  Ag  Ag28  1  0.50772390  0.82997713  0.33383690  1
  Ag  Ag29  1  0.83325455  0.33065015  0.50270574  1
  Ag  Ag30  1  0.82977470  0.00013666  0.49930363  1
  Ag  Ag31  1  0.83654327  0.32997587  0.83289519  1
  Ag  Ag32  1  0.16841612  0.34141767  0.16693064  1
  Ag  Ag33  1  0.67661353  -0.00374218  0.65658916  1
  Ag  Ag34  1  0.16211293  0.00266040  0.49936879  1
  Ag  Ag35  1  0.16092140  0.16082254  0.65844506  1
  Ag  Ag36  1  -0.00181808  0.33920301  0.67018033  1
  Ag  Ag37  1  0.50024557  0.66676217  0.82919490  1
  Ag  Ag38  1  0.00024028  0.49752748  0.82831571  1
  Ag  Ag39  1  0.82791841  0.67108921  0.49947395  1
  Ag  Ag40  1  -0.00235634  0.66052505  0.66522449  1
  Ag  Ag41  1  0.16179422  0.00042005  0.17268059  1
  Ag  Ag42  1  0.82677927  0.83926799  0.34082431  1
  Ag  Ag43  1  0.66852542  0.16669019  0.16874676  1
  Ag  Ag44  1  0.83360993  0.83985647  0.65948579  1
  Ag  Ag45  1  0.33271820  0.66803532  0.33332360  1
  Ag  Ag46  1  0.50922204  0.66623568  0.49821558  1
  Ag  Ag47  1  0.16060331  0.83761802  0.65819352  1
  Ag  Ag48  1  0.50126357  0.33652759  0.16384152  1
  Ag  Ag49  1  0.83485575  0.49735111  0.00492135  1
  Ag  Ag50  1  0.67435809  0.67135066  0.65374594  1
  Ag  Ag51  1  0.16292232  0.49799444  0.01149062  1
  Ag  Ag52  1  0.32704754  0.50369977  0.17101039  1
  Ag  Ag53  1  0.32904486  0.82782441  0.17112217  1
  Sb  Sb54  1  0.00295731  0.83485824  0.16668970  1
  Sb  Sb55  1  0.33115898  -0.00452119  0.33368279  1
  Sb  Sb56  1  0.16471223  0.66706276  0.49660173  1
  Sb  Sb57  1  -0.00133323  0.66315132  -0.00469044  1
  Sb  Sb58  1  0.67322811  0.50090556  0.83814792  1
  Sb  Sb59  1  0.00138645  0.83204363  0.83144143  1
  Sb  Sb60  1  0.33151469  0.00031946  0.00038564  1
  Sb  Sb61  1  -0.00679437  0.82973868  0.50163247  1
  Sb  Sb62  1  0.00166256  0.49883887  0.16584283  1
  Sb  Sb63  1  0.66598648  0.83420975  0.82818867  1
  Sb  Sb64  1  0.33060863  -0.00057821  0.66574865  1
  Sb  Sb65  1  0.33402614  0.83229935  0.49697210  1
  Sb  Sb66  1  -0.00451533  -0.00028065  0.33227351  1
  Sb  Sb67  1  0.66900228  0.33269564  0.32814011  1
  Sb  Sb68  1  0.50488990  -0.00328060  0.49877227  1
  Sb  Sb69  1  0.67672405  0.33291676  0.66943210  1
  Sb  Sb70  1  0.33418762  0.16787373  0.16971901  1
  Sb  Sb71  1  0.50365355  0.00238017  0.16646556  1
  Sb  Sb72  1  -0.00089560  0.66475119  0.33893619  1
  Sb  Sb73  1  0.50293324  0.16115506  0.33113783  1
  Sb  Sb74  1  0.66686464  0.16412240  0.83465907  1
  Sb  Sb75  1  0.00084068  0.16963124  0.83170206  1
  Sb  Sb76  1  0.50138741  -0.00290527  0.83464022  1
  Sb  Sb77  1  0.32779991  0.50061567  0.83551149  1
  Sb  Sb78  1  -0.00382351  0.00033568  0.66924634  1
  Sb  Sb79  1  0.67131414  0.50336993  0.49423547  1
  Sb  Sb80  1  0.50270017  0.16607198  0.66868702  1
  Sb  Sb81  1  0.32488623  0.33269438  0.66554459  1
  Sb  Sb82  1  0.33057702  0.33864968  0.33324883  1
  Sb  Sb83  1  0.33399949  0.33409022  0.00076049  1
  Sb  Sb84  1  0.50462384  0.83214899  0.00347601  1
  Sb  Sb85  1  0.83074689  0.66780522  0.82726031  1
  Sb  Sb86  1  0.50216802  0.83165283  0.66240259  1
  Sb  Sb87  1  0.49761850  0.66290396  0.16964846  1
  Sb  Sb88  1  0.66555988  0.83488850  0.17398967  1
  Sb  Sb89  1  0.50647602  0.33734327  0.49449624  1
  Sb  Sb90  1  0.83932699  0.50175448  0.66237401  1
  Sb  Sb91  1  0.49584994  0.50249683  0.66925064  1
  Sb  Sb92  1  0.83386969  0.33059625  0.16607921  1
  Sb  Sb93  1  0.83614079  0.66945727  0.17284408  1
  Sb  Sb94  1  0.33332628  0.66585551  0.00537658  1
  Sb  Sb95  1  -0.00092444  0.33506328  0.33311397  1
  Sb  Sb96  1  -0.00393033  0.17010965  0.50155119  1
  Sb  Sb97  1  -0.00482304  0.16583352  0.16648808  1
  Sb  Sb98  1  0.16949450  0.66913293  0.83354358  1
  Sb  Sb99  1  0.16927314  0.16882407  0.00159880  1
  Sb  Sb100  1  0.49999757  0.50606805  0.32901426  1
  Sb  Sb101  1  0.66822881  0.66661530  0.00366606  1
  Sb  Sb102  1  0.50564726  0.33612737  0.84012761  1
  Sb  Sb103  1  0.15946612  0.33231620  0.49695375  1
  Sb  Sb104  1  0.16109040  0.33068252  0.83566511  1
  Sb  Sb105  1  0.82880509  0.16575434  -0.00054380  1
  Sb  Sb106  1  0.16200367  0.83245024  0.00304491  1
  Sb  Sb107  1  0.33111923  0.66768319  0.66106121  1
  Te  Te108  1  0.16748067  0.16074589  0.17092755  1
  Te  Te109  1  0.16596058  0.16754562  0.49929132  1
  Te  Te110  1  0.17014026  0.16261147  0.83303980  1
  Te  Te111  1  0.16622245  0.49992044  0.16966983  1
  Te  Te112  1  0.16615969  0.49976648  0.49811510  1
  Te  Te113  1  0.16343338  0.49986376  0.82938146  1
  Te  Te114  1  0.16906888  0.83868530  0.16751342  1
  Te  Te115  1  0.16704646  0.83531005  0.50018051  1
  Te  Te116  1  0.16990489  0.83725276  0.83430208  1
  Te  Te117  1  0.50356366  0.17099416  0.16354370  1
  Te  Te118  1  0.49538595  0.16830019  0.49994838  1
  Te  Te119  1  0.49347036  0.16689841  0.83690511  1
  Te  Te120  1  0.50064711  0.49736204  0.16369472  1
  Te  Te121  1  0.49598914  0.50370773  0.50030309  1
  Te  Te122  1  0.49791401  0.50407654  0.83911517  1
  Te  Te123  1  0.49222306  0.83337812  0.17144853  1
  Te  Te124  1  0.50302563  0.82904046  0.49514435  1
  Te  Te125  1  0.49397349  0.82935895  0.83402641  1
  Te  Te126  1  0.82844928  0.16287495  0.17389969  1
  Te  Te127  1  0.83358648  0.16344962  0.49934675  1
  Te  Te128  1  0.83311601  0.16397771  0.82679225  1
  Te  Te129  1  0.83211518  0.50047968  0.16789371  1
  Te  Te130  1  0.83366543  0.49997982  0.49611218  1
  Te  Te131  1  0.83798274  0.49929304  0.83743314  1
  Te  Te132  1  0.83360661  0.83770082  0.16725880  1
  Te  Te133  1  0.83158385  0.83544023  0.49999186  1
  Te  Te134  1  0.83364783  0.83700113  0.83364331  1
  Te  Te135  1  0.16362980  0.00032597  -0.00244503  1
  Te  Te136  1  0.16492063  -0.00073274  0.33441413  1
  Te  Te137  1  0.16445681  0.00024724  0.66655695  1
  Te  Te138  1  0.16467989  0.33698891  0.00339493  1
  Te  Te139  1  0.16525362  0.33694339  0.32843734  1
  Te  Te140  1  0.15946690  0.33352069  0.66620644  1
  Te  Te141  1  0.16577035  0.66057619  0.00425328  1
  Te  Te142  1  0.16637093  0.66575125  0.33235963  1
  Te  Te143  1  0.16349553  0.66763379  0.66611532  1
  Te  Te144  1  0.50726134  0.00198200  -0.00061587  1
  Te  Te145  1  0.50763229  -0.00771159  0.33283680  1
  Te  Te146  1  0.51223695  -0.00054980  0.66760282  1
  Te  Te147  1  0.50275219  0.33597935  0.00351606  1
  Te  Te148  1  0.49994086  0.33177381  0.32558273  1
  Te  Te149  1  0.50132192  0.33407052  0.66790793  1
  Te  Te150  1  0.50105460  0.66252247  -0.00333110  1
  Te  Te151  1  0.50117921  0.67037346  0.33605550  1
  Te  Te152  1  0.50324605  0.66717633  0.66359488  1
  Te  Te153  1  0.83308494  0.00410858  0.00029456  1
  Te  Te154  1  0.83422741  -0.00093542  0.33523512  1
  Te  Te155  1  0.83500444  -0.00108418  0.66497743  1
  Te  Te156  1  0.83282742  0.33277521  -0.00051798  1
  Te  Te157  1  0.83408906  0.33613221  0.33659234  1
  Te  Te158  1  0.83750030  0.33348535  0.66724211  1
  Te  Te159  1  0.83330641  0.66162825  0.00047030  1
  Te  Te160  1  0.83233137  0.66601126  0.33705240  1
  Te  Te161  1  0.83280016  0.66888023  0.66296286  1
  Te  Te162  1  0.00028979  0.16799448  -0.00066238  1
  Te  Te163  1  0.00565919  0.16776492  0.33364975  1
  Te  Te164  1  0.00075129  0.17283559  0.66718480  1
  Te  Te165  1  -0.00135437  0.49777582  -0.00096459  1
  Te  Te166  1  -0.00067412  0.49942478  0.33795072  1
  Te  Te167  1  0.00135913  0.49932319  0.66611653  1
  Te  Te168  1  -0.00794896  0.83564178  -0.00156551  1
  Te  Te169  1  0.00678124  0.83216968  0.33408972  1
  Te  Te170  1  0.00069347  0.82789501  0.66781480  1
  Te  Te171  1  0.34082189  0.16640761  -0.00196939  1
  Te  Te172  1  0.33061301  0.16587935  0.33845799  1
  Te  Te173  1  0.32970538  0.16638483  0.66466566  1
  Te  Te174  1  0.32807438  0.49991776  0.00465951  1
  Te  Te175  1  0.33243004  0.50423305  0.33234696  1
  Te  Te176  1  0.32504962  0.50010474  0.66358043  1
  Te  Te177  1  0.33520811  0.83356170  -0.00030436  1
  Te  Te178  1  0.32635913  0.82966901  0.33203485  1
  Te  Te179  1  0.32874850  0.83327707  0.67017061  1
  Te  Te180  1  0.66399584  0.16678709  0.00168583  1
  Te  Te181  1  0.66808344  0.16503919  0.33317182  1
  Te  Te182  1  0.67054969  0.16456988  0.66297212  1
  Te  Te183  1  0.66926992  0.49960753  0.00407651  1
  Te  Te184  1  0.66913922  0.50135962  0.32743283  1
  Te  Te185  1  0.66531699  0.50420641  0.66725873  1
  Te  Te186  1  0.67185619  0.83589243  0.00138480  1
  Te  Te187  1  0.66921369  0.83325341  0.33514384  1
  Te  Te188  1  0.66919977  0.83219407  0.66217549  1
  Te  Te189  1  -0.00189585  0.00065693  0.15955731  1
  Te  Te190  1  0.00325447  -0.00072576  0.50169253  1
  Te  Te191  1  -0.00139942  -0.00069725  0.83700732  1
  Te  Te192  1  0.00628997  0.33197027  0.15938901  1
  Te  Te193  1  -0.00730820  0.33976150  0.50278311  1
  Te  Te194  1  -0.00415398  0.33644822  0.83545087  1
  Te  Te195  1  0.00863062  0.66717133  0.16525410  1
  Te  Te196  1  -0.00542317  0.66052087  0.50529138  1
  Te  Te197  1  0.00070025  0.65992360  0.82721462  1
  Te  Te198  1  0.32914977  -0.00247499  0.16658064  1
  Te  Te199  1  0.32895398  0.00455007  0.50030801  1
  Te  Te200  1  0.33131795  -0.00002008  0.83297780  1
  Te  Te201  1  0.33092845  0.33683152  0.16682619  1
  Te  Te202  1  0.33712615  0.33466383  0.50026463  1
  Te  Te203  1  0.33510592  0.32720068  0.83252051  1
  Te  Te204  1  0.33102382  0.66602823  0.17120667  1
  Te  Te205  1  0.33513041  0.66411907  0.49469441  1
  Te  Te206  1  0.33797102  0.66956207  0.83197749  1
  Te  Te207  1  0.66964651  0.00137178  0.16704051  1
  Te  Te208  1  0.66787752  -0.00089427  0.49820149  1
  Te  Te209  1  0.67160533  -0.00070683  0.83741919  1
  Te  Te210  1  0.66694318  0.33357926  0.16250838  1
  Te  Te211  1  0.67238814  0.32817675  0.50051561  1
  Te  Te212  1  0.67426817  0.33275082  0.84083660  1
  Te  Te213  1  0.66677470  0.66226442  0.17338101  1
  Te  Te214  1  0.66747444  0.66544494  0.49761717  1
  Te  Te215  1  0.66149503  0.66718745  0.83107778  1
