# generated using pymatgen
data_AgSbTe2
_symmetry_space_group_name_H-M   'P 1'
_cell_length_a   18.33671582
_cell_length_b   18.33977551
_cell_length_c   18.33606273
_cell_angle_alpha   89.99957774
_cell_angle_beta   89.99785713
_cell_angle_gamma   89.99818783
_symmetry_Int_Tables_number   1
_chemical_formula_structural   AgSbTe2
_chemical_formula_sum   'Ag54 Sb54 Te108'
_cell_volume   6166.25747759
_cell_formula_units_Z   54
loop_
 _symmetry_equiv_pos_site_id
 _symmetry_equiv_pos_as_xyz
  1  'x, y, z'
loop_
 _atom_site_type_symbol
 _atom_site_label
 _atom_site_symmetry_multiplicity
 _atom_site_fract_x
 _atom_site_fract_y
 _atom_site_fract_z
 _atom_site_occupancy
  Ag  Ag0  1  0.50302550  0.17847028  -0.00177469  1
  Ag  Ag1  1  0.33240339  0.82303698  0.83138365  1
  Ag  Ag2  1  -0.00613953  0.66566903  -0.00135692  1
  Ag  Ag3  1  0.33014994  0.34039484  0.67816934  1
  Ag  Ag4  1  0.00099764  -0.00843754  0.00491306  1
  Ag  Ag5  1  0.66640833  0.18127379  0.83974885  1
  Ag  Ag6  1  0.67720752  0.82831727  0.50397657  1
  Ag  Ag7  1  0.34657555  0.33609770  -0.00551438  1
  Ag  Ag8  1  0.82772365  0.50471531  0.66968461  1
  Ag  Ag9  1  0.66892719  0.17418711  0.15881100  1
  Ag  Ag10  1  -0.00512225  0.83667045  0.49761653  1
  Ag  Ag11  1  0.33722488  0.49811676  0.15302143  1
  Ag  Ag12  1  0.49990988  0.48936037  -0.01147828  1
  Ag  Ag13  1  0.83983323  -0.00958027  0.49850101  1
  Ag  Ag14  1  -0.00038438  0.33247251  0.33715776  1
  Ag  Ag15  1  0.16533800  0.33799041  0.83407184  1
  Ag  Ag16  1  -0.00647106  0.49711262  0.83111309  1
  Ag  Ag17  1  0.83582182  0.82279241  0.66213968  1
  Ag  Ag18  1  0.49909540  0.83345235  -0.00844119  1
  Ag  Ag19  1  0.50012812  0.82431235  0.67091059  1
  Ag  Ag20  1  0.15905470  0.83720094  0.34292531  1
  Ag  Ag21  1  0.00216367  0.16439476  0.49725773  1
  Ag  Ag22  1  0.67106800  0.66263822  0.67373691  1
  Ag  Ag23  1  0.15979902  0.16319243  0.34072414  1
  Ag  Ag24  1  0.83509218  0.67194171  0.51258694  1
  Ag  Ag25  1  0.67188465  0.66216121  -0.00761500  1
  Ag  Ag26  1  0.33863125  0.49922643  0.83288352  1
  Ag  Ag27  1  0.83329321  0.34211739  0.83649179  1
  Ag  Ag28  1  0.67745011  0.83179265  0.16598634  1
  Ag  Ag29  1  0.00314662  0.33649870  0.67330576  1
  Ag  Ag30  1  0.33750627  0.66254276  0.67156306  1
  Ag  Ag31  1  0.83632640  0.66060973  0.82974406  1
  Ag  Ag32  1  -0.00221750  0.67607331  0.33213009  1
  Ag  Ag33  1  0.50138549  0.33785717  0.83624171  1
  Ag  Ag34  1  0.65886091  0.33685469  -0.00366375  1
  Ag  Ag35  1  -0.00121279  0.33691776  -0.00508936  1
  Ag  Ag36  1  0.16416877  0.16912628  -0.00384319  1
  Ag  Ag37  1  0.50608494  0.50098059  0.67120590  1
  Ag  Ag38  1  0.50353476  0.33403459  0.50734637  1
  Ag  Ag39  1  0.50727835  0.33520302  0.15128832  1
  Ag  Ag40  1  0.15615481  -0.00066140  0.49898481  1
  Ag  Ag41  1  0.00058518  -0.00628455  0.33828617  1
  Ag  Ag42  1  0.66706952  0.49885046  0.83022070  1
  Ag  Ag43  1  0.16304276  0.83488579  -0.00621075  1
  Ag  Ag44  1  0.83607384  0.67010636  0.16195511  1
  Ag  Ag45  1  -0.00404073  0.83253228  0.17199127  1
  Ag  Ag46  1  -0.00500108  0.49951321  0.50907024  1
  Ag  Ag47  1  0.16419997  0.16835679  0.66893962  1
  Ag  Ag48  1  0.50308553  0.00000803  0.50232635  1
  Ag  Ag49  1  0.67320331  0.50694198  0.51162886  1
  Ag  Ag50  1  0.16368257  0.83334650  0.66978811  1
  Ag  Ag51  1  0.83228746  0.33641800  0.15515687  1
  Ag  Ag52  1  0.16184073  0.66183526  0.83301672  1
  Ag  Ag53  1  0.83641353  -0.01162383  0.16887946  1
  Sb  Sb54  1  0.50649909  0.66251109  0.16123349  1
  Sb  Sb55  1  0.83315814  0.17058501  0.00019081  1
  Sb  Sb56  1  0.33371875  0.66153152  -0.00771679  1
  Sb  Sb57  1  0.50131604  0.49851218  0.33471057  1
  Sb  Sb58  1  0.16466533  0.50158630  0.67007620  1
  Sb  Sb59  1  0.83541745  0.82949202  -0.00089522  1
  Sb  Sb60  1  0.50068369  0.00285460  0.83170011  1
  Sb  Sb61  1  0.49577493  0.83450199  0.33627886  1
  Sb  Sb62  1  0.32807978  0.33485763  0.33147657  1
  Sb  Sb63  1  0.00262932  0.82568476  0.83245612  1
  Sb  Sb64  1  0.16935646  0.49769945  -0.00491667  1
  Sb  Sb65  1  0.33448852  0.17490229  0.83384924  1
  Sb  Sb66  1  0.83531124  0.50136788  0.33997763  1
  Sb  Sb67  1  0.16379988  0.32979451  0.50670016  1
  Sb  Sb68  1  -0.00461904  0.16413230  0.16823569  1
  Sb  Sb69  1  0.84107580  0.83257374  0.33876866  1
  Sb  Sb70  1  0.66703562  0.34105771  0.67650495  1
  Sb  Sb71  1  0.50205261  0.65774491  0.83285089  1
  Sb  Sb72  1  0.49555905  0.16843016  0.33071802  1
  Sb  Sb73  1  0.16446194  0.00001808  0.83033066  1
  Sb  Sb74  1  0.33165752  0.83189748  0.50881929  1
  Sb  Sb75  1  0.32746206  0.16750588  0.50200415  1
  Sb  Sb76  1  0.50847758  0.00317681  0.16785614  1
  Sb  Sb77  1  0.67109839  0.16653068  0.50132898  1
  Sb  Sb78  1  0.33641116  0.17294475  0.16339335  1
  Sb  Sb79  1  -0.00106917  0.17559510  0.83280684  1
  Sb  Sb80  1  0.49703497  0.17293990  0.67029191  1
  Sb  Sb81  1  0.16340851  0.33184778  0.15945411  1
  Sb  Sb82  1  0.16153267  0.49925072  0.33429398  1
  Sb  Sb83  1  0.83939106  0.16635755  0.33250246  1
  Sb  Sb84  1  0.32237959  0.66708251  0.33842133  1
  Sb  Sb85  1  0.67140322  0.33383122  0.32738899  1
  Sb  Sb86  1  0.15890715  -0.00133021  0.16982327  1
  Sb  Sb87  1  0.83360707  0.33645174  0.50406378  1
  Sb  Sb88  1  0.66721744  -0.00878927  0.66566787  1
  Sb  Sb89  1  0.00057439  0.00128966  0.66369245  1
  Sb  Sb90  1  0.83670144  0.16985814  0.66777995  1
  Sb  Sb91  1  0.66378863  0.82704850  0.83289317  1
  Sb  Sb92  1  0.83502080  -0.00230258  0.83317776  1
  Sb  Sb93  1  0.33113926  0.82655314  0.15788276  1
  Sb  Sb94  1  0.66694665  0.50070901  0.16050092  1
  Sb  Sb95  1  0.15584575  0.67369126  0.50828726  1
  Sb  Sb96  1  0.50874798  0.66638031  0.50504627  1
  Sb  Sb97  1  0.82770507  0.49998423  -0.00934779  1
  Sb  Sb98  1  0.67134216  0.00034032  0.00088223  1
  Sb  Sb99  1  0.32903707  0.00399534  -0.00047499  1
  Sb  Sb100  1  0.33256970  -0.00129284  0.66765744  1
  Sb  Sb101  1  0.67406309  0.66797500  0.33330061  1
  Sb  Sb102  1  0.16039303  0.66800368  0.15887243  1
  Sb  Sb103  1  -0.00129751  0.50203037  0.16195369  1
  Sb  Sb104  1  0.67449842  -0.00170620  0.33430707  1
  Sb  Sb105  1  -0.00381111  0.66276401  0.66907134  1
  Sb  Sb106  1  0.32508379  -0.00157404  0.33522541  1
  Sb  Sb107  1  0.33468988  0.49814929  0.50878100  1
  Te  Te108  1  0.16772206  0.16569692  0.15833527  1
  Te  Te109  1  0.16199232  0.16321022  0.50232686  1
  Te  Te110  1  0.16706592  0.16973358  0.83318004  1
  Te  Te111  1  0.17399074  0.50009406  0.16607638  1
  Te  Te112  1  0.15904159  0.50151185  0.50051902  1
  Te  Te113  1  0.16668391  0.49962130  0.83277910  1
  Te  Te114  1  0.16241499  0.83307444  0.15725550  1
  Te  Te115  1  0.16510852  0.83759422  0.50350304  1
  Te  Te116  1  0.16819473  0.83376045  0.83194982  1
  Te  Te117  1  0.50515044  0.17139949  0.16243225  1
  Te  Te118  1  0.50095472  0.16677973  0.49985732  1
  Te  Te119  1  0.50310824  0.17030371  0.83813709  1
  Te  Te120  1  0.49898410  0.49478866  0.16745193  1
  Te  Te121  1  0.50252345  0.49766510  0.50469795  1
  Te  Te122  1  0.50005086  0.49720332  0.83194052  1
  Te  Te123  1  0.50062569  0.83353438  0.16650058  1
  Te  Te124  1  0.50040177  0.83470658  0.50373004  1
  Te  Te125  1  0.49813666  0.83582217  0.83069969  1
  Te  Te126  1  0.82750250  0.17339797  0.16649797  1
  Te  Te127  1  0.83968781  0.16196461  0.50048010  1
  Te  Te128  1  0.82691670  0.16903103  0.83275018  1
  Te  Te129  1  0.83288314  0.49762994  0.16850936  1
  Te  Te130  1  0.83475602  0.50158807  0.50600585  1
  Te  Te131  1  0.83338380  0.50043394  0.83036876  1
  Te  Te132  1  0.83577560  0.83160034  0.16445448  1
  Te  Te133  1  0.83423082  0.83244383  0.50077568  1
  Te  Te134  1  0.83231631  0.82976430  0.82493539  1
  Te  Te135  1  0.16210447  0.00028765  0.00004852  1
  Te  Te136  1  0.16028115  -0.00013888  0.33657655  1
  Te  Te137  1  0.16716312  0.00024778  0.66134015  1
  Te  Te138  1  0.15913043  0.33180933  -0.00433051  1
  Te  Te139  1  0.16063682  0.32801882  0.33268614  1
  Te  Te140  1  0.16664994  0.33292343  0.67059165  1
  Te  Te141  1  0.16548054  0.66985646  -0.00700794  1
  Te  Te142  1  0.15716791  0.67202793  0.33326122  1
  Te  Te143  1  0.17032004  0.67120331  0.67280409  1
  Te  Te144  1  0.49860526  -0.00681014  0.00042737  1
  Te  Te145  1  0.49871906  0.00119719  0.34025483  1
  Te  Te146  1  0.49949931  0.00010425  0.66239378  1
  Te  Te147  1  0.50216391  0.33409571  -0.00343359  1
  Te  Te148  1  0.49855747  0.33240559  0.33929377  1
  Te  Te149  1  0.49875149  0.33561946  0.66795445  1
  Te  Te150  1  0.50380901  0.67496008  -0.00045600  1
  Te  Te151  1  0.49663996  0.66722841  0.33293184  1
  Te  Te152  1  0.50107657  0.66562834  0.66690387  1
  Te  Te153  1  0.83991751  -0.00000651  0.00301450  1
  Te  Te154  1  0.84097740  0.00008570  0.33266346  1
  Te  Te155  1  0.83353712  -0.00363351  0.66291169  1
  Te  Te156  1  0.83749787  0.33480795  -0.00303278  1
  Te  Te157  1  0.83945673  0.33376293  0.33110151  1
  Te  Te158  1  0.83770712  0.33695485  0.67173284  1
  Te  Te159  1  0.83257611  0.66573721  -0.00106611  1
  Te  Te160  1  0.84046044  0.66646267  0.32502143  1
  Te  Te161  1  0.83211150  0.66531137  0.66906978  1
  Te  Te162  1  0.00339027  0.17212231  0.00032905  1
  Te  Te163  1  0.00360995  0.16884513  0.33498463  1
  Te  Te164  1  0.00377513  0.17080484  0.66299945  1
  Te  Te165  1  0.00165230  0.50223549  -0.00371121  1
  Te  Te166  1  0.00065157  0.49465403  0.33423365  1
  Te  Te167  1  -0.00091552  0.49690940  0.66812786  1
  Te  Te168  1  0.00156630  0.82947054  -0.00120365  1
  Te  Te169  1  0.00298408  0.83425812  0.33307470  1
  Te  Te170  1  0.00095288  0.83354254  0.66400492  1
  Te  Te171  1  0.33315633  0.17230889  -0.00011268  1
  Te  Te172  1  0.32107537  0.16660793  0.33200728  1
  Te  Te173  1  0.32683954  0.17273232  0.66694885  1
  Te  Te174  1  0.33734289  0.49672471  -0.00503772  1
  Te  Te175  1  0.33162634  0.50099029  0.33188769  1
  Te  Te176  1  0.33551554  0.49982254  0.67112914  1
  Te  Te177  1  0.33145656  0.83328092  -0.00531961  1
  Te  Te178  1  0.32151444  0.83166795  0.33091561  1
  Te  Te179  1  0.33444282  0.83160146  0.67192724  1
  Te  Te180  1  0.66505334  0.16708841  0.00041972  1
  Te  Te181  1  0.66533915  0.16612030  0.32641021  1
  Te  Te182  1  0.66694637  0.16602325  0.66960014  1
  Te  Te183  1  0.66017529  0.50097317  -0.00257809  1
  Te  Te184  1  0.66683100  0.50068816  0.34606031  1
  Te  Te185  1  0.66629739  0.50154248  0.66849005  1
  Te  Te186  1  0.66481431  0.83179466  0.00092752  1
  Te  Te187  1  0.66309227  0.83261689  0.33186141  1
  Te  Te188  1  0.66426462  0.82658379  0.66482794  1
  Te  Te189  1  -0.00472518  -0.00270133  0.16498189  1
  Te  Te190  1  -0.00059182  -0.00192492  0.50126629  1
  Te  Te191  1  -0.00132952  0.00237362  0.84256305  1
  Te  Te192  1  -0.00395421  0.33398320  0.16323074  1
  Te  Te193  1  -0.00102999  0.33390874  0.49963940  1
  Te  Te194  1  0.00030941  0.33570742  0.83225755  1
  Te  Te195  1  -0.00349328  0.66866505  0.16317804  1
  Te  Te196  1  -0.00532711  0.66709927  0.49984271  1
  Te  Te197  1  -0.00064104  0.66142496  0.83593920  1
  Te  Te198  1  0.33664091  -0.00188775  0.16769420  1
  Te  Te199  1  0.33967504  0.00008558  0.49980677  1
  Te  Te200  1  0.33293448  -0.00969134  0.83414183  1
  Te  Te201  1  0.33561007  0.33865302  0.16363815  1
  Te  Te202  1  0.33786410  0.33378440  0.50152152  1
  Te  Te203  1  0.33275415  0.33500964  0.83483241  1
  Te  Te204  1  0.33307815  0.65918860  0.16827127  1
  Te  Te205  1  0.33186856  0.66450781  0.50752418  1
  Te  Te206  1  0.33076820  0.66318409  0.83035674  1
  Te  Te207  1  0.67539871  -0.00676975  0.16755347  1
  Te  Te208  1  0.66766951  -0.00353769  0.49871755  1
  Te  Te209  1  0.66785244  0.00769188  0.83347662  1
  Te  Te210  1  0.66801435  0.33423500  0.16250552  1
  Te  Te211  1  0.66540086  0.33231883  0.49649459  1
  Te  Te212  1  0.66743891  0.33811761  0.83621765  1
  Te  Te213  1  0.67334664  0.66990194  0.16596404  1
  Te  Te214  1  0.67352281  0.66800503  0.49945617  1
  Te  Te215  1  0.66992107  0.66311360  0.83388823  1
