# generated using pymatgen
data_AgSbTe2
_symmetry_space_group_name_H-M   'P 1'
_cell_length_a   18.32414270
_cell_length_b   18.32562104
_cell_length_c   18.32351805
_cell_angle_alpha   90.00079191
_cell_angle_beta   90.00115600
_cell_angle_gamma   89.99795975
_symmetry_Int_Tables_number   1
_chemical_formula_structural   AgSbTe2
_chemical_formula_sum   'Ag54 Sb54 Te108'
_cell_volume   6153.06108259
_cell_formula_units_Z   54
loop_
 _symmetry_equiv_pos_site_id
 _symmetry_equiv_pos_as_xyz
  1  'x, y, z'
loop_
 _atom_site_type_symbol
 _atom_site_label
 _atom_site_symmetry_multiplicity
 _atom_site_fract_x
 _atom_site_fract_y
 _atom_site_fract_z
 _atom_site_occupancy
  Ag  Ag0  1  0.33214585  0.83391035  0.16477847  1
  Ag  Ag1  1  0.00492515  0.83762788  0.16772351  1
  Ag  Ag2  1  0.67285408  0.66473489  0.33472317  1
  Ag  Ag3  1  0.32801399  0.49438512  0.50487552  1
  Ag  Ag4  1  0.33715719  0.49733196  0.82549066  1
  Ag  Ag5  1  0.16671199  0.16463149  0.00420446  1
  Ag  Ag6  1  0.00378620  0.49744153  0.50199841  1
  Ag  Ag7  1  0.34177970  0.01006270  0.66424542  1
  Ag  Ag8  1  -0.01017593  0.00684595  0.66177378  1
  Ag  Ag9  1  -0.01307250  0.32834458  0.66356914  1
  Ag  Ag10  1  0.33047750  0.17589258  0.16949525  1
  Ag  Ag11  1  0.49845388  0.00154941  0.16554409  1
  Ag  Ag12  1  0.00177998  0.67121301  0.00838287  1
  Ag  Ag13  1  0.16024954  0.66115711  0.49867665  1
  Ag  Ag14  1  0.49776613  0.65526581  0.83213032  1
  Ag  Ag15  1  -0.00797569  0.16911480  0.49952671  1
  Ag  Ag16  1  0.83500248  0.48755904  0.66262924  1
  Ag  Ag17  1  0.82494922  0.32779387  0.82106475  1
  Ag  Ag18  1  0.50090546  0.33741856  0.82589769  1
  Ag  Ag19  1  0.66603354  0.33498769  0.34204256  1
  Ag  Ag20  1  0.33781672  0.33405228  0.66712866  1
  Ag  Ag21  1  0.49618144  0.48927057  0.66768890  1
  Ag  Ag22  1  0.49300174  0.33364637  0.16295982  1
  Ag  Ag23  1  0.66750310  0.83673928  0.49738507  1
  Ag  Ag24  1  -0.00260814  0.67005220  0.33246684  1
  Ag  Ag25  1  0.82168178  0.17542757  0.65698405  1
  Ag  Ag26  1  0.17101671  0.50334042  0.34045561  1
  Ag  Ag27  1  0.66895979  0.16911145  0.82087903  1
  Ag  Ag28  1  0.83419732  0.00976025  0.82037647  1
  Ag  Ag29  1  0.83472691  0.01270926  0.50427129  1
  Ag  Ag30  1  0.66294869  0.83279749  0.17281740  1
  Ag  Ag31  1  0.83641998  0.66682307  0.17859714  1
  Ag  Ag32  1  0.33502029  0.33518796  0.00568338  1
  Ag  Ag33  1  0.17628093  0.33206929  0.16586695  1
  Ag  Ag34  1  0.00100108  -0.00241155  0.00727985  1
  Ag  Ag35  1  0.66976067  0.01260867  0.66444295  1
  Ag  Ag36  1  0.00335299  0.16200466  0.17213989  1
  Ag  Ag37  1  0.49412147  0.49847302  0.33482248  1
  Ag  Ag38  1  0.51081218  0.17259484  0.66585215  1
  Ag  Ag39  1  0.33199937  0.17451456  0.50397543  1
  Ag  Ag40  1  0.83367837  0.32516472  0.50883089  1
  Ag  Ag41  1  0.68008590  0.16561712  0.50859750  1
  Ag  Ag42  1  0.83516227  0.16801719  0.34650915  1
  Ag  Ag43  1  0.49442543  0.82981592  0.00192916  1
  Ag  Ag44  1  -0.00074024  -0.00028532  0.33215991  1
  Ag  Ag45  1  0.16785369  0.83361300  0.00865179  1
  Ag  Ag46  1  0.49462045  0.50064500  -0.00448961  1
  Ag  Ag47  1  0.33503799  0.49184245  0.16778726  1
  Ag  Ag48  1  0.16949126  0.66427483  0.83093361  1
  Ag  Ag49  1  0.17189445  0.49844249  0.65857840  1
  Ag  Ag50  1  0.83732536  0.66306386  0.49698949  1
  Ag  Ag51  1  0.67208837  0.32592158  0.66311007  1
  Ag  Ag52  1  0.16293943  0.82575564  0.32757690  1
  Ag  Ag53  1  0.50008804  0.83737177  0.67064006  1
  Sb  Sb54  1  0.33804049  0.33556626  0.33419966  1
  Sb  Sb55  1  0.66862759  0.49629511  0.50054334  1
  Sb  Sb56  1  0.16774653  0.00178962  0.16680280  1
  Sb  Sb57  1  0.66562667  0.66523235  0.66130041  1
  Sb  Sb58  1  0.50239140  0.66492709  0.16411296  1
  Sb  Sb59  1  0.66783812  0.66897317  0.00449372  1
  Sb  Sb60  1  0.66962776  -0.00074261  -0.00370532  1
  Sb  Sb61  1  0.83417211  -0.00265199  0.17001469  1
  Sb  Sb62  1  0.16065343  -0.00188965  0.50066033  1
  Sb  Sb63  1  0.00533602  0.49919609  0.82551058  1
  Sb  Sb64  1  0.32982810  0.66215249  0.00074669  1
  Sb  Sb65  1  0.83445776  0.49959680  0.34034964  1
  Sb  Sb66  1  0.49466950  0.16822577  -0.00196460  1
  Sb  Sb67  1  0.66406360  0.83696440  0.83061438  1
  Sb  Sb68  1  0.82876101  0.84028379  0.66286723  1
  Sb  Sb69  1  0.67179020  -0.00008924  0.33921411  1
  Sb  Sb70  1  0.33601684  0.83221441  0.49833816  1
  Sb  Sb71  1  0.16517513  0.17260978  0.66776451  1
  Sb  Sb72  1  0.00027027  0.66616329  0.66167961  1
  Sb  Sb73  1  -0.00385638  0.16647221  0.82858448  1
  Sb  Sb74  1  0.16308093  -0.00252965  0.83245788  1
  Sb  Sb75  1  0.33502586  0.82945917  0.83591125  1
  Sb  Sb76  1  0.50452257  0.00167715  0.50040910  1
  Sb  Sb77  1  0.66611187  0.16362902  0.17064527  1
  Sb  Sb78  1  0.50306892  0.00319604  0.83182328  1
  Sb  Sb79  1  0.00054940  0.83395401  0.83821718  1
  Sb  Sb80  1  0.49873349  0.82919055  0.33032418  1
  Sb  Sb81  1  0.32919999  0.00120840  0.33513634  1
  Sb  Sb82  1  0.17081610  0.33741689  0.83426007  1
  Sb  Sb83  1  -0.00453058  0.83434390  0.49481404  1
  Sb  Sb84  1  0.83019138  0.49973172  -0.00562519  1
  Sb  Sb85  1  0.33469940  0.65969588  0.66737271  1
  Sb  Sb86  1  0.17108062  0.82880550  0.66576268  1
  Sb  Sb87  1  0.16321239  0.33903494  0.49820716  1
  Sb  Sb88  1  0.16162590  0.17050323  0.33061749  1
  Sb  Sb89  1  0.50392561  0.17228583  0.33726423  1
  Sb  Sb90  1  0.50499619  0.33358452  0.50538002  1
  Sb  Sb91  1  0.33029764  0.00293921  -0.00151537  1
  Sb  Sb92  1  0.33714207  0.17369397  0.83079243  1
  Sb  Sb93  1  0.16269294  0.66649611  0.16902010  1
  Sb  Sb94  1  0.83585582  0.83342202  0.00273558  1
  Sb  Sb95  1  0.65891998  0.33257744  -0.00308068  1
  Sb  Sb96  1  0.33088661  0.66334224  0.33275667  1
  Sb  Sb97  1  0.65856997  0.49406583  0.82870408  1
  Sb  Sb98  1  0.83338269  0.66343158  0.82821307  1
  Sb  Sb99  1  0.50123758  0.66374392  0.50291666  1
  Sb  Sb100  1  0.17197115  0.50225585  0.00062530  1
  Sb  Sb101  1  0.00534909  0.33219633  -0.00390495  1
  Sb  Sb102  1  0.83941783  0.16631558  -0.00254642  1
  Sb  Sb103  1  0.66009253  0.50191282  0.17044047  1
  Sb  Sb104  1  0.83704243  0.83367442  0.33391164  1
  Sb  Sb105  1  0.00655039  0.49935111  0.17354709  1
  Sb  Sb106  1  -0.00423363  0.33304439  0.33909670  1
  Sb  Sb107  1  0.83266623  0.33609650  0.16959112  1
  Te  Te108  1  0.16700821  0.16846556  0.16618891  1
  Te  Te109  1  0.17256022  0.16692762  0.49867212  1
  Te  Te110  1  0.16677702  0.16677549  0.84211381  1
  Te  Te111  1  0.17296534  0.49663186  0.16859200  1
  Te  Te112  1  0.16598010  0.50015061  0.49971197  1
  Te  Te113  1  0.17285636  0.50452108  0.83224330  1
  Te  Te114  1  0.16486178  0.83333246  0.16681318  1
  Te  Te115  1  0.16740948  0.82577187  0.49703286  1
  Te  Te116  1  0.16815642  0.82557193  0.83645569  1
  Te  Te117  1  0.49775779  0.16720488  0.16712572  1
  Te  Te118  1  0.49072809  0.16624601  0.50452908  1
  Te  Te119  1  0.50439733  0.17111996  0.82986868  1
  Te  Te120  1  0.49524915  0.49788324  0.16802646  1
  Te  Te121  1  0.49496318  0.50004465  0.50073404  1
  Te  Te122  1  0.49708481  0.49779543  0.83127713  1
  Te  Te123  1  0.49869660  0.83247359  0.16539384  1
  Te  Te124  1  0.50453358  0.83284876  0.50242000  1
  Te  Te125  1  0.50003818  0.83314779  0.83463406  1
  Te  Te126  1  0.83767656  0.16659216  0.16648659  1
  Te  Te127  1  0.83600049  0.16860250  0.50213161  1
  Te  Te128  1  0.83098383  0.16793971  0.83176597  1
  Te  Te129  1  0.83407240  0.50545745  0.16457960  1
  Te  Te130  1  0.83527542  0.50232652  0.50381967  1
  Te  Te131  1  0.83276652  0.49561484  0.82567119  1
  Te  Te132  1  0.83358545  0.82932765  0.16722642  1
  Te  Te133  1  0.82705432  0.82432808  0.49938200  1
  Te  Te134  1  0.83158213  0.83632301  0.83318316  1
  Te  Te135  1  0.16174790  -0.00350958  -0.00138237  1
  Te  Te136  1  0.15972496  -0.00535306  0.33444794  1
  Te  Te137  1  0.16518458  -0.00124349  0.66717890  1
  Te  Te138  1  0.17194194  0.33153716  0.00309979  1
  Te  Te139  1  0.16424819  0.33877994  0.32670566  1
  Te  Te140  1  0.17552727  0.33999410  0.66758665  1
  Te  Te141  1  0.16271159  0.67038651  -0.00223963  1
  Te  Te142  1  0.16472588  0.66491274  0.33506565  1
  Te  Te143  1  0.16652462  0.66170672  0.66699138  1
  Te  Te144  1  0.49967218  -0.00369271  0.00280236  1
  Te  Te145  1  0.49951703  -0.00057959  0.32671385  1
  Te  Te146  1  0.50152020  0.00106798  0.66706193  1
  Te  Te147  1  0.49455745  0.33525854  0.00214858  1
  Te  Te148  1  0.50635536  0.33743296  0.32925778  1
  Te  Te149  1  0.49785986  0.33170933  0.66614302  1
  Te  Te150  1  0.49987901  0.66696600  -0.00462715  1
  Te  Te151  1  0.50517181  0.66046938  0.33333743  1
  Te  Te152  1  0.50088106  0.66976949  0.67136129  1
  Te  Te153  1  0.84069623  -0.00042645  -0.00203172  1
  Te  Te154  1  0.83872979  0.00451131  0.33773793  1
  Te  Te155  1  0.83210393  0.00092059  0.66446007  1
  Te  Te156  1  0.83320335  0.33487859  -0.00474463  1
  Te  Te157  1  0.82729110  0.33082600  0.33533709  1
  Te  Te158  1  0.83143717  0.33195424  0.66588750  1
  Te  Te159  1  0.84037377  0.66558813  -0.00251385  1
  Te  Te160  1  0.83425239  0.66561929  0.33546838  1
  Te  Te161  1  0.83319992  0.66479437  0.66227547  1
  Te  Te162  1  0.00602915  0.16485261  0.00389207  1
  Te  Te163  1  -0.00289302  0.16584504  0.33416348  1
  Te  Te164  1  0.00142604  0.16701192  0.66226304  1
  Te  Te165  1  -0.00004325  0.50339591  -0.00011588  1
  Te  Te166  1  0.00348955  0.50339161  0.33985669  1
  Te  Te167  1  -0.00032574  0.49924127  0.66115730  1
  Te  Te168  1  0.00232449  0.83343836  0.00487360  1
  Te  Te169  1  0.00257596  0.83188041  0.32903369  1
  Te  Te170  1  0.00198505  0.83977666  0.66757508  1
  Te  Te171  1  0.32874110  0.17058414  0.00435377  1
  Te  Te172  1  0.33355229  0.16614335  0.33118554  1
  Te  Te173  1  0.32972152  0.16862895  0.66532946  1
  Te  Te174  1  0.33661827  0.49617081  0.00504330  1
  Te  Te175  1  0.33340418  0.50023351  0.33309037  1
  Te  Te176  1  0.33469041  0.49843549  0.66499580  1
  Te  Te177  1  0.33256342  0.83464176  0.00300960  1
  Te  Te178  1  0.32767719  0.83334416  0.32871649  1
  Te  Te179  1  0.33898827  0.83855603  0.66699930  1
  Te  Te180  1  0.66660702  0.16539304  -0.00173946  1
  Te  Te181  1  0.67189088  0.16905183  0.33818822  1
  Te  Te182  1  0.66665703  0.16828283  0.66486222  1
  Te  Te183  1  0.65672891  0.50129483  0.00060688  1
  Te  Te184  1  0.66334256  0.49976836  0.33470111  1
  Te  Te185  1  0.66181258  0.49625585  0.66533847  1
  Te  Te186  1  0.66052774  0.83383836  0.00477749  1
  Te  Te187  1  0.66603392  0.83136827  0.33365698  1
  Te  Te188  1  0.66120954  0.83316469  0.66292665  1
  Te  Te189  1  -0.00050953  0.00033303  0.16818714  1
  Te  Te190  1  -0.00430738  0.00145390  0.49949135  1
  Te  Te191  1  -0.00470927  0.00065053  0.83066336  1
  Te  Te192  1  0.00099385  0.32956352  0.16586764  1
  Te  Te193  1  -0.00281162  0.33282704  0.50410603  1
  Te  Te194  1  -0.00190952  0.33347557  0.82641158  1
  Te  Te195  1  -0.00238144  0.66596818  0.16894060  1
  Te  Te196  1  0.00057662  0.66734736  0.49641446  1
  Te  Te197  1  0.00270270  0.66627665  0.83606256  1
  Te  Te198  1  0.33753754  -0.00251981  0.16625644  1
  Te  Te199  1  0.33303776  0.00052926  0.50415805  1
  Te  Te200  1  0.33295349  0.00181572  0.82576252  1
  Te  Te201  1  0.33507242  0.33222960  0.17027406  1
  Te  Te202  1  0.33179715  0.33486122  0.50185637  1
  Te  Te203  1  0.33741712  0.33750892  0.83176129  1
  Te  Te204  1  0.33288121  0.67221674  0.16589075  1
  Te  Te205  1  0.32762578  0.66343853  0.49973556  1
  Te  Te206  1  0.33498176  0.66053631  0.83425051  1
  Te  Te207  1  0.66350656  -0.00543512  0.16690149  1
  Te  Te208  1  0.67088983  0.00139857  0.50344920  1
  Te  Te209  1  0.67126533  0.00441624  0.82841257  1
  Te  Te210  1  0.66321151  0.33256165  0.16765981  1
  Te  Te211  1  0.67085153  0.33034603  0.50151592  1
  Te  Te212  1  0.66456383  0.32929298  0.83095460  1
  Te  Te213  1  0.67262906  0.67120341  0.17175640  1
  Te  Te214  1  0.66877330  0.66780542  0.49473063  1
  Te  Te215  1  0.66266498  0.66786951  0.83512033  1
