# generated using pymatgen
data_AgSbTe2
_symmetry_space_group_name_H-M   'P 1'
_cell_length_a   18.33532086
_cell_length_b   18.33045274
_cell_length_c   18.33583773
_cell_angle_alpha   89.99646831
_cell_angle_beta   89.99912806
_cell_angle_gamma   89.99687160
_symmetry_Int_Tables_number   1
_chemical_formula_structural   AgSbTe2
_chemical_formula_sum   'Ag54 Sb54 Te108'
_cell_volume   6162.57845727
_cell_formula_units_Z   54
loop_
 _symmetry_equiv_pos_site_id
 _symmetry_equiv_pos_as_xyz
  1  'x, y, z'
loop_
 _atom_site_type_symbol
 _atom_site_label
 _atom_site_symmetry_multiplicity
 _atom_site_fract_x
 _atom_site_fract_y
 _atom_site_fract_z
 _atom_site_occupancy
  Ag  Ag0  1  0.82842677  0.16594111  0.01301292  1
  Ag  Ag1  1  0.82861197  0.32811707  0.17831472  1
  Ag  Ag2  1  0.66717690  0.33247672  0.65950372  1
  Ag  Ag3  1  0.49297184  0.49026904  0.00294113  1
  Ag  Ag4  1  0.33514020  0.33401482  0.01120157  1
  Ag  Ag5  1  0.66157829  0.66978352  0.33419076  1
  Ag  Ag6  1  0.82969047  0.83881218  0.66125715  1
  Ag  Ag7  1  0.00642502  0.49944860  0.82825411  1
  Ag  Ag8  1  0.16284510  0.50023040  0.66120662  1
  Ag  Ag9  1  0.34123247  -0.00964937  0.33393124  1
  Ag  Ag10  1  -0.00053890  0.00275064  0.01280701  1
  Ag  Ag11  1  0.83821559  0.49177070  0.65675530  1
  Ag  Ag12  1  0.33398723  0.33450763  0.33153951  1
  Ag  Ag13  1  0.50446283  -0.00125417  0.49446140  1
  Ag  Ag14  1  0.16869758  -0.00006615  0.49543971  1
  Ag  Ag15  1  -0.00019401  -0.00096942  0.33236786  1
  Ag  Ag16  1  0.16890583  0.34003384  0.82745706  1
  Ag  Ag17  1  0.33996845  0.83418179  0.49173694  1
  Ag  Ag18  1  0.00256396  0.84598257  0.16984566  1
  Ag  Ag19  1  0.66437165  0.66451454  0.00666357  1
  Ag  Ag20  1  0.66767930  0.16735783  0.49466429  1
  Ag  Ag21  1  0.17097570  0.34125516  0.50005926  1
  Ag  Ag22  1  0.66436273  0.16781277  0.17460211  1
  Ag  Ag23  1  0.50122640  0.17074530  0.01193956  1
  Ag  Ag24  1  0.00212295  0.49491331  0.49463144  1
  Ag  Ag25  1  0.49736746  0.32737269  0.17434528  1
  Ag  Ag26  1  0.82437155  0.00832187  0.49881279  1
  Ag  Ag27  1  0.49979799  0.83900697  0.65369235  1
  Ag  Ag28  1  0.33628620  0.67719346  0.33345647  1
  Ag  Ag29  1  0.50421407  0.32928387  0.49554528  1
  Ag  Ag30  1  0.66864692  0.48852212  0.49741529  1
  Ag  Ag31  1  0.83170545  0.17066191  0.33318506  1
  Ag  Ag32  1  0.49030491  0.83828948  0.33646777  1
  Ag  Ag33  1  0.50509233  0.16576921  0.66277130  1
  Ag  Ag34  1  0.16966610  0.49780892  0.00174130  1
  Ag  Ag35  1  -0.00648396  0.16817795  0.16765325  1
  Ag  Ag36  1  0.33293269  0.83525930  0.17893237  1
  Ag  Ag37  1  0.82280758  0.33307942  0.49626029  1
  Ag  Ag38  1  0.49556987  0.66606709  0.83528212  1
  Ag  Ag39  1  0.00742740  0.49479842  0.17132438  1
  Ag  Ag40  1  0.16973420  0.82885911  0.65653941  1
  Ag  Ag41  1  0.32840539  0.49494611  0.49189729  1
  Ag  Ag42  1  0.33016313  0.49175809  0.17460813  1
  Ag  Ag43  1  0.34523259  0.17368300  0.16888878  1
  Ag  Ag44  1  0.17243384  0.65638378  0.83256556  1
  Ag  Ag45  1  0.17734111  0.83251839  0.33876795  1
  Ag  Ag46  1  0.65651386  0.84281868  0.49757955  1
  Ag  Ag47  1  0.83461681  0.00412875  0.82271344  1
  Ag  Ag48  1  0.49602397  0.00763625  0.17678974  1
  Ag  Ag49  1  0.83759160  0.49227106  0.34001911  1
  Ag  Ag50  1  0.17292373  0.50160604  0.33896966  1
  Ag  Ag51  1  0.82623504  0.16872623  0.65545768  1
  Ag  Ag52  1  0.66185908  -0.00102962  0.33723775  1
  Ag  Ag53  1  0.33520633  0.16876503  0.83840468  1
  Sb  Sb54  1  0.00511060  0.33107789  0.00354027  1
  Sb  Sb55  1  0.83045930  0.66069653  0.49874903  1
  Sb  Sb56  1  0.00032021  0.33340804  0.33265828  1
  Sb  Sb57  1  0.00203354  0.66646867  0.33296302  1
  Sb  Sb58  1  0.00260548  0.83294944  0.49576765  1
  Sb  Sb59  1  -0.00273971  0.00015829  0.66011912  1
  Sb  Sb60  1  0.16841478  -0.00021841  0.17507800  1
  Sb  Sb61  1  0.66174301  0.33490025  -0.00085021  1
  Sb  Sb62  1  0.32715459  0.49624761  0.83358339  1
  Sb  Sb63  1  0.66932183  0.50028707  0.82942758  1
  Sb  Sb64  1  0.66536609  0.83889689  0.17526500  1
  Sb  Sb65  1  0.16422153  0.16685103  0.33436685  1
  Sb  Sb66  1  0.16912262  0.66385614  0.50079151  1
  Sb  Sb67  1  0.49514300  0.50181119  0.33275935  1
  Sb  Sb68  1  0.33347376  0.83695807  0.83043919  1
  Sb  Sb69  1  0.33018550  0.00655447  0.00985291  1
  Sb  Sb70  1  0.49869138  0.66443985  0.16666244  1
  Sb  Sb71  1  0.66647668  0.83319931  0.82431246  1
  Sb  Sb72  1  0.50009130  0.66886813  0.50031732  1
  Sb  Sb73  1  0.83437885  0.49284864  0.00239888  1
  Sb  Sb74  1  0.16830715  0.66390830  0.16590470  1
  Sb  Sb75  1  0.34106205  0.16681392  0.49307461  1
  Sb  Sb76  1  0.50339678  -0.00021614  0.83140425  1
  Sb  Sb77  1  0.33654942  0.65941682  0.00482639  1
  Sb  Sb78  1  0.83322253  0.83639618  0.33870045  1
  Sb  Sb79  1  0.00120940  0.66442935  0.66632810  1
  Sb  Sb80  1  0.33345891  0.66621873  0.66152817  1
  Sb  Sb81  1  0.50500990  0.16044169  0.33264548  1
  Sb  Sb82  1  0.83288208  0.84142366  -0.00131744  1
  Sb  Sb83  1  0.33407219  0.00049586  0.65740784  1
  Sb  Sb84  1  0.49962234  0.83539368  0.00490440  1
  Sb  Sb85  1  0.83748511  0.32950492  0.82957995  1
  Sb  Sb86  1  0.16955172  0.17257670  0.00161957  1
  Sb  Sb87  1  0.83254548  0.66819976  0.83218155  1
  Sb  Sb88  1  0.33626536  0.33313936  0.66115463  1
  Sb  Sb89  1  -0.00323979  0.33458724  0.66386263  1
  Sb  Sb90  1  0.00125404  0.16967014  0.83796450  1
  Sb  Sb91  1  0.66893021  0.00066559  0.00821679  1
  Sb  Sb92  1  0.83310011  0.00791941  0.17544258  1
  Sb  Sb93  1  0.00125227  0.83128759  0.83535096  1
  Sb  Sb94  1  0.66349022  0.33130722  0.33824729  1
  Sb  Sb95  1  0.49890111  0.49875635  0.66546743  1
  Sb  Sb96  1  0.66437115  0.16612553  0.83200911  1
  Sb  Sb97  1  -0.00251349  0.66690854  0.00057219  1
  Sb  Sb98  1  0.66483909  0.66425470  0.66105581  1
  Sb  Sb99  1  0.17203186  0.33550286  0.17160868  1
  Sb  Sb100  1  0.66744651  0.00555686  0.65744877  1
  Sb  Sb101  1  0.16727874  0.16937088  0.66350544  1
  Sb  Sb102  1  -0.00834009  0.16968376  0.49416199  1
  Sb  Sb103  1  0.16350411  0.00142454  0.82776081  1
  Sb  Sb104  1  0.16760524  0.82918940  0.00343927  1
  Sb  Sb105  1  0.83225645  0.65987216  0.16873248  1
  Sb  Sb106  1  0.49461069  0.33453323  0.83273216  1
  Sb  Sb107  1  0.66402662  0.49365413  0.17345853  1
  Te  Te108  1  0.15956136  0.16787604  0.16620827  1
  Te  Te109  1  0.16489380  0.16552631  0.50162396  1
  Te  Te110  1  0.17157557  0.17044575  0.83241598  1
  Te  Te111  1  0.16906367  0.49893609  0.16821032  1
  Te  Te112  1  0.16861326  0.50115944  0.49936539  1
  Te  Te113  1  0.16624512  0.49867972  0.83060166  1
  Te  Te114  1  0.16647478  0.83169818  0.17146061  1
  Te  Te115  1  0.16627594  0.83245845  0.49840140  1
  Te  Te116  1  0.16687853  0.83195158  0.82961386  1
  Te  Te117  1  0.50202708  0.16766479  0.16895810  1
  Te  Te118  1  0.50398948  0.16722879  0.50202251  1
  Te  Te119  1  0.49665021  0.16632194  0.82748117  1
  Te  Te120  1  0.49663489  0.49546694  0.16247218  1
  Te  Te121  1  0.50248413  0.49660104  0.50163190  1
  Te  Te122  1  0.49955216  0.50335247  0.83632919  1
  Te  Te123  1  0.49795614  0.83758192  0.17145265  1
  Te  Te124  1  0.49863610  0.83326469  0.49796030  1
  Te  Te125  1  0.49933249  0.83035143  0.83161929  1
  Te  Te126  1  0.83226507  0.16860223  0.16987398  1
  Te  Te127  1  0.83087815  0.16941837  0.49787791  1
  Te  Te128  1  0.83327085  0.16315643  0.83077134  1
  Te  Te129  1  0.83286200  0.49180188  0.16928333  1
  Te  Te130  1  0.83046251  0.49733034  0.49987568  1
  Te  Te131  1  0.84006803  0.49969816  0.83109906  1
  Te  Te132  1  0.83857893  0.83263672  0.16631752  1
  Te  Te133  1  0.83614602  0.83570490  0.50361627  1
  Te  Te134  1  0.83440828  0.83869550  0.82651577  1
  Te  Te135  1  0.16010633  -0.00092692  -0.00286012  1
  Te  Te136  1  0.16434431  -0.00123202  0.33726699  1
  Te  Te137  1  0.16536143  -0.00420541  0.65930619  1
  Te  Te138  1  0.17248798  0.33893061  -0.00163273  1
  Te  Te139  1  0.16981969  0.33790784  0.33827890  1
  Te  Te140  1  0.16706102  0.33687994  0.66350075  1
  Te  Te141  1  0.16643714  0.66044001  -0.00645946  1
  Te  Te142  1  0.17071311  0.66573329  0.33301387  1
  Te  Te143  1  0.16752894  0.66705590  0.67235098  1
  Te  Te144  1  0.49991459  0.00666097  0.00052757  1
  Te  Te145  1  0.50062497  -0.00143013  0.33499707  1
  Te  Te146  1  0.50086370  -0.00065744  0.66286555  1
  Te  Te147  1  0.49646611  0.33148930  -0.00089185  1
  Te  Te148  1  0.49698895  0.33541781  0.33397731  1
  Te  Te149  1  0.50358236  0.33020670  0.66310332  1
  Te  Te150  1  0.50346336  0.66742802  -0.00274128  1
  Te  Te151  1  0.49978808  0.67242310  0.33296953  1
  Te  Te152  1  0.50031636  0.67163294  0.67335752  1
  Te  Te153  1  0.83635789  0.00622268  0.00143830  1
  Te  Te154  1  0.83446923  0.00183986  0.33908621  1
  Te  Te155  1  0.83287588  0.00084240  0.66141301  1
  Te  Te156  1  0.83159431  0.32571909  -0.00082677  1
  Te  Te157  1  0.83329754  0.33314106  0.33575451  1
  Te  Te158  1  0.83083255  0.33293882  0.66349779  1
  Te  Te159  1  0.82619818  0.66695339  -0.00063488  1
  Te  Te160  1  0.82934767  0.66052760  0.33248532  1
  Te  Te161  1  0.83255129  0.66896924  0.66805773  1
  Te  Te162  1  -0.00185675  0.16328105  0.00404556  1
  Te  Te163  1  -0.00457540  0.16219915  0.32836068  1
  Te  Te164  1  -0.00752836  0.16668967  0.66861062  1
  Te  Te165  1  0.00326323  0.49984645  0.00630833  1
  Te  Te166  1  0.00006173  0.50069884  0.33264540  1
  Te  Te167  1  0.00035384  0.49942704  0.66514543  1
  Te  Te168  1  0.00015100  0.83826572  0.00692749  1
  Te  Te169  1  0.00141633  0.83422326  0.32850409  1
  Te  Te170  1  0.00184335  0.83231538  0.66641321  1
  Te  Te171  1  0.33647457  0.17091847  0.00549721  1
  Te  Te172  1  0.33067536  0.17294636  0.32787067  1
  Te  Te173  1  0.33676066  0.16635800  0.66952417  1
  Te  Te174  1  0.33284208  0.49596439  0.00016972  1
  Te  Te175  1  0.33454527  0.49636409  0.33405825  1
  Te  Te176  1  0.32841200  0.50062749  0.65978021  1
  Te  Te177  1  0.33264614  0.83295615  0.00550897  1
  Te  Te178  1  0.33279785  0.83368423  0.33467232  1
  Te  Te179  1  0.33294199  0.83343639  0.66213994  1
  Te  Te180  1  0.66473503  0.16735437  0.00125424  1
  Te  Te181  1  0.67103452  0.16471489  0.33422395  1
  Te  Te182  1  0.66643314  0.17041819  0.66565640  1
  Te  Te183  1  0.66422855  0.50305247  -0.00016452  1
  Te  Te184  1  0.66768214  0.50318678  0.33703843  1
  Te  Te185  1  0.66992301  0.49684017  0.66153926  1
  Te  Te186  1  0.66671354  0.82790683  0.00063305  1
  Te  Te187  1  0.66722561  0.83438978  0.33810454  1
  Te  Te188  1  0.66583406  0.83155731  0.65823977  1
  Te  Te189  1  0.00000574  0.00266701  0.17034412  1
  Te  Te190  1  0.00350659  0.00058262  0.49344983  1
  Te  Te191  1  -0.00434412  0.00029979  0.83408172  1
  Te  Te192  1  -0.00550579  0.33262614  0.16665355  1
  Te  Te193  1  0.00663465  0.33670828  0.49884592  1
  Te  Te194  1  0.00776410  0.33890312  0.83496728  1
  Te  Te195  1  -0.00004898  0.65763174  0.16542677  1
  Te  Te196  1  -0.00133754  0.65461070  0.49912980  1
  Te  Te197  1  0.00465490  0.66106230  0.83539673  1
  Te  Te198  1  0.33483503  -0.00005848  0.17277440  1
  Te  Te199  1  0.33386304  -0.00046874  0.49328167  1
  Te  Te200  1  0.33290597  0.00605054  0.83602595  1
  Te  Te201  1  0.33462202  0.33339629  0.16829853  1
  Te  Te202  1  0.33351541  0.33375538  0.49672176  1
  Te  Te203  1  0.32877035  0.32917735  0.83207108  1
  Te  Te204  1  0.33398998  0.66872376  0.17229361  1
  Te  Te205  1  0.33490959  0.66729175  0.49438283  1
  Te  Te206  1  0.33328846  0.66773302  0.83497627  1
  Te  Te207  1  0.66136347  0.00523623  0.17373401  1
  Te  Te208  1  0.66527498  0.00203269  0.49653727  1
  Te  Te209  1  0.67478261  -0.00195120  0.83767405  1
  Te  Te210  1  0.66440051  0.32759473  0.16499778  1
  Te  Te211  1  0.66514768  0.32991346  0.49993348  1
  Te  Te212  1  0.66663250  0.33434549  0.82531084  1
  Te  Te213  1  0.66572180  0.66771261  0.17016192  1
  Te  Te214  1  0.66534128  0.66873194  0.49390433  1
  Te  Te215  1  0.66318038  0.66721373  0.83636549  1
