# generated using pymatgen
data_AgSbTe2
_symmetry_space_group_name_H-M   'P 1'
_cell_length_a   18.33223000
_cell_length_b   18.33364777
_cell_length_c   18.33205941
_cell_angle_alpha   89.99897299
_cell_angle_beta   89.99986781
_cell_angle_gamma   90.00219109
_symmetry_Int_Tables_number   1
_chemical_formula_structural   AgSbTe2
_chemical_formula_sum   'Ag54 Sb54 Te108'
_cell_volume   6161.34370642
_cell_formula_units_Z   54
loop_
 _symmetry_equiv_pos_site_id
 _symmetry_equiv_pos_as_xyz
  1  'x, y, z'
loop_
 _atom_site_type_symbol
 _atom_site_label
 _atom_site_symmetry_multiplicity
 _atom_site_fract_x
 _atom_site_fract_y
 _atom_site_fract_z
 _atom_site_occupancy
  Ag  Ag0  1  0.17182731  0.17457899  0.66711362  1
  Ag  Ag1  1  -0.00926629  0.65642285  0.34261498  1
  Ag  Ag2  1  0.67187519  0.65499947  0.33819264  1
  Ag  Ag3  1  0.49982020  0.66183202  0.17072015  1
  Ag  Ag4  1  0.33308448  0.49380123  0.83161402  1
  Ag  Ag5  1  -0.00838939  0.49667455  0.50262717  1
  Ag  Ag6  1  0.83036444  0.17847486  0.33016770  1
  Ag  Ag7  1  0.67136973  0.17524773  0.17846967  1
  Ag  Ag8  1  -0.00464906  0.17761001  0.50472746  1
  Ag  Ag9  1  -0.00572412  0.33753553  0.34555482  1
  Ag  Ag10  1  0.16403946  0.83462054  -0.01190461  1
  Ag  Ag11  1  0.32396159  0.65873249  0.66792789  1
  Ag  Ag12  1  0.16945054  -0.00379799  0.83327283  1
  Ag  Ag13  1  -0.00138039  0.50157823  0.82578330  1
  Ag  Ag14  1  0.83251776  0.49417070  0.00177833  1
  Ag  Ag15  1  0.33564399  0.00339732  -0.00371543  1
  Ag  Ag16  1  0.66662964  0.17768474  0.49684843  1
  Ag  Ag17  1  0.50658916  0.33144677  0.50482935  1
  Ag  Ag18  1  0.00452605  0.82214099  0.83333224  1
  Ag  Ag19  1  0.00451760  0.17321536  0.82814818  1
  Ag  Ag20  1  0.00399149  0.66220469  0.66873135  1
  Ag  Ag21  1  0.83274568  0.17277382  0.00571635  1
  Ag  Ag22  1  0.34040852  0.50098703  0.16214828  1
  Ag  Ag23  1  0.33715552  0.33280441  0.66890029  1
  Ag  Ag24  1  -0.00152771  0.33371082  -0.00248647  1
  Ag  Ag25  1  0.66893592  0.65725509  0.66172163  1
  Ag  Ag26  1  0.16848937  0.82387783  0.66978412  1
  Ag  Ag27  1  0.16687374  0.83163737  0.33919248  1
  Ag  Ag28  1  0.84085120  0.66052530  0.82892467  1
  Ag  Ag29  1  0.16161139  0.33184919  0.50329532  1
  Ag  Ag30  1  0.49053567  0.01104459  0.83530754  1
  Ag  Ag31  1  0.49450426  0.33104424  0.82625509  1
  Ag  Ag32  1  0.83862849  0.83250134  -0.00014375  1
  Ag  Ag33  1  0.66785777  0.49588401  0.18013660  1
  Ag  Ag34  1  0.83337433  0.65698390  0.50161661  1
  Ag  Ag35  1  0.83149731  0.33203748  0.17651189  1
  Ag  Ag36  1  0.51303690  0.49406095  0.33267667  1
  Ag  Ag37  1  0.82794773  0.01236448  0.16426885  1
  Ag  Ag38  1  0.33809740  0.17258485  0.50966228  1
  Ag  Ag39  1  0.32837240  0.33165921  -0.01233099  1
  Ag  Ag40  1  0.33193930  0.17477419  0.82862741  1
  Ag  Ag41  1  0.67223711  0.49990576  0.82826012  1
  Ag  Ag42  1  0.33159112  0.82677395  0.16627113  1
  Ag  Ag43  1  0.83521249  0.33858398  0.49584066  1
  Ag  Ag44  1  0.66745227  0.01469281  0.32782223  1
  Ag  Ag45  1  0.49331803  0.17372250  0.66324534  1
  Ag  Ag46  1  0.16811313  0.50116125  0.66902580  1
  Ag  Ag47  1  0.15982958  0.66960808  0.82823364  1
  Ag  Ag48  1  0.32954779  0.83480776  0.50056377  1
  Ag  Ag49  1  0.83068099  0.49507212  0.33579245  1
  Ag  Ag50  1  0.65997876  0.33886145  0.66336581  1
  Ag  Ag51  1  0.51274403  0.17676175  0.34215412  1
  Ag  Ag52  1  0.66843217  0.00308992  0.00332170  1
  Ag  Ag53  1  0.67380041  0.49449443  0.49775943  1
  Sb  Sb54  1  0.83665085  0.83006511  0.32917322  1
  Sb  Sb55  1  0.66416015  0.00339824  0.66753055  1
  Sb  Sb56  1  0.66480413  0.83131019  0.16701216  1
  Sb  Sb57  1  0.50394809  0.16899390  -0.00171394  1
  Sb  Sb58  1  0.16779189  0.00272782  0.50606587  1
  Sb  Sb59  1  0.16344231  0.33426459  0.17124197  1
  Sb  Sb60  1  0.33192876  0.66450687  -0.00478642  1
  Sb  Sb61  1  0.34084037  0.16980774  0.16379072  1
  Sb  Sb62  1  -0.00352070  0.49929985  0.16805453  1
  Sb  Sb63  1  0.50615136  0.33606301  0.16961453  1
  Sb  Sb64  1  0.66679744  0.17137776  0.83068637  1
  Sb  Sb65  1  0.49220348  0.83613379  0.66669495  1
  Sb  Sb66  1  0.66907946  0.66668707  0.00010173  1
  Sb  Sb67  1  0.50354016  0.65844483  0.49783966  1
  Sb  Sb68  1  0.49802347  0.83519066  -0.00120164  1
  Sb  Sb69  1  0.49978436  0.66195814  0.83315694  1
  Sb  Sb70  1  -0.00239975  0.00398027  -0.00250201  1
  Sb  Sb71  1  -0.00194398  0.66237609  -0.00521856  1
  Sb  Sb72  1  0.00332761  0.83111143  0.16183683  1
  Sb  Sb73  1  0.50414072  0.49693835  0.00300478  1
  Sb  Sb74  1  0.16398123  0.50136761  -0.00767514  1
  Sb  Sb75  1  0.83077947  0.00548242  0.49319770  1
  Sb  Sb76  1  0.83459720  -0.00177922  0.84050454  1
  Sb  Sb77  1  -0.00454382  0.00237255  0.33401917  1
  Sb  Sb78  1  0.16981361  0.66625022  0.16462206  1
  Sb  Sb79  1  0.83496050  0.16993854  0.66525393  1
  Sb  Sb80  1  0.16308421  0.50318804  0.33877142  1
  Sb  Sb81  1  0.00278178  0.33897149  0.66500932  1
  Sb  Sb82  1  -0.00764191  0.16923661  0.16696593  1
  Sb  Sb83  1  0.32579499  0.83411204  0.83245014  1
  Sb  Sb84  1  0.66431336  0.82936386  0.49911738  1
  Sb  Sb85  1  0.16544809  -0.00153619  0.16137426  1
  Sb  Sb86  1  0.83263980  0.33971969  0.83023182  1
  Sb  Sb87  1  0.83442753  0.49934160  0.66251508  1
  Sb  Sb88  1  0.33820397  0.00055072  0.32879085  1
  Sb  Sb89  1  0.82906709  0.66116731  0.16837791  1
  Sb  Sb90  1  0.17055193  0.33457336  0.82608641  1
  Sb  Sb91  1  0.67448080  0.33436270  0.34290358  1
  Sb  Sb92  1  0.33366133  0.49571376  0.50424283  1
  Sb  Sb93  1  0.16290313  0.66150979  0.50692470  1
  Sb  Sb94  1  0.33041773  0.33395030  0.33730413  1
  Sb  Sb95  1  0.16340690  0.16474191  -0.00894438  1
  Sb  Sb96  1  0.66968725  0.33196457  -0.00461056  1
  Sb  Sb97  1  0.50508371  -0.00124166  0.16368135  1
  Sb  Sb98  1  0.49868651  0.01017115  0.50311791  1
  Sb  Sb99  1  0.33318213  0.66578440  0.33817193  1
  Sb  Sb100  1  0.67204437  0.82873783  0.83354712  1
  Sb  Sb101  1  0.16327838  0.16401604  0.34218525  1
  Sb  Sb102  1  0.00448190  0.82822145  0.50392384  1
  Sb  Sb103  1  0.49983273  0.49328331  0.66405749  1
  Sb  Sb104  1  0.49758692  0.83125519  0.33369494  1
  Sb  Sb105  1  0.00173409  -0.00121278  0.66887506  1
  Sb  Sb106  1  0.83952496  0.82644737  0.67153201  1
  Sb  Sb107  1  0.33190136  0.00622819  0.67299407  1
  Te  Te108  1  0.16824193  0.16543251  0.16815852  1
  Te  Te109  1  0.16759311  0.16911407  0.50555578  1
  Te  Te110  1  0.16712088  0.16587153  0.82857489  1
  Te  Te111  1  0.17508215  0.50025282  0.16549450  1
  Te  Te112  1  0.16446419  0.49478851  0.50527999  1
  Te  Te113  1  0.16670445  0.50278037  0.82960324  1
  Te  Te114  1  0.17132488  0.83351648  0.16545635  1
  Te  Te115  1  0.16980718  0.83422336  0.50329805  1
  Te  Te116  1  0.16466993  0.83194807  0.83086201  1
  Te  Te117  1  0.50899246  0.16770848  0.17354234  1
  Te  Te118  1  0.49969847  0.17042809  0.50100998  1
  Te  Te119  1  0.49968807  0.16954331  0.83176707  1
  Te  Te120  1  0.50275801  0.50098775  0.17020600  1
  Te  Te121  1  0.50203272  0.49377386  0.49311672  1
  Te  Te122  1  0.49686947  0.49603365  0.83507878  1
  Te  Te123  1  0.49246503  0.82825026  0.16650746  1
  Te  Te124  1  0.49155832  0.83476069  0.49976368  1
  Te  Te125  1  0.50121863  0.83677991  0.83305958  1
  Te  Te126  1  0.83016033  0.17091158  0.16704936  1
  Te  Te127  1  0.83269800  0.16848813  0.49759818  1
  Te  Te128  1  0.83736440  0.16683173  0.83474627  1
  Te  Te129  1  0.82991142  0.49661631  0.16664506  1
  Te  Te130  1  0.83370070  0.50041237  0.49817683  1
  Te  Te131  1  0.83510228  0.50158420  0.83561057  1
  Te  Te132  1  0.83420844  0.83150270  0.16015077  1
  Te  Te133  1  0.83488874  0.83114706  0.49984524  1
  Te  Te134  1  0.83980532  0.82922369  0.83889899  1
  Te  Te135  1  0.16933033  -0.00395337  -0.00507726  1
  Te  Te136  1  0.16707903  -0.00703441  0.33164864  1
  Te  Te137  1  0.16650215  -0.00055085  0.67317130  1
  Te  Te138  1  0.16621516  0.33300245  0.00259260  1
  Te  Te139  1  0.15672512  0.33355501  0.33963669  1
  Te  Te140  1  0.16901416  0.33387094  0.66167949  1
  Te  Te141  1  0.16559854  0.67289306  -0.00613895  1
  Te  Te142  1  0.16470903  0.67137629  0.33408122  1
  Te  Te143  1  0.16537660  0.66337059  0.66832847  1
  Te  Te144  1  0.50023330  0.00146298  -0.00420777  1
  Te  Te145  1  0.50636803  0.00241348  0.33288832  1
  Te  Te146  1  0.49962560  0.00733281  0.67460005  1
  Te  Te147  1  0.49120155  0.33290703  -0.00394284  1
  Te  Te148  1  0.49517747  0.33400205  0.33637266  1
  Te  Te149  1  0.49822260  0.33154094  0.66563311  1
  Te  Te150  1  0.50020190  0.66700112  0.00678757  1
  Te  Te151  1  0.50312190  0.66293405  0.33116608  1
  Te  Te152  1  0.50560530  0.66815594  0.66644391  1
  Te  Te153  1  0.83087976  0.00221443  0.00349665  1
  Te  Te154  1  0.82784845  -0.00206322  0.32615418  1
  Te  Te155  1  0.83186228  -0.00379211  0.66620551  1
  Te  Te156  1  0.83520612  0.33355485  -0.00392019  1
  Te  Te157  1  0.83739771  0.33497835  0.33479038  1
  Te  Te158  1  0.82438047  0.33248048  0.65945298  1
  Te  Te159  1  0.83352276  0.66636315  -0.00347655  1
  Te  Te160  1  0.83267414  0.66479519  0.33544811  1
  Te  Te161  1  0.83175491  0.66590870  0.66723478  1
  Te  Te162  1  -0.00405743  0.17158733  -0.00299806  1
  Te  Te163  1  -0.00479846  0.17032866  0.33815951  1
  Te  Te164  1  0.00254555  0.16721337  0.66677096  1
  Te  Te165  1  -0.00408609  0.49557680  -0.00053074  1
  Te  Te166  1  -0.00192090  0.49901796  0.33513548  1
  Te  Te167  1  0.00309073  0.50275148  0.66596461  1
  Te  Te168  1  0.00081740  0.83306837  -0.00457803  1
  Te  Te169  1  0.00544315  0.83307100  0.33413411  1
  Te  Te170  1  0.00665880  0.82828284  0.67190530  1
  Te  Te171  1  0.33342201  0.16733406  -0.00374168  1
  Te  Te172  1  0.33381006  0.16543095  0.33521162  1
  Te  Te173  1  0.33305305  0.16834177  0.66862907  1
  Te  Te174  1  0.33283587  0.49727822  -0.00228587  1
  Te  Te175  1  0.33156225  0.50104038  0.32905351  1
  Te  Te176  1  0.33252264  0.49830536  0.66828733  1
  Te  Te177  1  0.33073701  0.83418463  0.00240264  1
  Te  Te178  1  0.32943206  0.83332871  0.33299320  1
  Te  Te179  1  0.32893568  0.83163987  0.66380176  1
  Te  Te180  1  0.67159438  0.16367490  -0.00148820  1
  Te  Te181  1  0.66914655  0.17048473  0.33499026  1
  Te  Te182  1  0.66459610  0.16870200  0.66112498  1
  Te  Te183  1  0.67220980  0.50015277  -0.00785083  1
  Te  Te184  1  0.66953192  0.49835696  0.33621974  1
  Te  Te185  1  0.66483466  0.49966831  0.66668999  1
  Te  Te186  1  0.67084564  0.83936567  0.00046249  1
  Te  Te187  1  0.66671762  0.82946275  0.33346944  1
  Te  Te188  1  0.66524449  0.82869979  0.66575747  1
  Te  Te189  1  -0.00854060  0.00002792  0.16636384  1
  Te  Te190  1  -0.00067403  0.00897422  0.50017574  1
  Te  Te191  1  0.00400542  0.00566938  0.83366111  1
  Te  Te192  1  -0.00481249  0.33355921  0.16032873  1
  Te  Te193  1  -0.00295701  0.33525136  0.50361243  1
  Te  Te194  1  0.00032191  0.33501483  0.83367675  1
  Te  Te195  1  0.00060118  0.66629079  0.17701648  1
  Te  Te196  1  -0.00346878  0.66429734  0.50227131  1
  Te  Te197  1  0.00030820  0.66279306  0.83242486  1
  Te  Te198  1  0.33461521  -0.00049761  0.15928627  1
  Te  Te199  1  0.33303695  0.00009145  0.49831354  1
  Te  Te200  1  0.33173913  -0.00018305  0.83790192  1
  Te  Te201  1  0.33337776  0.33757375  0.16562535  1
  Te  Te202  1  0.33204987  0.33084777  0.50311443  1
  Te  Te203  1  0.33314879  0.33320900  0.83074502  1
  Te  Te204  1  0.33649816  0.66446304  0.16655141  1
  Te  Te205  1  0.33420179  0.66786184  0.50650488  1
  Te  Te206  1  0.33281756  0.66222516  0.82790266  1
  Te  Te207  1  0.66908026  -0.00194831  0.16601627  1
  Te  Te208  1  0.66590853  0.00065933  0.49559480  1
  Te  Te209  1  0.66585096  -0.00131390  0.83645175  1
  Te  Te210  1  0.67133516  0.33546907  0.16029546  1
  Te  Te211  1  0.66626734  0.33444344  0.50286597  1
  Te  Te212  1  0.66157435  0.33811662  0.82777190  1
  Te  Te213  1  0.66292903  0.66202762  0.16970549  1
  Te  Te214  1  0.67014661  0.66431571  0.49966983  1
  Te  Te215  1  0.66797445  0.66142307  0.83048493  1
