# generated using pymatgen
data_AgSbTe2
_symmetry_space_group_name_H-M   'P 1'
_cell_length_a   18.32289254
_cell_length_b   18.32310910
_cell_length_c   18.31806454
_cell_angle_alpha   90.00192391
_cell_angle_beta   90.00361045
_cell_angle_gamma   89.99818596
_symmetry_Int_Tables_number   1
_chemical_formula_structural   AgSbTe2
_chemical_formula_sum   'Ag54 Sb54 Te108'
_cell_volume   6149.96700089
_cell_formula_units_Z   54
loop_
 _symmetry_equiv_pos_site_id
 _symmetry_equiv_pos_as_xyz
  1  'x, y, z'
loop_
 _atom_site_type_symbol
 _atom_site_label
 _atom_site_symmetry_multiplicity
 _atom_site_fract_x
 _atom_site_fract_y
 _atom_site_fract_z
 _atom_site_occupancy
  Ag  Ag0  1  0.01085822  0.00493308  0.00189032  1
  Ag  Ag1  1  0.49882128  0.67296683  0.49710478  1
  Ag  Ag2  1  0.33371468  0.16281640  0.16058988  1
  Ag  Ag3  1  0.83330717  0.49758681  0.33565752  1
  Ag  Ag4  1  0.83457065  0.16861313  0.32894004  1
  Ag  Ag5  1  0.32992811  0.50348964  0.83354465  1
  Ag  Ag6  1  -0.00170200  0.32439040  0.00222469  1
  Ag  Ag7  1  0.66390061  0.66655145  -0.00004506  1
  Ag  Ag8  1  0.16818498  0.51190181  0.66674537  1
  Ag  Ag9  1  0.49360340  0.15933187  0.00533120  1
  Ag  Ag10  1  0.67730920  0.32971647  0.33415952  1
  Ag  Ag11  1  0.50064297  0.31921348  0.16423669  1
  Ag  Ag12  1  0.83194936  0.49499315  0.00039738  1
  Ag  Ag13  1  0.67332994  0.50747783  0.49863864  1
  Ag  Ag14  1  0.16988964  0.83985573  -0.00949022  1
  Ag  Ag15  1  0.32758870  0.83603758  0.83326986  1
  Ag  Ag16  1  0.83802693  0.83503508  0.66194957  1
  Ag  Ag17  1  0.49789839  0.00407869  0.15864316  1
  Ag  Ag18  1  0.83877757  0.83254498  0.34335402  1
  Ag  Ag19  1  -0.00324013  0.82899291  0.50296933  1
  Ag  Ag20  1  0.16610154  0.83050746  0.67206207  1
  Ag  Ag21  1  0.49386802  -0.00017992  0.84182333  1
  Ag  Ag22  1  0.32868851  0.67492266  0.66568430  1
  Ag  Ag23  1  0.83384779  0.00456139  0.16500745  1
  Ag  Ag24  1  0.16457480  0.33409610  0.50273259  1
  Ag  Ag25  1  -0.00408836  0.50706532  0.49836230  1
  Ag  Ag26  1  0.16255008  0.83602928  0.33909461  1
  Ag  Ag27  1  0.16824851  0.00392621  0.16160083  1
  Ag  Ag28  1  0.33183737  0.66796024  0.34311291  1
  Ag  Ag29  1  -0.00353399  0.32916086  0.33107848  1
  Ag  Ag30  1  0.83998189  0.33352327  0.83805170  1
  Ag  Ag31  1  0.83641746  0.16769421  0.00417343  1
  Ag  Ag32  1  -0.00116941  0.16465641  0.16310311  1
  Ag  Ag33  1  0.00987486  0.83299274  0.83105644  1
  Ag  Ag34  1  0.67199699  0.83153811  0.50075236  1
  Ag  Ag35  1  0.50129488  -0.00219730  0.50164624  1
  Ag  Ag36  1  0.33107481  0.15561748  0.83997673  1
  Ag  Ag37  1  0.83089169  0.15910821  0.66434017  1
  Ag  Ag38  1  0.16369873  0.33503133  0.83148635  1
  Ag  Ag39  1  0.33558892  -0.00300070  0.67754438  1
  Ag  Ag40  1  0.66647834  0.16390629  0.49389159  1
  Ag  Ag41  1  0.16389984  0.16407927  0.32466878  1
  Ag  Ag42  1  0.49944675  0.66968831  0.16132057  1
  Ag  Ag43  1  0.16852369  0.66927966  0.50786375  1
  Ag  Ag44  1  0.66953824  0.16509719  0.16853008  1
  Ag  Ag45  1  0.83321141  0.67222122  0.50321963  1
  Ag  Ag46  1  0.16838262  0.67259777  0.82708114  1
  Ag  Ag47  1  0.83794618  0.66756293  0.82769620  1
  Ag  Ag48  1  0.33266911  0.00179042  -0.00352404  1
  Ag  Ag49  1  0.49393017  0.84157827  -0.00006475  1
  Ag  Ag50  1  0.66282742  -0.00080735  0.66272283  1
  Ag  Ag51  1  0.16853998  0.15898421  0.00588114  1
  Ag  Ag52  1  0.50377345  0.50208844  0.00057768  1
  Ag  Ag53  1  0.33471310  0.16249806  0.49963495  1
  Sb  Sb54  1  0.00394386  0.16340523  0.84104602  1
  Sb  Sb55  1  0.33215838  -0.00100703  0.33067234  1
  Sb  Sb56  1  0.66246480  -0.00090815  -0.00118176  1
  Sb  Sb57  1  0.33577432  0.49715743  0.16046794  1
  Sb  Sb58  1  0.49736965  0.83646467  0.66927286  1
  Sb  Sb59  1  0.16155676  0.49878025  0.34126670  1
  Sb  Sb60  1  0.66691458  0.49538243  0.16938310  1
  Sb  Sb61  1  0.00247174  -0.00330222  0.67248235  1
  Sb  Sb62  1  0.49845512  0.83301536  0.33200129  1
  Sb  Sb63  1  0.17025804  -0.00219360  0.49693444  1
  Sb  Sb64  1  0.32832959  0.32392875  -0.00151064  1
  Sb  Sb65  1  0.17335555  -0.00285287  0.83977883  1
  Sb  Sb66  1  0.17270804  0.67436731  0.16694107  1
  Sb  Sb67  1  0.33221686  0.83512132  0.50408912  1
  Sb  Sb68  1  0.00076993  0.33163259  0.66736311  1
  Sb  Sb69  1  0.16883800  0.32462884  0.16534821  1
  Sb  Sb70  1  0.00092357  0.84012707  0.16613519  1
  Sb  Sb71  1  0.16528141  0.16235092  0.66863626  1
  Sb  Sb72  1  0.82894692  0.67173176  0.16816532  1
  Sb  Sb73  1  0.33180645  0.50142945  0.50440186  1
  Sb  Sb74  1  0.83034610  0.32441775  0.16556038  1
  Sb  Sb75  1  0.66810344  0.00479785  0.33724710  1
  Sb  Sb76  1  0.67077443  0.33375044  0.00453818  1
  Sb  Sb77  1  0.49630277  0.67106331  0.83458691  1
  Sb  Sb78  1  0.66562942  0.83862038  0.17099729  1
  Sb  Sb79  1  0.66564206  0.50048734  0.83144837  1
  Sb  Sb80  1  0.16605219  0.49941593  -0.00621929  1
  Sb  Sb81  1  0.33726172  0.67250103  -0.00282307  1
  Sb  Sb82  1  0.66573176  0.16562737  0.83561453  1
  Sb  Sb83  1  0.82966165  -0.00424621  0.49810676  1
  Sb  Sb84  1  0.00310895  0.50271371  0.83016070  1
  Sb  Sb85  1  0.32981995  0.33285772  0.33333839  1
  Sb  Sb86  1  0.83402750  0.83553968  -0.00140357  1
  Sb  Sb87  1  0.66581848  0.83426309  0.83001788  1
  Sb  Sb88  1  0.00263652  0.66621673  0.33651683  1
  Sb  Sb89  1  -0.00075313  0.00343445  0.32830373  1
  Sb  Sb90  1  0.33163023  0.32972350  0.66804469  1
  Sb  Sb91  1  0.00693469  0.66837406  0.66466075  1
  Sb  Sb92  1  -0.00042212  0.16490498  0.49464957  1
  Sb  Sb93  1  0.49494277  0.50379489  0.66991521  1
  Sb  Sb94  1  0.50170174  0.16243592  0.66919881  1
  Sb  Sb95  1  0.33386323  0.84026901  0.16171792  1
  Sb  Sb96  1  0.50053187  0.16637102  0.32686992  1
  Sb  Sb97  1  0.66431194  0.67173218  0.66540300  1
  Sb  Sb98  1  -0.00171272  0.49134858  0.17012572  1
  Sb  Sb99  1  0.49831537  0.33105249  0.49425761  1
  Sb  Sb100  1  -0.00256558  0.66854981  -0.00230232  1
  Sb  Sb101  1  0.83805689  0.33495132  0.49908418  1
  Sb  Sb102  1  0.82980525  -0.00021999  0.83592886  1
  Sb  Sb103  1  0.83753584  0.50368703  0.66542005  1
  Sb  Sb104  1  0.50370966  0.50086700  0.32994423  1
  Sb  Sb105  1  0.49703302  0.32853920  0.84202792  1
  Sb  Sb106  1  0.66480033  0.66450677  0.33366481  1
  Sb  Sb107  1  0.67066638  0.32779784  0.66074699  1
  Te  Te108  1  0.16793022  0.16471674  0.16581754  1
  Te  Te109  1  0.16799302  0.16690820  0.50037817  1
  Te  Te110  1  0.17079079  0.17205268  0.83480967  1
  Te  Te111  1  0.16689266  0.50095983  0.16602193  1
  Te  Te112  1  0.16563061  0.50304758  0.50461686  1
  Te  Te113  1  0.16855627  0.50031246  0.82919045  1
  Te  Te114  1  0.16688945  0.84028894  0.16980042  1
  Te  Te115  1  0.16596435  0.83059010  0.49777764  1
  Te  Te116  1  0.16671772  0.83353750  0.83301904  1
  Te  Te117  1  0.49862984  0.16260377  0.16504362  1
  Te  Te118  1  0.50038990  0.16552656  0.49935312  1
  Te  Te119  1  0.49514175  0.16328215  0.83898252  1
  Te  Te120  1  0.50095542  0.50845705  0.16054337  1
  Te  Te121  1  0.50292231  0.50098695  0.50013995  1
  Te  Te122  1  0.49600860  0.49943425  0.83882721  1
  Te  Te123  1  0.50050615  0.83316237  0.16242754  1
  Te  Te124  1  0.50293160  0.83318092  0.49962177  1
  Te  Te125  1  0.49717572  0.83782514  0.83815711  1
  Te  Te126  1  0.83226398  0.16447880  0.16710267  1
  Te  Te127  1  0.83105061  0.16672013  0.49733118  1
  Te  Te128  1  0.83375367  0.16833275  0.83738600  1
  Te  Te129  1  0.83261602  0.50272917  0.16563974  1
  Te  Te130  1  0.83447726  0.50184893  0.49958206  1
  Te  Te131  1  0.83417694  0.50283965  0.83492058  1
  Te  Te132  1  0.83274945  0.84111031  0.17182706  1
  Te  Te133  1  0.83410804  0.83340085  0.50069321  1
  Te  Te134  1  0.83381850  0.83058192  0.82993824  1
  Te  Te135  1  0.16900395  0.00002926  0.00102192  1
  Te  Te136  1  0.16588955  0.00159998  0.32759147  1
  Te  Te137  1  0.17199065  -0.00665837  0.66547321  1
  Te  Te138  1  0.16071157  0.33146758  -0.00364075  1
  Te  Te139  1  0.16248553  0.33052361  0.33636412  1
  Te  Te140  1  0.16638175  0.33132356  0.66660307  1
  Te  Te141  1  0.16649354  0.67129341  -0.00250877  1
  Te  Te142  1  0.17030057  0.66916142  0.33486360  1
  Te  Te143  1  0.16978602  0.67041198  0.66708553  1
  Te  Te144  1  0.50017708  0.00018237  0.00037279  1
  Te  Te145  1  0.50015016  -0.00156273  0.33637253  1
  Te  Te146  1  0.49728398  0.00020208  0.66102685  1
  Te  Te147  1  0.50119708  0.33434061  0.00479860  1
  Te  Te148  1  0.50120011  0.33490556  0.32590201  1
  Te  Te149  1  0.50142007  0.33405772  0.66783270  1
  Te  Te150  1  0.50218812  0.66567032  -0.00075492  1
  Te  Te151  1  0.49552625  0.66680098  0.33776996  1
  Te  Te152  1  0.49315069  0.66834326  0.66156258  1
  Te  Te153  1  0.82984937  0.00348013  0.00333634  1
  Te  Te154  1  0.83373552  0.00233523  0.32785599  1
  Te  Te155  1  0.83270726  -0.00076579  0.66815078  1
  Te  Te156  1  0.83556564  0.33332931  -0.00080768  1
  Te  Te157  1  0.83566141  0.33212289  0.33324895  1
  Te  Te158  1  0.83452420  0.33004293  0.67309041  1
  Te  Te159  1  0.82929523  0.66611595  -0.00080808  1
  Te  Te160  1  0.83339708  0.66699508  0.33677872  1
  Te  Te161  1  0.83117082  0.67071923  0.66540661  1
  Te  Te162  1  -0.00056950  0.16497916  0.00151151  1
  Te  Te163  1  0.00056215  0.16892139  0.32949730  1
  Te  Te164  1  -0.00825310  0.16334084  0.66748413  1
  Te  Te165  1  -0.00533111  0.49639176  0.00060132  1
  Te  Te166  1  -0.00601384  0.49401977  0.33751661  1
  Te  Te167  1  0.00640466  0.49864624  0.65895963  1
  Te  Te168  1  0.00317694  0.83685953  -0.00178929  1
  Te  Te169  1  0.00038409  0.83361924  0.33565509  1
  Te  Te170  1  -0.00039471  0.83351046  0.66700290  1
  Te  Te171  1  0.33249021  0.16330009  -0.00015895  1
  Te  Te172  1  0.32817995  0.16728468  0.33693709  1
  Te  Te173  1  0.33349678  0.16102754  0.66508433  1
  Te  Te174  1  0.33518310  0.49965344  -0.00562858  1
  Te  Te175  1  0.33194640  0.50528991  0.33176765  1
  Te  Te176  1  0.32806002  0.50136296  0.67203576  1
  Te  Te177  1  0.33223491  0.83853289  -0.00387880  1
  Te  Te178  1  0.32900760  0.82892148  0.33267807  1
  Te  Te179  1  0.33121474  0.83523777  0.67020746  1
  Te  Te180  1  0.67010234  0.16699115  0.00384114  1
  Te  Te181  1  0.66795798  0.16950054  0.33278725  1
  Te  Te182  1  0.67099350  0.16131045  0.66398451  1
  Te  Te183  1  0.66917369  0.50236284  -0.00057357  1
  Te  Te184  1  0.67204598  0.49556880  0.33848040  1
  Te  Te185  1  0.66601324  0.49959722  0.65833170  1
  Te  Te186  1  0.66431788  0.82853947  0.00054028  1
  Te  Te187  1  0.67131555  0.83294804  0.34000639  1
  Te  Te188  1  0.66978873  0.83755283  0.66177329  1
  Te  Te189  1  0.00053442  0.00545416  0.16144649  1
  Te  Te190  1  0.00072496  -0.00757423  0.50132695  1
  Te  Te191  1  -0.00269352  -0.00672543  0.84051220  1
  Te  Te192  1  0.00136052  0.32557548  0.16612758  1
  Te  Te193  1  0.00518271  0.33266379  0.49715750  1
  Te  Te194  1  0.00105620  0.33403144  0.83690358  1
  Te  Te195  1  0.00014622  0.66528879  0.16714471  1
  Te  Te196  1  -0.00096674  0.66758781  0.49922315  1
  Te  Te197  1  -0.00046483  0.67095140  0.83306566  1
  Te  Te198  1  0.33542142  0.00465530  0.16426765  1
  Te  Te199  1  0.33816542  0.00266796  0.49897822  1
  Te  Te200  1  0.33549569  -0.00113812  0.83456276  1
  Te  Te201  1  0.33964141  0.32683033  0.16656406  1
  Te  Te202  1  0.32780010  0.32817436  0.50010581  1
  Te  Te203  1  0.32857373  0.33682888  0.83314731  1
  Te  Te204  1  0.34006295  0.66603289  0.16818536  1
  Te  Te205  1  0.33228287  0.66708765  0.50267177  1
  Te  Te206  1  0.33091807  0.66914566  0.83077190  1
  Te  Te207  1  0.66261185  0.00562022  0.16675321  1
  Te  Te208  1  0.66373847  0.00261800  0.50265255  1
  Te  Te209  1  0.65755375  0.00058328  0.82455314  1
  Te  Te210  1  0.66143776  0.32836642  0.17178545  1
  Te  Te211  1  0.66653030  0.32727249  0.49422697  1
  Te  Te212  1  0.67351483  0.33356528  0.83136571  1
  Te  Te213  1  0.66099779  0.66697027  0.16352697  1
  Te  Te214  1  0.66749315  0.66744271  0.49971629  1
  Te  Te215  1  0.67027710  0.66585841  0.83632188  1
