# generated using pymatgen
data_AgSbTe2
_symmetry_space_group_name_H-M   'P 1'
_cell_length_a   18.31950389
_cell_length_b   18.32401713
_cell_length_c   18.32107318
_cell_angle_alpha   90.00215143
_cell_angle_beta   90.00138774
_cell_angle_gamma   90.00065370
_symmetry_Int_Tables_number   1
_chemical_formula_structural   AgSbTe2
_chemical_formula_sum   'Ag54 Sb54 Te108'
_cell_volume   6150.14430903
_cell_formula_units_Z   54
loop_
 _symmetry_equiv_pos_site_id
 _symmetry_equiv_pos_as_xyz
  1  'x, y, z'
loop_
 _atom_site_type_symbol
 _atom_site_label
 _atom_site_symmetry_multiplicity
 _atom_site_fract_x
 _atom_site_fract_y
 _atom_site_fract_z
 _atom_site_occupancy
  Ag  Ag0  1  0.49958616  0.16006107  -0.00686792  1
  Ag  Ag1  1  0.33103945  0.34289453  0.34072883  1
  Ag  Ag2  1  0.65944339  0.66177496  0.66974617  1
  Ag  Ag3  1  0.34374134  0.82977087  0.50746039  1
  Ag  Ag4  1  0.84039973  0.49761965  0.33007089  1
  Ag  Ag5  1  -0.00055143  0.67242872  -0.00490461  1
  Ag  Ag6  1  0.65909231  0.82826107  0.50591711  1
  Ag  Ag7  1  0.49835974  0.67081566  0.50787657  1
  Ag  Ag8  1  0.34271327  0.66749821  0.66766781  1
  Ag  Ag9  1  -0.00225799  0.67138426  0.67072273  1
  Ag  Ag10  1  0.49744919  0.50387692  0.33963228  1
  Ag  Ag11  1  -0.00967693  0.83164146  0.83663848  1
  Ag  Ag12  1  0.33640624  0.16396549  0.83104540  1
  Ag  Ag13  1  0.50198991  0.16655194  0.33617272  1
  Ag  Ag14  1  0.66068515  0.34121061  0.67063902  1
  Ag  Ag15  1  0.66935579  0.82813420  0.83112201  1
  Ag  Ag16  1  0.66617099  -0.00145499  0.33312503  1
  Ag  Ag17  1  0.00070977  0.33981310  0.33425145  1
  Ag  Ag18  1  0.50046776  0.82934093  0.34285680  1
  Ag  Ag19  1  0.83225669  0.33361039  0.83341740  1
  Ag  Ag20  1  -0.00244369  0.82783184  0.50328267  1
  Ag  Ag21  1  0.66681880  0.50569397  0.50716474  1
  Ag  Ag22  1  0.33869722  0.83038823  0.82812021  1
  Ag  Ag23  1  -0.00167206  0.16346678  0.16503243  1
  Ag  Ag24  1  0.16783766  0.49866195  0.33273397  1
  Ag  Ag25  1  0.00234191  0.50250263  0.17402072  1
  Ag  Ag26  1  0.16773927  0.33676089  0.50129938  1
  Ag  Ag27  1  0.83031393  0.17011834  0.33475440  1
  Ag  Ag28  1  0.16682071  0.16743350  -0.00132813  1
  Ag  Ag29  1  -0.00200103  -0.00794975  0.67170315  1
  Ag  Ag30  1  0.82677072  0.67183650  0.83297524  1
  Ag  Ag31  1  -0.00492049  0.50501796  0.49439754  1
  Ag  Ag32  1  0.50010259  0.17007858  0.66724001  1
  Ag  Ag33  1  0.32827763  0.50392536  0.17376166  1
  Ag  Ag34  1  0.50350859  0.50633278  0.66163213  1
  Ag  Ag35  1  0.83357711  -0.00766718  0.83750941  1
  Ag  Ag36  1  0.33651768  0.66015743  0.33440640  1
  Ag  Ag37  1  0.16399539  0.33262232  0.82994396  1
  Ag  Ag38  1  0.66845415  0.50727027  0.82658170  1
  Ag  Ag39  1  0.83513866  0.00014797  0.15541235  1
  Ag  Ag40  1  0.16553520  0.66390608  0.16634254  1
  Ag  Ag41  1  0.33874135  -0.00482950  0.66868893  1
  Ag  Ag42  1  0.66816437  0.33071566  -0.01032937  1
  Ag  Ag43  1  0.67176891  -0.00158715  -0.00125842  1
  Ag  Ag44  1  0.83374395  0.83436687  -0.00389345  1
  Ag  Ag45  1  0.50158080  -0.01064492  0.50206115  1
  Ag  Ag46  1  0.33953371  0.33407710  0.66552422  1
  Ag  Ag47  1  -0.01003150  -0.00921593  -0.00450120  1
  Ag  Ag48  1  0.82889350  0.16695240  0.67038901  1
  Ag  Ag49  1  0.33240846  0.66790199  -0.00494103  1
  Ag  Ag50  1  0.50644037  0.83386074  -0.00254830  1
  Ag  Ag51  1  0.50534900  0.67001256  0.82614179  1
  Ag  Ag52  1  0.83281198  0.50655151  -0.00080041  1
  Ag  Ag53  1  -0.00241311  0.83044323  0.15667825  1
  Sb  Sb54  1  0.50427575  -0.00580994  0.82933871  1
  Sb  Sb55  1  0.83199807  0.16323076  -0.00201749  1
  Sb  Sb56  1  0.34255393  -0.00116605  0.33968485  1
  Sb  Sb57  1  0.16906456  0.16896672  0.67188385  1
  Sb  Sb58  1  0.83023463  0.83175182  0.32936387  1
  Sb  Sb59  1  0.33666421  0.33688343  -0.00297184  1
  Sb  Sb60  1  0.17032451  0.66203879  0.49719332  1
  Sb  Sb61  1  0.16978419  0.00225801  0.50136921  1
  Sb  Sb62  1  0.32987795  0.17098799  0.16286558  1
  Sb  Sb63  1  0.49714981  0.33813279  0.50184691  1
  Sb  Sb64  1  0.16301265  0.00129872  0.83415791  1
  Sb  Sb65  1  0.33713639  0.50519342  0.49550779  1
  Sb  Sb66  1  0.66849339  0.66976132  -0.00870287  1
  Sb  Sb67  1  0.33013496  0.82814643  0.16504878  1
  Sb  Sb68  1  0.33839308  0.50272710  0.83298466  1
  Sb  Sb69  1  0.66900814  0.50061409  0.16746406  1
  Sb  Sb70  1  -0.00050769  0.16662155  0.49785808  1
  Sb  Sb71  1  0.16714404  0.66362376  0.83558315  1
  Sb  Sb72  1  0.83037715  0.66637440  0.50646482  1
  Sb  Sb73  1  -0.00392603  0.33493912  0.00226026  1
  Sb  Sb74  1  0.83472521  0.83567132  0.67431114  1
  Sb  Sb75  1  0.16195801  0.49826323  0.00312167  1
  Sb  Sb76  1  0.00020982  0.16209879  0.83676609  1
  Sb  Sb77  1  0.33636933  0.16533948  0.50619973  1
  Sb  Sb78  1  0.00210025  0.66169438  0.33352442  1
  Sb  Sb79  1  -0.00125283  0.33489866  0.66394098  1
  Sb  Sb80  1  0.16268836  0.83431235  -0.00103281  1
  Sb  Sb81  1  0.16713316  0.83172150  0.66676953  1
  Sb  Sb82  1  0.16483725  0.33849291  0.16693947  1
  Sb  Sb83  1  0.67043908  0.83334760  0.16299093  1
  Sb  Sb84  1  0.66418611  0.16622285  0.50144393  1
  Sb  Sb85  1  0.49522041  0.66664487  0.16738328  1
  Sb  Sb86  1  0.49955355  0.33359669  0.16754783  1
  Sb  Sb87  1  0.82878393  -0.00219031  0.50350850  1
  Sb  Sb88  1  0.83469723  0.33595875  0.50340535  1
  Sb  Sb89  1  0.66548095  -0.00218053  0.66786240  1
  Sb  Sb90  1  0.50462107  -0.00083657  0.16858348  1
  Sb  Sb91  1  0.33522800  -0.00506732  -0.00613920  1
  Sb  Sb92  1  0.83526084  0.33023904  0.16308718  1
  Sb  Sb93  1  0.66380595  0.16623069  0.83309161  1
  Sb  Sb94  1  0.82733487  0.49834325  0.66958228  1
  Sb  Sb95  1  0.84096118  0.66783844  0.15865721  1
  Sb  Sb96  1  0.66047142  0.66859528  0.34186294  1
  Sb  Sb97  1  0.15818477  -0.00397958  0.16516468  1
  Sb  Sb98  1  0.17019620  0.82685614  0.33396057  1
  Sb  Sb99  1  0.17140800  0.49937889  0.66130022  1
  Sb  Sb100  1  0.49971436  0.83012039  0.66583936  1
  Sb  Sb101  1  -0.00730793  0.50587697  0.83286094  1
  Sb  Sb102  1  0.66644603  0.33366339  0.33738483  1
  Sb  Sb103  1  -0.00799765  0.00190022  0.33292263  1
  Sb  Sb104  1  0.67116631  0.16511994  0.16652087  1
  Sb  Sb105  1  0.50290618  0.33649933  0.83052144  1
  Sb  Sb106  1  0.50491008  0.50336087  -0.00100657  1
  Sb  Sb107  1  0.16656086  0.17412769  0.32897273  1
  Te  Te108  1  0.16094415  0.16674941  0.16040148  1
  Te  Te109  1  0.16749881  0.17492511  0.49899372  1
  Te  Te110  1  0.17078182  0.17052698  0.83806995  1
  Te  Te111  1  0.16494254  0.50292366  0.16949433  1
  Te  Te112  1  0.16127863  0.49606968  0.49472195  1
  Te  Te113  1  0.16646629  0.49269032  0.83362489  1
  Te  Te114  1  0.15850006  0.82674005  0.16699171  1
  Te  Te115  1  0.15974300  0.83370339  0.49829966  1
  Te  Te116  1  0.17359486  0.83254824  0.83411498  1
  Te  Te117  1  0.49894190  0.16584350  0.16993316  1
  Te  Te118  1  0.49971380  0.16306505  0.49882033  1
  Te  Te119  1  0.49701082  0.16456453  0.83234286  1
  Te  Te120  1  0.49712953  0.50042828  0.17158145  1
  Te  Te121  1  0.50326573  0.50393738  0.50049709  1
  Te  Te122  1  0.50641771  0.50617803  0.83074523  1
  Te  Te123  1  0.49972470  0.83386089  0.16219016  1
  Te  Te124  1  0.50127667  0.83156610  0.50050523  1
  Te  Te125  1  0.50009986  0.83078691  0.83574669  1
  Te  Te126  1  0.83788314  0.16256702  0.17191795  1
  Te  Te127  1  0.83234511  0.16631324  0.49546423  1
  Te  Te128  1  0.83255934  0.16933981  0.83047927  1
  Te  Te129  1  0.83693070  0.49981642  0.16628609  1
  Te  Te130  1  0.83293818  0.50083901  0.49503953  1
  Te  Te131  1  0.82848408  0.49866556  0.83574499  1
  Te  Te132  1  0.83831547  0.83710213  0.16155578  1
  Te  Te133  1  0.83716258  0.83244766  0.49847860  1
  Te  Te134  1  0.83169938  0.83276675  0.83602748  1
  Te  Te135  1  0.16299836  0.00660337  0.00020592  1
  Te  Te136  1  0.16751774  0.00206742  0.33368409  1
  Te  Te137  1  0.16395020  0.00215449  0.66633489  1
  Te  Te138  1  0.16749081  0.32958311  -0.00564600  1
  Te  Te139  1  0.16823780  0.33842678  0.33407640  1
  Te  Te140  1  0.17046047  0.33340036  0.66739123  1
  Te  Te141  1  0.16599045  0.66635062  0.00300350  1
  Te  Te142  1  0.17367073  0.66017035  0.33028694  1
  Te  Te143  1  0.16312595  0.66424534  0.66666282  1
  Te  Te144  1  0.50332134  -0.00120677  0.00004999  1
  Te  Te145  1  0.50541954  0.00015197  0.33550147  1
  Te  Te146  1  0.49817783  0.00711060  0.66371359  1
  Te  Te147  1  0.50582060  0.33062421  -0.00090682  1
  Te  Te148  1  0.49717038  0.33129368  0.33466393  1
  Te  Te149  1  0.49966059  0.33013783  0.66696478  1
  Te  Te150  1  0.49772328  0.67026385  -0.00202562  1
  Te  Te151  1  0.49570781  0.66722614  0.33397784  1
  Te  Te152  1  0.49945615  0.66600298  0.66713717  1
  Te  Te153  1  0.83347083  0.00064843  -0.00212238  1
  Te  Te154  1  0.82663041  0.00119594  0.33411308  1
  Te  Te155  1  0.83483087  0.00600267  0.67061395  1
  Te  Te156  1  0.82921300  0.33295613  -0.00465353  1
  Te  Te157  1  0.83452597  0.33362602  0.33301865  1
  Te  Te158  1  0.83109796  0.32868750  0.67077089  1
  Te  Te159  1  0.83647978  0.66814021  -0.00600113  1
  Te  Te160  1  0.83063206  0.66041523  0.33245225  1
  Te  Te161  1  0.83885220  0.66552474  0.67351125  1
  Te  Te162  1  0.00084879  0.16701846  0.00418863  1
  Te  Te163  1  -0.00206598  0.17047432  0.32938135  1
  Te  Te164  1  -0.00338500  0.16538287  0.66678441  1
  Te  Te165  1  -0.00538232  0.50332462  0.00129371  1
  Te  Te166  1  -0.00152690  0.50017749  0.33409312  1
  Te  Te167  1  -0.00052107  0.50326680  0.66277255  1
  Te  Te168  1  -0.00073258  0.83299371  -0.00237748  1
  Te  Te169  1  0.00025593  0.83284874  0.33662030  1
  Te  Te170  1  0.00051739  0.83308843  0.66837477  1
  Te  Te171  1  0.33860679  0.16697753  -0.00413285  1
  Te  Te172  1  0.33765908  0.16848565  0.33230332  1
  Te  Te173  1  0.33572941  0.16972205  0.67085645  1
  Te  Te174  1  0.33409522  0.50564033  0.00477896  1
  Te  Te175  1  0.33602298  0.49997498  0.33473645  1
  Te  Te176  1  0.33928776  0.50073086  0.66551439  1
  Te  Te177  1  0.33499305  0.82833252  -0.00275100  1
  Te  Te178  1  0.33846972  0.83069637  0.33433994  1
  Te  Te179  1  0.33273635  0.83188649  0.66657688  1
  Te  Te180  1  0.66134888  0.16418921  0.00005075  1
  Te  Te181  1  0.66541864  0.16518766  0.33401387  1
  Te  Te182  1  0.66539662  0.16916898  0.66654379  1
  Te  Te183  1  0.67165766  0.49780414  -0.00077723  1
  Te  Te184  1  0.66210287  0.49913756  0.33579206  1
  Te  Te185  1  0.66560260  0.50068485  0.66704149  1
  Te  Te186  1  0.66732033  0.83550645  -0.00344407  1
  Te  Te187  1  0.66231292  0.83561117  0.33500574  1
  Te  Te188  1  0.66845352  0.82942978  0.66674411  1
  Te  Te189  1  -0.00485980  -0.00170486  0.16509612  1
  Te  Te190  1  0.00094023  -0.00307359  0.50480657  1
  Te  Te191  1  -0.00321712  -0.00432123  0.83314810  1
  Te  Te192  1  -0.00000149  0.33775207  0.17150829  1
  Te  Te193  1  0.00318068  0.33617960  0.49591191  1
  Te  Te194  1  -0.00194935  0.33333296  0.83288078  1
  Te  Te195  1  0.00302099  0.66579639  0.16567758  1
  Te  Te196  1  0.00033463  0.66604671  0.50295802  1
  Te  Te197  1  0.00087270  0.67089784  0.83408865  1
  Te  Te198  1  0.33011066  0.00008598  0.16578209  1
  Te  Te199  1  0.33700329  -0.00690982  0.50685577  1
  Te  Te200  1  0.33264373  -0.00164542  0.82798808  1
  Te  Te201  1  0.33208180  0.34001928  0.17002908  1
  Te  Te202  1  0.33059213  0.33310819  0.50135504  1
  Te  Te203  1  0.33275806  0.33318103  0.83028155  1
  Te  Te204  1  0.32917985  0.66394392  0.16680981  1
  Te  Te205  1  0.33554550  0.67064173  0.50348154  1
  Te  Te206  1  0.33382400  0.66806290  0.83180551  1
  Te  Te207  1  0.67342564  -0.00054138  0.16515956  1
  Te  Te208  1  0.66181568  -0.00508393  0.49890854  1
  Te  Te209  1  0.67159084  -0.00514798  0.83552132  1
  Te  Te210  1  0.66713176  0.33297821  0.15782033  1
  Te  Te211  1  0.66631829  0.34025556  0.50647551  1
  Te  Te212  1  0.66857638  0.33285000  0.83097246  1
  Te  Te213  1  0.66824036  0.66679024  0.16714929  1
  Te  Te214  1  0.66376714  0.66760226  0.50744571  1
  Te  Te215  1  0.66659248  0.66731907  0.83036094  1
