# generated using pymatgen
data_AgSbTe2
_symmetry_space_group_name_H-M   'P 1'
_cell_length_a   18.34200521
_cell_length_b   18.33308011
_cell_length_c   18.34399805
_cell_angle_alpha   89.99815713
_cell_angle_beta   89.99902015
_cell_angle_gamma   90.00351016
_symmetry_Int_Tables_number   1
_chemical_formula_structural   AgSbTe2
_chemical_formula_sum   'Ag54 Sb54 Te108'
_cell_volume   6168.45275934
_cell_formula_units_Z   54
loop_
 _symmetry_equiv_pos_site_id
 _symmetry_equiv_pos_as_xyz
  1  'x, y, z'
loop_
 _atom_site_type_symbol
 _atom_site_label
 _atom_site_symmetry_multiplicity
 _atom_site_fract_x
 _atom_site_fract_y
 _atom_site_fract_z
 _atom_site_occupancy
  Ag  Ag0  1  0.49261183  0.15867072  0.65684317  1
  Ag  Ag1  1  0.66866536  0.50889540  0.83836940  1
  Ag  Ag2  1  0.33028353  0.50453579  0.82916005  1
  Ag  Ag3  1  0.83724423  0.66581996  0.82712793  1
  Ag  Ag4  1  -0.00221067  0.66591156  0.67400400  1
  Ag  Ag5  1  0.66782483  0.50853103  0.49799987  1
  Ag  Ag6  1  -0.00578464  0.82022857  0.83576024  1
  Ag  Ag7  1  0.16352731  0.66487959  0.50799672  1
  Ag  Ag8  1  0.33407796  0.50741505  0.50574136  1
  Ag  Ag9  1  0.66775913  0.66643252  0.33911871  1
  Ag  Ag10  1  0.82565684  0.51161758  0.33616372  1
  Ag  Ag11  1  0.66938654  0.82552279  0.49403568  1
  Ag  Ag12  1  0.50734057  0.82424726  0.00340106  1
  Ag  Ag13  1  0.66772524  0.82826997  0.16899163  1
  Ag  Ag14  1  0.33309064  0.16987236  0.82690847  1
  Ag  Ag15  1  -0.01395764  0.83324640  0.15345775  1
  Ag  Ag16  1  0.15279841  0.66449248  0.82512490  1
  Ag  Ag17  1  0.01095714  0.15990174  0.50063821  1
  Ag  Ag18  1  0.82573207  0.51002073  -0.00623556  1
  Ag  Ag19  1  0.50528857  0.67245807  0.15840962  1
  Ag  Ag20  1  0.50473070  -0.00881748  0.16913850  1
  Ag  Ag21  1  0.83337586  0.50858710  0.66990970  1
  Ag  Ag22  1  0.82998637  0.82815705  0.00611610  1
  Ag  Ag23  1  -0.01282886  0.83074192  0.50178108  1
  Ag  Ag24  1  0.83278337  -0.01594584  0.49622846  1
  Ag  Ag25  1  0.16998890  0.50193025  -0.01249970  1
  Ag  Ag26  1  0.16681989  0.50781944  0.67001954  1
  Ag  Ag27  1  0.00028746  0.50946432  0.83260319  1
  Ag  Ag28  1  0.33544755  0.16442217  0.18053488  1
  Ag  Ag29  1  0.82867930  -0.00821669  0.17282074  1
  Ag  Ag30  1  0.33753270  0.33616957  -0.00195762  1
  Ag  Ag31  1  0.33025158  0.66428984  0.66647103  1
  Ag  Ag32  1  0.50913293  0.66813014  0.83500706  1
  Ag  Ag33  1  0.66930720  0.66617601  0.66856824  1
  Ag  Ag34  1  -0.00284281  0.67036679  -0.01366068  1
  Ag  Ag35  1  0.17386827  0.17057371  0.66185105  1
  Ag  Ag36  1  0.16694367  -0.01074979  0.83287068  1
  Ag  Ag37  1  -0.00125100  -0.01273962  -0.00092439  1
  Ag  Ag38  1  0.33093190  0.16606797  0.50044210  1
  Ag  Ag39  1  0.50203187  0.83065971  0.66275951  1
  Ag  Ag40  1  0.66911029  0.82447133  0.83571556  1
  Ag  Ag41  1  0.50814835  0.50693049  -0.00305338  1
  Ag  Ag42  1  0.33547791  0.00364121  0.33538059  1
  Ag  Ag43  1  0.66278847  0.34241794  0.00345079  1
  Ag  Ag44  1  0.17804322  0.16601682  0.34455875  1
  Ag  Ag45  1  0.16892676  0.33120021  0.50065777  1
  Ag  Ag46  1  0.66571854  0.34514291  0.33337654  1
  Ag  Ag47  1  0.66684714  0.51108568  0.16018133  1
  Ag  Ag48  1  0.82662734  0.82953470  0.33310494  1
  Ag  Ag49  1  0.33807454  0.83077787  0.50047922  1
  Ag  Ag50  1  0.66387768  0.16756162  0.49901612  1
  Ag  Ag51  1  0.49700114  0.15876864  0.33778432  1
  Ag  Ag52  1  0.50850425  0.83402312  0.33297596  1
  Ag  Ag53  1  0.83001385  0.66759817  0.50615422  1
  Sb  Sb54  1  0.50153625  0.33428589  0.16691885  1
  Sb  Sb55  1  0.50602700  0.66986247  0.50384890  1
  Sb  Sb56  1  0.83758422  -0.01211226  0.83217987  1
  Sb  Sb57  1  0.16353067  0.49727740  0.34064335  1
  Sb  Sb58  1  0.00660944  0.16301185  0.82707268  1
  Sb  Sb59  1  0.65998336  0.16812296  0.82749221  1
  Sb  Sb60  1  0.83070129  0.34605542  0.83453744  1
  Sb  Sb61  1  0.33482293  0.82757857  0.82888149  1
  Sb  Sb62  1  0.82898361  0.16164833  0.33646838  1
  Sb  Sb63  1  0.33234216  -0.00132176  0.66258967  1
  Sb  Sb64  1  0.82452227  0.67313197  0.16536223  1
  Sb  Sb65  1  -0.00462293  0.33293786  0.33690531  1
  Sb  Sb66  1  0.16890456  0.17164381  -0.00346108  1
  Sb  Sb67  1  0.33365102  0.33620001  0.66723459  1
  Sb  Sb68  1  -0.00754644  0.66865917  0.33489981  1
  Sb  Sb69  1  0.83036258  0.33179110  0.16711585  1
  Sb  Sb70  1  0.66665607  -0.00939600  0.66351916  1
  Sb  Sb71  1  0.49560962  -0.00701654  0.83820072  1
  Sb  Sb72  1  0.17125057  0.66617459  0.16509041  1
  Sb  Sb73  1  0.66983570  -0.00315466  0.00136745  1
  Sb  Sb74  1  0.34024546  0.67066973  0.34217606  1
  Sb  Sb75  1  0.16918724  0.34186560  0.82853314  1
  Sb  Sb76  1  -0.00006451  0.34111220  -0.00126963  1
  Sb  Sb77  1  0.66456338  0.34207564  0.66421261  1
  Sb  Sb78  1  0.49878169  0.50728692  0.67057428  1
  Sb  Sb79  1  0.00410048  0.15762910  0.17123696  1
  Sb  Sb80  1  0.16931508  0.33320141  0.17057093  1
  Sb  Sb81  1  0.83408938  0.34007639  0.49867410  1
  Sb  Sb82  1  0.67185990  0.66417434  -0.00560501  1
  Sb  Sb83  1  -0.00136017  0.50690674  0.50592556  1
  Sb  Sb84  1  0.00228722  -0.00319478  0.33304219  1
  Sb  Sb85  1  0.33429431  0.66197729  -0.00872002  1
  Sb  Sb86  1  0.34152177  0.83645799  0.17163024  1
  Sb  Sb87  1  0.00298787  0.34053709  0.66498517  1
  Sb  Sb88  1  0.16764117  -0.00127238  0.16361246  1
  Sb  Sb89  1  0.16459282  -0.00068026  0.50431301  1
  Sb  Sb90  1  0.16943093  0.82711748  0.66557867  1
  Sb  Sb91  1  0.50248497  -0.00147630  0.49407850  1
  Sb  Sb92  1  0.83331824  0.17200875  0.66271242  1
  Sb  Sb93  1  0.33054378  0.00166227  0.00268934  1
  Sb  Sb94  1  0.33965324  0.49807929  0.16393458  1
  Sb  Sb95  1  0.66120728  0.16446339  0.17292962  1
  Sb  Sb96  1  0.66224075  -0.00690028  0.33459745  1
  Sb  Sb97  1  0.16760873  0.83606924  0.33691337  1
  Sb  Sb98  1  0.49812431  0.16728970  0.00172988  1
  Sb  Sb99  1  -0.01002918  0.51073780  0.15821506  1
  Sb  Sb100  1  0.50676832  0.50474793  0.33182585  1
  Sb  Sb101  1  0.82800102  0.82546618  0.66386017  1
  Sb  Sb102  1  0.49769069  0.33070461  0.49994505  1
  Sb  Sb103  1  0.83279795  0.16306927  -0.00062523  1
  Sb  Sb104  1  0.49791100  0.34191720  0.83397427  1
  Sb  Sb105  1  0.33892849  0.32943792  0.33345291  1
  Sb  Sb106  1  0.00111562  -0.00959319  0.66853198  1
  Sb  Sb107  1  0.16412573  0.82754976  -0.00296857  1
  Te  Te108  1  0.17267683  0.16586717  0.16953379  1
  Te  Te109  1  0.16862583  0.16162524  0.50127101  1
  Te  Te110  1  0.17076753  0.17154633  0.82838137  1
  Te  Te111  1  0.16446765  0.50016600  0.16737973  1
  Te  Te112  1  0.16663970  0.50324253  0.50333177  1
  Te  Te113  1  0.16954832  0.50283406  0.83026727  1
  Te  Te114  1  0.16237728  0.83276949  0.16733086  1
  Te  Te115  1  0.17289519  0.82950218  0.49987703  1
  Te  Te116  1  0.16487818  0.82875201  0.83236586  1
  Te  Te117  1  0.49565885  0.16332674  0.16985848  1
  Te  Te118  1  0.49923053  0.16431881  0.49797760  1
  Te  Te119  1  0.49462139  0.16407260  0.83248072  1
  Te  Te120  1  0.50574547  0.50369574  0.16285066  1
  Te  Te121  1  0.49863207  0.49877043  0.50094661  1
  Te  Te122  1  0.49870123  0.50578654  0.83574318  1
  Te  Te123  1  0.50214007  0.83278705  0.16728267  1
  Te  Te124  1  0.50199133  0.83505752  0.49916667  1
  Te  Te125  1  0.50214885  0.82969255  0.83476469  1
  Te  Te126  1  0.83405872  0.15584248  0.16750866  1
  Te  Te127  1  0.82802172  0.17031067  0.49985069  1
  Te  Te128  1  0.83303217  0.16578923  0.83151908  1
  Te  Te129  1  0.82662530  0.49926538  0.16812062  1
  Te  Te130  1  0.83142806  0.50437408  0.49889459  1
  Te  Te131  1  0.82967718  0.50576469  0.83406520  1
  Te  Te132  1  0.83016717  0.83527589  0.16596266  1
  Te  Te133  1  0.82936075  0.82824162  0.50110103  1
  Te  Te134  1  0.83237775  0.82850052  0.83548073  1
  Te  Te135  1  0.16215012  0.00211963  -0.00518282  1
  Te  Te136  1  0.17255235  0.00538061  0.33228130  1
  Te  Te137  1  0.16596042  0.00667883  0.67387023  1
  Te  Te138  1  0.16871018  0.34038578  0.00171951  1
  Te  Te139  1  0.16621311  0.32828388  0.33894585  1
  Te  Te140  1  0.16753541  0.33257717  0.65953295  1
  Te  Te141  1  0.16419108  0.66100348  -0.00230128  1
  Te  Te142  1  0.16811217  0.66588754  0.33837264  1
  Te  Te143  1  0.16835386  0.66631860  0.66609713  1
  Te  Te144  1  0.49951016  -0.00385803  0.00713287  1
  Te  Te145  1  0.49624146  -0.00159877  0.32877011  1
  Te  Te146  1  0.49955518  -0.00148972  0.66913784  1
  Te  Te147  1  0.50062941  0.33755290  0.00043430  1
  Te  Te148  1  0.50663635  0.32881319  0.33303349  1
  Te  Te149  1  0.50048943  0.31860004  0.66784009  1
  Te  Te150  1  0.49739098  0.66649102  -0.00207972  1
  Te  Te151  1  0.50545824  0.67149206  0.33066610  1
  Te  Te152  1  0.50114367  0.66988317  0.67045805  1
  Te  Te153  1  0.83798998  -0.00481029  0.00017388  1
  Te  Te154  1  0.83514673  -0.00542027  0.33433573  1
  Te  Te155  1  0.83459998  0.00289126  0.65973820  1
  Te  Te156  1  0.82971566  0.33716337  0.00130781  1
  Te  Te157  1  0.82558641  0.33586911  0.33261405  1
  Te  Te158  1  0.83366854  0.34636652  0.66683108  1
  Te  Te159  1  0.83693541  0.66819696  0.00066261  1
  Te  Te160  1  0.82868782  0.66933411  0.33563762  1
  Te  Te161  1  0.83249372  0.66483716  0.66652994  1
  Te  Te162  1  0.00011135  0.16675523  0.00008095  1
  Te  Te163  1  0.00097931  0.16529022  0.33938563  1
  Te  Te164  1  0.00203327  0.16713259  0.66082110  1
  Te  Te165  1  -0.00076957  0.50486120  -0.00547282  1
  Te  Te166  1  -0.00811218  0.49951267  0.33003664  1
  Te  Te167  1  0.00224916  0.50586338  0.67047206  1
  Te  Te168  1  0.00200844  0.83043871  -0.00357595  1
  Te  Te169  1  -0.00256993  0.83384928  0.34209429  1
  Te  Te170  1  0.00174473  0.82605791  0.66609448  1
  Te  Te171  1  0.33318491  0.17101832  -0.00818615  1
  Te  Te172  1  0.33574347  0.16812177  0.33764192  1
  Te  Te173  1  0.33300138  0.16666870  0.66472033  1
  Te  Te174  1  0.33216996  0.49677328  0.00023958  1
  Te  Te175  1  0.33356587  0.49877938  0.33855938  1
  Te  Te176  1  0.33198770  0.50172408  0.66555924  1
  Te  Te177  1  0.33827817  0.83396126  0.00155670  1
  Te  Te178  1  0.33575148  0.83821675  0.33915961  1
  Te  Te179  1  0.33907799  0.83031147  0.66158237  1
  Te  Te180  1  0.66660589  0.17440126  -0.00125926  1
  Te  Te181  1  0.66227041  0.16714821  0.33701654  1
  Te  Te182  1  0.66471695  0.16877327  0.66228494  1
  Te  Te183  1  0.66696410  0.50069075  -0.00031391  1
  Te  Te184  1  0.66757146  0.50352602  0.33750776  1
  Te  Te185  1  0.66595200  0.50401263  0.66483230  1
  Te  Te186  1  0.66681600  0.83505312  0.00045341  1
  Te  Te187  1  0.66718157  0.83240687  0.33426036  1
  Te  Te188  1  0.66214526  0.82808247  0.66683468  1
  Te  Te189  1  -0.00245280  -0.00645350  0.16220234  1
  Te  Te190  1  -0.00458682  -0.00318902  0.50120552  1
  Te  Te191  1  0.00503390  -0.00296346  0.83718546  1
  Te  Te192  1  -0.00000362  0.33130985  0.16775954  1
  Te  Te193  1  0.00641575  0.32676161  0.50006578  1
  Te  Te194  1  -0.00078694  0.33722037  0.83330688  1
  Te  Te195  1  0.00292971  0.67473104  0.16618878  1
  Te  Te196  1  -0.00038221  0.66992273  0.50070321  1
  Te  Te197  1  -0.00214398  0.66500823  0.83117685  1
  Te  Te198  1  0.33559744  0.00412076  0.17028672  1
  Te  Te199  1  0.33293119  -0.00036632  0.49625339  1
  Te  Te200  1  0.32778566  0.00115674  0.83422523  1
  Te  Te201  1  0.33439039  0.32725866  0.16061897  1
  Te  Te202  1  0.32894520  0.33145738  0.50006570  1
  Te  Te203  1  0.33319883  0.33530301  0.83794211  1
  Te  Te204  1  0.34033585  0.66619929  0.16945882  1
  Te  Te205  1  0.33350696  0.66685742  0.50460250  1
  Te  Te206  1  0.33494504  0.66389784  0.82753313  1
  Te  Te207  1  0.66719698  -0.00359825  0.16646418  1
  Te  Te208  1  0.67281667  0.00367504  0.50047177  1
  Te  Te209  1  0.66750529  -0.00403249  0.83242787  1
  Te  Te210  1  0.66655491  0.33423179  0.16702527  1
  Te  Te211  1  0.66584191  0.33258853  0.49688715  1
  Te  Te212  1  0.66480671  0.33776938  0.83757013  1
  Te  Te213  1  0.66330626  0.66813558  0.17005372  1
  Te  Te214  1  0.66670908  0.66639460  0.50102086  1
  Te  Te215  1  0.66772813  0.66726443  0.83202544  1
