# generated using pymatgen
data_AgSbTe2
_symmetry_space_group_name_H-M   'P 1'
_cell_length_a   18.32857694
_cell_length_b   18.33013977
_cell_length_c   18.31818176
_cell_angle_alpha   90.00030485
_cell_angle_beta   90.00091391
_cell_angle_gamma   90.00232722
_symmetry_Int_Tables_number   1
_chemical_formula_structural   AgSbTe2
_chemical_formula_sum   'Ag54 Sb54 Te108'
_cell_volume   6154.27483820
_cell_formula_units_Z   54
loop_
 _symmetry_equiv_pos_site_id
 _symmetry_equiv_pos_as_xyz
  1  'x, y, z'
loop_
 _atom_site_type_symbol
 _atom_site_label
 _atom_site_symmetry_multiplicity
 _atom_site_fract_x
 _atom_site_fract_y
 _atom_site_fract_z
 _atom_site_occupancy
  Ag  Ag0  1  0.32587872  0.83500990  0.16063928  1
  Ag  Ag1  1  0.32892616  0.33660909  -0.00138888  1
  Ag  Ag2  1  0.33378680  0.66023752  0.67529007  1
  Ag  Ag3  1  0.66377529  0.66206300  0.67042370  1
  Ag  Ag4  1  0.00522634  0.49887142  0.16939274  1
  Ag  Ag5  1  0.33418109  0.82661351  0.83704434  1
  Ag  Ag6  1  0.83435871  0.33238695  0.49995056  1
  Ag  Ag7  1  -0.00243752  0.33220827  0.66569595  1
  Ag  Ag8  1  0.82865982  0.16332536  0.66529656  1
  Ag  Ag9  1  0.33126729  -0.00131961  0.67273418  1
  Ag  Ag10  1  0.17707514  0.67157576  0.83686897  1
  Ag  Ag11  1  0.32839712  0.67302155  -0.01019678  1
  Ag  Ag12  1  0.66351879  0.33458684  0.66359862  1
  Ag  Ag13  1  0.33306552  0.51214862  0.83024051  1
  Ag  Ag14  1  0.49968263  0.33081161  0.17092595  1
  Ag  Ag15  1  0.16837428  0.67608472  0.16317987  1
  Ag  Ag16  1  0.17522375  0.50400435  0.66516541  1
  Ag  Ag17  1  0.83776413  0.66936305  0.50381429  1
  Ag  Ag18  1  0.33050125  0.50505280  0.16476320  1
  Ag  Ag19  1  0.66503462  0.16337853  0.82745944  1
  Ag  Ag20  1  0.65805862  0.49504793  0.17119199  1
  Ag  Ag21  1  0.33499493  -0.00433836  0.32341336  1
  Ag  Ag22  1  0.83155274  0.66896205  0.82541180  1
  Ag  Ag23  1  -0.00585412  0.33647855  0.32605899  1
  Ag  Ag24  1  0.83517275  0.49974284  0.33192977  1
  Ag  Ag25  1  0.01467904  0.83400905  0.16743364  1
  Ag  Ag26  1  0.49132150  0.83921030  0.32877883  1
  Ag  Ag27  1  0.48888771  0.67235981  0.82954308  1
  Ag  Ag28  1  0.33787602  0.33955167  0.67070663  1
  Ag  Ag29  1  0.01025173  0.66444909  0.00229234  1
  Ag  Ag30  1  0.17437240  -0.01086130  0.16512630  1
  Ag  Ag31  1  0.50067814  0.17114576  0.66594661  1
  Ag  Ag32  1  0.65799821  0.83330645  0.83048600  1
  Ag  Ag33  1  0.66831748  0.33626462  0.33285159  1
  Ag  Ag34  1  0.16916320  0.50596726  0.33059503  1
  Ag  Ag35  1  0.17000104  0.83027981  0.00908345  1
  Ag  Ag36  1  0.49440142  -0.00574795  0.83391539  1
  Ag  Ag37  1  0.83400854  0.83467786  0.66280650  1
  Ag  Ag38  1  0.83351067  0.83203459  0.33604075  1
  Ag  Ag39  1  0.49909956  0.16709319  0.33010841  1
  Ag  Ag40  1  0.66523846  0.17044292  0.16714527  1
  Ag  Ag41  1  0.49167934  0.00338367  0.16870339  1
  Ag  Ag42  1  0.33507831  0.16476270  0.50338590  1
  Ag  Ag43  1  0.16560410  0.66636025  0.50049356  1
  Ag  Ag44  1  0.33179045  -0.00915425  -0.00015444  1
  Ag  Ag45  1  0.16868577  0.82818328  0.32400617  1
  Ag  Ag46  1  0.83947857  -0.00115951  0.17177297  1
  Ag  Ag47  1  0.00622587  0.33764534  0.01028448  1
  Ag  Ag48  1  0.49808017  0.49751829  0.32932791  1
  Ag  Ag49  1  0.00108454  0.00281495  0.66901625  1
  Ag  Ag50  1  0.49354726  0.49516047  0.66627059  1
  Ag  Ag51  1  0.17866436  -0.00888546  0.83525015  1
  Ag  Ag52  1  0.83640513  -0.00150324  0.49919814  1
  Ag  Ag53  1  -0.00348670  0.16568149  0.16768077  1
  Sb  Sb54  1  0.17060352  0.16585998  0.33104838  1
  Sb  Sb55  1  -0.00130440  0.83312153  0.49455043  1
  Sb  Sb56  1  0.83161347  -0.00475418  0.83191005  1
  Sb  Sb57  1  0.16406504  0.33870893  0.50079455  1
  Sb  Sb58  1  0.00472596  0.83213257  0.83651010  1
  Sb  Sb59  1  0.00131292  0.66539427  0.67170733  1
  Sb  Sb60  1  0.66769302  0.49882382  0.49550535  1
  Sb  Sb61  1  -0.00380044  0.16632917  0.83430216  1
  Sb  Sb62  1  0.66515130  0.33330753  0.00250760  1
  Sb  Sb63  1  0.66474997  0.16798251  0.50059625  1
  Sb  Sb64  1  0.33895444  0.16105004  0.82883491  1
  Sb  Sb65  1  0.16964248  0.33678826  0.83336091  1
  Sb  Sb66  1  0.66798265  0.66270940  0.33658350  1
  Sb  Sb67  1  0.84007252  0.83231093  0.00106391  1
  Sb  Sb68  1  0.16944084  0.16890711  0.66767975  1
  Sb  Sb69  1  0.49469216  0.49973844  0.00132974  1
  Sb  Sb70  1  0.66022697  -0.00077468  0.00066165  1
  Sb  Sb71  1  0.16516769  0.82905895  0.66732273  1
  Sb  Sb72  1  0.50235377  0.33255978  0.49734318  1
  Sb  Sb73  1  0.00732985  -0.00178171  0.00069053  1
  Sb  Sb74  1  0.66876878  0.83242795  0.50457307  1
  Sb  Sb75  1  0.83291793  0.33768900  0.82667253  1
  Sb  Sb76  1  0.00167500  0.16701869  0.49765661  1
  Sb  Sb77  1  0.83234564  0.50113893  0.66103349  1
  Sb  Sb78  1  0.50013677  0.00133093  0.49992779  1
  Sb  Sb79  1  0.66095666  0.50182164  0.83305469  1
  Sb  Sb80  1  0.83458678  0.16617483  -0.00120809  1
  Sb  Sb81  1  0.16548505  -0.00545883  0.49967703  1
  Sb  Sb82  1  0.66595592  0.00255494  0.66804272  1
  Sb  Sb83  1  0.16886368  0.33560906  0.16661084  1
  Sb  Sb84  1  0.33521496  0.16293285  0.16903373  1
  Sb  Sb85  1  -0.00016241  0.49953117  0.49447261  1
  Sb  Sb86  1  0.33123675  0.66980240  0.33367605  1
  Sb  Sb87  1  0.82854425  0.16710717  0.33645579  1
  Sb  Sb88  1  0.00269345  0.66261401  0.32716857  1
  Sb  Sb89  1  0.16795863  0.16090313  0.00145165  1
  Sb  Sb90  1  0.49045022  0.83370694  0.00108457  1
  Sb  Sb91  1  0.49820386  0.66634269  0.50514737  1
  Sb  Sb92  1  0.83930257  0.66960808  0.16883754  1
  Sb  Sb93  1  0.66291444  0.66717408  -0.00506598  1
  Sb  Sb94  1  0.49253161  0.66652132  0.16364193  1
  Sb  Sb95  1  0.49788461  0.33262353  0.83259569  1
  Sb  Sb96  1  0.00273462  0.00189229  0.33097887  1
  Sb  Sb97  1  0.33268100  0.83549817  0.49982545  1
  Sb  Sb98  1  0.50089848  0.83410584  0.66826078  1
  Sb  Sb99  1  0.66236271  0.00278442  0.33114403  1
  Sb  Sb100  1  0.33546402  0.33253298  0.33364897  1
  Sb  Sb101  1  0.00633616  0.50182617  0.83704491  1
  Sb  Sb102  1  0.83602872  0.50111954  0.00597303  1
  Sb  Sb103  1  0.33229693  0.49825804  0.50188215  1
  Sb  Sb104  1  0.49814277  0.16612648  0.00132190  1
  Sb  Sb105  1  0.83252805  0.33146846  0.17181300  1
  Sb  Sb106  1  0.66372118  0.83310277  0.16389101  1
  Sb  Sb107  1  0.17020585  0.50926103  0.00408155  1
  Te  Te108  1  0.16016830  0.16073290  0.16772033  1
  Te  Te109  1  0.17368644  0.16502658  0.49900825  1
  Te  Te110  1  0.16474024  0.15793781  0.83320360  1
  Te  Te111  1  0.16849553  0.50031794  0.17019826  1
  Te  Te112  1  0.16600280  0.50637541  0.49841824  1
  Te  Te113  1  0.17283420  0.50420017  0.82822283  1
  Te  Te114  1  0.17008989  0.83286521  0.16804371  1
  Te  Te115  1  0.16539239  0.82626431  0.49185918  1
  Te  Te116  1  0.17071411  0.83228245  0.83211578  1
  Te  Te117  1  0.50134550  0.16575897  0.16821124  1
  Te  Te118  1  0.49661771  0.16621390  0.50124296  1
  Te  Te119  1  0.50566813  0.16457029  0.82978416  1
  Te  Te120  1  0.49617720  0.49994817  0.16831046  1
  Te  Te121  1  0.49998559  0.50031555  0.49876965  1
  Te  Te122  1  0.49477878  0.50219375  0.82880805  1
  Te  Te123  1  0.49756958  0.83659466  0.17114019  1
  Te  Te124  1  0.50146868  0.83354185  0.48709866  1
  Te  Te125  1  0.49726920  0.83413511  0.83306168  1
  Te  Te126  1  0.83186748  0.16176324  0.16701934  1
  Te  Te127  1  0.83404248  0.16661455  0.50535118  1
  Te  Te128  1  0.82719035  0.16605540  0.82674026  1
  Te  Te129  1  0.83906193  0.50034432  0.17277523  1
  Te  Te130  1  0.83382480  0.50068040  0.49231025  1
  Te  Te131  1  0.83181734  0.50734014  0.83416768  1
  Te  Te132  1  0.83036998  0.83769941  0.17008102  1
  Te  Te133  1  0.83384142  0.83242592  0.49971227  1
  Te  Te134  1  0.83437867  0.82990672  0.83137231  1
  Te  Te135  1  0.17148694  -0.00576605  -0.00026036  1
  Te  Te136  1  0.17094101  -0.00261555  0.33091696  1
  Te  Te137  1  0.16645007  -0.00020360  0.66837851  1
  Te  Te138  1  0.16644376  0.33237746  -0.00072371  1
  Te  Te139  1  0.16190109  0.33814724  0.33477229  1
  Te  Te140  1  0.16769157  0.33808347  0.66617848  1
  Te  Te141  1  0.16923672  0.66944923  -0.00039192  1
  Te  Te142  1  0.16624667  0.66631084  0.33191960  1
  Te  Te143  1  0.16769593  0.66453078  0.66901684  1
  Te  Te144  1  0.49220903  0.00004012  0.00066208  1
  Te  Te145  1  0.49616317  0.00118803  0.33259474  1
  Te  Te146  1  0.49731064  0.00278829  0.66780146  1
  Te  Te147  1  0.49688105  0.33337093  0.00824840  1
  Te  Te148  1  0.50229961  0.33503167  0.33129950  1
  Te  Te149  1  0.50003251  0.33318704  0.66571646  1
  Te  Te150  1  0.49341894  0.66680990  -0.00856537  1
  Te  Te151  1  0.50051476  0.66174017  0.33466659  1
  Te  Te152  1  0.50050806  0.66677206  0.66914398  1
  Te  Te153  1  0.83418423  -0.00073276  0.00661158  1
  Te  Te154  1  0.83389773  -0.00120238  0.33326543  1
  Te  Te155  1  0.83345083  -0.00107930  0.66757111  1
  Te  Te156  1  0.84108136  0.33359590  -0.00275343  1
  Te  Te157  1  0.83204105  0.33422154  0.33686180  1
  Te  Te158  1  0.83176962  0.33349859  0.66346959  1
  Te  Te159  1  0.83553518  0.66712210  -0.00323455  1
  Te  Te160  1  0.83440267  0.66755745  0.33724760  1
  Te  Te161  1  0.83420287  0.66825388  0.66510998  1
  Te  Te162  1  0.00014108  0.17235972  0.00585120  1
  Te  Te163  1  -0.00019003  0.17294935  0.32864131  1
  Te  Te164  1  -0.00280373  0.16770644  0.66600476  1
  Te  Te165  1  0.00192980  0.49863914  0.00537426  1
  Te  Te166  1  0.00002145  0.49695127  0.32909245  1
  Te  Te167  1  0.00164887  0.49488219  0.66797364  1
  Te  Te168  1  0.00690899  0.83061495  0.00607471  1
  Te  Te169  1  -0.00217154  0.83457043  0.32703698  1
  Te  Te170  1  -0.00529681  0.83714391  0.66685383  1
  Te  Te171  1  0.33286723  0.17545019  -0.00121013  1
  Te  Te172  1  0.33833106  0.16359657  0.33682137  1
  Te  Te173  1  0.33604479  0.16650472  0.66507162  1
  Te  Te174  1  0.33264889  0.49619413  0.00314720  1
  Te  Te175  1  0.33327915  0.50003411  0.33071532  1
  Te  Te176  1  0.33429454  0.49959972  0.66518668  1
  Te  Te177  1  0.33000565  0.83247249  -0.00006891  1
  Te  Te178  1  0.33295328  0.83564579  0.33290678  1
  Te  Te179  1  0.33337668  0.83651274  0.66935134  1
  Te  Te180  1  0.66739421  0.16734290  0.00281819  1
  Te  Te181  1  0.66088077  0.17199494  0.32970012  1
  Te  Te182  1  0.66465509  0.16937863  0.66662490  1
  Te  Te183  1  0.66668887  0.49937303  0.01002921  1
  Te  Te184  1  0.66473735  0.49657932  0.32950107  1
  Te  Te185  1  0.66290567  0.49790922  0.66755126  1
  Te  Te186  1  0.66819252  0.83228697  -0.00978134  1
  Te  Te187  1  0.67231531  0.83192046  0.33299158  1
  Te  Te188  1  0.66930375  0.83006868  0.67122764  1
  Te  Te189  1  -0.00053380  -0.00082171  0.16584761  1
  Te  Te190  1  -0.00422710  0.00056783  0.50708438  1
  Te  Te191  1  0.00174595  0.00057990  0.82942636  1
  Te  Te192  1  0.00000144  0.33432033  0.16760311  1
  Te  Te193  1  -0.00456030  0.33257433  0.50496866  1
  Te  Te194  1  0.00132335  0.33329622  0.82888551  1
  Te  Te195  1  0.00397942  0.66707644  0.16203758  1
  Te  Te196  1  -0.00042324  0.66654480  0.50230674  1
  Te  Te197  1  -0.00294412  0.66601685  0.84047032  1
  Te  Te198  1  0.33348886  0.00034807  0.16536928  1
  Te  Te199  1  0.33232636  0.00302041  0.50669177  1
  Te  Te200  1  0.33489026  0.00077678  0.83329123  1
  Te  Te201  1  0.33593905  0.33375250  0.16592132  1
  Te  Te202  1  0.33228789  0.32756763  0.50588392  1
  Te  Te203  1  0.33344079  0.33445796  0.83231266  1
  Te  Te204  1  0.32957455  0.66704454  0.16689681  1
  Te  Te205  1  0.32911494  0.66703514  0.50885614  1
  Te  Te206  1  0.33258641  0.66738631  0.83204921  1
  Te  Te207  1  0.66277907  0.00304903  0.16570105  1
  Te  Te208  1  0.67717446  0.00025081  0.49927123  1
  Te  Te209  1  0.66133657  -0.00054054  0.83440580  1
  Te  Te210  1  0.66494889  0.33339598  0.16798580  1
  Te  Te211  1  0.67270549  0.33266693  0.50073986  1
  Te  Te212  1  0.66602619  0.32927833  0.83094140  1
  Te  Te213  1  0.66593908  0.66167156  0.16448594  1
  Te  Te214  1  0.67177755  0.66575636  0.50887142  1
  Te  Te215  1  0.66947680  0.66812224  0.83022897  1
