# generated using pymatgen
data_AgSbTe2
_symmetry_space_group_name_H-M   'P 1'
_cell_length_a   18.34193249
_cell_length_b   18.34828931
_cell_length_c   18.34269614
_cell_angle_alpha   89.99996538
_cell_angle_beta   89.99795153
_cell_angle_gamma   89.99593884
_symmetry_Int_Tables_number   1
_chemical_formula_structural   AgSbTe2
_chemical_formula_sum   'Ag54 Sb54 Te108'
_cell_volume   6173.10750720
_cell_formula_units_Z   54
loop_
 _symmetry_equiv_pos_site_id
 _symmetry_equiv_pos_as_xyz
  1  'x, y, z'
loop_
 _atom_site_type_symbol
 _atom_site_label
 _atom_site_symmetry_multiplicity
 _atom_site_fract_x
 _atom_site_fract_y
 _atom_site_fract_z
 _atom_site_occupancy
  Ag  Ag0  1  0.17283759  0.65582253  0.83400664  1
  Ag  Ag1  1  0.82420452  0.82371412  0.66013112  1
  Ag  Ag2  1  0.49094267  0.34281507  0.16407588  1
  Ag  Ag3  1  0.82898518  0.66495864  0.49881576  1
  Ag  Ag4  1  0.66186929  0.66082162  -0.00152660  1
  Ag  Ag5  1  0.82775620  0.82879959  0.33682025  1
  Ag  Ag6  1  0.33327708  0.16954195  0.84994955  1
  Ag  Ag7  1  0.33117686  0.50206237  0.48620481  1
  Ag  Ag8  1  0.01581052  0.16683282  0.16664755  1
  Ag  Ag9  1  0.00577658  0.83457018  0.16823173  1
  Ag  Ag10  1  0.83594967  0.33692773  0.83399270  1
  Ag  Ag11  1  0.66478574  -0.00808765  0.32343961  1
  Ag  Ag12  1  0.33616231  0.65749794  0.32964627  1
  Ag  Ag13  1  0.65443775  0.17177172  0.16234346  1
  Ag  Ag14  1  0.17029272  0.01512132  0.16634869  1
  Ag  Ag15  1  0.48994059  0.49933544  0.31818983  1
  Ag  Ag16  1  0.33791640  0.17749534  0.16654789  1
  Ag  Ag17  1  0.66505650  0.82890932  0.50227082  1
  Ag  Ag18  1  0.50024376  0.16917960  0.00316793  1
  Ag  Ag19  1  0.16624148  0.49589447  0.67700331  1
  Ag  Ag20  1  0.17920890  0.48946065  0.32942259  1
  Ag  Ag21  1  0.00422876  0.66031835  0.33160849  1
  Ag  Ag22  1  0.66443685  0.50487839  0.84161352  1
  Ag  Ag23  1  0.17712268  0.49680727  0.00161800  1
  Ag  Ag24  1  0.66232153  0.82390507  0.83154062  1
  Ag  Ag25  1  0.16775832  0.17801188  0.66609236  1
  Ag  Ag26  1  0.65781496  0.33567368  0.00324054  1
  Ag  Ag27  1  0.32072472  0.34787739  0.31918015  1
  Ag  Ag28  1  0.16712871  0.33682622  0.48621307  1
  Ag  Ag29  1  0.65792289  0.49726160  0.16139192  1
  Ag  Ag30  1  0.65634554  0.00439381  0.00380484  1
  Ag  Ag31  1  0.17987093  0.33286341  0.17437039  1
  Ag  Ag32  1  0.33915731  0.82783023  0.49103992  1
  Ag  Ag33  1  0.17416792  0.17760439  0.32255660  1
  Ag  Ag34  1  0.50180893  0.83242787  -0.00113283  1
  Ag  Ag35  1  0.50183680  -0.00996805  0.84137065  1
  Ag  Ag36  1  0.33924587  0.01101285  0.00365775  1
  Ag  Ag37  1  0.50314752  0.66934505  0.84331155  1
  Ag  Ag38  1  0.50599110  0.83046893  0.67607250  1
  Ag  Ag39  1  0.66227454  0.66809882  0.33031679  1
  Ag  Ag40  1  0.83465631  0.33881793  0.50074418  1
  Ag  Ag41  1  0.00303711  0.49907128  0.83383292  1
  Ag  Ag42  1  0.50032757  0.65676324  0.16417235  1
  Ag  Ag43  1  0.33823857  0.33261780  0.00942677  1
  Ag  Ag44  1  0.49424613  0.17416925  0.31816559  1
  Ag  Ag45  1  0.49891942  0.49965610  0.00674569  1
  Ag  Ag46  1  0.83439497  0.50369784  0.66846628  1
  Ag  Ag47  1  0.00118257  -0.00109092  0.66934588  1
  Ag  Ag48  1  0.01167977  0.34031697  0.33130259  1
  Ag  Ag49  1  0.33346635  0.83138110  0.16846390  1
  Ag  Ag50  1  0.34686198  0.48806078  0.17353902  1
  Ag  Ag51  1  0.82056860  0.16937369  0.00254218  1
  Ag  Ag52  1  0.66658028  0.66978892  0.67219622  1
  Ag  Ag53  1  0.16642100  0.33824621  0.83653728  1
  Sb  Sb54  1  0.66877900  0.34003735  0.67430368  1
  Sb  Sb55  1  0.82741621  0.00338895  0.83462710  1
  Sb  Sb56  1  0.16616300  0.65963520  0.50086021  1
  Sb  Sb57  1  0.66141068  0.16970399  0.84136497  1
  Sb  Sb58  1  0.33238042  0.49665114  0.83981766  1
  Sb  Sb59  1  0.49860787  0.33721580  0.84333724  1
  Sb  Sb60  1  0.17434756  0.17543456  0.00417597  1
  Sb  Sb61  1  0.17333156  0.65952837  0.16504279  1
  Sb  Sb62  1  -0.00453560  0.66678648  0.66447750  1
  Sb  Sb63  1  0.00141848  0.16904913  0.49441224  1
  Sb  Sb64  1  0.16621651  0.83134871  0.33144276  1
  Sb  Sb65  1  0.33121092  0.33411985  0.66606808  1
  Sb  Sb66  1  0.66440995  0.50487776  0.49848723  1
  Sb  Sb67  1  0.16905090  0.00539432  0.49525899  1
  Sb  Sb68  1  0.33810813  0.66551690  0.66355802  1
  Sb  Sb69  1  0.49988731  0.50492530  0.66985449  1
  Sb  Sb70  1  0.00353755  0.49889325  0.50232603  1
  Sb  Sb71  1  0.00317932  0.33345406  0.00420761  1
  Sb  Sb72  1  0.49680741  0.33601390  0.48848556  1
  Sb  Sb73  1  -0.00400522  0.66423015  0.00411249  1
  Sb  Sb74  1  0.00572373  0.17244030  0.83847063  1
  Sb  Sb75  1  0.17484530  0.82802594  0.00155901  1
  Sb  Sb76  1  0.49560559  0.16191469  0.67419613  1
  Sb  Sb77  1  0.66507955  0.33728241  0.32667904  1
  Sb  Sb78  1  0.83227908  0.50343164  0.33760901  1
  Sb  Sb79  1  0.16735933  0.82991741  0.66714213  1
  Sb  Sb80  1  0.34229382  0.66262762  0.00573419  1
  Sb  Sb81  1  0.66688723  0.16418044  0.49044365  1
  Sb  Sb82  1  0.33204147  0.17006690  0.49203125  1
  Sb  Sb83  1  0.83232038  0.33305822  0.16532705  1
  Sb  Sb84  1  0.83416863  0.00010959  0.16629839  1
  Sb  Sb85  1  0.49495219  0.00320514  0.15958351  1
  Sb  Sb86  1  0.82394638  0.83619527  0.00102151  1
  Sb  Sb87  1  -0.00236949  0.83074213  0.49616817  1
  Sb  Sb88  1  0.50310534  0.66733055  0.49598546  1
  Sb  Sb89  1  -0.00245369  -0.00041192  0.33269393  1
  Sb  Sb90  1  0.82543764  0.49503035  -0.00528967  1
  Sb  Sb91  1  0.82606520  0.66756888  0.17237484  1
  Sb  Sb92  1  0.00318838  0.33255758  0.66396699  1
  Sb  Sb93  1  0.34147089  0.83394838  0.83685520  1
  Sb  Sb94  1  0.66132522  0.83286321  0.16517984  1
  Sb  Sb95  1  0.00190327  0.00238237  -0.00026330  1
  Sb  Sb96  1  -0.00672490  0.82720842  0.83647705  1
  Sb  Sb97  1  0.83208248  -0.00241115  0.50034468  1
  Sb  Sb98  1  0.17222918  0.00330353  0.83887167  1
  Sb  Sb99  1  0.33121651  -0.00113943  0.67269071  1
  Sb  Sb100  1  0.49968063  -0.00337121  0.50235971  1
  Sb  Sb101  1  0.83276341  0.16653227  0.32698841  1
  Sb  Sb102  1  0.33832826  0.00125615  0.32487783  1
  Sb  Sb103  1  0.66873577  -0.00828201  0.67038984  1
  Sb  Sb104  1  0.50251940  0.83102855  0.32892594  1
  Sb  Sb105  1  0.00288042  0.49843258  0.16572935  1
  Sb  Sb106  1  0.83711581  0.16956908  0.67123859  1
  Sb  Sb107  1  0.82588725  0.66032394  0.82844987  1
  Te  Te108  1  0.17222355  0.17175796  0.16528444  1
  Te  Te109  1  0.16650222  0.17299049  0.50402177  1
  Te  Te110  1  0.17130678  0.16848403  0.83093567  1
  Te  Te111  1  0.16647753  0.49451246  0.16689138  1
  Te  Te112  1  0.16940224  0.49634412  0.49423422  1
  Te  Te113  1  0.17094501  0.49860843  0.83516066  1
  Te  Te114  1  0.16785008  0.82861527  0.16612027  1
  Te  Te115  1  0.17187240  0.83308238  0.50027629  1
  Te  Te116  1  0.16491450  0.83054626  0.83383715  1
  Te  Te117  1  0.49813038  0.16349745  0.16300474  1
  Te  Te118  1  0.50003375  0.16624310  0.50012877  1
  Te  Te119  1  0.49388731  0.16714722  0.83787810  1
  Te  Te120  1  0.50230200  0.50085690  0.16362650  1
  Te  Te121  1  0.49339620  0.49988369  0.50004018  1
  Te  Te122  1  0.50320057  0.50417964  0.83595522  1
  Te  Te123  1  0.49671880  0.83058069  0.16198231  1
  Te  Te124  1  0.50104520  0.83303729  0.50155870  1
  Te  Te125  1  0.50267885  0.82998146  0.83656739  1
  Te  Te126  1  0.82724671  0.16633898  0.16226357  1
  Te  Te127  1  0.83340124  0.17380302  0.50108413  1
  Te  Te128  1  0.83519432  0.17316789  0.83800375  1
  Te  Te129  1  0.82998697  0.50006742  0.16577529  1
  Te  Te130  1  0.83277045  0.50029892  0.50531316  1
  Te  Te131  1  0.83143939  0.49674563  0.82936497  1
  Te  Te132  1  0.83916437  0.83407228  0.16982165  1
  Te  Te133  1  0.83092314  0.83148406  0.50006820  1
  Te  Te134  1  0.82667828  0.83388344  0.83010125  1
  Te  Te135  1  0.17001260  -0.00316360  0.00556183  1
  Te  Te136  1  0.16618344  0.00411565  0.32787574  1
  Te  Te137  1  0.16322353  -0.00033644  0.66696991  1
  Te  Te138  1  0.16794097  0.33773651  -0.00378213  1
  Te  Te139  1  0.16647626  0.33258928  0.33092952  1
  Te  Te140  1  0.16630752  0.33603408  0.67546268  1
  Te  Te141  1  0.16488819  0.66039156  -0.00473173  1
  Te  Te142  1  0.16781127  0.66405315  0.33355904  1
  Te  Te143  1  0.16520434  0.66067712  0.66996570  1
  Te  Te144  1  0.49920566  0.00075503  -0.00182789  1
  Te  Te145  1  0.50567240  0.00282991  0.33527950  1
  Te  Te146  1  0.50008328  -0.00568590  0.67453848  1
  Te  Te147  1  0.49871817  0.33445957  0.00283673  1
  Te  Te148  1  0.49945730  0.33408895  0.32585668  1
  Te  Te149  1  0.50094508  0.33215944  0.66465585  1
  Te  Te150  1  0.50216980  0.66378613  0.00185192  1
  Te  Te151  1  0.49861433  0.66475870  0.33067601  1
  Te  Te152  1  0.50514933  0.67061271  0.66889397  1
  Te  Te153  1  0.82922874  0.00534896  -0.00101127  1
  Te  Te154  1  0.82711306  -0.00514649  0.33452278  1
  Te  Te155  1  0.83778568  -0.00051505  0.66747317  1
  Te  Te156  1  0.83330983  0.32971274  -0.00281622  1
  Te  Te157  1  0.83359583  0.33425174  0.33897459  1
  Te  Te158  1  0.83558916  0.33750543  0.66767678  1
  Te  Te159  1  0.82596116  0.66747654  0.00014886  1
  Te  Te160  1  0.83026813  0.66904343  0.33737522  1
  Te  Te161  1  0.83001903  0.66572112  0.66257084  1
  Te  Te162  1  -0.00457672  0.16577103  0.00672710  1
  Te  Te163  1  0.00166930  0.16764811  0.32684334  1
  Te  Te164  1  0.00508373  0.16277722  0.66902512  1
  Te  Te165  1  0.00252984  0.50049336  -0.00474272  1
  Te  Te166  1  -0.00018976  0.50058413  0.33313070  1
  Te  Te167  1  0.00115191  0.50003223  0.67135989  1
  Te  Te168  1  -0.00227950  0.83352688  0.00626896  1
  Te  Te169  1  -0.00322339  0.83121017  0.32975025  1
  Te  Te170  1  -0.00398292  0.83487084  0.66709556  1
  Te  Te171  1  0.33447613  0.16959371  0.00594664  1
  Te  Te172  1  0.33414220  0.16664466  0.32892130  1
  Te  Te173  1  0.32773530  0.16542016  0.66239746  1
  Te  Te174  1  0.33560891  0.49754167  0.00518837  1
  Te  Te175  1  0.33479042  0.50179042  0.33041876  1
  Te  Te176  1  0.32820110  0.50064158  0.66396645  1
  Te  Te177  1  0.34006605  0.83246768  0.00345721  1
  Te  Te178  1  0.33388980  0.83385996  0.33251829  1
  Te  Te179  1  0.33769529  0.83288699  0.66490062  1
  Te  Te180  1  0.66164491  0.16713198  0.00160886  1
  Te  Te181  1  0.66319911  0.16626759  0.32678494  1
  Te  Te182  1  0.66641687  0.16485344  0.66582544  1
  Te  Te183  1  0.66507125  0.49926063  0.00111316  1
  Te  Te184  1  0.66422792  0.50539567  0.33063952  1
  Te  Te185  1  0.66858383  0.50667909  0.66857016  1
  Te  Te186  1  0.66264204  0.83381769  -0.00222044  1
  Te  Te187  1  0.66712354  0.83114251  0.33229161  1
  Te  Te188  1  0.66697190  0.83047876  0.66657118  1
  Te  Te189  1  0.00618146  0.00143108  0.16704882  1
  Te  Te190  1  0.00073722  -0.00033457  0.50568084  1
  Te  Te191  1  0.00059015  -0.00091118  0.83144222  1
  Te  Te192  1  -0.00036227  0.33026474  0.17164083  1
  Te  Te193  1  0.00156717  0.33329043  0.49361278  1
  Te  Te194  1  0.00049633  0.33803571  0.83374892  1
  Te  Te195  1  -0.00026608  0.66837337  0.17171635  1
  Te  Te196  1  -0.00603174  0.66634900  0.49301417  1
  Te  Te197  1  0.00290304  0.66140093  0.83389732  1
  Te  Te198  1  0.32865435  -0.00773837  0.16276150  1
  Te  Te199  1  0.33287802  -0.00765356  0.50097385  1
  Te  Te200  1  0.33803723  0.00420320  0.84017415  1
  Te  Te201  1  0.33501758  0.33276698  0.16463108  1
  Te  Te202  1  0.32959042  0.33723625  0.49609814  1
  Te  Te203  1  0.33112121  0.32933432  0.83326981  1
  Te  Te204  1  0.33677448  0.67041110  0.17008656  1
  Te  Te205  1  0.33333389  0.66695541  0.49544148  1
  Te  Te206  1  0.33401794  0.66650787  0.83263840  1
  Te  Te207  1  0.66758950  0.00143507  0.16475449  1
  Te  Te208  1  0.66711833  -0.00728969  0.49655403  1
  Te  Te209  1  0.66195263  0.00114424  0.83816409  1
  Te  Te210  1  0.66662034  0.33309760  0.16295485  1
  Te  Te211  1  0.67002334  0.33357849  0.50191841  1
  Te  Te212  1  0.66947474  0.33779922  0.84006526  1
  Te  Te213  1  0.66240005  0.66577615  0.16742752  1
  Te  Te214  1  0.66895399  0.66960195  0.49652933  1
  Te  Te215  1  0.66496087  0.66560018  0.83420209  1
