# generated using pymatgen
data_AgSbTe2
_symmetry_space_group_name_H-M   'P 1'
_cell_length_a   18.33070489
_cell_length_b   18.34013399
_cell_length_c   18.33950627
_cell_angle_alpha   90.00094270
_cell_angle_beta   90.00142560
_cell_angle_gamma   90.00257586
_symmetry_Int_Tables_number   1
_chemical_formula_structural   AgSbTe2
_chemical_formula_sum   'Ag54 Sb54 Te108'
_cell_volume   6165.51429194
_cell_formula_units_Z   54
loop_
 _symmetry_equiv_pos_site_id
 _symmetry_equiv_pos_as_xyz
  1  'x, y, z'
loop_
 _atom_site_type_symbol
 _atom_site_label
 _atom_site_symmetry_multiplicity
 _atom_site_fract_x
 _atom_site_fract_y
 _atom_site_fract_z
 _atom_site_occupancy
  Ag  Ag0  1  0.48771067  0.84204958  0.66482863  1
  Ag  Ag1  1  0.84606069  0.00071218  0.83316902  1
  Ag  Ag2  1  0.49746465  0.16635876  -0.00103934  1
  Ag  Ag3  1  -0.00337419  0.50553650  0.17165772  1
  Ag  Ag4  1  0.49693067  0.32227447  0.49457062  1
  Ag  Ag5  1  0.83035275  0.50456586  0.66633600  1
  Ag  Ag6  1  0.00556688  0.00487457  0.32959154  1
  Ag  Ag7  1  0.49665511  0.49952321  0.66241126  1
  Ag  Ag8  1  0.33279266  0.49552442  0.82592875  1
  Ag  Ag9  1  0.48722938  0.84110080  0.34105539  1
  Ag  Ag10  1  0.33724484  0.16226200  0.49910157  1
  Ag  Ag11  1  0.33113911  0.33255017  0.33284654  1
  Ag  Ag12  1  0.01167644  0.66408589  0.32901619  1
  Ag  Ag13  1  0.32417393  0.66966355  0.34116780  1
  Ag  Ag14  1  0.16300980  0.51214254  0.33122051  1
  Ag  Ag15  1  0.49451925  0.33262719  0.17274725  1
  Ag  Ag16  1  -0.00055156  0.16783794  0.17531143  1
  Ag  Ag17  1  0.00521940  0.83885446  0.84132028  1
  Ag  Ag18  1  0.84467369  0.66176463  0.16901709  1
  Ag  Ag19  1  0.17168632  0.66855447  0.48876179  1
  Ag  Ag20  1  0.33743065  0.50418359  0.50079054  1
  Ag  Ag21  1  0.00364401  0.82876265  0.16419350  1
  Ag  Ag22  1  0.16932649  0.82632130  0.33364604  1
  Ag  Ag23  1  0.33500199  0.16535366  0.82686992  1
  Ag  Ag24  1  0.67533478  0.49759328  0.17208186  1
  Ag  Ag25  1  0.66115305  0.33379664  0.00213322  1
  Ag  Ag26  1  0.49081848  0.00188680  0.82576497  1
  Ag  Ag27  1  0.49615994  0.16484597  0.34278777  1
  Ag  Ag28  1  0.16286243  0.66558816  0.17745502  1
  Ag  Ag29  1  0.49616673  0.16014405  0.65552413  1
  Ag  Ag30  1  0.16229553  0.83312614  -0.00318604  1
  Ag  Ag31  1  0.84685095  0.17071712  0.33463787  1
  Ag  Ag32  1  0.83793005  0.83161880  0.67269502  1
  Ag  Ag33  1  0.84197734  0.49689087  0.32686238  1
  Ag  Ag34  1  0.00327775  0.16590944  0.49018672  1
  Ag  Ag35  1  0.83370359  0.50139901  0.00789726  1
  Ag  Ag36  1  0.33660576  -0.00638613  0.66051245  1
  Ag  Ag37  1  0.00259034  0.15660422  0.83376165  1
  Ag  Ag38  1  0.49473132  0.84033519  -0.00203502  1
  Ag  Ag39  1  0.83639036  0.33080128  0.83597335  1
  Ag  Ag40  1  0.64919930  0.17235168  0.49725427  1
  Ag  Ag41  1  0.16387172  -0.00375562  0.83388609  1
  Ag  Ag42  1  0.33700007  0.33243259  0.00461945  1
  Ag  Ag43  1  0.84488078  0.83244389  -0.00466638  1
  Ag  Ag44  1  0.16724677  0.33872748  0.17083893  1
  Ag  Ag45  1  0.33256755  0.83379995  0.49881707  1
  Ag  Ag46  1  0.65798100  0.49554377  0.49605586  1
  Ag  Ag47  1  0.17155926  0.83143062  0.66707033  1
  Ag  Ag48  1  0.33134560  -0.00407431  0.34161159  1
  Ag  Ag49  1  0.00053928  -0.00283910  -0.00367923  1
  Ag  Ag50  1  0.49392514  0.00944025  0.50467545  1
  Ag  Ag51  1  0.33121186  0.67651629  0.65917857  1
  Ag  Ag52  1  0.00551358  0.33138083  0.33018411  1
  Ag  Ag53  1  0.16827538  0.67844024  0.83246568  1
  Sb  Sb54  1  0.00214521  0.49622402  0.49197623  1
  Sb  Sb55  1  0.32593268  0.83816882  0.82758547  1
  Sb  Sb56  1  0.33512372  0.33254192  0.66288785  1
  Sb  Sb57  1  0.84044389  0.66446880  0.49657069  1
  Sb  Sb58  1  0.33078911  0.66474287  -0.00006760  1
  Sb  Sb59  1  0.00271450  0.50181396  0.83779522  1
  Sb  Sb60  1  0.66354537  0.16717248  0.83013068  1
  Sb  Sb61  1  0.00116798  0.67532996  0.00924931  1
  Sb  Sb62  1  0.66537364  0.66365354  0.33421052  1
  Sb  Sb63  1  0.66865778  0.66230800  0.00134498  1
  Sb  Sb64  1  0.00121165  0.32792928  0.00669285  1
  Sb  Sb65  1  0.66918294  0.83399564  0.83386390  1
  Sb  Sb66  1  0.66040517  0.66529288  0.66474603  1
  Sb  Sb67  1  0.17402000  -0.00387217  0.50089683  1
  Sb  Sb68  1  0.17045827  0.50723617  0.66167581  1
  Sb  Sb69  1  0.16274594  0.50432543  0.00578098  1
  Sb  Sb70  1  0.66463465  0.33445730  0.33039465  1
  Sb  Sb71  1  0.16397265  -0.00343967  0.16617994  1
  Sb  Sb72  1  0.84075513  0.83292788  0.33231855  1
  Sb  Sb73  1  0.83150114  0.00037890  0.50371806  1
  Sb  Sb74  1  0.83627995  0.33892600  0.16555943  1
  Sb  Sb75  1  0.65878252  -0.00038920  0.66638923  1
  Sb  Sb76  1  0.50141774  0.49705785  -0.00257265  1
  Sb  Sb77  1  0.16529235  0.33039798  0.83917532  1
  Sb  Sb78  1  0.83028964  0.16476185  0.66444503  1
  Sb  Sb79  1  0.33008532  0.49719297  0.17123961  1
  Sb  Sb80  1  0.66446508  0.49615640  0.83219129  1
  Sb  Sb81  1  0.49793787  0.00402102  0.16830792  1
  Sb  Sb82  1  0.66875045  0.00380911  -0.00120623  1
  Sb  Sb83  1  0.84206728  0.66851015  0.83573713  1
  Sb  Sb84  1  0.33048708  0.16928045  0.17055993  1
  Sb  Sb85  1  0.66449671  0.33384603  0.66749720  1
  Sb  Sb86  1  0.83903816  -0.00420127  0.16397663  1
  Sb  Sb87  1  0.66420217  0.00240994  0.33546221  1
  Sb  Sb88  1  0.49538173  0.66385488  0.16878163  1
  Sb  Sb89  1  0.83291923  0.16669746  0.00227580  1
  Sb  Sb90  1  0.16876850  0.16270822  0.00111753  1
  Sb  Sb91  1  0.00605959  0.66845603  0.66235746  1
  Sb  Sb92  1  0.82888235  0.33359822  0.49982568  1
  Sb  Sb93  1  0.16813349  0.16505425  0.33344121  1
  Sb  Sb94  1  0.00714597  0.83720921  0.49762762  1
  Sb  Sb95  1  0.65727983  0.83315577  0.50042956  1
  Sb  Sb96  1  0.00579387  -0.00160906  0.66783733  1
  Sb  Sb97  1  0.32753871  0.83234869  0.17318571  1
  Sb  Sb98  1  0.49913057  0.32811162  0.83248016  1
  Sb  Sb99  1  0.17376042  0.15995439  0.66683865  1
  Sb  Sb100  1  0.49547334  0.49714447  0.33796993  1
  Sb  Sb101  1  0.49086790  0.66704354  0.49898440  1
  Sb  Sb102  1  0.33085776  0.00228481  -0.00289492  1
  Sb  Sb103  1  0.49097190  0.67268784  0.83130788  1
  Sb  Sb104  1  -0.00179694  0.33252729  0.66125522  1
  Sb  Sb105  1  0.67132206  0.82599575  0.16626972  1
  Sb  Sb106  1  0.66849556  0.17406296  0.17091330  1
  Sb  Sb107  1  0.17390649  0.33744689  0.49162402  1
  Te  Te108  1  0.15941804  0.17113655  0.16575567  1
  Te  Te109  1  0.16446950  0.16760845  0.50217412  1
  Te  Te110  1  0.16822045  0.16267899  0.83382156  1
  Te  Te111  1  0.16363690  0.50071686  0.17012787  1
  Te  Te112  1  0.17149142  0.50467971  0.49471083  1
  Te  Te113  1  0.17157480  0.49872276  0.83340026  1
  Te  Te114  1  0.16285771  0.83067195  0.16665878  1
  Te  Te115  1  0.17110362  0.83062769  0.50122971  1
  Te  Te116  1  0.16585245  0.83626040  0.83379277  1
  Te  Te117  1  0.50072386  0.17172687  0.16178965  1
  Te  Te118  1  0.49364671  0.16618215  0.49937883  1
  Te  Te119  1  0.49790471  0.16368477  0.83695103  1
  Te  Te120  1  0.50245346  0.49496842  0.16627574  1
  Te  Te121  1  0.49820593  0.50118179  0.50198569  1
  Te  Te122  1  0.49520940  0.50027171  0.82841724  1
  Te  Te123  1  0.50195347  0.83374385  0.16381199  1
  Te  Te124  1  0.49496290  0.83492190  0.50181471  1
  Te  Te125  1  0.50114482  0.83930255  0.83060563  1
  Te  Te126  1  0.83700933  0.16665973  0.17211381  1
  Te  Te127  1  0.84190906  0.16639172  0.49626408  1
  Te  Te128  1  0.83364045  0.16497699  0.83283113  1
  Te  Te129  1  0.83532153  0.50035728  0.16756571  1
  Te  Te130  1  0.83341130  0.49908336  0.50346895  1
  Te  Te131  1  0.83341268  0.50005871  0.83066709  1
  Te  Te132  1  0.83899406  0.82698455  0.16301012  1
  Te  Te133  1  0.82923815  0.83319335  0.50500055  1
  Te  Te134  1  0.83644763  0.83478434  0.83499071  1
  Te  Te135  1  0.16292605  -0.00553820  -0.00283581  1
  Te  Te136  1  0.16637755  -0.00612985  0.33385344  1
  Te  Te137  1  0.17330583  -0.00673770  0.67097525  1
  Te  Te138  1  0.17279013  0.33465036  0.00706606  1
  Te  Te139  1  0.16768072  0.33267667  0.32960896  1
  Te  Te140  1  0.16527171  0.33454182  0.66746439  1
  Te  Te141  1  0.16680518  0.67184392  -0.00609822  1
  Te  Te142  1  0.16785384  0.66785741  0.33258161  1
  Te  Te143  1  0.17177067  0.67109401  0.67133131  1
  Te  Te144  1  0.50002236  0.00101657  -0.00105059  1
  Te  Te145  1  0.49756115  0.00111778  0.33476460  1
  Te  Te146  1  0.49632332  0.00047288  0.66632597  1
  Te  Te147  1  0.49780298  0.33315941  -0.00129017  1
  Te  Te148  1  0.49836057  0.33196511  0.33332421  1
  Te  Te149  1  0.50036211  0.33656272  0.66363194  1
  Te  Te150  1  0.50007056  0.67456836  0.00024827  1
  Te  Te151  1  0.49425075  0.67314578  0.33142899  1
  Te  Te152  1  0.49317738  0.66567650  0.66698726  1
  Te  Te153  1  0.83638686  -0.00315386  -0.00520740  1
  Te  Te154  1  0.83724489  0.00344013  0.33474329  1
  Te  Te155  1  0.83254170  -0.00377683  0.67247615  1
  Te  Te156  1  0.83351432  0.33506834  -0.00215257  1
  Te  Te157  1  0.83578735  0.33338596  0.33258228  1
  Te  Te158  1  0.83225919  0.33640210  0.67241661  1
  Te  Te159  1  0.83431028  0.66636627  0.00366262  1
  Te  Te160  1  0.83466931  0.66309491  0.32925919  1
  Te  Te161  1  0.83360094  0.66663957  0.66659174  1
  Te  Te162  1  -0.00053436  0.16052002  -0.00720799  1
  Te  Te163  1  0.00372351  0.16603773  0.33179422  1
  Te  Te164  1  -0.00006107  0.16661066  0.67496244  1
  Te  Te165  1  -0.00547431  0.49710730  0.00575837  1
  Te  Te166  1  0.00114959  0.49886089  0.33141467  1
  Te  Te167  1  -0.00563130  0.50003121  0.66664324  1
  Te  Te168  1  0.00151336  0.83668025  0.00089738  1
  Te  Te169  1  0.00260187  0.83506100  0.33141198  1
  Te  Te170  1  -0.00167499  0.83295553  0.66670928  1
  Te  Te171  1  0.33615171  0.16933875  -0.00008471  1
  Te  Te172  1  0.33539603  0.16953902  0.33531453  1
  Te  Te173  1  0.33740854  0.16588090  0.66657596  1
  Te  Te174  1  0.33267782  0.49595240  -0.00322564  1
  Te  Te175  1  0.33145371  0.49571225  0.33696902  1
  Te  Te176  1  0.33447871  0.49885802  0.66437431  1
  Te  Te177  1  0.33470258  0.83385772  0.00063133  1
  Te  Te178  1  0.33063823  0.83387201  0.33490937  1
  Te  Te179  1  0.33227966  0.83394458  0.66666691  1
  Te  Te180  1  0.66223190  0.17212558  0.00160421  1
  Te  Te181  1  0.66082967  0.16780364  0.33795735  1
  Te  Te182  1  0.66053338  0.16723004  0.65873306  1
  Te  Te183  1  0.67021859  0.49519823  0.00175505  1
  Te  Te184  1  0.67032657  0.49955332  0.33479094  1
  Te  Te185  1  0.66637530  0.50001009  0.66194430  1
  Te  Te186  1  0.66438985  0.83348472  0.00124608  1
  Te  Te187  1  0.66113172  0.83312870  0.33385054  1
  Te  Te188  1  0.67177154  0.83215189  0.66559425  1
  Te  Te189  1  0.00020507  0.00247552  0.16748628  1
  Te  Te190  1  0.00007838  0.00495946  0.49663053  1
  Te  Te191  1  0.00247285  -0.00231300  0.83134378  1
  Te  Te192  1  0.00228786  0.33126836  0.17037907  1
  Te  Te193  1  0.00018679  0.32794809  0.49374942  1
  Te  Te194  1  -0.00264004  0.33260401  0.83423074  1
  Te  Te195  1  0.00238386  0.66692359  0.16996330  1
  Te  Te196  1  0.00786980  0.66747012  0.49210630  1
  Te  Te197  1  0.00794710  0.67011600  0.83101867  1
  Te  Te198  1  0.33167220  0.00105395  0.17691266  1
  Te  Te199  1  0.33416909  0.00052227  0.49970359  1
  Te  Te200  1  0.33313742  0.00486406  0.83383799  1
  Te  Te201  1  0.33359964  0.33314087  0.16797876  1
  Te  Te202  1  0.33715064  0.33160079  0.49644413  1
  Te  Te203  1  0.33268363  0.33020686  0.83659229  1
  Te  Te204  1  0.32659810  0.66487823  0.17100397  1
  Te  Te205  1  0.33026278  0.66686907  0.50016898  1
  Te  Te206  1  0.32814906  0.66108679  0.83216243  1
  Te  Te207  1  0.66859137  -0.00034043  0.16639585  1
  Te  Te208  1  0.65973597  0.00530382  0.50012142  1
  Te  Te209  1  0.66606797  0.00145822  0.83349332  1
  Te  Te210  1  0.66215964  0.33817750  0.16244930  1
  Te  Te211  1  0.66141823  0.33414469  0.49980931  1
  Te  Te212  1  0.67410769  0.33233870  0.84071325  1
  Te  Te213  1  0.66841597  0.65743436  0.16719582  1
  Te  Te214  1  0.66947507  0.65834837  0.49954645  1
  Te  Te215  1  0.66714867  0.66460340  0.83304301  1
