# generated using pymatgen
data_AgSbTe2
_symmetry_space_group_name_H-M   'P 1'
_cell_length_a   18.31274159
_cell_length_b   18.31140913
_cell_length_c   18.30965230
_cell_angle_alpha   89.99913368
_cell_angle_beta   89.99764607
_cell_angle_gamma   90.00193403
_symmetry_Int_Tables_number   1
_chemical_formula_structural   AgSbTe2
_chemical_formula_sum   'Ag54 Sb54 Te108'
_cell_volume   6139.81421136
_cell_formula_units_Z   54
loop_
 _symmetry_equiv_pos_site_id
 _symmetry_equiv_pos_as_xyz
  1  'x, y, z'
loop_
 _atom_site_type_symbol
 _atom_site_label
 _atom_site_symmetry_multiplicity
 _atom_site_fract_x
 _atom_site_fract_y
 _atom_site_fract_z
 _atom_site_occupancy
  Ag  Ag0  1  0.17355795  0.66933176  0.17146093  1
  Ag  Ag1  1  0.33212729  -0.00537755  0.00677506  1
  Ag  Ag2  1  0.50308054  0.66457566  0.83804046  1
  Ag  Ag3  1  0.83484858  0.67338648  0.16689939  1
  Ag  Ag4  1  0.49941125  0.16527386  0.00717023  1
  Ag  Ag5  1  0.83364960  0.51354024  0.00113696  1
  Ag  Ag6  1  -0.00385837  0.16956105  0.50082983  1
  Ag  Ag7  1  -0.00322373  -0.00475453  0.00331579  1
  Ag  Ag8  1  0.49584271  0.66606967  0.16938898  1
  Ag  Ag9  1  0.83814932  0.15882290  0.66231953  1
  Ag  Ag10  1  -0.00606404  0.66743269  0.33301178  1
  Ag  Ag11  1  0.83490366  0.82991064  0.33256947  1
  Ag  Ag12  1  0.83546896  -0.01100208  0.83052553  1
  Ag  Ag13  1  0.33761196  0.50725010  0.16740432  1
  Ag  Ag14  1  -0.00264600  -0.00009758  0.33354149  1
  Ag  Ag15  1  0.33261056  0.50614750  0.49725967  1
  Ag  Ag16  1  0.49723719  0.66780842  0.49216130  1
  Ag  Ag17  1  0.67727465  0.00131052  0.66552121  1
  Ag  Ag18  1  0.83566349  0.82934043  -0.00956041  1
  Ag  Ag19  1  0.49516842  0.00083132  0.17011391  1
  Ag  Ag20  1  0.00179946  0.32314113  0.65788342  1
  Ag  Ag21  1  0.67818759  0.83186105  0.83252733  1
  Ag  Ag22  1  0.33434640  0.83175637  0.16856807  1
  Ag  Ag23  1  0.66951463  0.16638674  0.50053267  1
  Ag  Ag24  1  -0.00842095  0.67375537  0.00683136  1
  Ag  Ag25  1  0.32964576  0.33142834  0.66506766  1
  Ag  Ag26  1  0.83860428  0.33571505  0.49920250  1
  Ag  Ag27  1  0.33478531  0.16004882  0.16684714  1
  Ag  Ag28  1  0.67035059  0.66375837  0.33194160  1
  Ag  Ag29  1  -0.00937766  0.83308568  0.83214875  1
  Ag  Ag30  1  0.49871249  0.00342903  0.49500883  1
  Ag  Ag31  1  0.50060157  0.33688079  0.83314140  1
  Ag  Ag32  1  0.83592482  0.66679136  0.49076834  1
  Ag  Ag33  1  0.00017042  0.49854263  0.49806681  1
  Ag  Ag34  1  0.50052471  0.16561240  0.66059297  1
  Ag  Ag35  1  0.83827379  -0.00787556  0.16404565  1
  Ag  Ag36  1  0.33755524  0.50234970  0.83762441  1
  Ag  Ag37  1  0.17106851  -0.00139836  0.16781256  1
  Ag  Ag38  1  0.66872612  0.33677088  0.33136237  1
  Ag  Ag39  1  0.16653080  0.66832091  0.49254045  1
  Ag  Ag40  1  0.16030025  0.83844308  0.66339728  1
  Ag  Ag41  1  0.33438291  0.82564864  0.49581894  1
  Ag  Ag42  1  0.16596390  0.16643048  0.33510700  1
  Ag  Ag43  1  0.83012587  0.67691407  0.84000818  1
  Ag  Ag44  1  0.83805152  0.83941801  0.67687378  1
  Ag  Ag45  1  0.66640208  0.33324761  0.00664689  1
  Ag  Ag46  1  -0.00472502  0.33246059  0.34106825  1
  Ag  Ag47  1  0.49819557  0.16755660  0.33400980  1
  Ag  Ag48  1  0.66204255  0.50294965  0.16905333  1
  Ag  Ag49  1  0.16828876  0.32928067  0.16990482  1
  Ag  Ag50  1  0.50134393  0.50135229  0.33159868  1
  Ag  Ag51  1  0.33272276  0.66941191  0.00846489  1
  Ag  Ag52  1  0.15765086  0.16341211  0.65764881  1
  Ag  Ag53  1  -0.00436871  0.00270600  0.66370185  1
  Sb  Sb54  1  0.16214773  0.83321124  0.00039328  1
  Sb  Sb55  1  0.49813873  0.49631650  0.66248925  1
  Sb  Sb56  1  0.16654927  0.49936628  0.66311753  1
  Sb  Sb57  1  -0.00167165  0.16104945  0.82522149  1
  Sb  Sb58  1  0.66832554  0.67267056  0.66273804  1
  Sb  Sb59  1  0.50201508  0.49905400  0.00548433  1
  Sb  Sb60  1  0.66254191  0.16911748  0.17239044  1
  Sb  Sb61  1  0.82886294  0.33399913  0.82921873  1
  Sb  Sb62  1  0.33601539  0.16907397  0.83610335  1
  Sb  Sb63  1  0.66760845  0.82942099  0.16478300  1
  Sb  Sb64  1  0.16475592  0.50239084  0.00359774  1
  Sb  Sb65  1  0.83468625  0.16338546  0.33900927  1
  Sb  Sb66  1  0.66572822  0.83579971  0.50253258  1
  Sb  Sb67  1  0.33046652  0.00049628  0.32661157  1
  Sb  Sb68  1  0.66334240  0.50450860  0.83949806  1
  Sb  Sb69  1  0.17054826  0.16373131  0.00540893  1
  Sb  Sb70  1  -0.00103964  0.67143561  0.66260354  1
  Sb  Sb71  1  0.00040135  0.83321844  0.50282822  1
  Sb  Sb72  1  0.16026028  -0.00094416  0.83562663  1
  Sb  Sb73  1  0.66900249  0.00266219  -0.00186285  1
  Sb  Sb74  1  0.16601895  0.66870346  0.83488336  1
  Sb  Sb75  1  0.50076310  0.83722956  0.66535539  1
  Sb  Sb76  1  0.00013052  0.50389855  0.17210673  1
  Sb  Sb77  1  0.16993645  0.33285534  0.83406778  1
  Sb  Sb78  1  0.33300749  0.66444273  0.66506642  1
  Sb  Sb79  1  0.33301673  0.33373559  0.33557154  1
  Sb  Sb80  1  0.82964432  0.50738747  0.32984113  1
  Sb  Sb81  1  0.50187962  0.33246109  0.50090601  1
  Sb  Sb82  1  -0.00053764  0.83329703  0.16326005  1
  Sb  Sb83  1  0.83324971  -0.00174070  0.50255178  1
  Sb  Sb84  1  0.16095627  0.33552452  0.49599072  1
  Sb  Sb85  1  0.33400541  0.16686447  0.49718378  1
  Sb  Sb86  1  0.83011719  0.16192286  -0.00325748  1
  Sb  Sb87  1  0.33478202  0.66635423  0.32902895  1
  Sb  Sb88  1  0.66752425  0.32510909  0.66268215  1
  Sb  Sb89  1  0.50275910  0.83500656  0.00147697  1
  Sb  Sb90  1  0.66999461  0.00039673  0.33688585  1
  Sb  Sb91  1  0.33780254  0.33497272  0.00018192  1
  Sb  Sb92  1  0.83464559  0.50219137  0.66696261  1
  Sb  Sb93  1  -0.00523409  0.33248707  0.00226205  1
  Sb  Sb94  1  0.50378486  -0.00121867  0.83453962  1
  Sb  Sb95  1  0.66713320  0.49815045  0.49328724  1
  Sb  Sb96  1  0.16181609  0.83422113  0.33366203  1
  Sb  Sb97  1  0.33088886  0.00358418  0.66917534  1
  Sb  Sb98  1  0.33311536  0.82904320  0.83486900  1
  Sb  Sb99  1  0.00159722  0.50628623  0.82905174  1
  Sb  Sb100  1  0.00494291  0.16282206  0.17437173  1
  Sb  Sb101  1  0.83564936  0.33432252  0.17265975  1
  Sb  Sb102  1  0.49649126  0.33399076  0.16593109  1
  Sb  Sb103  1  0.66982944  0.66424383  0.00656895  1
  Sb  Sb104  1  0.66526701  0.16345189  0.82801124  1
  Sb  Sb105  1  0.16851662  0.49894539  0.33287942  1
  Sb  Sb106  1  0.16930452  -0.00316356  0.49588416  1
  Sb  Sb107  1  0.50381750  0.83241218  0.33284490  1
  Te  Te108  1  0.17134322  0.16283253  0.17014140  1
  Te  Te109  1  0.16533981  0.16611522  0.49780076  1
  Te  Te110  1  0.16744088  0.16710497  0.82429168  1
  Te  Te111  1  0.17168456  0.50687663  0.16779962  1
  Te  Te112  1  0.16829668  0.50722807  0.49882350  1
  Te  Te113  1  0.17587663  0.49974584  0.83247419  1
  Te  Te114  1  0.17336481  0.83235721  0.16697520  1
  Te  Te115  1  0.17152280  0.82910989  0.50182848  1
  Te  Te116  1  0.16362117  0.83306549  0.82479344  1
  Te  Te117  1  0.49721607  0.16668592  0.16925138  1
  Te  Te118  1  0.49952341  0.16524275  0.49723146  1
  Te  Te119  1  0.50060695  0.16823809  0.83177441  1
  Te  Te120  1  0.49939253  0.50106879  0.17029216  1
  Te  Te121  1  0.49815344  0.50339229  0.49512835  1
  Te  Te122  1  0.49645190  0.50283050  0.83364946  1
  Te  Te123  1  0.49590548  0.83301326  0.16636010  1
  Te  Te124  1  0.49594146  0.83006260  0.49977971  1
  Te  Te125  1  0.50215514  0.82637297  0.83322335  1
  Te  Te126  1  0.83278589  0.16082432  0.16611343  1
  Te  Te127  1  0.83362236  0.16552493  0.50297216  1
  Te  Te128  1  0.83198861  0.16427997  0.82560773  1
  Te  Te129  1  0.83156877  0.50153457  0.16168824  1
  Te  Te130  1  0.83564970  0.50202489  0.50000594  1
  Te  Te131  1  0.83285952  0.50393452  0.83884109  1
  Te  Te132  1  0.83295120  0.83327340  0.16954720  1
  Te  Te133  1  0.83275796  0.82799735  0.49563142  1
  Te  Te134  1  0.83445016  0.83330677  0.83354303  1
  Te  Te135  1  0.16510081  -0.00052598  0.00605387  1
  Te  Te136  1  0.16012012  0.00350814  0.32818032  1
  Te  Te137  1  0.16300273  0.00145560  0.66689655  1
  Te  Te138  1  0.16479206  0.33212819  0.00746192  1
  Te  Te139  1  0.16300794  0.32932506  0.32949516  1
  Te  Te140  1  0.16565521  0.32913317  0.66683155  1
  Te  Te141  1  0.16767052  0.66766503  0.00472143  1
  Te  Te142  1  0.15880571  0.66660118  0.33236845  1
  Te  Te143  1  0.16599456  0.67103875  0.66196105  1
  Te  Te144  1  0.49841357  0.00373948  0.00372968  1
  Te  Te145  1  0.50161632  0.00226525  0.33223511  1
  Te  Te146  1  0.49861757  0.00495367  0.66529068  1
  Te  Te147  1  0.50400433  0.33020120  -0.00395512  1
  Te  Te148  1  0.50381404  0.33115833  0.33384953  1
  Te  Te149  1  0.49903583  0.32863558  0.66995039  1
  Te  Te150  1  0.49894956  0.66667940  0.00288549  1
  Te  Te151  1  0.50272827  0.66684808  0.33150140  1
  Te  Te152  1  0.50038334  0.66697490  0.66584197  1
  Te  Te153  1  0.83618533  -0.00215223  0.00278019  1
  Te  Te154  1  0.83714892  -0.00396145  0.33030848  1
  Te  Te155  1  0.83498447  -0.00081500  0.66437733  1
  Te  Te156  1  0.82752120  0.33111501  0.00001108  1
  Te  Te157  1  0.83418808  0.33292054  0.33821731  1
  Te  Te158  1  0.83699039  0.33074016  0.66227872  1
  Te  Te159  1  0.83210523  0.66913671  0.00275563  1
  Te  Te160  1  0.83424228  0.66680173  0.33136378  1
  Te  Te161  1  0.83378780  0.67130961  0.66914496  1
  Te  Te162  1  0.00050207  0.16187328  -0.00109681  1
  Te  Te163  1  0.00167834  0.16666225  0.33836116  1
  Te  Te164  1  -0.00043197  0.16435448  0.66332855  1
  Te  Te165  1  -0.00573872  0.50229004  -0.00144512  1
  Te  Te166  1  0.00020241  0.49913073  0.33908656  1
  Te  Te167  1  -0.00012767  0.49302616  0.66053951  1
  Te  Te168  1  -0.00285851  0.83388819  -0.00320382  1
  Te  Te169  1  -0.00431901  0.83357771  0.33499995  1
  Te  Te170  1  -0.00044870  0.83712299  0.66873962  1
  Te  Te171  1  0.33818509  0.16526089  0.00505040  1
  Te  Te172  1  0.33394577  0.16718219  0.32877727  1
  Te  Te173  1  0.33668766  0.17077337  0.66726866  1
  Te  Te174  1  0.33317276  0.50395540  0.00272666  1
  Te  Te175  1  0.33848706  0.49973814  0.33317746  1
  Te  Te176  1  0.33312842  0.49441838  0.66264689  1
  Te  Te177  1  0.33244947  0.83189007  0.00307774  1
  Te  Te178  1  0.33273410  0.83384829  0.33438928  1
  Te  Te179  1  0.32950408  0.83439140  0.66444005  1
  Te  Te180  1  0.66119192  0.17158423  -0.00010816  1
  Te  Te181  1  0.66346896  0.16920718  0.33917860  1
  Te  Te182  1  0.66396433  0.16166200  0.66130465  1
  Te  Te183  1  0.67057296  0.49511326  0.00612055  1
  Te  Te184  1  0.66277752  0.49946587  0.32903829  1
  Te  Te185  1  0.66717147  0.49881043  0.66732694  1
  Te  Te186  1  0.67413110  0.83425598  -0.00533597  1
  Te  Te187  1  0.67356478  0.82784728  0.33324668  1
  Te  Te188  1  0.67031995  0.83980674  0.67020408  1
  Te  Te189  1  -0.00184198  -0.00061760  0.16731903  1
  Te  Te190  1  0.00144119  0.00322295  0.49902337  1
  Te  Te191  1  -0.00447597  -0.00455896  0.83370999  1
  Te  Te192  1  0.00541188  0.33393593  0.17030452  1
  Te  Te193  1  -0.00002716  0.33318514  0.49937193  1
  Te  Te194  1  -0.00027048  0.33569742  0.83063453  1
  Te  Te195  1  -0.00318004  0.66695583  0.16677775  1
  Te  Te196  1  -0.00208199  0.66616303  0.49780131  1
  Te  Te197  1  -0.00297500  0.66979402  0.83708858  1
  Te  Te198  1  0.33519863  -0.00094701  0.16542283  1
  Te  Te199  1  0.33909945  -0.00349344  0.50097804  1
  Te  Te200  1  0.33342934  -0.00145452  0.84373871  1
  Te  Te201  1  0.32787112  0.33562013  0.16642911  1
  Te  Te202  1  0.33197819  0.33872289  0.50457821  1
  Te  Te203  1  0.33775037  0.33808776  0.83078944  1
  Te  Te204  1  0.33452005  0.66739881  0.16672221  1
  Te  Te205  1  0.33504201  0.66605013  0.49923015  1
  Te  Te206  1  0.33529852  0.66269231  0.83666558  1
  Te  Te207  1  0.66297091  -0.00003734  0.16735622  1
  Te  Te208  1  0.65987371  0.00356083  0.50341529  1
  Te  Te209  1  0.67179904  -0.00425588  0.82961357  1
  Te  Te210  1  0.66720310  0.33710442  0.17016835  1
  Te  Te211  1  0.67199196  0.32998651  0.49517823  1
  Te  Te212  1  0.66087756  0.33502300  0.83507395  1
  Te  Te213  1  0.66560761  0.66420052  0.17121600  1
  Te  Te214  1  0.66682755  0.66660927  0.49507940  1
  Te  Te215  1  0.66539062  0.67018392  0.83212892  1
