# generated using pymatgen
data_AgSbTe2
_symmetry_space_group_name_H-M   'P 1'
_cell_length_a   18.32134215
_cell_length_b   18.32195094
_cell_length_c   18.32495648
_cell_angle_alpha   89.99892552
_cell_angle_beta   89.99862773
_cell_angle_gamma   90.00095240
_symmetry_Int_Tables_number   1
_chemical_formula_structural   AgSbTe2
_chemical_formula_sum   'Ag54 Sb54 Te108'
_cell_volume   6151.37145190
_cell_formula_units_Z   54
loop_
 _symmetry_equiv_pos_site_id
 _symmetry_equiv_pos_as_xyz
  1  'x, y, z'
loop_
 _atom_site_type_symbol
 _atom_site_label
 _atom_site_symmetry_multiplicity
 _atom_site_fract_x
 _atom_site_fract_y
 _atom_site_fract_z
 _atom_site_occupancy
  Ag  Ag0  1  0.66097363  0.83783015  0.16989515  1
  Ag  Ag1  1  0.17081533  0.00506659  0.17440458  1
  Ag  Ag2  1  0.16479440  0.15740538  0.32939324  1
  Ag  Ag3  1  0.83090766  0.00528104  0.16581506  1
  Ag  Ag4  1  0.17642969  0.32463993  0.16186733  1
  Ag  Ag5  1  0.33056273  -0.00233340  0.33582536  1
  Ag  Ag6  1  0.32815231  0.67109083  0.66665372  1
  Ag  Ag7  1  0.16885723  0.50206779  0.66762245  1
  Ag  Ag8  1  0.49629767  0.00148561  0.17126784  1
  Ag  Ag9  1  0.17348828  0.16540977  0.66437031  1
  Ag  Ag10  1  0.33861232  0.15921035  0.50168248  1
  Ag  Ag11  1  0.83000592  0.32185231  0.16649576  1
  Ag  Ag12  1  0.32889465  -0.00063796  0.65827829  1
  Ag  Ag13  1  0.49702776  0.32635543  0.16664889  1
  Ag  Ag14  1  0.82734263  0.67027511  0.17106547  1
  Ag  Ag15  1  0.49725043  0.16799067  0.00333961  1
  Ag  Ag16  1  0.17107520  0.83301335  0.65968227  1
  Ag  Ag17  1  0.49348491  0.00671591  0.49684369  1
  Ag  Ag18  1  0.00160926  0.32868538  0.66570507  1
  Ag  Ag19  1  0.17137562  0.16880787  0.00743173  1
  Ag  Ag20  1  0.49230008  0.83380141  0.32903136  1
  Ag  Ag21  1  0.33313990  0.33284194  0.00205450  1
  Ag  Ag22  1  0.83413355  0.83898742  0.00645057  1
  Ag  Ag23  1  0.49344093  0.32686976  0.83261600  1
  Ag  Ag24  1  0.49559769  0.16688691  0.65923569  1
  Ag  Ag25  1  0.17050473  0.66159627  0.82473283  1
  Ag  Ag26  1  0.66032837  0.66447735  0.65976476  1
  Ag  Ag27  1  0.00628316  0.66823357  0.00784527  1
  Ag  Ag28  1  0.33848402  0.83403051  0.17277181  1
  Ag  Ag29  1  0.83172449  0.16501522  0.00918595  1
  Ag  Ag30  1  -0.00246487  0.67163111  0.33372527  1
  Ag  Ag31  1  0.00026300  0.50177401  0.50018609  1
  Ag  Ag32  1  0.83182403  0.00816306  0.83938301  1
  Ag  Ag33  1  0.17386409  0.33396444  0.83162497  1
  Ag  Ag34  1  0.17303539  0.83881935  0.33464103  1
  Ag  Ag35  1  0.49908628  0.67305864  0.17024360  1
  Ag  Ag36  1  0.00988656  -0.00287822  0.33557807  1
  Ag  Ag37  1  0.49716293  0.50371679  0.33097003  1
  Ag  Ag38  1  0.66665237  0.16381377  0.17199817  1
  Ag  Ag39  1  0.49820768  0.00796956  0.83046369  1
  Ag  Ag40  1  0.83616085  0.16514611  0.32614215  1
  Ag  Ag41  1  0.32991605  0.66346025  0.00234249  1
  Ag  Ag42  1  0.33124807  0.49807521  0.83601625  1
  Ag  Ag43  1  0.66714599  0.33241091  0.66364069  1
  Ag  Ag44  1  0.82959626  0.33107923  0.50273427  1
  Ag  Ag45  1  0.50174891  0.32494712  0.50287777  1
  Ag  Ag46  1  0.83232198  0.32803015  0.83142511  1
  Ag  Ag47  1  0.16730734  0.66899525  0.50384716  1
  Ag  Ag48  1  0.65827120  0.16933402  0.49552917  1
  Ag  Ag49  1  0.33535857  0.50304343  0.16517068  1
  Ag  Ag50  1  0.83748400  0.66413651  0.49214794  1
  Ag  Ag51  1  0.01144770  0.00620549  0.65981288  1
  Ag  Ag52  1  0.33313691  0.84027483  0.49223691  1
  Ag  Ag53  1  0.66990932  0.66955471  0.33433536  1
  Sb  Sb54  1  0.33553962  0.16456940  0.17096613  1
  Sb  Sb55  1  0.33246130  0.33067147  0.67011983  1
  Sb  Sb56  1  0.83053312  0.49941451  0.33295124  1
  Sb  Sb57  1  0.66888899  0.49591008  0.49933853  1
  Sb  Sb58  1  0.50119686  0.83954558  0.00772968  1
  Sb  Sb59  1  0.16955132  0.49601048  -0.00407466  1
  Sb  Sb60  1  0.17065212  0.66879347  0.16865774  1
  Sb  Sb61  1  0.66626206  0.83400343  0.83658608  1
  Sb  Sb62  1  0.33401063  0.32696853  0.32937258  1
  Sb  Sb63  1  -0.00212947  -0.00198088  0.00218427  1
  Sb  Sb64  1  0.00678965  0.49850251  0.82789078  1
  Sb  Sb65  1  0.49880831  0.16410080  0.33406428  1
  Sb  Sb66  1  0.00093335  0.83312427  0.83246297  1
  Sb  Sb67  1  0.83941803  0.49794602  0.66546621  1
  Sb  Sb68  1  0.33522819  0.17012498  0.82968308  1
  Sb  Sb69  1  0.00030223  0.83296291  0.16825737  1
  Sb  Sb70  1  0.33143821  0.50055604  0.49954923  1
  Sb  Sb71  1  0.16833581  0.00315130  0.83182497  1
  Sb  Sb72  1  0.66003530  0.49681317  0.82991855  1
  Sb  Sb73  1  0.00649831  0.66614220  0.66273181  1
  Sb  Sb74  1  0.33306297  0.83025043  0.83302571  1
  Sb  Sb75  1  0.17343058  -0.00282061  0.49506259  1
  Sb  Sb76  1  0.00577954  0.50122621  0.17162814  1
  Sb  Sb77  1  0.33383770  0.00269110  0.00201713  1
  Sb  Sb78  1  0.83730929  0.66471167  0.83570153  1
  Sb  Sb79  1  0.66428037  0.66901594  0.00575442  1
  Sb  Sb80  1  0.33270466  0.67455404  0.33314814  1
  Sb  Sb81  1  0.16784981  0.33412320  0.50278827  1
  Sb  Sb82  1  -0.00226391  0.16609652  0.16820462  1
  Sb  Sb83  1  0.49381969  0.49465702  0.66246909  1
  Sb  Sb84  1  0.83173116  0.16841409  0.66593443  1
  Sb  Sb85  1  0.83372442  0.83518514  0.32796826  1
  Sb  Sb86  1  0.66557567  0.33296021  0.33622811  1
  Sb  Sb87  1  0.00020061  0.16716123  0.83208271  1
  Sb  Sb88  1  0.66387009  0.16752371  0.83217876  1
  Sb  Sb89  1  0.66119261  0.83526393  0.49478169  1
  Sb  Sb90  1  0.82998956  0.00280291  0.49595145  1
  Sb  Sb91  1  0.66717217  0.00263874  0.00355854  1
  Sb  Sb92  1  0.00219209  0.16856107  0.50012480  1
  Sb  Sb93  1  0.00671751  0.83008934  0.49837659  1
  Sb  Sb94  1  0.83521308  0.49581816  0.00268593  1
  Sb  Sb95  1  0.49351401  0.66504910  0.83661466  1
  Sb  Sb96  1  0.00359606  0.33588465  -0.00293555  1
  Sb  Sb97  1  0.17065472  0.50152525  0.33601951  1
  Sb  Sb98  1  0.49472026  0.49326570  0.00548814  1
  Sb  Sb99  1  0.66025753  0.49861573  0.16937912  1
  Sb  Sb100  1  0.49374455  0.83855975  0.66133496  1
  Sb  Sb101  1  0.66288726  -0.00188848  0.32993883  1
  Sb  Sb102  1  0.83777032  0.83402884  0.66843577  1
  Sb  Sb103  1  -0.00068233  0.33247620  0.33668927  1
  Sb  Sb104  1  0.66253825  0.32977386  -0.00068241  1
  Sb  Sb105  1  0.49857082  0.66676052  0.49472993  1
  Sb  Sb106  1  0.66234492  0.00254533  0.66433653  1
  Sb  Sb107  1  0.16583565  0.83620705  0.00274979  1
  Te  Te108  1  0.16750347  0.16656287  0.16777740  1
  Te  Te109  1  0.17005400  0.16823829  0.50237727  1
  Te  Te110  1  0.16713889  0.17134547  0.83083511  1
  Te  Te111  1  0.17359083  0.49433898  0.16756817  1
  Te  Te112  1  0.16386420  0.50330420  0.50381585  1
  Te  Te113  1  0.17172591  0.49789550  0.82918229  1
  Te  Te114  1  0.17142645  0.83762679  0.16919083  1
  Te  Te115  1  0.17193993  0.82982059  0.49991741  1
  Te  Te116  1  0.16751799  0.83058699  0.83144659  1
  Te  Te117  1  0.50220243  0.16577105  0.16790446  1
  Te  Te118  1  0.49943860  0.16709299  0.49651935  1
  Te  Te119  1  0.50119667  0.16769633  0.83678610  1
  Te  Te120  1  0.49512666  0.49734281  0.16995321  1
  Te  Te121  1  0.49997062  0.49418344  0.49429958  1
  Te  Te122  1  0.49251790  0.49421602  0.83261351  1
  Te  Te123  1  0.50044537  0.83548600  0.16788602  1
  Te  Te124  1  0.49420019  0.83674010  0.49373556  1
  Te  Te125  1  0.50170267  0.83995857  0.83499763  1
  Te  Te126  1  0.83332811  0.16512245  0.16781385  1
  Te  Te127  1  0.83116938  0.16987928  0.49808356  1
  Te  Te128  1  0.83087615  0.16763936  0.83501085  1
  Te  Te129  1  0.83398010  0.50363261  0.16743034  1
  Te  Te130  1  0.83765009  0.50022341  0.49914509  1
  Te  Te131  1  0.83331166  0.49158495  0.83394915  1
  Te  Te132  1  0.83225453  0.83128260  0.16510054  1
  Te  Te133  1  0.83082154  0.82810543  0.49913937  1
  Te  Te134  1  0.83240807  0.83607498  0.84023294  1
  Te  Te135  1  0.16515871  0.00677886  0.00266004  1
  Te  Te136  1  0.16731884  -0.00029149  0.33228585  1
  Te  Te137  1  0.16914273  0.00258752  0.66860181  1
  Te  Te138  1  0.16859490  0.32954479  0.00060071  1
  Te  Te139  1  0.16527506  0.33005375  0.32915318  1
  Te  Te140  1  0.16571687  0.32887922  0.66785329  1
  Te  Te141  1  0.16864103  0.66783079  -0.00024132  1
  Te  Te142  1  0.16267963  0.66912251  0.33697751  1
  Te  Te143  1  0.16663263  0.66865387  0.66580652  1
  Te  Te144  1  0.50021887  0.00710485  0.00038759  1
  Te  Te145  1  0.49668743  -0.00180938  0.33158917  1
  Te  Te146  1  0.49711772  0.00427082  0.66665423  1
  Te  Te147  1  0.49642850  0.32813289  0.00089259  1
  Te  Te148  1  0.50152667  0.33443836  0.32891228  1
  Te  Te149  1  0.50030411  0.32986281  0.66653247  1
  Te  Te150  1  0.49475539  0.66707974  0.00576869  1
  Te  Te151  1  0.49921265  0.66933181  0.33032683  1
  Te  Te152  1  0.49875416  0.66664284  0.66667848  1
  Te  Te153  1  0.83454362  0.00267868  0.00195373  1
  Te  Te154  1  0.83659965  0.00259708  0.32980391  1
  Te  Te155  1  0.83411385  -0.00002118  0.66938133  1
  Te  Te156  1  0.83483651  0.32817836  0.00184536  1
  Te  Te157  1  0.83297578  0.33074128  0.33176006  1
  Te  Te158  1  0.83288048  0.33264445  0.66555172  1
  Te  Te159  1  0.83303131  0.66691379  0.00239576  1
  Te  Te160  1  0.83460490  0.66752684  0.33289729  1
  Te  Te161  1  0.83329094  0.66651090  0.66554937  1
  Te  Te162  1  0.00071507  0.16697300  -0.00066787  1
  Te  Te163  1  0.00135901  0.16320237  0.33494641  1
  Te  Te164  1  0.00320323  0.16662751  0.66587355  1
  Te  Te165  1  0.00139470  0.50918801  0.00024843  1
  Te  Te166  1  0.00165675  0.50514389  0.33920456  1
  Te  Te167  1  0.00687211  0.49550052  0.66145317  1
  Te  Te168  1  -0.00464358  0.82709290  0.00008367  1
  Te  Te169  1  0.00657617  0.83442655  0.33394793  1
  Te  Te170  1  0.00689237  0.84035143  0.66544527  1
  Te  Te171  1  0.33301580  0.17011192  -0.00000044  1
  Te  Te172  1  0.32755592  0.16007853  0.33992887  1
  Te  Te173  1  0.33550114  0.16453687  0.66330582  1
  Te  Te174  1  0.33298919  0.50073088  0.00126473  1
  Te  Te175  1  0.33764925  0.49909709  0.32913393  1
  Te  Te176  1  0.32804246  0.50457459  0.66738692  1
  Te  Te177  1  0.33324057  0.82913653  0.00560843  1
  Te  Te178  1  0.33248656  0.83594410  0.33256059  1
  Te  Te179  1  0.32980822  0.83309007  0.66638119  1
  Te  Te180  1  0.66703255  0.16809225  0.00781253  1
  Te  Te181  1  0.67219956  0.16625334  0.33289995  1
  Te  Te182  1  0.66122634  0.17030741  0.66222433  1
  Te  Te183  1  0.66537102  0.49975889  -0.00103614  1
  Te  Te184  1  0.65977230  0.50969782  0.33374059  1
  Te  Te185  1  0.66552013  0.50064766  0.66567717  1
  Te  Te186  1  0.67348876  0.83301530  0.00811042  1
  Te  Te187  1  0.66339099  0.82865757  0.32825386  1
  Te  Te188  1  0.66645206  0.82753347  0.66554586  1
  Te  Te189  1  0.00039838  -0.00086167  0.17057965  1
  Te  Te190  1  -0.00299481  0.00027667  0.49957568  1
  Te  Te191  1  -0.00476606  0.00000214  0.82917789  1
  Te  Te192  1  -0.00507592  0.33666197  0.16646892  1
  Te  Te193  1  -0.00337436  0.33637825  0.50406882  1
  Te  Te194  1  -0.00168438  0.33427704  0.82867494  1
  Te  Te195  1  -0.00244049  0.66604361  0.16921448  1
  Te  Te196  1  -0.00131916  0.66477870  0.49787370  1
  Te  Te197  1  0.00621240  0.66505738  0.83557412  1
  Te  Te198  1  0.33405380  -0.00219410  0.16736749  1
  Te  Te199  1  0.33527252  -0.00080554  0.49979835  1
  Te  Te200  1  0.33749595  -0.00126143  0.83066911  1
  Te  Te201  1  0.33482740  0.33154533  0.16371086  1
  Te  Te202  1  0.33860286  0.33145671  0.49910650  1
  Te  Te203  1  0.33335797  0.33614814  0.83656275  1
  Te  Te204  1  0.33578050  0.66709407  0.16672192  1
  Te  Te205  1  0.33053248  0.66840039  0.50379380  1
  Te  Te206  1  0.33029295  0.66317007  0.83309462  1
  Te  Te207  1  0.66790212  0.00060825  0.16818263  1
  Te  Te208  1  0.65947937  0.00588877  0.49841473  1
  Te  Te209  1  0.66814293  -0.00022221  0.83221244  1
  Te  Te210  1  0.66773815  0.33041646  0.16722623  1
  Te  Te211  1  0.66712927  0.32987059  0.50211780  1
  Te  Te212  1  0.66752743  0.33294153  0.82673577  1
  Te  Te213  1  0.66528879  0.66561261  0.16980624  1
  Te  Te214  1  0.66802884  0.66708640  0.49967351  1
  Te  Te215  1  0.66605622  0.66538655  0.82647290  1
