# generated using pymatgen
data_AgSbTe2
_symmetry_space_group_name_H-M   'P 1'
_cell_length_a   18.33384914
_cell_length_b   18.33330336
_cell_length_c   18.33506177
_cell_angle_alpha   89.99754000
_cell_angle_beta   89.99651024
_cell_angle_gamma   90.00241714
_symmetry_Int_Tables_number   1
_chemical_formula_structural   AgSbTe2
_chemical_formula_sum   'Ag54 Sb54 Te108'
_cell_volume   6162.78127161
_cell_formula_units_Z   54
loop_
 _symmetry_equiv_pos_site_id
 _symmetry_equiv_pos_as_xyz
  1  'x, y, z'
loop_
 _atom_site_type_symbol
 _atom_site_label
 _atom_site_symmetry_multiplicity
 _atom_site_fract_x
 _atom_site_fract_y
 _atom_site_fract_z
 _atom_site_occupancy
  Ag  Ag0  1  0.32639989  0.84216874  0.50580094  1
  Ag  Ag1  1  0.49718669  0.67079031  0.16412517  1
  Ag  Ag2  1  0.82677407  0.16464559  0.67088046  1
  Ag  Ag3  1  0.16915502  0.32579926  0.83481351  1
  Ag  Ag4  1  0.66891032  0.16605417  0.51298022  1
  Ag  Ag5  1  0.51191664  0.16064892  0.67034596  1
  Ag  Ag6  1  0.82894481  0.00291019  0.82898425  1
  Ag  Ag7  1  0.16343856  0.16342475  0.67083579  1
  Ag  Ag8  1  0.49556391  0.84058855  -0.00681485  1
  Ag  Ag9  1  0.82457705  0.84662154  0.66791149  1
  Ag  Ag10  1  0.33063862  0.32953794  0.33230359  1
  Ag  Ag11  1  0.82920573  0.49161188  0.67032111  1
  Ag  Ag12  1  0.49791749  0.16441291  -0.00514860  1
  Ag  Ag13  1  0.33354308  0.16306144  0.50636605  1
  Ag  Ag14  1  0.16700213  0.83851921  0.34171430  1
  Ag  Ag15  1  0.83144001  0.48982109  -0.01040147  1
  Ag  Ag16  1  0.49695928  0.33244176  0.16311202  1
  Ag  Ag17  1  0.49820424  0.16866247  0.34125019  1
  Ag  Ag18  1  0.00015980  0.67604694  0.33489564  1
  Ag  Ag19  1  0.16898950  0.84570575  0.66424170  1
  Ag  Ag20  1  0.33524021  0.49607231  0.16289939  1
  Ag  Ag21  1  0.83457838  0.67143055  0.83188625  1
  Ag  Ag22  1  0.66098614  0.84324202  0.83022659  1
  Ag  Ag23  1  0.83140195  0.33166081  0.50475619  1
  Ag  Ag24  1  0.33777111  0.83260367  0.15387320  1
  Ag  Ag25  1  0.33753042  0.83458090  0.83418437  1
  Ag  Ag26  1  0.33069740  0.00321505  -0.00149971  1
  Ag  Ag27  1  0.16392285  0.00097991  0.50130346  1
  Ag  Ag28  1  0.67279575  0.16353071  0.82749458  1
  Ag  Ag29  1  0.66958705  0.32871825  -0.00886776  1
  Ag  Ag30  1  0.00071972  0.16210826  0.50973507  1
  Ag  Ag31  1  0.65767932  0.83464045  0.15576133  1
  Ag  Ag32  1  0.33444371  0.67998392  0.00068585  1
  Ag  Ag33  1  0.50613077  0.00001751  0.83185054  1
  Ag  Ag34  1  0.16343280  0.66935600  0.83327538  1
  Ag  Ag35  1  0.00304372  0.00299304  0.34837234  1
  Ag  Ag36  1  0.00490032  0.00560540  -0.00742284  1
  Ag  Ag37  1  -0.00348281  0.00290407  0.66739622  1
  Ag  Ag38  1  0.16371081  0.16610298  -0.00845770  1
  Ag  Ag39  1  0.33659032  0.32624166  0.66839386  1
  Ag  Ag40  1  0.67187596  0.48713281  0.51077603  1
  Ag  Ag41  1  0.67262550  0.00516563  0.66995672  1
  Ag  Ag42  1  0.66646620  0.31963083  0.67239991  1
  Ag  Ag43  1  0.83425341  0.49807225  0.33654447  1
  Ag  Ag44  1  0.67191234  0.49080061  0.82853954  1
  Ag  Ag45  1  0.00255857  0.32720571  0.33329142  1
  Ag  Ag46  1  0.00639159  0.84511369  0.50263074  1
  Ag  Ag47  1  -0.00363680  0.32242487  -0.00156135  1
  Ag  Ag48  1  0.33566529  0.32689171  -0.00027907  1
  Ag  Ag49  1  0.83972628  0.16993438  -0.00997256  1
  Ag  Ag50  1  0.16589193  -0.00063994  0.16673605  1
  Ag  Ag51  1  0.66717024  0.83947364  0.51237554  1
  Ag  Ag52  1  0.50732990  0.84183201  0.67427145  1
  Ag  Ag53  1  -0.00733926  0.16493667  0.83022661  1
  Sb  Sb54  1  0.33460617  0.16180344  0.83086704  1
  Sb  Sb55  1  0.67117942  0.66738693  0.33313051  1
  Sb  Sb56  1  0.66687144  0.33179365  0.33501982  1
  Sb  Sb57  1  0.16492397  0.67783603  0.50476644  1
  Sb  Sb58  1  0.83174161  0.32697151  0.82972049  1
  Sb  Sb59  1  0.66366851  0.16228717  0.16261559  1
  Sb  Sb60  1  0.16574707  0.00223480  0.83088144  1
  Sb  Sb61  1  0.17251268  0.84190578  -0.00428854  1
  Sb  Sb62  1  0.82920623  0.33334982  0.16610712  1
  Sb  Sb63  1  0.83340430  0.66378115  0.50634269  1
  Sb  Sb64  1  0.00280090  0.83597018  0.17175670  1
  Sb  Sb65  1  0.83325277  0.16923295  0.34022929  1
  Sb  Sb66  1  0.49587500  0.00178661  0.50512903  1
  Sb  Sb67  1  -0.00232216  0.67601119  0.66433428  1
  Sb  Sb68  1  0.17182961  0.32690646  0.16211446  1
  Sb  Sb69  1  0.66512345  0.00571000  -0.00911877  1
  Sb  Sb70  1  0.16185190  0.49483227  0.66839852  1
  Sb  Sb71  1  0.17221671  0.67398851  0.16227397  1
  Sb  Sb72  1  0.50215159  0.49673418  -0.00048435  1
  Sb  Sb73  1  0.66164349  0.66482087  -0.00299161  1
  Sb  Sb74  1  0.33832462  0.50170590  0.83731015  1
  Sb  Sb75  1  0.66343193  0.50100470  0.16398824  1
  Sb  Sb76  1  0.33333488  0.00323046  0.67155890  1
  Sb  Sb77  1  0.49587656  0.00006353  0.15920207  1
  Sb  Sb78  1  0.16297573  0.32535337  0.50454838  1
  Sb  Sb79  1  0.83864800  0.83166462  0.34251401  1
  Sb  Sb80  1  0.66746986  0.67140803  0.66974419  1
  Sb  Sb81  1  0.67214461  -0.00021638  0.34215946  1
  Sb  Sb82  1  0.49543641  0.83970850  0.33299530  1
  Sb  Sb83  1  0.33939793  0.49475491  0.49783738  1
  Sb  Sb84  1  0.50713964  0.49447155  0.66854208  1
  Sb  Sb85  1  0.83960717  0.00451592  0.50854696  1
  Sb  Sb86  1  0.16802140  0.16248062  0.33527506  1
  Sb  Sb87  1  -0.00722779  0.49208513  0.83322089  1
  Sb  Sb88  1  0.00375400  0.66889904  -0.00113108  1
  Sb  Sb89  1  0.33216055  0.67117263  0.67274994  1
  Sb  Sb90  1  0.50423903  0.32794441  0.49891581  1
  Sb  Sb91  1  0.00035301  0.84109155  0.82791535  1
  Sb  Sb92  1  0.00043718  0.16564488  0.16228145  1
  Sb  Sb93  1  0.33455488  0.16571663  0.16465261  1
  Sb  Sb94  1  0.83632663  -0.00130726  0.15816167  1
  Sb  Sb95  1  0.82952307  0.66727559  0.16192078  1
  Sb  Sb96  1  -0.00415862  0.32251454  0.66907949  1
  Sb  Sb97  1  0.50399020  0.49435185  0.33133930  1
  Sb  Sb98  1  0.50192172  0.67593532  0.83778775  1
  Sb  Sb99  1  0.50048535  0.67158296  0.49696056  1
  Sb  Sb100  1  0.49895135  0.32481177  0.83692954  1
  Sb  Sb101  1  0.16513071  0.49291255  -0.00179072  1
  Sb  Sb102  1  0.16262142  0.50245812  0.33291588  1
  Sb  Sb103  1  0.32963000  0.66706724  0.32825491  1
  Sb  Sb104  1  -0.00684244  0.49534650  0.50015332  1
  Sb  Sb105  1  0.00273434  0.49864743  0.16654511  1
  Sb  Sb106  1  0.32921346  0.00267541  0.33031509  1
  Sb  Sb107  1  0.82817662  0.83637776  -0.00930049  1
  Te  Te108  1  0.16756095  0.15915029  0.16062249  1
  Te  Te109  1  0.16641304  0.16279544  0.50192485  1
  Te  Te110  1  0.16843241  0.16739062  0.83323025  1
  Te  Te111  1  0.17563954  0.50126578  0.16633735  1
  Te  Te112  1  0.16842304  0.50149087  0.50049242  1
  Te  Te113  1  0.16666179  0.50305752  0.83258133  1
  Te  Te114  1  0.17129974  0.83837406  0.16713655  1
  Te  Te115  1  0.16618814  0.83805590  0.50230052  1
  Te  Te116  1  0.16767046  0.83149391  0.82910956  1
  Te  Te117  1  0.49961074  0.16990566  0.16041919  1
  Te  Te118  1  0.49787079  0.16657128  0.50412372  1
  Te  Te119  1  0.50121076  0.16214352  0.83209809  1
  Te  Te120  1  0.49576961  0.49826401  0.16675636  1
  Te  Te121  1  0.51020426  0.50116036  0.49964894  1
  Te  Te122  1  0.51072396  0.50404778  0.83268397  1
  Te  Te123  1  0.49807501  0.83409409  0.16743866  1
  Te  Te124  1  0.50204686  0.83486233  0.50194699  1
  Te  Te125  1  0.49964258  0.83643255  0.83376085  1
  Te  Te126  1  0.83129255  0.16627999  0.15857578  1
  Te  Te127  1  0.83270398  0.17024398  0.50292526  1
  Te  Te128  1  0.83327794  0.16612843  0.83266739  1
  Te  Te129  1  0.83279436  0.50164066  0.16823327  1
  Te  Te130  1  0.82916289  0.49661509  0.50199942  1
  Te  Te131  1  0.82984518  0.49898717  0.83270365  1
  Te  Te132  1  0.82566319  0.83161996  0.16649271  1
  Te  Te133  1  0.83006936  0.83184535  0.50706089  1
  Te  Te134  1  0.83311353  0.83492788  0.82756011  1
  Te  Te135  1  0.16730109  0.00466487  -0.00141891  1
  Te  Te136  1  0.16279335  -0.00207459  0.33406001  1
  Te  Te137  1  0.16713454  0.00221769  0.66516975  1
  Te  Te138  1  0.16652333  0.32785379  -0.00296929  1
  Te  Te139  1  0.16642278  0.33354920  0.33263127  1
  Te  Te140  1  0.16921746  0.32964830  0.67160280  1
  Te  Te141  1  0.17143504  0.66453221  -0.00497902  1
  Te  Te142  1  0.16074126  0.67140616  0.33268978  1
  Te  Te143  1  0.16547607  0.66562233  0.67313855  1
  Te  Te144  1  0.49848750  0.00008264  -0.00428982  1
  Te  Te145  1  0.50190984  0.00902139  0.33185555  1
  Te  Te146  1  0.49944335  0.00028535  0.67020769  1
  Te  Te147  1  0.49777989  0.33104390  0.00129809  1
  Te  Te148  1  0.49606086  0.32789912  0.32904617  1
  Te  Te149  1  0.50056772  0.32729019  0.66698756  1
  Te  Te150  1  0.49412699  0.66949775  0.00409547  1
  Te  Te151  1  0.49929294  0.66635234  0.32555462  1
  Te  Te152  1  0.49759984  0.67416592  0.66639508  1
  Te  Te153  1  0.83656784  0.00408172  -0.00762927  1
  Te  Te154  1  0.84254592  0.00040068  0.32839145  1
  Te  Te155  1  0.83390932  0.00339948  0.66906685  1
  Te  Te156  1  0.83351756  0.33129461  0.00081896  1
  Te  Te157  1  0.83614656  0.33603271  0.33424499  1
  Te  Te158  1  0.83009927  0.33025960  0.66453743  1
  Te  Te159  1  0.83468780  0.66470284  -0.00553869  1
  Te  Te160  1  0.83954148  0.66266908  0.33202874  1
  Te  Te161  1  0.83419113  0.66231005  0.67328703  1
  Te  Te162  1  -0.00005526  0.16570361  -0.00066038  1
  Te  Te163  1  0.00028931  0.16641488  0.33563178  1
  Te  Te164  1  0.00271805  0.16422578  0.66833683  1
  Te  Te165  1  -0.00659136  0.49818668  0.00130887  1
  Te  Te166  1  -0.00425588  0.49146299  0.33325983  1
  Te  Te167  1  -0.00758292  0.50078907  0.66594713  1
  Te  Te168  1  -0.00138875  0.83872676  0.00158961  1
  Te  Te169  1  0.00353307  0.83806438  0.33818027  1
  Te  Te170  1  0.00276719  0.83926668  0.66211131  1
  Te  Te171  1  0.33595056  0.16613394  -0.00131399  1
  Te  Te172  1  0.33565543  0.17004537  0.33660860  1
  Te  Te173  1  0.32592542  0.16865282  0.66536030  1
  Te  Te174  1  0.33368657  0.49022546  0.00324836  1
  Te  Te175  1  0.33385932  0.49435021  0.32967372  1
  Te  Te176  1  0.33510019  0.49330760  0.66598943  1
  Te  Te177  1  0.33413477  0.83701736  -0.00301783  1
  Te  Te178  1  0.32883519  0.83398271  0.34213495  1
  Te  Te179  1  0.33029172  0.83341139  0.66616306  1
  Te  Te180  1  0.66170750  0.16996987  -0.00205375  1
  Te  Te181  1  0.66223910  0.16592952  0.33607275  1
  Te  Te182  1  0.66756562  0.16496342  0.66771033  1
  Te  Te183  1  0.67139214  0.49477368  -0.00131639  1
  Te  Te184  1  0.67299134  0.49970082  0.33495812  1
  Te  Te185  1  0.66985674  0.50081780  0.66755318  1
  Te  Te186  1  0.66101083  0.83413829  -0.00403821  1
  Te  Te187  1  0.66683676  0.83373785  0.33858672  1
  Te  Te188  1  0.66613887  0.83507175  0.66995138  1
  Te  Te189  1  0.00418227  -0.00116401  0.15935940  1
  Te  Te190  1  0.00118290  0.00194929  0.50441327  1
  Te  Te191  1  -0.00170979  0.00499770  0.83157495  1
  Te  Te192  1  0.00103816  0.33361372  0.16656516  1
  Te  Te193  1  -0.00388996  0.32802408  0.49795721  1
  Te  Te194  1  0.00706956  0.32704943  0.83770115  1
  Te  Te195  1  0.00087468  0.66709164  0.17274454  1
  Te  Te196  1  -0.00009217  0.66763823  0.49344964  1
  Te  Te197  1  -0.00093551  0.66553985  0.83416153  1
  Te  Te198  1  0.32938550  -0.00519939  0.16258034  1
  Te  Te199  1  0.32814445  0.00135706  0.49762747  1
  Te  Te200  1  0.33698810  -0.00636833  0.83905101  1
  Te  Te201  1  0.33543684  0.33238900  0.16595167  1
  Te  Te202  1  0.33282545  0.32995138  0.50055204  1
  Te  Te203  1  0.33092156  0.33631777  0.83341323  1
  Te  Te204  1  0.33660920  0.67118571  0.16242414  1
  Te  Te205  1  0.33297181  0.66855561  0.49893468  1
  Te  Te206  1  0.33127135  0.66971893  0.83927351  1
  Te  Te207  1  0.66763791  -0.00664374  0.16942859  1
  Te  Te208  1  0.66604134  0.00203335  0.50714653  1
  Te  Te209  1  0.66726874  0.00265022  0.83063212  1
  Te  Te210  1  0.65990572  0.33338839  0.16373506  1
  Te  Te211  1  0.67007272  0.32960254  0.50139692  1
  Te  Te212  1  0.66480670  0.33021418  0.83238172  1
  Te  Te213  1  0.66029663  0.67255376  0.16558316  1
  Te  Te214  1  0.66650000  0.67316336  0.49882055  1
  Te  Te215  1  0.67213090  0.66813682  0.83484792  1
