# generated using pymatgen
data_AgSbTe2
_symmetry_space_group_name_H-M   'P 1'
_cell_length_a   18.32499960
_cell_length_b   18.31859169
_cell_length_c   18.32233338
_cell_angle_alpha   90.00372756
_cell_angle_beta   90.00074348
_cell_angle_gamma   89.99615246
_symmetry_Int_Tables_number   1
_chemical_formula_structural   AgSbTe2
_chemical_formula_sum   'Ag54 Sb54 Te108'
_cell_volume   6150.59081970
_cell_formula_units_Z   54
loop_
 _symmetry_equiv_pos_site_id
 _symmetry_equiv_pos_as_xyz
  1  'x, y, z'
loop_
 _atom_site_type_symbol
 _atom_site_label
 _atom_site_symmetry_multiplicity
 _atom_site_fract_x
 _atom_site_fract_y
 _atom_site_fract_z
 _atom_site_occupancy
  Ag  Ag0  1  0.50060629  0.33211542  0.15594430  1
  Ag  Ag1  1  0.33337831  0.83036869  0.16722857  1
  Ag  Ag2  1  0.82874904  0.81955400  0.67073652  1
  Ag  Ag3  1  0.33551911  0.17715047  0.83529766  1
  Ag  Ag4  1  0.67001574  0.82938600  0.82693588  1
  Ag  Ag5  1  -0.00291791  0.50072231  0.82964619  1
  Ag  Ag6  1  0.33532776  0.33671136  0.66935497  1
  Ag  Ag7  1  0.33313342  0.49486710  0.83057603  1
  Ag  Ag8  1  0.67020091  0.00168787  0.33373841  1
  Ag  Ag9  1  0.15979029  0.16957916  0.33361122  1
  Ag  Ag10  1  0.17353784  0.16855472  0.00011335  1
  Ag  Ag11  1  0.16128022  0.65824422  0.50400982  1
  Ag  Ag12  1  -0.00020330  0.66612924  -0.01290127  1
  Ag  Ag13  1  0.66180846  0.49943185  0.15909511  1
  Ag  Ag14  1  0.17312295  0.33949597  0.82594047  1
  Ag  Ag15  1  0.83377121  0.16846852  0.33922214  1
  Ag  Ag16  1  0.33133918  0.49862169  0.50826490  1
  Ag  Ag17  1  0.50243414  0.49034520  -0.00245306  1
  Ag  Ag18  1  0.50782888  0.00816902  0.84080141  1
  Ag  Ag19  1  0.49948559  0.17038969  -0.00128517  1
  Ag  Ag20  1  0.83660965  0.50593974  0.66756877  1
  Ag  Ag21  1  0.67051449  0.66711548  0.34303409  1
  Ag  Ag22  1  0.82662456  -0.00735267  0.82946820  1
  Ag  Ag23  1  -0.00652760  0.16989232  0.49640412  1
  Ag  Ag24  1  0.00009976  0.34127802  0.66606903  1
  Ag  Ag25  1  0.16799396  0.33773509  0.50884993  1
  Ag  Ag26  1  0.83487376  0.66114272  0.82407854  1
  Ag  Ag27  1  0.67135354  0.16477275  0.49694546  1
  Ag  Ag28  1  0.83121854  0.83315568  -0.01008121  1
  Ag  Ag29  1  0.67405678  0.66502969  0.66586007  1
  Ag  Ag30  1  0.83218953  0.49744807  0.34221217  1
  Ag  Ag31  1  0.15665655  0.65772814  0.83044880  1
  Ag  Ag32  1  0.50390306  0.33284625  0.83395564  1
  Ag  Ag33  1  0.50091778  0.00599967  0.15796207  1
  Ag  Ag34  1  0.33929673  0.50103590  0.16247291  1
  Ag  Ag35  1  0.66860249  0.49463943  0.83225756  1
  Ag  Ag36  1  0.33931383  0.82889646  0.50177895  1
  Ag  Ag37  1  0.34589313  0.00205466  -0.00103249  1
  Ag  Ag38  1  0.66809468  0.83336374  0.50920257  1
  Ag  Ag39  1  0.49917358  0.33237394  0.50633131  1
  Ag  Ag40  1  0.50419811  0.16793020  0.33113699  1
  Ag  Ag41  1  0.66254422  0.33200082  -0.00898650  1
  Ag  Ag42  1  -0.00174119  0.32801876  0.34208293  1
  Ag  Ag43  1  -0.01084824  0.00937080  0.33473654  1
  Ag  Ag44  1  0.82890338  -0.00220497  0.50161365  1
  Ag  Ag45  1  0.00112580  0.83055782  0.16703818  1
  Ag  Ag46  1  0.83408818  0.66904993  0.51129937  1
  Ag  Ag47  1  0.82326259  0.34155482  0.82930004  1
  Ag  Ag48  1  0.16033876  0.49841446  0.67017961  1
  Ag  Ag49  1  0.16538550  0.66539326  0.16447532  1
  Ag  Ag50  1  0.51249371  0.83374210  0.66689650  1
  Ag  Ag51  1  -0.01249778  0.65961248  0.67037868  1
  Ag  Ag52  1  0.66700736  0.34010491  0.67183992  1
  Ag  Ag53  1  0.66279491  0.00354862  -0.00155688  1
  Sb  Sb54  1  0.50599513  0.00364967  0.50073890  1
  Sb  Sb55  1  0.83172536  0.83392493  0.33680949  1
  Sb  Sb56  1  0.50265188  0.66276945  0.50160444  1
  Sb  Sb57  1  0.16364488  0.83424332  -0.00088073  1
  Sb  Sb58  1  -0.00417959  -0.00039523  0.66398503  1
  Sb  Sb59  1  0.00238430  0.49612139  0.50865425  1
  Sb  Sb60  1  0.32891729  0.66841950  -0.00021533  1
  Sb  Sb61  1  0.16304201  0.00296826  0.49818478  1
  Sb  Sb62  1  0.66308421  0.17025446  0.17092974  1
  Sb  Sb63  1  -0.00439301  -0.00326548  0.00335609  1
  Sb  Sb64  1  0.33235243  0.33368303  0.33855193  1
  Sb  Sb65  1  0.50412775  0.83670384  -0.00387098  1
  Sb  Sb66  1  0.83380568  0.33408189  0.50569050  1
  Sb  Sb67  1  0.17132547  -0.00276411  0.16630254  1
  Sb  Sb68  1  0.34099180  0.33043536  -0.00898711  1
  Sb  Sb69  1  0.50221139  0.16834349  0.66934524  1
  Sb  Sb70  1  -0.00466397  0.66357513  0.33768678  1
  Sb  Sb71  1  0.33430256  0.16982964  0.50381420  1
  Sb  Sb72  1  0.33597031  0.00207670  0.67035851  1
  Sb  Sb73  1  0.00280998  0.17404464  0.82832634  1
  Sb  Sb74  1  0.50209494  0.83898663  0.33660154  1
  Sb  Sb75  1  0.17224902  0.33788626  0.16578165  1
  Sb  Sb76  1  0.16669626  0.00268811  0.83513523  1
  Sb  Sb77  1  0.67157081  0.66575460  -0.00504242  1
  Sb  Sb78  1  0.16325893  0.82142006  0.66639470  1
  Sb  Sb79  1  0.82797354  0.33602800  0.16412918  1
  Sb  Sb80  1  0.00154705  0.16297788  0.17336770  1
  Sb  Sb81  1  0.66524867  0.50008220  0.50438584  1
  Sb  Sb82  1  0.33974778  0.83052605  0.83205322  1
  Sb  Sb83  1  0.66742789  -0.00266352  0.66829991  1
  Sb  Sb84  1  0.16559661  0.83513685  0.33364311  1
  Sb  Sb85  1  -0.00439655  0.83495747  0.49741355  1
  Sb  Sb86  1  0.50511402  0.49338129  0.33018135  1
  Sb  Sb87  1  -0.00016967  0.50362411  0.16235343  1
  Sb  Sb88  1  0.66957011  0.33196262  0.33618133  1
  Sb  Sb89  1  0.50224864  0.49891323  0.67140152  1
  Sb  Sb90  1  0.66511155  0.83028013  0.16548823  1
  Sb  Sb91  1  -0.00940588  0.82531076  0.83536466  1
  Sb  Sb92  1  0.33641861  0.16977267  0.16109672  1
  Sb  Sb93  1  0.82938479  0.16396432  0.00073427  1
  Sb  Sb94  1  0.66365091  0.16901970  0.82948596  1
  Sb  Sb95  1  0.83174678  0.17030963  0.66361057  1
  Sb  Sb96  1  0.33677530  0.00225048  0.33005673  1
  Sb  Sb97  1  0.33357416  0.66079797  0.66671773  1
  Sb  Sb98  1  0.82815890  0.50385722  -0.00835119  1
  Sb  Sb99  1  0.33630459  0.66521790  0.33444584  1
  Sb  Sb100  1  0.16160539  0.49692804  0.33810103  1
  Sb  Sb101  1  0.50441996  0.66239992  0.83205246  1
  Sb  Sb102  1  0.82807179  -0.00132596  0.16936129  1
  Sb  Sb103  1  -0.00423767  0.33685380  -0.00524721  1
  Sb  Sb104  1  0.83569975  0.66681607  0.16516035  1
  Sb  Sb105  1  0.17213434  0.49589507  -0.00805048  1
  Sb  Sb106  1  0.16618746  0.17831548  0.66557052  1
  Sb  Sb107  1  0.49803706  0.66442742  0.16605854  1
  Te  Te108  1  0.16894251  0.16766134  0.16714432  1
  Te  Te109  1  0.16621562  0.17102737  0.49606767  1
  Te  Te110  1  0.17037084  0.17083291  0.83623245  1
  Te  Te111  1  0.16971796  0.50540950  0.16641748  1
  Te  Te112  1  0.17014744  0.49822495  0.50270766  1
  Te  Te113  1  0.16885939  0.49980536  0.83174787  1
  Te  Te114  1  0.17003893  0.82830549  0.16652530  1
  Te  Te115  1  0.16967963  0.83060345  0.50011209  1
  Te  Te116  1  0.16765353  0.82785546  0.83322684  1
  Te  Te117  1  0.49968284  0.16798038  0.16445610  1
  Te  Te118  1  0.50205534  0.17071273  0.49806974  1
  Te  Te119  1  0.49786344  0.16800544  0.83569866  1
  Te  Te120  1  0.50049608  0.49743363  0.16410338  1
  Te  Te121  1  0.49278623  0.49370582  0.49871435  1
  Te  Te122  1  0.50116759  0.49643868  0.83643167  1
  Te  Te123  1  0.49525844  0.83535813  0.16667820  1
  Te  Te124  1  0.50197663  0.83390035  0.50356796  1
  Te  Te125  1  0.50615767  0.83326482  0.82909220  1
  Te  Te126  1  0.83344290  0.16736213  0.17513130  1
  Te  Te127  1  0.83231731  0.16668667  0.49770374  1
  Te  Te128  1  0.83497534  0.16446859  0.83387076  1
  Te  Te129  1  0.82980563  0.50018552  0.16961882  1
  Te  Te130  1  0.83317380  0.50340768  0.50265639  1
  Te  Te131  1  0.83022672  0.50052629  0.83125755  1
  Te  Te132  1  0.83550075  0.83373378  0.16210010  1
  Te  Te133  1  0.83010438  0.83287848  0.50315646  1
  Te  Te134  1  0.83052475  0.83395571  0.83102970  1
  Te  Te135  1  0.16649790  0.00708504  0.00021043  1
  Te  Te136  1  0.16400926  0.00713722  0.33262880  1
  Te  Te137  1  0.16558648  -0.00154904  0.66707192  1
  Te  Te138  1  0.16453590  0.32840200  -0.00244463  1
  Te  Te139  1  0.16202393  0.32963014  0.33346994  1
  Te  Te140  1  0.16473341  0.33834661  0.66694485  1
  Te  Te141  1  0.16150687  0.66597266  -0.00176784  1
  Te  Te142  1  0.16550887  0.66605655  0.33903052  1
  Te  Te143  1  0.16718607  0.65825063  0.66538872  1
  Te  Te144  1  0.50277494  -0.00091749  -0.00181027  1
  Te  Te145  1  0.50475950  0.00656106  0.33194774  1
  Te  Te146  1  0.49950068  -0.00497013  0.67331540  1
  Te  Te147  1  0.50234078  0.33058038  -0.00241941  1
  Te  Te148  1  0.50045244  0.32739220  0.33697462  1
  Te  Te149  1  0.50048505  0.33388098  0.66820259  1
  Te  Te150  1  0.49943998  0.66166245  0.00019390  1
  Te  Te151  1  0.50967815  0.66605836  0.33364621  1
  Te  Te152  1  0.50650689  0.67292237  0.66634694  1
  Te  Te153  1  0.82813641  -0.00324917  -0.00211475  1
  Te  Te154  1  0.83044143  0.00121421  0.33594687  1
  Te  Te155  1  0.83411690  -0.00071304  0.66620886  1
  Te  Te156  1  0.82608452  0.33258069  -0.00645763  1
  Te  Te157  1  0.83704342  0.33296164  0.33226295  1
  Te  Te158  1  0.83332235  0.33656785  0.67037715  1
  Te  Te159  1  0.83876708  0.67097177  -0.00276932  1
  Te  Te160  1  0.82973089  0.66372972  0.33522198  1
  Te  Te161  1  0.83127943  0.66390040  0.66722089  1
  Te  Te162  1  0.00107765  0.16653327  0.00043861  1
  Te  Te163  1  -0.00104960  0.16741699  0.33528247  1
  Te  Te164  1  0.00013796  0.17071100  0.65924910  1
  Te  Te165  1  0.00000516  0.50520804  -0.00587689  1
  Te  Te166  1  -0.00638653  0.49471818  0.33110533  1
  Te  Te167  1  -0.00135066  0.49923186  0.66974953  1
  Te  Te168  1  -0.00372746  0.82986288  0.00526644  1
  Te  Te169  1  -0.00043438  0.83677605  0.32857405  1
  Te  Te170  1  -0.00549438  0.82870631  0.66586374  1
  Te  Te171  1  0.33601399  0.16335911  -0.00359613  1
  Te  Te172  1  0.33558954  0.16649621  0.33385945  1
  Te  Te173  1  0.33360089  0.17173334  0.67353223  1
  Te  Te174  1  0.33890510  0.50094828  0.00041131  1
  Te  Te175  1  0.33292546  0.50042775  0.33068049  1
  Te  Te176  1  0.33612528  0.49619589  0.66763510  1
  Te  Te177  1  0.33277577  0.83876689  0.00206349  1
  Te  Te178  1  0.33385823  0.83370293  0.33404431  1
  Te  Te179  1  0.33211141  0.83315179  0.66228393  1
  Te  Te180  1  0.66351096  0.16639258  0.00175100  1
  Te  Te181  1  0.66728009  0.16467617  0.33617769  1
  Te  Te182  1  0.66610327  0.17504639  0.65759702  1
  Te  Te183  1  0.66366213  0.49891089  -0.00236108  1
  Te  Te184  1  0.67147649  0.50106650  0.33481510  1
  Te  Te185  1  0.66776606  0.50078230  0.67034133  1
  Te  Te186  1  0.67056314  0.83609355  -0.00288514  1
  Te  Te187  1  0.66648988  0.83474036  0.33512831  1
  Te  Te188  1  0.66935799  0.83440696  0.66690949  1
  Te  Te189  1  0.00027656  -0.00598446  0.17180393  1
  Te  Te190  1  -0.00512185  0.00406634  0.49590928  1
  Te  Te191  1  -0.00441574  0.00146342  0.83385801  1
  Te  Te192  1  0.00106365  0.33359414  0.16656752  1
  Te  Te193  1  0.00047893  0.33116470  0.50166185  1
  Te  Te194  1  0.00033568  0.33848760  0.82958980  1
  Te  Te195  1  0.00475512  0.66976742  0.17020128  1
  Te  Te196  1  -0.00047598  0.66769600  0.50467665  1
  Te  Te197  1  -0.00192658  0.66418700  0.83040992  1
  Te  Te198  1  0.33867659  -0.00244083  0.16285178  1
  Te  Te199  1  0.33388504  -0.00549522  0.50012240  1
  Te  Te200  1  0.33490652  -0.00099295  0.83828934  1
  Te  Te201  1  0.33978482  0.33966866  0.16772469  1
  Te  Te202  1  0.33203801  0.33480024  0.50544152  1
  Te  Te203  1  0.33325403  0.33599610  0.83127427  1
  Te  Te204  1  0.32842625  0.66677695  0.16739883  1
  Te  Te205  1  0.33167873  0.66610388  0.49962576  1
  Te  Te206  1  0.33036468  0.66119327  0.83376129  1
  Te  Te207  1  0.66097233  -0.00129054  0.16714699  1
  Te  Te208  1  0.66970459  -0.00056439  0.49951910  1
  Te  Te209  1  0.66725693  0.00339226  0.83427130  1
  Te  Te210  1  0.66098231  0.33930268  0.16443480  1
  Te  Te211  1  0.66439323  0.33172826  0.50389657  1
  Te  Te212  1  0.66465875  0.33163861  0.83252682  1
  Te  Te213  1  0.66672111  0.66111397  0.16752599  1
  Te  Te214  1  0.66901252  0.66750359  0.50233001  1
  Te  Te215  1  0.67018515  0.66723018  0.83037406  1
