# generated using pymatgen
data_AgSbTe2
_symmetry_space_group_name_H-M   'P 1'
_cell_length_a   18.34855088
_cell_length_b   18.33890656
_cell_length_c   18.34155096
_cell_angle_alpha   90.00025226
_cell_angle_beta   90.00281798
_cell_angle_gamma   90.00322448
_symmetry_Int_Tables_number   1
_chemical_formula_structural   AgSbTe2
_chemical_formula_sum   'Ag54 Sb54 Te108'
_cell_volume   6171.79175414
_cell_formula_units_Z   54
loop_
 _symmetry_equiv_pos_site_id
 _symmetry_equiv_pos_as_xyz
  1  'x, y, z'
loop_
 _atom_site_type_symbol
 _atom_site_label
 _atom_site_symmetry_multiplicity
 _atom_site_fract_x
 _atom_site_fract_y
 _atom_site_fract_z
 _atom_site_occupancy
  Ag  Ag0  1  0.82463671  -0.00518074  0.83236835  1
  Ag  Ag1  1  0.49807591  -0.00476073  0.50518906  1
  Ag  Ag2  1  0.50329870  0.50357449  0.65992014  1
  Ag  Ag3  1  0.16891055  0.66842129  0.83624871  1
  Ag  Ag4  1  0.67084378  0.50030629  0.49763552  1
  Ag  Ag5  1  -0.00118869  0.50042298  0.17183973  1
  Ag  Ag6  1  0.33233883  0.50570198  0.17697991  1
  Ag  Ag7  1  0.83035935  0.83159994  0.00094119  1
  Ag  Ag8  1  0.33550095  0.83230044  0.50210271  1
  Ag  Ag9  1  0.83071253  0.66948944  0.83497082  1
  Ag  Ag10  1  0.33360871  0.34514092  0.33689738  1
  Ag  Ag11  1  0.83863698  0.33702142  0.17792441  1
  Ag  Ag12  1  0.67667843  0.34350046  0.33799160  1
  Ag  Ag13  1  0.82877018  0.50333838  0.65367914  1
  Ag  Ag14  1  0.49938665  0.82799860  0.33620168  1
  Ag  Ag15  1  0.15582234  0.34699337  0.17290966  1
  Ag  Ag16  1  -0.01551768  0.50162005  0.49309290  1
  Ag  Ag17  1  0.83369001  0.18175683  0.33363902  1
  Ag  Ag18  1  0.33858192  -0.00944854  -0.00399435  1
  Ag  Ag19  1  0.66826141  0.34197272  0.65515269  1
  Ag  Ag20  1  0.50146306  0.66569355  0.17741526  1
  Ag  Ag21  1  0.50668332  -0.00810438  0.82570123  1
  Ag  Ag22  1  -0.01175417  0.33693509  0.32953974  1
  Ag  Ag23  1  0.33963498  -0.00436839  0.65824306  1
  Ag  Ag24  1  0.34108736  0.66232018  0.33041262  1
  Ag  Ag25  1  0.66781369  -0.00776657  -0.00472391  1
  Ag  Ag26  1  0.67077934  0.82267444  0.16506972  1
  Ag  Ag27  1  0.00106524  0.66377022  0.66964711  1
  Ag  Ag28  1  0.16736540  0.50613196  0.66171922  1
  Ag  Ag29  1  0.67020532  0.50519805  0.17891194  1
  Ag  Ag30  1  0.66819624  0.15780259  0.83346118  1
  Ag  Ag31  1  0.82448235  0.34607128  0.48911710  1
  Ag  Ag32  1  -0.00397948  0.34524871  0.01159902  1
  Ag  Ag33  1  0.66873485  0.67014181  0.00814981  1
  Ag  Ag34  1  0.16557407  0.17047984  0.33277344  1
  Ag  Ag35  1  0.49960760  0.67179382  0.83329345  1
  Ag  Ag36  1  0.33403997  0.83116419  0.83005945  1
  Ag  Ag37  1  0.83205888  0.16270773  0.00214096  1
  Ag  Ag38  1  0.17774757  -0.00112899  0.49826865  1
  Ag  Ag39  1  0.50823387  0.34894759  0.49695501  1
  Ag  Ag40  1  0.82571422  0.65664263  0.50248611  1
  Ag  Ag41  1  -0.00380774  0.66474965  0.00252160  1
  Ag  Ag42  1  0.50088802  0.66488940  0.49601988  1
  Ag  Ag43  1  -0.00285525  0.81982246  0.16530211  1
  Ag  Ag44  1  0.66266071  0.66249559  0.32558407  1
  Ag  Ag45  1  0.33581397  0.67023641  0.00632357  1
  Ag  Ag46  1  0.17039278  0.82581784  0.66442747  1
  Ag  Ag47  1  0.17223201  0.66446683  0.16454672  1
  Ag  Ag48  1  0.33794051  0.50393786  0.49504810  1
  Ag  Ag49  1  0.33405103  0.15815787  0.49711650  1
  Ag  Ag50  1  0.16772596  -0.00537981  0.17180069  1
  Ag  Ag51  1  0.82984411  0.49710640  0.33847488  1
  Ag  Ag52  1  0.82612210  0.00046448  0.50368008  1
  Ag  Ag53  1  0.66289002  0.00131732  0.66985934  1
  Sb  Sb54  1  0.83408409  0.50312045  0.00300370  1
  Sb  Sb55  1  0.50512520  0.16259928  -0.00186711  1
  Sb  Sb56  1  0.67174145  0.33623008  0.00411720  1
  Sb  Sb57  1  0.33101845  0.67038237  0.66462350  1
  Sb  Sb58  1  0.16874198  -0.00672666  0.83119843  1
  Sb  Sb59  1  0.82964161  0.82729112  0.33093343  1
  Sb  Sb60  1  0.83142039  0.66156152  0.16665512  1
  Sb  Sb61  1  0.49747448  -0.00838566  0.16715880  1
  Sb  Sb62  1  0.16237652  0.16470581  0.00539324  1
  Sb  Sb63  1  0.32957142  0.33637457  0.00957826  1
  Sb  Sb64  1  0.00023952  0.00442007  0.33304440  1
  Sb  Sb65  1  0.00167186  0.82919648  0.83745374  1
  Sb  Sb66  1  0.49663072  0.83107432  0.66368635  1
  Sb  Sb67  1  -0.00327760  -0.00507372  0.00241106  1
  Sb  Sb68  1  0.50378609  0.82937377  0.00335757  1
  Sb  Sb69  1  0.33771127  0.33363171  0.65691650  1
  Sb  Sb70  1  0.17006339  0.66664198  0.49793817  1
  Sb  Sb71  1  0.66233921  0.82873552  0.49601861  1
  Sb  Sb72  1  0.33330450  0.82655400  0.16794061  1
  Sb  Sb73  1  -0.00033730  0.17311824  0.16817626  1
  Sb  Sb74  1  0.66748376  -0.00051326  0.33457890  1
  Sb  Sb75  1  -0.00157906  0.65952830  0.33120512  1
  Sb  Sb76  1  0.66792033  0.50112526  0.83007678  1
  Sb  Sb77  1  -0.00027590  0.17208077  0.49784177  1
  Sb  Sb78  1  0.33345296  0.50907892  0.83126147  1
  Sb  Sb79  1  0.33795229  0.15649524  0.82883755  1
  Sb  Sb80  1  0.33354148  -0.00315190  0.33612746  1
  Sb  Sb81  1  0.83593930  0.00223960  0.16622701  1
  Sb  Sb82  1  -0.00134911  0.50403729  0.83191741  1
  Sb  Sb83  1  -0.00024238  -0.00766685  0.66438465  1
  Sb  Sb84  1  0.16689427  0.34140895  0.83825045  1
  Sb  Sb85  1  0.83093717  0.16914878  0.66371235  1
  Sb  Sb86  1  0.16899146  0.16602241  0.66037189  1
  Sb  Sb87  1  0.16533761  0.50479641  0.00294667  1
  Sb  Sb88  1  0.66807194  0.66664530  0.66598328  1
  Sb  Sb89  1  0.50684858  0.50701611  0.34228431  1
  Sb  Sb90  1  0.16575743  0.83076145  -0.00028626  1
  Sb  Sb91  1  0.66890275  0.16895385  0.16553080  1
  Sb  Sb92  1  0.00185179  0.82740226  0.49547305  1
  Sb  Sb93  1  0.83603140  0.82868636  0.66938843  1
  Sb  Sb94  1  -0.00494281  0.34436910  0.66110214  1
  Sb  Sb95  1  0.50151162  0.33496735  0.82498433  1
  Sb  Sb96  1  0.17123963  0.83403217  0.33442785  1
  Sb  Sb97  1  -0.00685180  0.16577258  0.83582205  1
  Sb  Sb98  1  0.83168258  0.33539705  0.83168524  1
  Sb  Sb99  1  0.50268173  0.34568278  0.17718240  1
  Sb  Sb100  1  0.66457237  0.17084317  0.50186134  1
  Sb  Sb101  1  0.33068170  0.16905994  0.17298018  1
  Sb  Sb102  1  0.66278996  0.83501451  0.83662198  1
  Sb  Sb103  1  0.50050496  0.50387848  -0.00303209  1
  Sb  Sb104  1  0.50260407  0.16541542  0.66318557  1
  Sb  Sb105  1  0.16651174  0.49622247  0.33528274  1
  Sb  Sb106  1  0.50052279  0.16501107  0.33627733  1
  Sb  Sb107  1  0.16690081  0.33328836  0.49350099  1
  Te  Te108  1  0.16633311  0.16005231  0.17213052  1
  Te  Te109  1  0.16917383  0.16259148  0.49566501  1
  Te  Te110  1  0.16724130  0.16713951  0.83411171  1
  Te  Te111  1  0.16624518  0.50334593  0.16724491  1
  Te  Te112  1  0.17664836  0.49941838  0.50319832  1
  Te  Te113  1  0.16631117  0.50814602  0.82516897  1
  Te  Te114  1  0.16309208  0.83083416  0.16728791  1
  Te  Te115  1  0.16925208  0.83699620  0.50169396  1
  Te  Te116  1  0.17129974  0.82822835  0.82829090  1
  Te  Te117  1  0.49940369  0.16735198  0.16671865  1
  Te  Te118  1  0.49474279  0.15595760  0.49894246  1
  Te  Te119  1  0.50611563  0.16093995  0.83196714  1
  Te  Te120  1  0.49918777  0.50761902  0.16399927  1
  Te  Te121  1  0.49702011  0.50412982  0.50295929  1
  Te  Te122  1  0.50015590  0.50403039  0.82383081  1
  Te  Te123  1  0.50439173  0.82590618  0.17208016  1
  Te  Te124  1  0.49714774  0.83160047  0.49766262  1
  Te  Te125  1  0.49434515  0.83308323  0.83274493  1
  Te  Te126  1  0.83336282  0.17131852  0.16840234  1
  Te  Te127  1  0.83277108  0.15958497  0.49655156  1
  Te  Te128  1  0.82884829  0.16431225  0.83580678  1
  Te  Te129  1  0.83254878  0.49629623  0.16790534  1
  Te  Te130  1  0.82903267  0.50105031  0.49866682  1
  Te  Te131  1  0.83294142  0.50692687  0.82956097  1
  Te  Te132  1  0.83291365  0.83512132  0.16358732  1
  Te  Te133  1  0.83360355  0.84022199  0.49979692  1
  Te  Te134  1  0.83479947  0.83084021  0.83701214  1
  Te  Te135  1  0.16976534  -0.00097025  0.00122882  1
  Te  Te136  1  0.16660980  0.00427066  0.33457107  1
  Te  Te137  1  0.16816747  -0.00183744  0.66279702  1
  Te  Te138  1  0.16057776  0.33315822  0.00829226  1
  Te  Te139  1  0.17459193  0.32972359  0.32963187  1
  Te  Te140  1  0.16505141  0.33753703  0.66914145  1
  Te  Te141  1  0.16636356  0.66754941  0.00008508  1
  Te  Te142  1  0.16945036  0.66746945  0.32705665  1
  Te  Te143  1  0.16489773  0.66619914  0.66429837  1
  Te  Te144  1  0.50039108  -0.00191754  -0.00127089  1
  Te  Te145  1  0.50136046  -0.00635742  0.33606569  1
  Te  Te146  1  0.49952117  -0.00080501  0.66716792  1
  Te  Te147  1  0.50015615  0.33253871  -0.00043538  1
  Te  Te148  1  0.49286028  0.33014000  0.34017300  1
  Te  Te149  1  0.50556867  0.33702069  0.65854693  1
  Te  Te150  1  0.49982715  0.66647462  -0.00727933  1
  Te  Te151  1  0.50126400  0.66744728  0.33524619  1
  Te  Te152  1  0.50078457  0.66488125  0.66783728  1
  Te  Te153  1  0.83084428  -0.00108145  -0.00043808  1
  Te  Te154  1  0.83344478  -0.00066383  0.33706480  1
  Te  Te155  1  0.83254747  -0.00014469  0.66905491  1
  Te  Te156  1  0.83649216  0.33081857  -0.00150521  1
  Te  Te157  1  0.83245704  0.33671825  0.33404685  1
  Te  Te158  1  0.82862847  0.33777470  0.66355857  1
  Te  Te159  1  0.83230798  0.66817106  -0.00142759  1
  Te  Te160  1  0.82958712  0.66242513  0.34061720  1
  Te  Te161  1  0.83546260  0.66491487  0.66504183  1
  Te  Te162  1  -0.00704496  0.16595360  0.00044939  1
  Te  Te163  1  -0.00122837  0.17390134  0.33419129  1
  Te  Te164  1  0.00077420  0.16916642  0.66783539  1
  Te  Te165  1  -0.00040236  0.50333300  0.00484183  1
  Te  Te166  1  -0.00210403  0.49675839  0.33364322  1
  Te  Te167  1  0.00046848  0.50521975  0.66385976  1
  Te  Te168  1  -0.00458494  0.82743090  0.00460069  1
  Te  Te169  1  -0.00019589  0.83270436  0.32571835  1
  Te  Te170  1  0.00697024  0.82538197  0.66523399  1
  Te  Te171  1  0.33279065  0.16445600  -0.00074308  1
  Te  Te172  1  0.33124858  0.16582829  0.33806533  1
  Te  Te173  1  0.33380431  0.15983296  0.66012004  1
  Te  Te174  1  0.33311890  0.50586275  0.00221085  1
  Te  Te175  1  0.33163323  0.50367253  0.33369164  1
  Te  Te176  1  0.33269458  0.49905215  0.66399591  1
  Te  Te177  1  0.33253081  0.83115000  -0.00081631  1
  Te  Te178  1  0.33711783  0.82711116  0.33685875  1
  Te  Te179  1  0.33052314  0.83625332  0.66471340  1
  Te  Te180  1  0.67198861  0.16605543  -0.00261509  1
  Te  Te181  1  0.67131978  0.17017520  0.33335862  1
  Te  Te182  1  0.66815254  0.16153829  0.67148276  1
  Te  Te183  1  0.66661967  0.50580628  0.00129225  1
  Te  Te184  1  0.66738652  0.50126887  0.33572482  1
  Te  Te185  1  0.66717475  0.50060918  0.66403307  1
  Te  Te186  1  0.66953117  0.83193874  0.00285582  1
  Te  Te187  1  0.66323359  0.82944962  0.32762557  1
  Te  Te188  1  0.66842571  0.84201646  0.66475514  1
  Te  Te189  1  0.00633208  -0.00337760  0.16646999  1
  Te  Te190  1  -0.00163105  -0.00040351  0.50013834  1
  Te  Te191  1  -0.00668655  -0.00183188  0.83368199  1
  Te  Te192  1  -0.00007418  0.33639772  0.16874353  1
  Te  Te193  1  -0.00267610  0.33984520  0.49537791  1
  Te  Te194  1  0.00099295  0.33383790  0.84080862  1
  Te  Te195  1  -0.00177588  0.66168788  0.16590604  1
  Te  Te196  1  -0.00162120  0.66199247  0.50021095  1
  Te  Te197  1  0.00022536  0.66748410  0.83599596  1
  Te  Te198  1  0.32990230  -0.00146709  0.16283629  1
  Te  Te199  1  0.33550654  -0.00334158  0.49870820  1
  Te  Te200  1  0.33444044  -0.00562699  0.83527576  1
  Te  Te201  1  0.33274501  0.33983127  0.17234624  1
  Te  Te202  1  0.33392377  0.33768694  0.49745534  1
  Te  Te203  1  0.33370721  0.33102625  0.83590474  1
  Te  Te204  1  0.33373298  0.66631279  0.16586401  1
  Te  Te205  1  0.33510652  0.66840312  0.49809112  1
  Te  Te206  1  0.33345122  0.67083392  0.83478030  1
  Te  Te207  1  0.66667760  -0.00059989  0.16194973  1
  Te  Te208  1  0.66377854  0.00003746  0.50100562  1
  Te  Te209  1  0.66692661  -0.00273441  0.83541128  1
  Te  Te210  1  0.67001289  0.33936038  0.17230680  1
  Te  Te211  1  0.66625583  0.33281791  0.49852836  1
  Te  Te212  1  0.66510986  0.32874554  0.83236057  1
  Te  Te213  1  0.66796682  0.66480342  0.16652072  1
  Te  Te214  1  0.66520712  0.66415687  0.50103973  1
  Te  Te215  1  0.66634254  0.66761401  0.83477505  1
