# generated using pymatgen
data_AgSbTe2
_symmetry_space_group_name_H-M   'P 1'
_cell_length_a   18.34709914
_cell_length_b   18.35278459
_cell_length_c   18.34503756
_cell_angle_alpha   90.00133172
_cell_angle_beta   90.00204466
_cell_angle_gamma   90.00103079
_symmetry_Int_Tables_number   1
_chemical_formula_structural   AgSbTe2
_chemical_formula_sum   'Ag54 Sb54 Te108'
_cell_volume   6177.14761413
_cell_formula_units_Z   54
loop_
 _symmetry_equiv_pos_site_id
 _symmetry_equiv_pos_as_xyz
  1  'x, y, z'
loop_
 _atom_site_type_symbol
 _atom_site_label
 _atom_site_symmetry_multiplicity
 _atom_site_fract_x
 _atom_site_fract_y
 _atom_site_fract_z
 _atom_site_occupancy
  Ag  Ag0  1  0.51749432  0.50916036  0.66410365  1
  Ag  Ag1  1  0.17064115  0.33556646  0.50238438  1
  Ag  Ag2  1  0.66256487  0.16470023  0.50790555  1
  Ag  Ag3  1  0.50555475  0.00393926  0.16318307  1
  Ag  Ag4  1  0.82436467  -0.00213774  0.16219209  1
  Ag  Ag5  1  0.33770506  0.66300262  0.34478597  1
  Ag  Ag6  1  0.15039741  0.49666390  0.66255388  1
  Ag  Ag7  1  0.16906324  0.84611944  -0.00396566  1
  Ag  Ag8  1  0.34718532  0.83061408  0.50098151  1
  Ag  Ag9  1  0.16178202  0.16996435  0.66797684  1
  Ag  Ag10  1  0.33604208  0.32249394  0.00150447  1
  Ag  Ag11  1  0.50003837  0.15983190  0.00143391  1
  Ag  Ag12  1  0.82136149  0.33569752  0.50350126  1
  Ag  Ag13  1  0.00033455  0.16194042  0.83086153  1
  Ag  Ag14  1  0.33523268  0.33653038  0.33541159  1
  Ag  Ag15  1  0.00139095  0.82106151  0.50380619  1
  Ag  Ag16  1  0.66277488  0.50159798  0.81859191  1
  Ag  Ag17  1  0.82117842  0.16246002  -0.00105983  1
  Ag  Ag18  1  0.00177848  0.49801847  0.82154991  1
  Ag  Ag19  1  0.66803388  0.34537472  0.66275920  1
  Ag  Ag20  1  0.00626421  0.00289357  -0.00941208  1
  Ag  Ag21  1  0.49994609  0.16157091  0.33631122  1
  Ag  Ag22  1  0.50098462  0.33445876  0.49991784  1
  Ag  Ag23  1  0.66192605  -0.00050170  -0.00610014  1
  Ag  Ag24  1  0.16934243  0.49750059  0.34463518  1
  Ag  Ag25  1  0.65746838  0.67134944  0.34928404  1
  Ag  Ag26  1  -0.00234830  0.66665994  0.34606925  1
  Ag  Ag27  1  0.17159276  0.16962951  0.34060076  1
  Ag  Ag28  1  0.83295099  0.49967143  0.66473356  1
  Ag  Ag29  1  0.50516608  0.67442994  0.50240517  1
  Ag  Ag30  1  0.66235452  0.84247843  0.82420565  1
  Ag  Ag31  1  0.33932409  0.00189426  -0.00312115  1
  Ag  Ag32  1  0.50132329  0.84207613  0.34380208  1
  Ag  Ag33  1  -0.00400169  -0.00026875  0.66997731  1
  Ag  Ag34  1  0.65941394  -0.00386831  0.34464010  1
  Ag  Ag35  1  0.16848535  0.00308270  0.83561976  1
  Ag  Ag36  1  0.17059405  0.16289493  -0.01048527  1
  Ag  Ag37  1  0.50644937  0.00132719  0.83431786  1
  Ag  Ag38  1  0.33619944  0.50183629  0.82864272  1
  Ag  Ag39  1  0.66356273  -0.00189971  0.66795205  1
  Ag  Ag40  1  0.33936032  0.66839027  -0.00283797  1
  Ag  Ag41  1  0.49948654  0.32607637  0.17579704  1
  Ag  Ag42  1  0.50427031  -0.01260009  0.50120453  1
  Ag  Ag43  1  -0.00485063  0.34442218  0.66381129  1
  Ag  Ag44  1  0.34369328  0.66201384  0.66143793  1
  Ag  Ag45  1  0.65757944  0.83107551  0.50562821  1
  Ag  Ag46  1  0.50453292  0.82789982  0.65635412  1
  Ag  Ag47  1  0.66695417  0.15793708  0.82756881  1
  Ag  Ag48  1  0.66449991  0.50167666  0.50599943  1
  Ag  Ag49  1  0.83042882  0.66966637  0.16784917  1
  Ag  Ag50  1  -0.00244481  0.50287661  0.51082413  1
  Ag  Ag51  1  -0.00099791  0.65523012  0.66300310  1
  Ag  Ag52  1  0.66148205  0.65856975  0.66600432  1
  Ag  Ag53  1  0.66108411  0.67287355  -0.00742123  1
  Sb  Sb54  1  0.17228445  0.83448940  0.33414854  1
  Sb  Sb55  1  0.00805179  0.33831086  0.34369987  1
  Sb  Sb56  1  0.49910430  0.49801215  -0.00831841  1
  Sb  Sb57  1  0.82964535  0.00237887  0.83653774  1
  Sb  Sb58  1  0.16975582  0.49585393  -0.00641822  1
  Sb  Sb59  1  0.33782890  0.83126693  0.83022101  1
  Sb  Sb60  1  0.33623292  0.83310115  0.16851796  1
  Sb  Sb61  1  -0.00057523  0.83457183  0.17026588  1
  Sb  Sb62  1  0.83288315  0.33244644  0.82653494  1
  Sb  Sb63  1  0.16529468  0.66637698  0.16879264  1
  Sb  Sb64  1  0.34025450  0.16520834  0.49992538  1
  Sb  Sb65  1  0.00527424  0.32572471  -0.00935906  1
  Sb  Sb66  1  0.50187640  0.67101122  0.82597496  1
  Sb  Sb67  1  0.66293663  0.16292481  0.16529784  1
  Sb  Sb68  1  0.82475212  0.82974450  0.66393940  1
  Sb  Sb69  1  0.82882442  0.16510775  0.33190158  1
  Sb  Sb70  1  0.16962356  0.00217740  0.15968911  1
  Sb  Sb71  1  0.82439004  0.00359458  0.49947935  1
  Sb  Sb72  1  -0.00109934  0.67063403  -0.00410624  1
  Sb  Sb73  1  -0.00280923  0.17082973  0.50717639  1
  Sb  Sb74  1  -0.00055362  0.16494144  0.15958859  1
  Sb  Sb75  1  0.65905426  0.33213422  0.34421795  1
  Sb  Sb76  1  0.34085527  0.00053626  0.33032623  1
  Sb  Sb77  1  0.82565926  0.33226323  0.17069399  1
  Sb  Sb78  1  0.33474281  0.50416841  0.50689059  1
  Sb  Sb79  1  0.83325743  0.83940571  -0.00011451  1
  Sb  Sb80  1  0.83114457  0.49674292  -0.00695327  1
  Sb  Sb81  1  0.17042523  0.00468574  0.50505870  1
  Sb  Sb82  1  0.83319819  0.16934756  0.67087950  1
  Sb  Sb83  1  -0.00333057  0.83644015  0.82735129  1
  Sb  Sb84  1  0.49871791  0.83831668  -0.00161975  1
  Sb  Sb85  1  0.33408389  0.16806547  0.83368114  1
  Sb  Sb86  1  0.16815061  0.66187380  0.50119896  1
  Sb  Sb87  1  0.33759044  -0.00409331  0.66978535  1
  Sb  Sb88  1  0.83549829  0.50181874  0.34155144  1
  Sb  Sb89  1  0.50183757  0.16510336  0.66508302  1
  Sb  Sb90  1  0.16730713  0.32898782  0.82510451  1
  Sb  Sb91  1  0.16796424  0.66827653  0.83148062  1
  Sb  Sb92  1  0.50043804  0.32971017  0.82924882  1
  Sb  Sb93  1  0.66481244  0.83563113  0.16895696  1
  Sb  Sb94  1  0.49616962  0.49957374  0.34278115  1
  Sb  Sb95  1  0.50357078  0.66897319  0.17267198  1
  Sb  Sb96  1  0.33469181  0.33987063  0.66472251  1
  Sb  Sb97  1  -0.00059055  0.50103191  0.17016768  1
  Sb  Sb98  1  0.16908744  0.83301904  0.66831631  1
  Sb  Sb99  1  0.66472221  0.50365600  0.17155744  1
  Sb  Sb100  1  0.17227216  0.33129780  0.17127974  1
  Sb  Sb101  1  0.82469251  0.83154727  0.33672855  1
  Sb  Sb102  1  0.82903094  0.66454268  0.83275442  1
  Sb  Sb103  1  0.33657875  0.16598406  0.16510366  1
  Sb  Sb104  1  0.66112304  0.32913890  -0.00744623  1
  Sb  Sb105  1  0.33478015  0.50019125  0.16552836  1
  Sb  Sb106  1  0.82716857  0.66237515  0.49923745  1
  Sb  Sb107  1  -0.00356606  -0.00305918  0.33670490  1
  Te  Te108  1  0.16597564  0.16683353  0.17211563  1
  Te  Te109  1  0.16697233  0.17093327  0.50142109  1
  Te  Te110  1  0.16603429  0.16380163  0.83135622  1
  Te  Te111  1  0.16597092  0.49867133  0.17457580  1
  Te  Te112  1  0.16794301  0.49689598  0.50257582  1
  Te  Te113  1  0.16409342  0.49933553  0.82727605  1
  Te  Te114  1  0.16723397  0.83422557  0.15722000  1
  Te  Te115  1  0.15920498  0.83607939  0.50011849  1
  Te  Te116  1  0.16605613  0.84005722  0.83671528  1
  Te  Te117  1  0.50071913  0.16508517  0.16728853  1
  Te  Te118  1  0.50357830  0.17298298  0.49829041  1
  Te  Te119  1  0.50341035  0.16232090  0.83494207  1
  Te  Te120  1  0.50004069  0.49437878  0.16502789  1
  Te  Te121  1  0.50161144  0.49821076  0.50517074  1
  Te  Te122  1  0.50060052  0.49977194  0.82570828  1
  Te  Te123  1  0.49985871  0.83867841  0.17669021  1
  Te  Te124  1  0.50284997  0.83093516  0.49991857  1
  Te  Te125  1  0.50408274  0.83992961  0.83079466  1
  Te  Te126  1  0.83231196  0.16371046  0.16075646  1
  Te  Te127  1  0.82630531  0.17272284  0.49972360  1
  Te  Te128  1  0.83326075  0.16782492  0.83987830  1
  Te  Te129  1  0.83300388  0.50180807  0.16610776  1
  Te  Te130  1  0.83382561  0.49642982  0.50370885  1
  Te  Te131  1  0.83490679  0.49842454  0.82829177  1
  Te  Te132  1  0.83338609  0.83385789  0.16769993  1
  Te  Te133  1  0.84377791  0.83644736  0.49973432  1
  Te  Te134  1  0.82275405  0.83205291  0.83319109  1
  Te  Te135  1  0.16618045  0.00452045  -0.00123495  1
  Te  Te136  1  0.16771109  0.00571423  0.33151366  1
  Te  Te137  1  0.16800585  0.00201623  0.67148188  1
  Te  Te138  1  0.17364040  0.32741173  0.00257388  1
  Te  Te139  1  0.17272891  0.33263760  0.33697076  1
  Te  Te140  1  0.16723976  0.33404925  0.66307277  1
  Te  Te141  1  0.16907628  0.66560490  0.00058638  1
  Te  Te142  1  0.17127476  0.66539843  0.33194843  1
  Te  Te143  1  0.16109348  0.66344024  0.66698402  1
  Te  Te144  1  0.50066416  -0.00039524  -0.00094583  1
  Te  Te145  1  0.50166478  0.00233362  0.33718075  1
  Te  Te146  1  0.50111338  -0.00056726  0.66464458  1
  Te  Te147  1  0.49509674  0.33028224  -0.00041325  1
  Te  Te148  1  0.49614395  0.33268924  0.33459969  1
  Te  Te149  1  0.50302779  0.33285908  0.66196305  1
  Te  Te150  1  0.50093471  0.66713462  0.00378759  1
  Te  Te151  1  0.49941153  0.66506015  0.33707413  1
  Te  Te152  1  0.50179514  0.66756676  0.66413382  1
  Te  Te153  1  0.82908172  0.00329479  0.00275014  1
  Te  Te154  1  0.82654534  0.00008338  0.32580292  1
  Te  Te155  1  0.83433087  0.00026320  0.66592839  1
  Te  Te156  1  0.83451375  0.32537989  0.00327659  1
  Te  Te157  1  0.83469842  0.33304547  0.33942798  1
  Te  Te158  1  0.83250721  0.33499447  0.66149003  1
  Te  Te159  1  0.83037231  0.66639346  0.00454633  1
  Te  Te160  1  0.83534073  0.66673534  0.32899197  1
  Te  Te161  1  0.83610106  0.66333569  0.66613543  1
  Te  Te162  1  0.00901592  0.16234768  -0.00644506  1
  Te  Te163  1  0.00262264  0.16765954  0.33326482  1
  Te  Te164  1  0.00002092  0.15956712  0.67127145  1
  Te  Te165  1  0.00079024  0.49853890  -0.00498146  1
  Te  Te166  1  0.00578880  0.50594486  0.33723501  1
  Te  Te167  1  -0.00480913  0.49970255  0.66623630  1
  Te  Te168  1  0.00426854  0.83892362  -0.00129788  1
  Te  Te169  1  0.00286541  0.82742111  0.33779135  1
  Te  Te170  1  0.00091894  0.84000810  0.66473104  1
  Te  Te171  1  0.33582014  0.16432101  -0.00135860  1
  Te  Te172  1  0.33407291  0.16923487  0.33366692  1
  Te  Te173  1  0.32441095  0.16801954  0.66697886  1
  Te  Te174  1  0.33252768  0.50692493  -0.00648558  1
  Te  Te175  1  0.32969235  0.50218752  0.33259305  1
  Te  Te176  1  0.33214851  0.50350327  0.67086991  1
  Te  Te177  1  0.33122293  0.83145132  -0.00127383  1
  Te  Te178  1  0.33646412  0.82923232  0.33814812  1
  Te  Te179  1  0.33695871  0.82677285  0.66254025  1
  Te  Te180  1  0.66141026  0.16541869  -0.00370098  1
  Te  Te181  1  0.66208237  0.16400380  0.33747785  1
  Te  Te182  1  0.66695039  0.15746528  0.66798003  1
  Te  Te183  1  0.66708141  0.50097173  -0.00195396  1
  Te  Te184  1  0.66690312  0.50675817  0.33932058  1
  Te  Te185  1  0.67178033  0.50113134  0.66395580  1
  Te  Te186  1  0.66576963  0.83311276  -0.00228216  1
  Te  Te187  1  0.66180520  0.83196615  0.33741660  1
  Te  Te188  1  0.66486179  0.83774465  0.66507034  1
  Te  Te189  1  -0.00415126  -0.00042320  0.16507642  1
  Te  Te190  1  0.00007278  0.00238545  0.50282544  1
  Te  Te191  1  0.00066138  0.00024879  0.83309933  1
  Te  Te192  1  -0.00327744  0.33387190  0.16682535  1
  Te  Te193  1  0.00717287  0.33741526  0.50589535  1
  Te  Te194  1  0.00031788  0.33302971  0.82525281  1
  Te  Te195  1  -0.00617648  0.66696615  0.16619936  1
  Te  Te196  1  -0.00037686  0.66225357  0.50223940  1
  Te  Te197  1  -0.00100863  0.66445828  0.82823101  1
  Te  Te198  1  0.34067817  -0.00111233  0.15887098  1
  Te  Te199  1  0.33888887  -0.00677088  0.49959829  1
  Te  Te200  1  0.33258154  -0.00058699  0.83705321  1
  Te  Te201  1  0.33943989  0.33384503  0.16643798  1
  Te  Te202  1  0.33423734  0.33261886  0.49752446  1
  Te  Te203  1  0.33354195  0.33910846  0.83893517  1
  Te  Te204  1  0.33438059  0.66666693  0.16119520  1
  Te  Te205  1  0.33437555  0.66967160  0.50185710  1
  Te  Te206  1  0.33486161  0.66340041  0.83439984  1
  Te  Te207  1  0.66438810  -0.00014381  0.16020444  1
  Te  Te208  1  0.66452516  -0.00143357  0.50110955  1
  Te  Te209  1  0.66645918  0.00145235  0.83391099  1
  Te  Te210  1  0.65975942  0.33512417  0.16625534  1
  Te  Te211  1  0.66334830  0.33529217  0.50281012  1
  Te  Te212  1  0.66664298  0.33859679  0.82571388  1
  Te  Te213  1  0.66995934  0.66794055  0.15913091  1
  Te  Te214  1  0.66726715  0.66873313  0.50492929  1
  Te  Te215  1  0.66581237  0.66118209  0.83098219  1
