# generated using pymatgen
data_AgSbTe2
_symmetry_space_group_name_H-M   'P 1'
_cell_length_a   18.33455965
_cell_length_b   18.33695629
_cell_length_c   18.33765096
_cell_angle_alpha   89.99817798
_cell_angle_beta   89.99651111
_cell_angle_gamma   89.99866441
_symmetry_Int_Tables_number   1
_chemical_formula_structural   AgSbTe2
_chemical_formula_sum   'Ag54 Sb54 Te108'
_cell_volume   6165.11858135
_cell_formula_units_Z   54
loop_
 _symmetry_equiv_pos_site_id
 _symmetry_equiv_pos_as_xyz
  1  'x, y, z'
loop_
 _atom_site_type_symbol
 _atom_site_label
 _atom_site_symmetry_multiplicity
 _atom_site_fract_x
 _atom_site_fract_y
 _atom_site_fract_z
 _atom_site_occupancy
  Ag  Ag0  1  0.33042454  0.16502412  0.50069664  1
  Ag  Ag1  1  0.32629061  0.49603810  0.82910797  1
  Ag  Ag2  1  0.49103334  0.50219508  0.66868623  1
  Ag  Ag3  1  0.33100967  0.66726581  0.00025075  1
  Ag  Ag4  1  0.33107485  0.34069130  0.34112145  1
  Ag  Ag5  1  0.16867061  0.17036105  -0.00379264  1
  Ag  Ag6  1  0.84689275  0.34145179  0.83384480  1
  Ag  Ag7  1  0.01495451  0.33484856  0.68170434  1
  Ag  Ag8  1  0.17153589  0.66650418  0.16522603  1
  Ag  Ag9  1  0.83087232  0.50384123  0.32561724  1
  Ag  Ag10  1  0.49580618  0.83812961  0.00152755  1
  Ag  Ag11  1  0.84066296  0.50421562  -0.00486182  1
  Ag  Ag12  1  0.00846866  0.17875948  0.83853700  1
  Ag  Ag13  1  0.00224694  0.16506661  0.15702402  1
  Ag  Ag14  1  0.67271014  0.49563335  0.83639982  1
  Ag  Ag15  1  0.83486949  0.66333688  0.16283260  1
  Ag  Ag16  1  0.32641080  0.17197686  0.83338069  1
  Ag  Ag17  1  0.17078026  0.33373126  0.51381395  1
  Ag  Ag18  1  0.17246504  0.49198228  0.67579657  1
  Ag  Ag19  1  0.00198235  0.49237596  0.83705164  1
  Ag  Ag20  1  0.16076129  0.33534231  0.82618564  1
  Ag  Ag21  1  0.33569014  -0.00081350  -0.00029462  1
  Ag  Ag22  1  0.83760772  0.66064956  0.83613963  1
  Ag  Ag23  1  0.33055148  0.65902045  0.66811589  1
  Ag  Ag24  1  0.65889345  0.00437170  -0.00107840  1
  Ag  Ag25  1  0.00265856  0.33961236  -0.00759413  1
  Ag  Ag26  1  -0.00073869  0.83167766  0.83360823  1
  Ag  Ag27  1  0.83155167  0.00239446  0.84257450  1
  Ag  Ag28  1  0.66638881  0.16682155  0.15412469  1
  Ag  Ag29  1  0.49384093  0.16632176  0.32579403  1
  Ag  Ag30  1  0.16986971  0.18036318  0.67828288  1
  Ag  Ag31  1  0.33084333  0.83386105  0.49617518  1
  Ag  Ag32  1  0.48981748  0.82514142  0.32928982  1
  Ag  Ag33  1  0.49404801  0.66315440  0.49038205  1
  Ag  Ag34  1  0.83528529  -0.00128715  0.16073378  1
  Ag  Ag35  1  0.16265818  0.49735050  -0.00647849  1
  Ag  Ag36  1  0.66984816  0.50056382  0.16501505  1
  Ag  Ag37  1  0.48978745  0.66528077  0.16995652  1
  Ag  Ag38  1  0.32626530  0.34163983  0.66544055  1
  Ag  Ag39  1  0.16659714  0.83068353  0.66539848  1
  Ag  Ag40  1  0.33393704  0.66742636  0.33564625  1
  Ag  Ag41  1  0.17512200  0.50294006  0.33318408  1
  Ag  Ag42  1  0.84178636  0.82960196  0.67203240  1
  Ag  Ag43  1  0.33195198  -0.00435507  0.33002293  1
  Ag  Ag44  1  0.66449926  0.50174187  0.49765154  1
  Ag  Ag45  1  0.49291543  0.50635475  0.33573867  1
  Ag  Ag46  1  0.50031639  0.00296001  0.83993655  1
  Ag  Ag47  1  0.16756879  -0.00079797  0.16801110  1
  Ag  Ag48  1  0.17313898  0.82835960  0.33690530  1
  Ag  Ag49  1  0.66586158  0.16879299  0.83719938  1
  Ag  Ag50  1  0.49266480  0.16077589  -0.00105860  1
  Ag  Ag51  1  0.82932078  0.66352437  0.50388373  1
  Ag  Ag52  1  0.17290201  0.00422921  0.49619456  1
  Ag  Ag53  1  0.00523559  0.66090160  -0.00259490  1
  Sb  Sb54  1  0.00801940  0.83105738  0.50569022  1
  Sb  Sb55  1  0.66736573  0.00129216  0.67607801  1
  Sb  Sb56  1  0.16675942  0.33522275  0.16368584  1
  Sb  Sb57  1  0.82786255  0.17090470  0.32927524  1
  Sb  Sb58  1  0.83800475  -0.00512412  0.49937971  1
  Sb  Sb59  1  0.33444795  0.50295557  0.16645456  1
  Sb  Sb60  1  0.00572711  0.66413994  0.32672565  1
  Sb  Sb61  1  0.66094784  0.33842617  0.33338468  1
  Sb  Sb62  1  0.83184671  0.82993059  -0.00444159  1
  Sb  Sb63  1  0.32898867  0.83278090  0.83019672  1
  Sb  Sb64  1  0.49941837  0.33658919  0.16689647  1
  Sb  Sb65  1  0.49710791  -0.00298841  0.16098566  1
  Sb  Sb66  1  0.49556462  0.33109615  0.83362825  1
  Sb  Sb67  1  0.00415723  0.00314384  0.67179683  1
  Sb  Sb68  1  0.83493108  0.33555657  0.16101759  1
  Sb  Sb69  1  0.17395087  0.16780969  0.33052652  1
  Sb  Sb70  1  0.33343345  0.16536200  0.16361161  1
  Sb  Sb71  1  0.00839543  0.00052773  0.32986920  1
  Sb  Sb72  1  0.33584538  0.50211034  0.50416198  1
  Sb  Sb73  1  0.49495847  0.82759533  0.66719917  1
  Sb  Sb74  1  0.65789695  0.66359895  0.33135174  1
  Sb  Sb75  1  -0.00210994  0.49829510  0.15794765  1
  Sb  Sb76  1  0.66528159  0.33686366  0.67000986  1
  Sb  Sb77  1  0.83991727  0.33994989  0.50588891  1
  Sb  Sb78  1  -0.00001651  0.50136358  0.50573772  1
  Sb  Sb79  1  0.66513124  0.66699881  0.00102365  1
  Sb  Sb80  1  0.83492552  0.82509632  0.33555859  1
  Sb  Sb81  1  0.00274319  0.00162683  -0.00182405  1
  Sb  Sb82  1  0.16748479  0.00555356  0.83525326  1
  Sb  Sb83  1  0.50068139  0.66730043  0.83621084  1
  Sb  Sb84  1  0.67018806  0.83311133  0.83491065  1
  Sb  Sb85  1  0.83580823  0.50353864  0.67346554  1
  Sb  Sb86  1  0.49264409  -0.00464116  0.50049232  1
  Sb  Sb87  1  0.33224449  0.83204913  0.17331126  1
  Sb  Sb88  1  0.49044250  0.34047427  0.49925138  1
  Sb  Sb89  1  0.66137169  0.82722505  0.49964559  1
  Sb  Sb90  1  0.65773461  0.17124435  0.50226429  1
  Sb  Sb91  1  0.01027457  0.16887010  0.50341691  1
  Sb  Sb92  1  0.32724358  0.33389954  -0.00415414  1
  Sb  Sb93  1  0.00515436  0.66229215  0.67396125  1
  Sb  Sb94  1  0.33085616  0.00065844  0.66839465  1
  Sb  Sb95  1  0.66560882  0.83142955  0.16493493  1
  Sb  Sb96  1  0.00635941  0.33562233  0.33122821  1
  Sb  Sb97  1  0.17131875  0.83211572  -0.00097396  1
  Sb  Sb98  1  0.49052151  0.17199158  0.67114102  1
  Sb  Sb99  1  0.49774885  0.50015199  0.00025731  1
  Sb  Sb100  1  0.17078770  0.66444716  0.49772212  1
  Sb  Sb101  1  0.00163283  0.83424014  0.16119071  1
  Sb  Sb102  1  0.67119912  0.33042213  -0.00233442  1
  Sb  Sb103  1  0.16389752  0.65898742  0.83830986  1
  Sb  Sb104  1  0.66427664  0.66414377  0.66721830  1
  Sb  Sb105  1  0.83604587  0.16883542  -0.00288986  1
  Sb  Sb106  1  0.84125756  0.16509526  0.67295298  1
  Sb  Sb107  1  0.65868781  0.00271438  0.32428228  1
  Te  Te108  1  0.16433538  0.16443441  0.16213548  1
  Te  Te109  1  0.17174818  0.16579515  0.49794296  1
  Te  Te110  1  0.16647562  0.16642711  0.83550453  1
  Te  Te111  1  0.16530149  0.50426917  0.16807657  1
  Te  Te112  1  0.16586276  0.49689411  0.49607496  1
  Te  Te113  1  0.16633737  0.49901323  0.83442029  1
  Te  Te114  1  0.16501636  0.83307704  0.17014428  1
  Te  Te115  1  0.17085837  0.83286461  0.49845142  1
  Te  Te116  1  0.16207651  0.83596731  0.83031577  1
  Te  Te117  1  0.50430295  0.16560586  0.16455906  1
  Te  Te118  1  0.49372866  0.16586511  0.49863659  1
  Te  Te119  1  0.50224141  0.16440093  0.83552598  1
  Te  Te120  1  0.50600425  0.50396975  0.16920040  1
  Te  Te121  1  0.50326600  0.50421797  0.49608986  1
  Te  Te122  1  0.50094704  0.49966398  0.83201447  1
  Te  Te123  1  0.50068350  0.82743895  0.16684774  1
  Te  Te124  1  0.49487780  0.82746621  0.49725713  1
  Te  Te125  1  0.50009934  0.83792980  0.83650261  1
  Te  Te126  1  0.82915602  0.16409133  0.16662758  1
  Te  Te127  1  0.83124601  0.16585716  0.50026988  1
  Te  Te128  1  0.83017239  0.16114624  0.83233723  1
  Te  Te129  1  0.83173241  0.50122862  0.16493378  1
  Te  Te130  1  0.82945548  0.50327763  0.50093528  1
  Te  Te131  1  0.83387398  0.50016943  0.83422602  1
  Te  Te132  1  0.83368452  0.83356218  0.16785043  1
  Te  Te133  1  0.83311612  0.82785969  0.50417221  1
  Te  Te134  1  0.83534331  0.83378158  0.83147621  1
  Te  Te135  1  0.17046612  0.00185347  0.00378435  1
  Te  Te136  1  0.17197317  -0.00005287  0.33124845  1
  Te  Te137  1  0.16744687  -0.00874713  0.66157960  1
  Te  Te138  1  0.16383354  0.33423583  -0.00250987  1
  Te  Te139  1  0.17100261  0.33888593  0.33138722  1
  Te  Te140  1  0.17078434  0.33554452  0.66919536  1
  Te  Te141  1  0.16940310  0.66593786  0.00369052  1
  Te  Te142  1  0.17096050  0.66522816  0.33095066  1
  Te  Te143  1  0.17080031  0.66919996  0.66542796  1
  Te  Te144  1  0.49731770  0.00126434  0.00001246  1
  Te  Te145  1  0.49306090  0.00132532  0.33204425  1
  Te  Te146  1  0.50045500  -0.00087882  0.67385602  1
  Te  Te147  1  0.49864154  0.32395297  0.00091113  1
  Te  Te148  1  0.49306837  0.33222560  0.33409139  1
  Te  Te149  1  0.49372477  0.34074170  0.66596899  1
  Te  Te150  1  0.49593860  0.66863253  0.00461157  1
  Te  Te151  1  0.49602301  0.66601570  0.33093192  1
  Te  Te152  1  0.49426960  0.66263234  0.66641304  1
  Te  Te153  1  0.83389287  -0.00204299  0.00159303  1
  Te  Te154  1  0.83240079  -0.00219589  0.32944715  1
  Te  Te155  1  0.83486707  -0.00710636  0.66649991  1
  Te  Te156  1  0.83847695  0.34013011  -0.00581698  1
  Te  Te157  1  0.83478837  0.34139901  0.33555655  1
  Te  Te158  1  0.83757926  0.33363768  0.67310186  1
  Te  Te159  1  0.83142054  0.66448474  -0.00056074  1
  Te  Te160  1  0.83553335  0.66351320  0.32904985  1
  Te  Te161  1  0.83483271  0.66938909  0.66911611  1
  Te  Te162  1  0.00203809  0.16642686  -0.00231081  1
  Te  Te163  1  -0.00258155  0.16814696  0.32990082  1
  Te  Te164  1  0.00826082  0.17208851  0.67120559  1
  Te  Te165  1  0.00132710  0.50106852  -0.00268600  1
  Te  Te166  1  -0.00074475  0.49921844  0.33345884  1
  Te  Te167  1  0.00595040  0.49590629  0.67312486  1
  Te  Te168  1  0.00068041  0.82654839  -0.00570802  1
  Te  Te169  1  0.00815175  0.83254902  0.33416398  1
  Te  Te170  1  0.00219246  0.83220099  0.67159570  1
  Te  Te171  1  0.33182145  0.16753126  -0.00290681  1
  Te  Te172  1  0.33585647  0.16162345  0.33204697  1
  Te  Te173  1  0.32849129  0.16738178  0.66879251  1
  Te  Te174  1  0.32993092  0.50178822  -0.00404379  1
  Te  Te175  1  0.33424319  0.50354155  0.33218682  1
  Te  Te176  1  0.33178087  0.50179336  0.66688128  1
  Te  Te177  1  0.33623491  0.83327616  -0.00309387  1
  Te  Te178  1  0.33276392  0.83257552  0.33496164  1
  Te  Te179  1  0.33020041  0.82987966  0.66239371  1
  Te  Te180  1  0.66953132  0.16454727  -0.00262712  1
  Te  Te181  1  0.65781341  0.17002806  0.33373762  1
  Te  Te182  1  0.66529775  0.16854339  0.67137321  1
  Te  Te183  1  0.66656735  0.49894834  -0.00085124  1
  Te  Te184  1  0.66903081  0.50007496  0.33090821  1
  Te  Te185  1  0.66283597  0.50016682  0.67016361  1
  Te  Te186  1  0.65883741  0.84176436  0.00022741  1
  Te  Te187  1  0.65991892  0.83502425  0.33366864  1
  Te  Te188  1  0.67081657  0.83309879  0.66582484  1
  Te  Te189  1  -0.00153816  0.00410665  0.16511840  1
  Te  Te190  1  0.00779160  0.00015336  0.49898218  1
  Te  Te191  1  -0.00634594  -0.00347850  0.83415064  1
  Te  Te192  1  -0.00064553  0.32412963  0.16235006  1
  Te  Te193  1  0.00816476  0.33320874  0.50373909  1
  Te  Te194  1  0.00139508  0.33359378  0.83677111  1
  Te  Te195  1  -0.00147813  0.66630539  0.15960374  1
  Te  Te196  1  -0.00979241  0.66638092  0.49958464  1
  Te  Te197  1  -0.00234970  0.66728270  0.83746820  1
  Te  Te198  1  0.32907211  -0.00007817  0.16391696  1
  Te  Te199  1  0.33056404  0.00076079  0.49914667  1
  Te  Te200  1  0.33513454  0.00282244  0.83800794  1
  Te  Te201  1  0.33322148  0.33342921  0.17764999  1
  Te  Te202  1  0.32908955  0.32921544  0.50059952  1
  Te  Te203  1  0.32935988  0.33382538  0.83097133  1
  Te  Te204  1  0.33182142  0.66631264  0.16297577  1
  Te  Te205  1  0.33455686  0.66868335  0.49833990  1
  Te  Te206  1  0.33359196  0.66332900  0.83417935  1
  Te  Te207  1  0.67000577  0.00375852  0.16109897  1
  Te  Te208  1  0.66736342  0.00126655  0.49980782  1
  Te  Te209  1  0.66835655  0.00200996  0.83865031  1
  Te  Te210  1  0.66774361  0.33160086  0.16601268  1
  Te  Te211  1  0.66878741  0.34029255  0.50174789  1
  Te  Te212  1  0.66767797  0.33337119  0.83324882  1
  Te  Te213  1  0.67467895  0.66210958  0.16590091  1
  Te  Te214  1  0.66781247  0.66095612  0.50004151  1
  Te  Te215  1  0.67222608  0.66144147  0.83366771  1
