# generated using pymatgen
data_AgSbTe2
_symmetry_space_group_name_H-M   'P 1'
_cell_length_a   18.33811648
_cell_length_b   18.33874916
_cell_length_c   18.34037492
_cell_angle_alpha   89.99986588
_cell_angle_beta   90.00084297
_cell_angle_gamma   90.00596964
_symmetry_Int_Tables_number   1
_chemical_formula_structural   AgSbTe2
_chemical_formula_sum   'Ag54 Sb54 Te108'
_cell_volume   6167.83354171
_cell_formula_units_Z   54
loop_
 _symmetry_equiv_pos_site_id
 _symmetry_equiv_pos_as_xyz
  1  'x, y, z'
loop_
 _atom_site_type_symbol
 _atom_site_label
 _atom_site_symmetry_multiplicity
 _atom_site_fract_x
 _atom_site_fract_y
 _atom_site_fract_z
 _atom_site_occupancy
  Ag  Ag0  1  0.32681033  0.66668370  0.00094390  1
  Ag  Ag1  1  0.32081101  0.17399026  0.16697479  1
  Ag  Ag2  1  0.15983653  0.17086842  0.32357461  1
  Ag  Ag3  1  0.15991583  0.49390010  0.66708569  1
  Ag  Ag4  1  0.68254965  0.66086148  -0.00043928  1
  Ag  Ag5  1  0.83782424  0.66151146  0.83605102  1
  Ag  Ag6  1  0.00316635  0.66161579  0.33653524  1
  Ag  Ag7  1  0.84194819  -0.00379583  0.83700682  1
  Ag  Ag8  1  0.84052559  0.82547608  -0.00248737  1
  Ag  Ag9  1  0.31989795  0.33649721  0.33300164  1
  Ag  Ag10  1  0.49680369  0.83426059  0.32503861  1
  Ag  Ag11  1  -0.00138896  0.32645377  0.00504949  1
  Ag  Ag12  1  0.32260599  0.66331570  0.33262593  1
  Ag  Ag13  1  0.16426022  0.33389380  0.49961074  1
  Ag  Ag14  1  0.32350381  0.33709901  0.66190737  1
  Ag  Ag15  1  0.49934019  -0.00140827  0.84089516  1
  Ag  Ag16  1  0.67551645  0.33222018  0.33041085  1
  Ag  Ag17  1  0.83431759  0.50044558  -0.00445234  1
  Ag  Ag18  1  0.00278084  0.18050818  0.49238678  1
  Ag  Ag19  1  0.49288638  -0.00092259  0.16051460  1
  Ag  Ag20  1  0.00027142  0.66559081  0.00179923  1
  Ag  Ag21  1  0.67799484  0.49459600  0.15972541  1
  Ag  Ag22  1  0.00071134  0.83252953  0.15878518  1
  Ag  Ag23  1  0.66828022  0.01033440  0.32939403  1
  Ag  Ag24  1  0.32368026  0.49672149  0.16514880  1
  Ag  Ag25  1  0.84300809  0.49878533  0.67686546  1
  Ag  Ag26  1  0.00202078  0.83444115  0.84170588  1
  Ag  Ag27  1  0.32373937  0.82708388  0.50173917  1
  Ag  Ag28  1  0.84226756  0.17429726  0.00208055  1
  Ag  Ag29  1  0.48726014  0.16841735  0.67013026  1
  Ag  Ag30  1  0.15826360  0.16915739  0.00888966  1
  Ag  Ag31  1  0.32386524  0.83142625  0.83443981  1
  Ag  Ag32  1  0.84423557  0.65841453  0.50413280  1
  Ag  Ag33  1  0.67927653  0.49628437  0.84157540  1
  Ag  Ag34  1  0.00490395  0.17522965  0.15758220  1
  Ag  Ag35  1  0.00349666  0.17183972  0.84228171  1
  Ag  Ag36  1  0.16542687  0.32874593  0.17236126  1
  Ag  Ag37  1  -0.00173951  0.01104692  0.00074885  1
  Ag  Ag38  1  0.66510049  0.33491753  0.67312027  1
  Ag  Ag39  1  0.00125603  0.49403850  0.16064165  1
  Ag  Ag40  1  0.67810961  0.34092822  0.00133684  1
  Ag  Ag41  1  0.16604119  0.17474550  0.67054349  1
  Ag  Ag42  1  -0.00128133  0.49925546  0.84004556  1
  Ag  Ag43  1  0.84400763  0.17054291  0.32691890  1
  Ag  Ag44  1  0.16440037  0.32696022  0.82723608  1
  Ag  Ag45  1  0.00144140  0.33038757  0.33212962  1
  Ag  Ag46  1  0.00124733  0.49871961  0.49732514  1
  Ag  Ag47  1  0.00266462  0.82207786  0.49624687  1
  Ag  Ag48  1  0.50284846  0.83469348  0.00221890  1
  Ag  Ag49  1  0.16220999  0.66047396  0.49847555  1
  Ag  Ag50  1  0.15938165  0.00805088  0.83849204  1
  Ag  Ag51  1  0.16635710  0.01088419  0.16028484  1
  Ag  Ag52  1  0.33065755  0.66040593  0.66843949  1
  Ag  Ag53  1  0.84616519  0.33732022  0.49876316  1
  Sb  Sb54  1  0.15549909  0.49518020  -0.00263299  1
  Sb  Sb55  1  0.50654008  0.50419861  0.00238317  1
  Sb  Sb56  1  0.49505794  0.33061070  0.16610853  1
  Sb  Sb57  1  0.49410675  0.66760859  0.49891422  1
  Sb  Sb58  1  0.16196689  0.49225335  0.33516771  1
  Sb  Sb59  1  0.16291658  0.00328978  0.50072328  1
  Sb  Sb60  1  0.32352642  0.16368550  0.83620187  1
  Sb  Sb61  1  0.00006587  0.00160521  0.67696368  1
  Sb  Sb62  1  0.49609756  0.33314056  0.49997960  1
  Sb  Sb63  1  0.66685256  0.00735044  0.66718937  1
  Sb  Sb64  1  0.16545258  0.83635578  0.33329511  1
  Sb  Sb65  1  0.15999477  0.83582635  -0.00045433  1
  Sb  Sb66  1  0.83592092  0.83629618  0.33016056  1
  Sb  Sb67  1  0.49821732  0.67030243  0.16555096  1
  Sb  Sb68  1  0.32578594  0.16737713  0.49792658  1
  Sb  Sb69  1  0.32440773  0.50259891  0.49754253  1
  Sb  Sb70  1  0.50093589  0.66960443  0.83640190  1
  Sb  Sb71  1  0.66628726  0.65934866  0.67198985  1
  Sb  Sb72  1  0.83754583  0.00122145  0.50266458  1
  Sb  Sb73  1  0.83825387  0.66432530  0.16278190  1
  Sb  Sb74  1  0.00404202  0.66268136  0.66552469  1
  Sb  Sb75  1  0.32858773  0.50325495  0.83607819  1
  Sb  Sb76  1  0.67170497  0.66188535  0.32872977  1
  Sb  Sb77  1  0.84050234  0.17365679  0.66862331  1
  Sb  Sb78  1  0.83646307  0.82552212  0.67140442  1
  Sb  Sb79  1  0.16122866  0.66646341  0.83174670  1
  Sb  Sb80  1  0.84340732  0.33643731  0.83313656  1
  Sb  Sb81  1  0.49599171  0.83755328  0.67003189  1
  Sb  Sb82  1  0.83753635  0.00136375  0.16164825  1
  Sb  Sb83  1  0.66964503  0.83175190  0.16380643  1
  Sb  Sb84  1  0.49686433  0.32962951  0.83365485  1
  Sb  Sb85  1  0.67466265  0.17103639  0.83441505  1
  Sb  Sb86  1  0.67283123  0.00042682  0.00199956  1
  Sb  Sb87  1  0.16551067  0.83281610  0.66679641  1
  Sb  Sb88  1  0.32824579  0.83189993  0.16456644  1
  Sb  Sb89  1  0.49978444  0.16216596  -0.00170378  1
  Sb  Sb90  1  0.00337771  0.33574497  0.66434238  1
  Sb  Sb91  1  0.67033713  0.83086923  0.83640042  1
  Sb  Sb92  1  0.16304465  0.66211774  0.16916132  1
  Sb  Sb93  1  -0.00238943  0.00686837  0.32658777  1
  Sb  Sb94  1  0.33357604  0.00117366  0.33118264  1
  Sb  Sb95  1  0.49866959  0.16452272  0.33460994  1
  Sb  Sb96  1  0.32655789  -0.00253854  -0.00057583  1
  Sb  Sb97  1  0.67851302  0.49663283  0.49982415  1
  Sb  Sb98  1  0.84292979  0.33334164  0.16738588  1
  Sb  Sb99  1  0.49921156  -0.00020858  0.49897306  1
  Sb  Sb100  1  0.67127289  0.17081988  0.16689459  1
  Sb  Sb101  1  0.33094708  0.00225545  0.66857193  1
  Sb  Sb102  1  0.67403864  0.17103493  0.49954409  1
  Sb  Sb103  1  0.32574867  0.33690617  0.00144026  1
  Sb  Sb104  1  0.49863860  0.50241580  0.33152167  1
  Sb  Sb105  1  0.67041497  0.83203933  0.49676977  1
  Sb  Sb106  1  0.83908549  0.49530438  0.33030284  1
  Sb  Sb107  1  0.49760269  0.49523651  0.66836745  1
  Te  Te108  1  0.16529906  0.16778577  0.16661252  1
  Te  Te109  1  0.16316722  0.16963103  0.50485824  1
  Te  Te110  1  0.16413906  0.16703185  0.83164196  1
  Te  Te111  1  0.16414721  0.49444951  0.16461945  1
  Te  Te112  1  0.16254454  0.49941977  0.50280666  1
  Te  Te113  1  0.16230270  0.49750867  0.82864323  1
  Te  Te114  1  0.15993933  0.83851683  0.16761150  1
  Te  Te115  1  0.16568189  0.83336665  0.50048167  1
  Te  Te116  1  0.16512525  0.83543556  0.83208375  1
  Te  Te117  1  0.50057978  0.15873288  0.16720699  1
  Te  Te118  1  0.49771590  0.16613286  0.50623749  1
  Te  Te119  1  0.49781433  0.16188493  0.83081161  1
  Te  Te120  1  0.49357086  0.49986172  0.16659653  1
  Te  Te121  1  0.50334030  0.50053860  0.50014636  1
  Te  Te122  1  0.50422426  0.49951949  0.83354450  1
  Te  Te123  1  0.50010494  0.83767617  0.16555802  1
  Te  Te124  1  0.49952577  0.83328279  0.49874403  1
  Te  Te125  1  0.50050018  0.83757795  0.83733141  1
  Te  Te126  1  0.83818624  0.16645178  0.16601907  1
  Te  Te127  1  0.84099367  0.17035712  0.50031425  1
  Te  Te128  1  0.84188491  0.16406315  0.83676251  1
  Te  Te129  1  0.83662075  0.49955169  0.16108794  1
  Te  Te130  1  0.84038293  0.49936855  0.49751914  1
  Te  Te131  1  0.83580959  0.49972436  0.83385879  1
  Te  Te132  1  0.83957025  0.83387987  0.16163614  1
  Te  Te133  1  0.83929805  0.83094201  0.50136824  1
  Te  Te134  1  0.83732712  0.83254629  0.83637373  1
  Te  Te135  1  0.16271724  0.00302920  -0.00063587  1
  Te  Te136  1  0.16618469  0.00857216  0.33124134  1
  Te  Te137  1  0.16664489  0.00528928  0.67208673  1
  Te  Te138  1  0.16220230  0.33026446  -0.00025253  1
  Te  Te139  1  0.16337301  0.33132950  0.33493855  1
  Te  Te140  1  0.16628024  0.33606407  0.66577091  1
  Te  Te141  1  0.16677961  0.66515898  0.00146435  1
  Te  Te142  1  0.16417441  0.66905155  0.33661449  1
  Te  Te143  1  0.17363387  0.66555554  0.66305731  1
  Te  Te144  1  0.50263929  -0.00372558  0.00100565  1
  Te  Te145  1  0.50305094  -0.00435491  0.33232609  1
  Te  Te146  1  0.50026676  0.00760275  0.66935793  1
  Te  Te147  1  0.50521360  0.33200916  -0.00009941  1
  Te  Te148  1  0.50123898  0.33418485  0.33312330  1
  Te  Te149  1  0.50142742  0.32734114  0.66643486  1
  Te  Te150  1  0.49130691  0.67342111  0.00021885  1
  Te  Te151  1  0.50014367  0.67244896  0.33319868  1
  Te  Te152  1  0.49216559  0.66691031  0.66731501  1
  Te  Te153  1  0.83631486  0.00001876  -0.00429317  1
  Te  Te154  1  0.82785178  0.00465625  0.33435337  1
  Te  Te155  1  0.83132798  0.00026902  0.67529092  1
  Te  Te156  1  0.83696494  0.33395790  -0.00121828  1
  Te  Te157  1  0.83691004  0.33009628  0.33572613  1
  Te  Te158  1  0.82867241  0.33887240  0.66236418  1
  Te  Te159  1  0.83742275  0.66556348  -0.00036148  1
  Te  Te160  1  0.84029864  0.66795687  0.33837649  1
  Te  Te161  1  0.83040781  0.65825290  0.66701097  1
  Te  Te162  1  0.00023476  0.16694642  -0.00076496  1
  Te  Te163  1  -0.00006339  0.16711017  0.33522209  1
  Te  Te164  1  0.00448701  0.16561042  0.66194230  1
  Te  Te165  1  -0.00417827  0.50624110  0.00022717  1
  Te  Te166  1  -0.00107590  0.50144952  0.33017402  1
  Te  Te167  1  0.00107700  0.50112440  0.67027497  1
  Te  Te168  1  -0.00088456  0.82410579  -0.00063909  1
  Te  Te169  1  -0.00130928  0.83030104  0.33502245  1
  Te  Te170  1  -0.00020109  0.83417211  0.66474693  1
  Te  Te171  1  0.33118109  0.16762256  0.00668431  1
  Te  Te172  1  0.33196285  0.17032477  0.32963370  1
  Te  Te173  1  0.32958428  0.17258933  0.66605956  1
  Te  Te174  1  0.33694707  0.50470491  0.00350628  1
  Te  Te175  1  0.33284369  0.49957308  0.32988974  1
  Te  Te176  1  0.32932958  0.49842503  0.66799263  1
  Te  Te177  1  0.33373657  0.82982857  -0.00380899  1
  Te  Te178  1  0.33467458  0.83073371  0.33396145  1
  Te  Te179  1  0.33326434  0.83056439  0.66822648  1
  Te  Te180  1  0.67139240  0.17179523  -0.00021503  1
  Te  Te181  1  0.66709649  0.16894206  0.33365674  1
  Te  Te182  1  0.66830099  0.17516479  0.66651144  1
  Te  Te183  1  0.66923968  0.49997315  0.00103078  1
  Te  Te184  1  0.66701186  0.49462758  0.32724697  1
  Te  Te185  1  0.66568379  0.49315992  0.66776586  1
  Te  Te186  1  0.66701307  0.82920068  0.00000533  1
  Te  Te187  1  0.66454265  0.83163420  0.33203029  1
  Te  Te188  1  0.66592239  0.83374576  0.66585444  1
  Te  Te189  1  0.00248777  -0.00184823  0.16278452  1
  Te  Te190  1  -0.00084419  -0.00833926  0.49842203  1
  Te  Te191  1  0.00080298  -0.00355159  0.83768132  1
  Te  Te192  1  0.00323977  0.33339065  0.16832279  1
  Te  Te193  1  0.00206951  0.33716501  0.49960697  1
  Te  Te194  1  0.00418080  0.33361535  0.83659816  1
  Te  Te195  1  0.00151755  0.66639872  0.16804719  1
  Te  Te196  1  0.00184701  0.66379708  0.50085954  1
  Te  Te197  1  -0.00233857  0.66746981  0.83150538  1
  Te  Te198  1  0.33072283  0.00189458  0.16554458  1
  Te  Te199  1  0.33185492  -0.01042322  0.50020903  1
  Te  Te200  1  0.33515838  -0.00494599  0.83288989  1
  Te  Te201  1  0.32878391  0.33411294  0.16826230  1
  Te  Te202  1  0.32862380  0.33462566  0.49746865  1
  Te  Te203  1  0.32735133  0.33451507  0.83171564  1
  Te  Te204  1  0.33066439  0.66317735  0.16945658  1
  Te  Te205  1  0.32917548  0.66873147  0.49523555  1
  Te  Te206  1  0.33216281  0.67017159  0.83416005  1
  Te  Te207  1  0.66589793  0.00003599  0.17041676  1
  Te  Te208  1  0.66799597  0.00068058  0.49367847  1
  Te  Te209  1  0.66382115  0.00202437  0.83253324  1
  Te  Te210  1  0.66228274  0.33633358  0.16614622  1
  Te  Te211  1  0.66432806  0.33296885  0.49257076  1
  Te  Te212  1  0.66357347  0.33659932  0.83549292  1
  Te  Te213  1  0.66566176  0.66045526  0.16068276  1
  Te  Te214  1  0.66965419  0.66570261  0.49984753  1
  Te  Te215  1  0.67060064  0.66245797  0.83827276  1
