# generated using pymatgen
data_AgSbTe2
_symmetry_space_group_name_H-M   'P 1'
_cell_length_a   18.32213484
_cell_length_b   18.33012678
_cell_length_c   18.32185027
_cell_angle_alpha   89.99814347
_cell_angle_beta   89.99866033
_cell_angle_gamma   89.99974325
_symmetry_Int_Tables_number   1
_chemical_formula_structural   AgSbTe2
_chemical_formula_sum   'Ag54 Sb54 Te108'
_cell_volume   6153.33944048
_cell_formula_units_Z   54
loop_
 _symmetry_equiv_pos_site_id
 _symmetry_equiv_pos_as_xyz
  1  'x, y, z'
loop_
 _atom_site_type_symbol
 _atom_site_label
 _atom_site_symmetry_multiplicity
 _atom_site_fract_x
 _atom_site_fract_y
 _atom_site_fract_z
 _atom_site_occupancy
  Ag  Ag0  1  0.33215873  0.67183395  0.00121462  1
  Ag  Ag1  1  0.16251672  0.49553671  0.65738550  1
  Ag  Ag2  1  0.32889396  0.16809795  0.49307881  1
  Ag  Ag3  1  0.32868550  0.66458411  0.66525183  1
  Ag  Ag4  1  0.16648356  0.00350081  0.49629106  1
  Ag  Ag5  1  0.16764668  0.48977257  0.33946803  1
  Ag  Ag6  1  0.84188124  0.83382007  0.66834416  1
  Ag  Ag7  1  -0.00021326  0.83370642  0.83191607  1
  Ag  Ag8  1  0.66636094  0.66608724  0.65657493  1
  Ag  Ag9  1  0.17568410  0.17656628  0.33930249  1
  Ag  Ag10  1  0.00105288  0.50293830  0.82169578  1
  Ag  Ag11  1  0.01844038  0.33409534  0.34019217  1
  Ag  Ag12  1  0.16607897  0.65885658  0.49537244  1
  Ag  Ag13  1  0.48985841  0.33274000  0.49159912  1
  Ag  Ag14  1  0.33270424  -0.00688686  0.01082718  1
  Ag  Ag15  1  0.49872427  0.66662601  0.83545195  1
  Ag  Ag16  1  0.00894100  0.66484050  0.33115477  1
  Ag  Ag17  1  0.49483951  0.48969660  0.33450705  1
  Ag  Ag18  1  0.84168305  -0.00266344  0.82670362  1
  Ag  Ag19  1  0.16414734  0.66494191  0.17862123  1
  Ag  Ag20  1  0.48568711  0.17780889  0.33377022  1
  Ag  Ag21  1  0.01003866  0.00104236  0.33611600  1
  Ag  Ag22  1  0.83185192  0.83354166  -0.00120079  1
  Ag  Ag23  1  0.84464521  0.50258833  0.66383213  1
  Ag  Ag24  1  0.32697777  0.01086798  0.33228774  1
  Ag  Ag25  1  0.15897678  -0.00073662  0.82392385  1
  Ag  Ag26  1  0.16683397  0.83351450  0.34045181  1
  Ag  Ag27  1  0.33382733  0.16367375  0.17907385  1
  Ag  Ag28  1  0.66367140  0.33455749  0.01222578  1
  Ag  Ag29  1  0.50034886  0.50453173  0.00448395  1
  Ag  Ag30  1  0.49507071  0.33168842  0.17937256  1
  Ag  Ag31  1  0.84104340  0.16321585  0.66603108  1
  Ag  Ag32  1  0.83882953  0.67225962  0.16924865  1
  Ag  Ag33  1  0.16236285  0.83133933  0.65922472  1
  Ag  Ag34  1  0.17071168  0.33348221  0.49623783  1
  Ag  Ag35  1  0.49682358  0.00370736  0.49525190  1
  Ag  Ag36  1  0.49811758  0.82766393  0.00069573  1
  Ag  Ag37  1  0.00195266  0.15862903  0.82853521  1
  Ag  Ag38  1  0.83283824  -0.00394246  0.17398570  1
  Ag  Ag39  1  0.00493274  0.66727447  0.00448153  1
  Ag  Ag40  1  0.17311084  0.33506038  0.18013796  1
  Ag  Ag41  1  0.00471462  0.49916132  0.50189055  1
  Ag  Ag42  1  0.33386872  0.32630872  0.33676763  1
  Ag  Ag43  1  0.66868916  0.66492971  0.33753354  1
  Ag  Ag44  1  0.83576164  -0.00115557  0.49699581  1
  Ag  Ag45  1  0.66211204  0.16936830  0.17361728  1
  Ag  Ag46  1  0.66511330  0.00252831  0.33569249  1
  Ag  Ag47  1  0.32242690  0.33532280  0.65483106  1
  Ag  Ag48  1  0.64837050  0.33051432  0.33236909  1
  Ag  Ag49  1  0.16293578  0.17343880  0.65633316  1
  Ag  Ag50  1  0.00478213  0.33752364  0.65836643  1
  Ag  Ag51  1  0.66684365  0.82888815  0.49819044  1
  Ag  Ag52  1  0.33181776  0.83694494  0.16651915  1
  Ag  Ag53  1  0.66976427  0.50410349  0.49747843  1
  Sb  Sb54  1  0.00226108  0.66225739  0.66368237  1
  Sb  Sb55  1  0.83383032  0.16048051  -0.00288597  1
  Sb  Sb56  1  0.00341331  0.83158425  0.16616669  1
  Sb  Sb57  1  0.66589280  0.49661917  0.17543759  1
  Sb  Sb58  1  0.33184234  0.83792283  0.49550720  1
  Sb  Sb59  1  -0.00158754  0.33996329  0.00137047  1
  Sb  Sb60  1  0.49672840  0.50068491  0.66137135  1
  Sb  Sb61  1  0.32758053  0.16426997  0.82952802  1
  Sb  Sb62  1  0.66407268  0.00129701  0.00727258  1
  Sb  Sb63  1  0.32733015  0.83301916  0.83646366  1
  Sb  Sb64  1  0.49911052  0.16706921  0.00902296  1
  Sb  Sb65  1  0.33726404  0.33446326  0.00716862  1
  Sb  Sb66  1  0.67129560  0.16560856  0.83581801  1
  Sb  Sb67  1  0.00185746  0.16621075  0.16776270  1
  Sb  Sb68  1  0.00068287  0.83076206  0.50287538  1
  Sb  Sb69  1  0.00770895  0.17109702  0.50283151  1
  Sb  Sb70  1  0.66535236  0.66477053  0.00343070  1
  Sb  Sb71  1  0.49610762  0.16810428  0.65658923  1
  Sb  Sb72  1  0.33298238  0.49940293  0.16851430  1
  Sb  Sb73  1  0.16430718  0.32985826  0.82568430  1
  Sb  Sb74  1  0.00101772  0.00466178  0.66154090  1
  Sb  Sb75  1  0.66281558  0.16610595  0.49330969  1
  Sb  Sb76  1  0.00302798  -0.00538542  0.00046922  1
  Sb  Sb77  1  0.49902843  0.33760053  0.83261215  1
  Sb  Sb78  1  0.66818139  0.33777642  0.65823883  1
  Sb  Sb79  1  0.49744135  0.83116996  0.66801654  1
  Sb  Sb80  1  0.83761866  0.83507796  0.33524623  1
  Sb  Sb81  1  0.49914102  -0.00496189  0.83121726  1
  Sb  Sb82  1  0.66958963  0.50187713  0.82801297  1
  Sb  Sb83  1  0.83426128  0.67184654  0.83314282  1
  Sb  Sb84  1  0.49901953  0.00456816  0.17533872  1
  Sb  Sb85  1  0.16913670  0.50314299  0.00129195  1
  Sb  Sb86  1  0.16698439  0.67009533  0.82832851  1
  Sb  Sb87  1  0.00166864  0.50192210  0.17389530  1
  Sb  Sb88  1  0.32851458  0.50144401  0.83185197  1
  Sb  Sb89  1  0.16706717  0.83234934  0.00147387  1
  Sb  Sb90  1  0.83625341  0.16318136  0.33931406  1
  Sb  Sb91  1  0.83041419  0.50595253  -0.00507047  1
  Sb  Sb92  1  0.49693945  0.66276340  0.16550579  1
  Sb  Sb93  1  0.83521187  0.66971049  0.49775875  1
  Sb  Sb94  1  0.67234027  -0.00481561  0.65659055  1
  Sb  Sb95  1  0.83192859  0.33206787  0.17050308  1
  Sb  Sb96  1  0.49711308  0.66411694  0.50069541  1
  Sb  Sb97  1  0.66437915  0.83558134  0.17258468  1
  Sb  Sb98  1  0.32726796  0.00020280  0.66052956  1
  Sb  Sb99  1  0.49582449  0.83291783  0.33117570  1
  Sb  Sb100  1  0.83625113  0.50137936  0.33896862  1
  Sb  Sb101  1  0.16809606  0.16534016  0.00300053  1
  Sb  Sb102  1  0.16664669  -0.00048984  0.17475071  1
  Sb  Sb103  1  0.67192457  0.83225271  0.82839497  1
  Sb  Sb104  1  0.83531209  0.32979696  0.83128327  1
  Sb  Sb105  1  0.32819363  0.66570772  0.33405783  1
  Sb  Sb106  1  0.83632690  0.32985584  0.49955489  1
  Sb  Sb107  1  0.32839191  0.49340736  0.49889452  1
  Te  Te108  1  0.16970752  0.16960956  0.17085141  1
  Te  Te109  1  0.16728628  0.16617751  0.49941819  1
  Te  Te110  1  0.16194289  0.16156242  0.83158570  1
  Te  Te111  1  0.16701044  0.50095775  0.17159956  1
  Te  Te112  1  0.16660642  0.49953062  0.49875966  1
  Te  Te113  1  0.16072483  0.49969327  0.83042564  1
  Te  Te114  1  0.17045958  0.83009043  0.16924306  1
  Te  Te115  1  0.16684254  0.83731401  0.50040161  1
  Te  Te116  1  0.16083323  0.83743113  0.82962682  1
  Te  Te117  1  0.49929297  0.17076072  0.17299419  1
  Te  Te118  1  0.49564086  0.16663663  0.49397511  1
  Te  Te119  1  0.50052748  0.16564603  0.83253262  1
  Te  Te120  1  0.49989596  0.49391413  0.16893925  1
  Te  Te121  1  0.50457779  0.49692765  0.49515346  1
  Te  Te122  1  0.50091064  0.50516656  0.83494387  1
  Te  Te123  1  0.49520311  0.83346200  0.16028326  1
  Te  Te124  1  0.50442189  0.83707884  0.49991189  1
  Te  Te125  1  0.50062253  0.82923862  0.83870791  1
  Te  Te126  1  0.83213530  0.16147300  0.16489203  1
  Te  Te127  1  0.83309281  0.15987398  0.50709329  1
  Te  Te128  1  0.83859570  0.15949279  0.82832590  1
  Te  Te129  1  0.83366356  0.50721187  0.16370572  1
  Te  Te130  1  0.83332841  0.50025523  0.50579177  1
  Te  Te131  1  0.83818116  0.50125323  0.82622343  1
  Te  Te132  1  0.83251976  0.83380802  0.16449256  1
  Te  Te133  1  0.83032612  0.83736540  0.50422029  1
  Te  Te134  1  0.83728953  0.83724960  0.83041008  1
  Te  Te135  1  0.17156847  -0.00044405  -0.00284859  1
  Te  Te136  1  0.16671479  -0.00374122  0.33398751  1
  Te  Te137  1  0.16612978  -0.00259977  0.66408748  1
  Te  Te138  1  0.16709100  0.33462375  0.00540516  1
  Te  Te139  1  0.17289568  0.33265132  0.33583190  1
  Te  Te140  1  0.16535524  0.33321962  0.66439464  1
  Te  Te141  1  0.16795407  0.66634919  0.00263566  1
  Te  Te142  1  0.16682169  0.66998088  0.33518958  1
  Te  Te143  1  0.16759522  0.66802383  0.66339217  1
  Te  Te144  1  0.49511695  -0.00369271  -0.00125750  1
  Te  Te145  1  0.50109631  -0.00211309  0.33747846  1
  Te  Te146  1  0.50004810  0.00005883  0.65989583  1
  Te  Te147  1  0.50352931  0.33671026  0.00024052  1
  Te  Te148  1  0.49402553  0.33335776  0.33538351  1
  Te  Te149  1  0.49640935  0.33351483  0.66246544  1
  Te  Te150  1  0.49825724  0.66625594  -0.00019723  1
  Te  Te151  1  0.50492689  0.66360417  0.33309565  1
  Te  Te152  1  0.49865665  0.66638043  0.67010368  1
  Te  Te153  1  0.83343036  -0.00639575  0.00178792  1
  Te  Te154  1  0.83214897  -0.00131724  0.33508902  1
  Te  Te155  1  0.83510269  -0.00314587  0.66546113  1
  Te  Te156  1  0.82745326  0.33394571  0.00133596  1
  Te  Te157  1  0.83495003  0.33238247  0.33279820  1
  Te  Te158  1  0.83749860  0.33451135  0.66620937  1
  Te  Te159  1  0.83356366  0.67197763  0.00351660  1
  Te  Te160  1  0.83189781  0.66819845  0.32957248  1
  Te  Te161  1  0.83075543  0.66825055  0.66589089  1
  Te  Te162  1  -0.00031275  0.16921857  -0.00815463  1
  Te  Te163  1  0.00370669  0.16726241  0.33271387  1
  Te  Te164  1  0.00173058  0.17065523  0.66877681  1
  Te  Te165  1  -0.00059977  0.50675933  -0.00423908  1
  Te  Te166  1  0.00315983  0.49973596  0.33834749  1
  Te  Te167  1  0.00211290  0.49987848  0.66370710  1
  Te  Te168  1  -0.00337157  0.82809399  -0.00319552  1
  Te  Te169  1  0.00514417  0.83236017  0.33369034  1
  Te  Te170  1  0.00082099  0.83111024  0.66937653  1
  Te  Te171  1  0.33421060  0.16345568  0.00238491  1
  Te  Te172  1  0.33130276  0.16548349  0.33451845  1
  Te  Te173  1  0.32806466  0.16975841  0.66197019  1
  Te  Te174  1  0.33960960  0.50456317  -0.00089872  1
  Te  Te175  1  0.33347482  0.49814781  0.33294452  1
  Te  Te176  1  0.32773067  0.50166871  0.66716230  1
  Te  Te177  1  0.33369647  0.83253310  0.00234386  1
  Te  Te178  1  0.32871147  0.83345627  0.32792271  1
  Te  Te179  1  0.32852205  0.82949448  0.66716604  1
  Te  Te180  1  0.66672596  0.17180038  0.00707003  1
  Te  Te181  1  0.67015610  0.16633906  0.33064148  1
  Te  Te182  1  0.67136598  0.16790923  0.66725220  1
  Te  Te183  1  0.66219292  0.49633764  -0.00193035  1
  Te  Te184  1  0.66905111  0.50016800  0.33794756  1
  Te  Te185  1  0.66671349  0.50401194  0.66087486  1
  Te  Te186  1  0.66789145  0.83374126  0.00016623  1
  Te  Te187  1  0.66678017  0.83369593  0.33778885  1
  Te  Te188  1  0.66652450  0.82757505  0.66105004  1
  Te  Te189  1  -0.00579164  -0.00068663  0.17072352  1
  Te  Te190  1  0.00102673  -0.00190406  0.49490051  1
  Te  Te191  1  0.00037582  -0.00145246  0.83538385  1
  Te  Te192  1  0.00371103  0.33371853  0.17090388  1
  Te  Te193  1  0.00250156  0.33722954  0.49894709  1
  Te  Te194  1  -0.00064609  0.33753651  0.83244010  1
  Te  Te195  1  0.00171058  0.66677457  0.16863971  1
  Te  Te196  1  0.00346747  0.66316322  0.49474347  1
  Te  Te197  1  -0.00016306  0.66755509  0.83692080  1
  Te  Te198  1  0.33324168  0.00105260  0.16985857  1
  Te  Te199  1  0.33083518  0.00369805  0.49508469  1
  Te  Te200  1  0.33073410  0.00019442  0.83571263  1
  Te  Te201  1  0.33352037  0.33088928  0.16925594  1
  Te  Te202  1  0.33139831  0.33197056  0.49902902  1
  Te  Te203  1  0.33307361  0.33251862  0.82962104  1
  Te  Te204  1  0.32984932  0.66977820  0.16397838  1
  Te  Te205  1  0.32888547  0.66982234  0.50480713  1
  Te  Te206  1  0.33636681  0.66723284  0.83463039  1
  Te  Te207  1  0.66988743  0.00372395  0.17289866  1
  Te  Te208  1  0.66777741  -0.00074237  0.49469966  1
  Te  Te209  1  0.67080574  0.00015048  0.83393693  1
  Te  Te210  1  0.66600278  0.33082277  0.17211645  1
  Te  Te211  1  0.66621631  0.33646390  0.49409054  1
  Te  Te212  1  0.66612929  0.33314616  0.83637792  1
  Te  Te213  1  0.67010685  0.66678619  0.17245425  1
  Te  Te214  1  0.66590142  0.66702668  0.49840394  1
  Te  Te215  1  0.66154329  0.66658705  0.83079288  1
