# generated using pymatgen
data_AgSbTe2
_symmetry_space_group_name_H-M   'P 1'
_cell_length_a   18.32639622
_cell_length_b   18.32342217
_cell_length_c   18.32372146
_cell_angle_alpha   90.00152576
_cell_angle_beta   90.00136838
_cell_angle_gamma   89.99862059
_symmetry_Int_Tables_number   1
_chemical_formula_structural   AgSbTe2
_chemical_formula_sum   'Ag54 Sb54 Te108'
_cell_volume   6153.14770842
_cell_formula_units_Z   54
loop_
 _symmetry_equiv_pos_site_id
 _symmetry_equiv_pos_as_xyz
  1  'x, y, z'
loop_
 _atom_site_type_symbol
 _atom_site_label
 _atom_site_symmetry_multiplicity
 _atom_site_fract_x
 _atom_site_fract_y
 _atom_site_fract_z
 _atom_site_occupancy
  Ag  Ag0  1  0.49506261  0.50535223  0.33395913  1
  Ag  Ag1  1  0.83255516  -0.00453807  0.83264301  1
  Ag  Ag2  1  0.00092940  0.67463831  0.67363112  1
  Ag  Ag3  1  -0.00268475  0.66534933  -0.00031154  1
  Ag  Ag4  1  0.83186329  0.16129993  0.66418390  1
  Ag  Ag5  1  0.83689172  0.50459175  -0.00109018  1
  Ag  Ag6  1  0.16230344  0.83028850  0.33673176  1
  Ag  Ag7  1  0.00387915  0.83257272  0.49425051  1
  Ag  Ag8  1  0.66809959  0.16428824  0.17302823  1
  Ag  Ag9  1  -0.00574275  0.16322175  0.16937988  1
  Ag  Ag10  1  0.66486778  0.82987116  0.82896201  1
  Ag  Ag11  1  0.00443439  0.50529201  0.84184766  1
  Ag  Ag12  1  0.33179785  0.33849138  -0.00513194  1
  Ag  Ag13  1  0.16884889  0.34343227  0.83471403  1
  Ag  Ag14  1  0.16277172  0.82895634  -0.00395634  1
  Ag  Ag15  1  0.33024652  0.66254551  -0.00318029  1
  Ag  Ag16  1  0.50583501  0.16249794  0.33624060  1
  Ag  Ag17  1  0.66339207  0.32727483  0.00082559  1
  Ag  Ag18  1  0.50394821  0.16730401  0.00036469  1
  Ag  Ag19  1  -0.00604187  -0.00469364  0.00205869  1
  Ag  Ag20  1  0.34185564  0.16279565  0.50069489  1
  Ag  Ag21  1  0.50091426  0.00011434  0.49612343  1
  Ag  Ag22  1  0.00024870  0.34231806  0.00424340  1
  Ag  Ag23  1  0.66457704  0.83760559  0.50359783  1
  Ag  Ag24  1  0.66902352  0.67729610  0.67507779  1
  Ag  Ag25  1  0.00387390  -0.00708804  0.33002224  1
  Ag  Ag26  1  0.34095842  -0.00529441  0.33930185  1
  Ag  Ag27  1  0.66676840  -0.00290006  0.66885594  1
  Ag  Ag28  1  0.00062797  0.83086467  0.17095281  1
  Ag  Ag29  1  0.49621923  0.83841484  0.33643999  1
  Ag  Ag30  1  0.16004725  0.66468781  0.83247886  1
  Ag  Ag31  1  -0.00056898  -0.00488897  0.66701455  1
  Ag  Ag32  1  0.66613587  0.32464660  0.32887532  1
  Ag  Ag33  1  0.49749026  0.33616887  0.83778746  1
  Ag  Ag34  1  0.49769375  0.67514974  0.49865506  1
  Ag  Ag35  1  0.82527617  0.16528936  0.33435414  1
  Ag  Ag36  1  0.32432707  0.67250827  0.33192297  1
  Ag  Ag37  1  0.50230921  0.16077455  0.65927011  1
  Ag  Ag38  1  0.33814267  0.00244297  0.66139590  1
  Ag  Ag39  1  0.66121113  0.15967457  0.49545502  1
  Ag  Ag40  1  0.50331674  0.00252772  0.17923165  1
  Ag  Ag41  1  0.50368635  0.66350229  0.83229404  1
  Ag  Ag42  1  0.32814542  0.50316105  0.83569478  1
  Ag  Ag43  1  0.00544955  0.67284506  0.32739484  1
  Ag  Ag44  1  -0.00055708  0.33113377  0.32575495  1
  Ag  Ag45  1  0.66991537  0.00022104  -0.00588327  1
  Ag  Ag46  1  0.16896531  0.67159546  0.49472521  1
  Ag  Ag47  1  0.16642165  0.51267917  0.33447865  1
  Ag  Ag48  1  0.83745822  0.66728668  0.15676347  1
  Ag  Ag49  1  0.67431023  0.67111991  -0.00667511  1
  Ag  Ag50  1  0.16193871  0.83363454  0.66555217  1
  Ag  Ag51  1  -0.00056411  0.50916597  0.16184166  1
  Ag  Ag52  1  0.16506155  0.15580605  0.66681936  1
  Ag  Ag53  1  0.83643470  0.67062087  0.83664972  1
  Sb  Sb54  1  0.16577381  0.50651207  0.66749622  1
  Sb  Sb55  1  0.32813556  0.83217194  0.16951625  1
  Sb  Sb56  1  0.16696322  0.16494673  -0.00433314  1
  Sb  Sb57  1  0.15833263  0.66804739  0.16710321  1
  Sb  Sb58  1  0.33422791  0.50000401  0.50133488  1
  Sb  Sb59  1  0.83700265  0.83834493  0.33363930  1
  Sb  Sb60  1  0.67075174  0.49699562  0.16512112  1
  Sb  Sb61  1  -0.00032556  0.15836861  0.49616304  1
  Sb  Sb62  1  0.16550251  0.33565539  0.50322754  1
  Sb  Sb63  1  0.16061318  0.50662828  -0.00011208  1
  Sb  Sb64  1  0.16222625  0.33387178  0.16049606  1
  Sb  Sb65  1  0.33622888  0.16538753  0.17037910  1
  Sb  Sb66  1  0.33209012  0.67352428  0.66605815  1
  Sb  Sb67  1  0.50506312  -0.00090076  0.83016816  1
  Sb  Sb68  1  0.49887302  0.83530367  0.00308229  1
  Sb  Sb69  1  0.83856156  0.82783083  -0.00161158  1
  Sb  Sb70  1  0.16492236  -0.00099806  0.16785877  1
  Sb  Sb71  1  0.83725916  0.49757400  0.32724910  1
  Sb  Sb72  1  0.67036095  0.83786049  0.16704424  1
  Sb  Sb73  1  0.17084223  -0.00628090  0.50123251  1
  Sb  Sb74  1  0.50209467  0.49805421  0.00240320  1
  Sb  Sb75  1  0.33645331  0.82793254  0.83264007  1
  Sb  Sb76  1  0.33353651  0.83701578  0.49842249  1
  Sb  Sb77  1  0.66507349  0.32671217  0.66932268  1
  Sb  Sb78  1  0.66603447  0.16169600  0.83394953  1
  Sb  Sb79  1  0.83637291  0.83820553  0.66918368  1
  Sb  Sb80  1  0.16140327  -0.00488775  0.83041267  1
  Sb  Sb81  1  0.50521905  0.67084765  0.16718636  1
  Sb  Sb82  1  0.50049493  0.83667053  0.66182976  1
  Sb  Sb83  1  0.33503853  0.16963188  0.82913218  1
  Sb  Sb84  1  0.83512536  0.50100989  0.67461456  1
  Sb  Sb85  1  -0.00196757  0.82743594  0.83390981  1
  Sb  Sb86  1  0.00197338  0.50916543  0.49606458  1
  Sb  Sb87  1  0.83269705  -0.00188733  0.16339418  1
  Sb  Sb88  1  0.50065099  0.32750867  0.50151807  1
  Sb  Sb89  1  0.33324859  0.32588264  0.67271396  1
  Sb  Sb90  1  0.83030219  0.16798243  0.00148000  1
  Sb  Sb91  1  0.50250995  0.32782965  0.16344743  1
  Sb  Sb92  1  0.66507942  0.00372028  0.33543547  1
  Sb  Sb93  1  0.83349582  0.32984906  0.49801613  1
  Sb  Sb94  1  0.66378220  0.50199411  0.49707550  1
  Sb  Sb95  1  0.66663002  0.50742198  0.83578670  1
  Sb  Sb96  1  0.16656741  0.16322367  0.33879961  1
  Sb  Sb97  1  0.83519485  0.33435084  0.16547162  1
  Sb  Sb98  1  0.33437607  -0.00144483  -0.00004992  1
  Sb  Sb99  1  0.83233019  0.33442608  0.83673714  1
  Sb  Sb100  1  0.66738995  0.66557711  0.33339970  1
  Sb  Sb101  1  0.00131802  0.33073044  0.66921527  1
  Sb  Sb102  1  0.49993244  0.50000354  0.66599582  1
  Sb  Sb103  1  0.32804634  0.50216726  0.16362921  1
  Sb  Sb104  1  0.83446808  0.66906141  0.50344250  1
  Sb  Sb105  1  -0.00028967  0.16781755  0.83662412  1
  Sb  Sb106  1  0.33398353  0.33312474  0.32860659  1
  Sb  Sb107  1  0.82889340  0.00065477  0.50421534  1
  Te  Te108  1  0.15943494  0.16603767  0.16581536  1
  Te  Te109  1  0.16831360  0.16742287  0.50765305  1
  Te  Te110  1  0.16699611  0.16793149  0.82652987  1
  Te  Te111  1  0.16007163  0.49875850  0.17570299  1
  Te  Te112  1  0.16860747  0.50759376  0.49541508  1
  Te  Te113  1  0.16570402  0.50301691  0.83337199  1
  Te  Te114  1  0.15973495  0.83471053  0.16917361  1
  Te  Te115  1  0.16402459  0.82889860  0.49897800  1
  Te  Te116  1  0.16856350  0.82770761  0.83242349  1
  Te  Te117  1  0.50240343  0.16267644  0.16711266  1
  Te  Te118  1  0.50116525  0.16598975  0.49968331  1
  Te  Te119  1  0.50013202  0.16978665  0.83794255  1
  Te  Te120  1  0.49969398  0.50046320  0.17504883  1
  Te  Te121  1  0.49881199  0.50520239  0.49421483  1
  Te  Te122  1  0.49641608  0.50178642  0.83397295  1
  Te  Te123  1  0.50122359  0.83966568  0.17281317  1
  Te  Te124  1  0.50147568  0.83424244  0.49706378  1
  Te  Te125  1  0.50501202  0.82647549  0.83441041  1
  Te  Te126  1  0.83270965  0.16524681  0.17028229  1
  Te  Te127  1  0.82819656  0.16603736  0.49886018  1
  Te  Te128  1  0.83347012  0.16230912  0.82862675  1
  Te  Te129  1  0.83897088  0.50645956  0.16111695  1
  Te  Te130  1  0.83244657  0.49854476  0.50194925  1
  Te  Te131  1  0.83891248  0.50473889  0.83860121  1
  Te  Te132  1  0.84019534  0.82770006  0.16738884  1
  Te  Te133  1  0.82799268  0.83385448  0.50067893  1
  Te  Te134  1  0.82380930  0.83236846  0.83380932  1
  Te  Te135  1  0.16381322  -0.00525385  -0.00107139  1
  Te  Te136  1  0.16447029  -0.00532579  0.33402768  1
  Te  Te137  1  0.16044317  -0.00259918  0.66673021  1
  Te  Te138  1  0.16426626  0.33294507  -0.00628050  1
  Te  Te139  1  0.16314624  0.33265359  0.33418943  1
  Te  Te140  1  0.16590700  0.33219347  0.67306126  1
  Te  Te141  1  0.16700844  0.66859099  -0.00222240  1
  Te  Te142  1  0.16571075  0.66972433  0.33215702  1
  Te  Te143  1  0.16404556  0.67101033  0.66893818  1
  Te  Te144  1  0.50170116  0.00362106  -0.00224884  1
  Te  Te145  1  0.50146911  0.00066718  0.33597785  1
  Te  Te146  1  0.50242903  0.00204882  0.66445583  1
  Te  Te147  1  0.50330979  0.33168849  -0.00201437  1
  Te  Te148  1  0.50101286  0.32851115  0.33320313  1
  Te  Te149  1  0.50050562  0.32820830  0.67347328  1
  Te  Te150  1  0.49837691  0.66649386  -0.00128824  1
  Te  Te151  1  0.50320059  0.66828445  0.33429496  1
  Te  Te152  1  0.50140456  0.66762612  0.66590244  1
  Te  Te153  1  0.83286910  0.00075121  -0.00389777  1
  Te  Te154  1  0.84140286  0.00587590  0.33204068  1
  Te  Te155  1  0.83219124  0.00338054  0.67000661  1
  Te  Te156  1  0.83680842  0.33763088  -0.00106656  1
  Te  Te157  1  0.83435380  0.32859088  0.33210928  1
  Te  Te158  1  0.83321412  0.32424005  0.66777876  1
  Te  Te159  1  0.83504961  0.66611223  -0.00328220  1
  Te  Te160  1  0.83761018  0.66550005  0.33431115  1
  Te  Te161  1  0.83385144  0.66611198  0.67165463  1
  Te  Te162  1  -0.00064212  0.16279427  0.00471598  1
  Te  Te163  1  0.00183822  0.16729522  0.33164511  1
  Te  Te164  1  -0.00055904  0.16256109  0.66499479  1
  Te  Te165  1  0.00045163  0.50161763  0.00147612  1
  Te  Te166  1  0.00116981  0.50068921  0.33105946  1
  Te  Te167  1  -0.00003044  0.50367200  0.66849986  1
  Te  Te168  1  0.00357388  0.83433857  -0.00072601  1
  Te  Te169  1  -0.00043161  0.83314005  0.33441666  1
  Te  Te170  1  0.00154522  0.83376186  0.66795128  1
  Te  Te171  1  0.33716230  0.16853382  0.00150833  1
  Te  Te172  1  0.33568904  0.16350790  0.33721687  1
  Te  Te173  1  0.33590488  0.16111086  0.66290818  1
  Te  Te174  1  0.33351505  0.50157208  -0.00268357  1
  Te  Te175  1  0.33286778  0.50259543  0.33270651  1
  Te  Te176  1  0.33365702  0.49880833  0.67396018  1
  Te  Te177  1  0.32664607  0.82827808  0.00139567  1
  Te  Te178  1  0.33374577  0.83276526  0.33289965  1
  Te  Te179  1  0.32591409  0.84186064  0.66613377  1
  Te  Te180  1  0.66564106  0.16560254  0.00043605  1
  Te  Te181  1  0.66622993  0.16558821  0.33330092  1
  Te  Te182  1  0.66483725  0.16308372  0.66586418  1
  Te  Te183  1  0.67105184  0.50154637  0.00099172  1
  Te  Te184  1  0.66491143  0.49202203  0.33179155  1
  Te  Te185  1  0.66696932  0.50540513  0.66583393  1
  Te  Te186  1  0.66526915  0.83406995  -0.00000718  1
  Te  Te187  1  0.66492356  0.83482100  0.33669942  1
  Te  Te188  1  0.66549989  0.83507205  0.66530266  1
  Te  Te189  1  -0.00094078  -0.00094155  0.16514680  1
  Te  Te190  1  -0.00078862  -0.00662374  0.50214411  1
  Te  Te191  1  -0.00512239  -0.00014705  0.83338678  1
  Te  Te192  1  -0.00017870  0.33003108  0.16526468  1
  Te  Te193  1  0.00120289  0.33418874  0.49409970  1
  Te  Te194  1  0.00147105  0.33843871  0.83725801  1
  Te  Te195  1  -0.00229168  0.66852076  0.16515208  1
  Te  Te196  1  0.00186046  0.67277664  0.50126150  1
  Te  Te197  1  -0.00016884  0.66689215  0.83480643  1
  Te  Te198  1  0.34031794  0.00005167  0.17047739  1
  Te  Te199  1  0.33720092  0.00290663  0.49953912  1
  Te  Te200  1  0.33292768  -0.00031936  0.82841438  1
  Te  Te201  1  0.33237985  0.33374503  0.15534476  1
  Te  Te202  1  0.33214043  0.32685665  0.49918339  1
  Te  Te203  1  0.33376415  0.33666539  0.83757857  1
  Te  Te204  1  0.33633664  0.66620589  0.16695916  1
  Te  Te205  1  0.33490503  0.66532194  0.49683349  1
  Te  Te206  1  0.33493257  0.66354429  0.83352356  1
  Te  Te207  1  0.66530051  0.00358479  0.16010508  1
  Te  Te208  1  0.66325526  0.00006815  0.50256198  1
  Te  Te209  1  0.66952989  -0.00471874  0.83326568  1
  Te  Te210  1  0.66805046  0.32746203  0.16466116  1
  Te  Te211  1  0.66621819  0.32888933  0.49682265  1
  Te  Te212  1  0.66325405  0.33575330  0.83843068  1
  Te  Te213  1  0.67364310  0.66783897  0.16112332  1
  Te  Te214  1  0.66288604  0.66991941  0.50163743  1
  Te  Te215  1  0.66526722  0.66781928  0.83369489  1
