# generated using pymatgen
data_AgSbTe2
_symmetry_space_group_name_H-M   'P 1'
_cell_length_a   18.32324725
_cell_length_b   18.32937322
_cell_length_c   18.32114563
_cell_angle_alpha   89.99859195
_cell_angle_beta   90.00043790
_cell_angle_gamma   89.99933727
_symmetry_Int_Tables_number   1
_chemical_formula_structural   AgSbTe2
_chemical_formula_sum   'Ag54 Sb54 Te108'
_cell_volume   6153.22339882
_cell_formula_units_Z   54
loop_
 _symmetry_equiv_pos_site_id
 _symmetry_equiv_pos_as_xyz
  1  'x, y, z'
loop_
 _atom_site_type_symbol
 _atom_site_label
 _atom_site_symmetry_multiplicity
 _atom_site_fract_x
 _atom_site_fract_y
 _atom_site_fract_z
 _atom_site_occupancy
  Ag  Ag0  1  0.83391640  0.49256322  0.33811959  1
  Ag  Ag1  1  0.83678399  0.32933917  0.83310204  1
  Ag  Ag2  1  0.67946053  0.49536852  0.83155249  1
  Ag  Ag3  1  -0.00947444  0.00553501  0.66263596  1
  Ag  Ag4  1  0.83597991  0.84523061  0.67020440  1
  Ag  Ag5  1  0.67822397  0.00154984  0.66836367  1
  Ag  Ag6  1  0.50330687  0.00523498  0.16195161  1
  Ag  Ag7  1  0.83181888  0.00944548  0.82554711  1
  Ag  Ag8  1  0.15895857  0.49481985  -0.00063428  1
  Ag  Ag9  1  0.50526262  0.00086875  0.83194270  1
  Ag  Ag10  1  0.83253223  0.33033401  0.16430575  1
  Ag  Ag11  1  0.67202397  0.32743172  0.33143948  1
  Ag  Ag12  1  0.83683232  0.49922761  0.66944118  1
  Ag  Ag13  1  0.16437469  0.66637933  0.83299039  1
  Ag  Ag14  1  0.33196836  0.83784632  0.83347421  1
  Ag  Ag15  1  0.83776760  -0.00086944  0.51147929  1
  Ag  Ag16  1  0.15289882  0.16591764  0.32853470  1
  Ag  Ag17  1  0.67565265  0.00518063  0.33172455  1
  Ag  Ag18  1  -0.00336486  0.84104788  0.16616452  1
  Ag  Ag19  1  0.49588043  0.33199368  0.50322157  1
  Ag  Ag20  1  -0.00238579  0.16596941  0.50317918  1
  Ag  Ag21  1  -0.00554732  0.17140168  0.82746314  1
  Ag  Ag22  1  -0.00429324  0.16356543  0.16988748  1
  Ag  Ag23  1  -0.00459960  0.49351791  0.82618952  1
  Ag  Ag24  1  0.16056544  0.83436908  0.00093665  1
  Ag  Ag25  1  0.16046168  0.00104861  0.16366619  1
  Ag  Ag26  1  0.67611277  0.16546043  0.83095849  1
  Ag  Ag27  1  0.67908697  0.66978833  0.66615412  1
  Ag  Ag28  1  -0.00389044  0.83502834  0.50326819  1
  Ag  Ag29  1  0.00063886  0.33230184  -0.00707190  1
  Ag  Ag30  1  0.32834560  0.32905668  0.66810213  1
  Ag  Ag31  1  0.83556586  0.16697975  0.33605713  1
  Ag  Ag32  1  0.16207374  0.67331781  0.16377113  1
  Ag  Ag33  1  0.33412760  0.00593755  0.67288529  1
  Ag  Ag34  1  0.67175216  0.66473571  0.33694474  1
  Ag  Ag35  1  0.32869106  0.00340715  -0.00671061  1
  Ag  Ag36  1  0.50937918  0.32431661  0.16778625  1
  Ag  Ag37  1  0.50045122  0.67030172  0.83067828  1
  Ag  Ag38  1  -0.00477354  0.66251109  0.66257544  1
  Ag  Ag39  1  0.67470198  0.16404349  0.16714692  1
  Ag  Ag40  1  0.67696263  0.84350615  0.16763223  1
  Ag  Ag41  1  0.84073372  0.83224341  -0.00335114  1
  Ag  Ag42  1  0.15397493  0.65938469  0.50323050  1
  Ag  Ag43  1  0.51008741  0.16546901  0.66806742  1
  Ag  Ag44  1  0.16230270  0.16739617  0.00302084  1
  Ag  Ag45  1  0.83720318  0.66829838  0.50466083  1
  Ag  Ag46  1  0.84008886  0.49788386  -0.01293397  1
  Ag  Ag47  1  0.83440565  0.15938108  0.67100150  1
  Ag  Ag48  1  0.32330027  0.32901788  -0.00628806  1
  Ag  Ag49  1  -0.00700555  0.00597429  0.33864575  1
  Ag  Ag50  1  0.16342074  0.33684719  0.50141809  1
  Ag  Ag51  1  -0.00061232  0.49893373  0.50785875  1
  Ag  Ag52  1  0.32044143  0.49535591  0.50370715  1
  Ag  Ag53  1  -0.00295518  0.33161788  0.66933999  1
  Sb  Sb54  1  0.66833132  0.83581608  0.83484459  1
  Sb  Sb55  1  0.49660445  0.16591312  -0.00288234  1
  Sb  Sb56  1  -0.00595618  0.32590480  0.33593223  1
  Sb  Sb57  1  0.33117099  0.16661534  0.16547441  1
  Sb  Sb58  1  0.16459817  -0.00187459  0.83729869  1
  Sb  Sb59  1  0.15743515  0.49952633  0.66916622  1
  Sb  Sb60  1  0.50510994  0.32900727  0.83271343  1
  Sb  Sb61  1  0.66746196  0.00091171  -0.00144179  1
  Sb  Sb62  1  0.32904395  0.50055111  0.82983627  1
  Sb  Sb63  1  0.83512324  0.83799605  0.33508591  1
  Sb  Sb64  1  0.15699530  0.00184297  0.49755156  1
  Sb  Sb65  1  0.33632487  0.33278160  0.33598170  1
  Sb  Sb66  1  0.67461384  0.83369609  0.49806183  1
  Sb  Sb67  1  0.15819445  0.49624057  0.33368670  1
  Sb  Sb68  1  0.32513874  0.17057372  0.50429177  1
  Sb  Sb69  1  0.00098095  0.66221850  -0.00563532  1
  Sb  Sb70  1  0.00274989  0.00475566  -0.00126487  1
  Sb  Sb71  1  0.83494858  0.00430468  0.16556580  1
  Sb  Sb72  1  0.33066803  0.16363265  0.83194366  1
  Sb  Sb73  1  -0.00469305  0.67019645  0.34092740  1
  Sb  Sb74  1  0.50694968  0.84007956  0.66848601  1
  Sb  Sb75  1  -0.00186863  0.49763412  0.16559802  1
  Sb  Sb76  1  0.33027923  0.66375013  0.66841452  1
  Sb  Sb77  1  0.67639449  0.16753377  0.50075225  1
  Sb  Sb78  1  0.50402819  0.66138812  0.50720241  1
  Sb  Sb79  1  0.33019540  0.49704497  0.16737073  1
  Sb  Sb80  1  0.84013517  0.16769976  -0.00303892  1
  Sb  Sb81  1  0.67061124  0.66709853  -0.00395777  1
  Sb  Sb82  1  0.50519825  0.83579579  0.33238680  1
  Sb  Sb83  1  0.67359084  0.33183747  0.00228671  1
  Sb  Sb84  1  0.16293832  0.83736780  0.32811107  1
  Sb  Sb85  1  0.67029648  0.49661372  0.16421898  1
  Sb  Sb86  1  0.16180950  0.32903347  0.16618617  1
  Sb  Sb87  1  0.15653380  0.16674293  0.66822505  1
  Sb  Sb88  1  0.33198501  0.00180665  0.33403287  1
  Sb  Sb89  1  0.50065491  0.49648462  -0.00254447  1
  Sb  Sb90  1  0.32849176  0.83739189  0.15884614  1
  Sb  Sb91  1  0.50668278  0.00628083  0.50401242  1
  Sb  Sb92  1  0.15779510  0.33578705  0.83264876  1
  Sb  Sb93  1  0.83879433  0.33178182  0.50199665  1
  Sb  Sb94  1  0.67555337  0.49827120  0.50432152  1
  Sb  Sb95  1  0.00012942  0.83454708  0.83279007  1
  Sb  Sb96  1  0.49993674  0.83601945  -0.00213341  1
  Sb  Sb97  1  0.32141480  0.83132973  0.50966218  1
  Sb  Sb98  1  0.83570246  0.66359268  0.82399153  1
  Sb  Sb99  1  0.67304321  0.32933492  0.66457026  1
  Sb  Sb100  1  0.50153812  0.66915485  0.16288553  1
  Sb  Sb101  1  0.15748834  0.83392830  0.67154904  1
  Sb  Sb102  1  0.83725820  0.66563662  0.17188969  1
  Sb  Sb103  1  0.50554575  0.49422111  0.66749777  1
  Sb  Sb104  1  0.50655445  0.16751905  0.33599520  1
  Sb  Sb105  1  0.32735230  0.66695603  -0.00195581  1
  Sb  Sb106  1  0.50813175  0.49733087  0.33594440  1
  Sb  Sb107  1  0.33430344  0.66487918  0.33588665  1
  Te  Te108  1  0.16482122  0.16404727  0.16583434  1
  Te  Te109  1  0.15810320  0.16933165  0.49804070  1
  Te  Te110  1  0.15883862  0.16742862  0.83948201  1
  Te  Te111  1  0.16594671  0.50401767  0.16274375  1
  Te  Te112  1  0.16145671  0.49934510  0.49871791  1
  Te  Te113  1  0.16268860  0.50492496  0.83885785  1
  Te  Te114  1  0.16321621  0.83545820  0.16178962  1
  Te  Te115  1  0.15718449  0.82760534  0.49949503  1
  Te  Te116  1  0.16883910  0.82845431  0.83853979  1
  Te  Te117  1  0.50312550  0.16569607  0.16791782  1
  Te  Te118  1  0.49720577  0.17197031  0.50443318  1
  Te  Te119  1  0.50413065  0.16181086  0.82937444  1
  Te  Te120  1  0.50005166  0.49748159  0.16690480  1
  Te  Te121  1  0.49645719  0.49351170  0.50075034  1
  Te  Te122  1  0.50108200  0.50305559  0.83342605  1
  Te  Te123  1  0.50226836  0.83779151  0.16498475  1
  Te  Te124  1  0.49582656  0.83206785  0.50056467  1
  Te  Te125  1  0.49633819  0.83634077  0.83296885  1
  Te  Te126  1  0.83336116  0.16934883  0.16351418  1
  Te  Te127  1  0.83858013  0.16484865  0.50016210  1
  Te  Te128  1  0.83392517  0.16804710  0.83454759  1
  Te  Te129  1  0.83274894  0.49425384  0.16970579  1
  Te  Te130  1  0.83839146  0.49961415  0.50182769  1
  Te  Te131  1  0.83529351  0.50138377  0.83162301  1
  Te  Te132  1  0.83585879  0.83319640  0.16481466  1
  Te  Te133  1  0.83812831  0.83426436  0.50225324  1
  Te  Te134  1  0.83315255  0.83544309  0.83380587  1
  Te  Te135  1  0.16883715  -0.00060240  0.00342640  1
  Te  Te136  1  0.16414862  0.00504300  0.32822169  1
  Te  Te137  1  0.17360725  -0.00055843  0.66592213  1
  Te  Te138  1  0.16403693  0.33385641  0.00043612  1
  Te  Te139  1  0.16788701  0.32825621  0.33635073  1
  Te  Te140  1  0.16711324  0.33302097  0.66343427  1
  Te  Te141  1  0.16623577  0.66867578  0.00044415  1
  Te  Te142  1  0.16699406  0.66554209  0.33377447  1
  Te  Te143  1  0.16209310  0.66659794  0.66571374  1
  Te  Te144  1  0.49282105  0.00019598  -0.00111223  1
  Te  Te145  1  0.50471854  0.00171360  0.33059219  1
  Te  Te146  1  0.49769849  0.00521036  0.66911367  1
  Te  Te147  1  0.49396766  0.33306123  0.00424775  1
  Te  Te148  1  0.50591018  0.33302072  0.32874277  1
  Te  Te149  1  0.50047171  0.32728701  0.66537382  1
  Te  Te150  1  0.49917755  0.66617128  -0.00721493  1
  Te  Te151  1  0.50992498  0.66597336  0.33360796  1
  Te  Te152  1  0.50281927  0.66724894  0.67125572  1
  Te  Te153  1  0.83535733  -0.00610653  -0.00750550  1
  Te  Te154  1  0.83385659  0.00395731  0.33124494  1
  Te  Te155  1  0.83440842  0.00094796  0.66764681  1
  Te  Te156  1  0.83805659  0.33564383  -0.00223328  1
  Te  Te157  1  0.83077965  0.33034741  0.33444657  1
  Te  Te158  1  0.83664547  0.33591805  0.66873038  1
  Te  Te159  1  0.83440808  0.66687191  0.00293014  1
  Te  Te160  1  0.82910471  0.66579006  0.33888327  1
  Te  Te161  1  0.83490889  0.66118235  0.66467077  1
  Te  Te162  1  0.00321773  0.17047555  0.00292555  1
  Te  Te163  1  -0.00328076  0.16549640  0.33009900  1
  Te  Te164  1  -0.00347685  0.16697703  0.66750110  1
  Te  Te165  1  -0.00070081  0.49622166  -0.00045257  1
  Te  Te166  1  -0.00686353  0.49962609  0.33659067  1
  Te  Te167  1  -0.00159805  0.49835814  0.66726441  1
  Te  Te168  1  0.00027439  0.83167800  0.00262849  1
  Te  Te169  1  0.00015697  0.84157107  0.33114226  1
  Te  Te170  1  -0.00525889  0.83535113  0.66537623  1
  Te  Te171  1  0.32713154  0.16692966  -0.00136292  1
  Te  Te172  1  0.32663526  0.16652452  0.33493582  1
  Te  Te173  1  0.33413998  0.16829264  0.66775267  1
  Te  Te174  1  0.32789924  0.49399588  -0.00133952  1
  Te  Te175  1  0.33284860  0.49954002  0.34162026  1
  Te  Te176  1  0.33529900  0.49452280  0.66234983  1
  Te  Te177  1  0.32879270  0.83719127  -0.00621788  1
  Te  Te178  1  0.33426589  0.83304886  0.33507643  1
  Te  Te179  1  0.33433255  0.83582388  0.67308846  1
  Te  Te180  1  0.66495074  0.16685940  0.00100077  1
  Te  Te181  1  0.67150659  0.16589251  0.33184720  1
  Te  Te182  1  0.67167063  0.16325355  0.66708287  1
  Te  Te183  1  0.67207640  0.49995281  -0.00785178  1
  Te  Te184  1  0.67471338  0.50042861  0.33330658  1
  Te  Te185  1  0.67217445  0.50186585  0.67118472  1
  Te  Te186  1  0.67140461  0.83271941  0.00737707  1
  Te  Te187  1  0.66871629  0.83790241  0.32793375  1
  Te  Te188  1  0.67402060  0.83525454  0.66604129  1
  Te  Te189  1  0.00082677  0.00142336  0.16508252  1
  Te  Te190  1  -0.00242652  0.00167746  0.50115548  1
  Te  Te191  1  -0.00299474  0.00299229  0.82863857  1
  Te  Te192  1  -0.00422532  0.32965491  0.16399071  1
  Te  Te193  1  0.00231105  0.33243817  0.50167520  1
  Te  Te194  1  -0.00207710  0.33331848  0.83146514  1
  Te  Te195  1  0.00410304  0.67024523  0.16896106  1
  Te  Te196  1  -0.00235642  0.66655452  0.50171926  1
  Te  Te197  1  0.00363101  0.66374597  0.82754123  1
  Te  Te198  1  0.33713480  -0.00012008  0.16519345  1
  Te  Te199  1  0.33434806  -0.00165280  0.50461431  1
  Te  Te200  1  0.33203939  -0.00047956  0.83352030  1
  Te  Te201  1  0.33680197  0.33363488  0.16331554  1
  Te  Te202  1  0.33151796  0.33573247  0.50255515  1
  Te  Te203  1  0.33526148  0.33252155  0.83176745  1
  Te  Te204  1  0.32894845  0.66782478  0.16742780  1
  Te  Te205  1  0.33093981  0.66158730  0.50119201  1
  Te  Te206  1  0.33233253  0.66910876  0.83248910  1
  Te  Te207  1  0.66705016  0.00302710  0.16590194  1
  Te  Te208  1  0.67271029  -0.00021959  0.50034767  1
  Te  Te209  1  0.66605765  0.00242036  0.83144431  1
  Te  Te210  1  0.66911034  0.33016171  0.16849014  1
  Te  Te211  1  0.65932416  0.33386160  0.49455592  1
  Te  Te212  1  0.67182904  0.33141595  0.83335538  1
  Te  Te213  1  0.66505333  0.66937512  0.17077807  1
  Te  Te214  1  0.67066313  0.66624352  0.50202697  1
  Te  Te215  1  0.66411908  0.66744962  0.82896458  1
