# generated using pymatgen
data_AgSbTe2
_symmetry_space_group_name_H-M   'P 1'
_cell_length_a   18.33898996
_cell_length_b   18.33419712
_cell_length_c   18.33263965
_cell_angle_alpha   90.00061479
_cell_angle_beta   89.99910320
_cell_angle_gamma   89.99991040
_symmetry_Int_Tables_number   1
_chemical_formula_structural   AgSbTe2
_chemical_formula_sum   'Ag54 Sb54 Te108'
_cell_volume   6163.99547003
_cell_formula_units_Z   54
loop_
 _symmetry_equiv_pos_site_id
 _symmetry_equiv_pos_as_xyz
  1  'x, y, z'
loop_
 _atom_site_type_symbol
 _atom_site_label
 _atom_site_symmetry_multiplicity
 _atom_site_fract_x
 _atom_site_fract_y
 _atom_site_fract_z
 _atom_site_occupancy
  Ag  Ag0  1  0.50448122  0.83802870  0.67100837  1
  Ag  Ag1  1  0.50238374  0.83558524  0.00217958  1
  Ag  Ag2  1  0.17485866  0.15667095  0.32841428  1
  Ag  Ag3  1  0.66284063  0.00000852  0.67103360  1
  Ag  Ag4  1  0.49884029  0.16594962  0.33419666  1
  Ag  Ag5  1  0.50102817  0.33575472  0.49468495  1
  Ag  Ag6  1  0.66179448  0.66932396  0.32677946  1
  Ag  Ag7  1  -0.00326451  0.83420756  0.83031052  1
  Ag  Ag8  1  0.66013083  0.33480564  0.34213958  1
  Ag  Ag9  1  0.66518763  0.15418711  0.83030211  1
  Ag  Ag10  1  0.34324311  0.83392549  0.83627808  1
  Ag  Ag11  1  0.33926087  0.33590232  0.00243744  1
  Ag  Ag12  1  -0.00375695  0.67642528  -0.00362301  1
  Ag  Ag13  1  0.66735325  0.32344680  0.65882988  1
  Ag  Ag14  1  0.01237217  0.00043469  0.32421727  1
  Ag  Ag15  1  0.50470197  -0.00393887  0.82876373  1
  Ag  Ag16  1  0.33782521  0.67004992  -0.00096065  1
  Ag  Ag17  1  0.82861600  0.83789965  0.66884061  1
  Ag  Ag18  1  0.32792070  -0.00025614  0.32974303  1
  Ag  Ag19  1  0.83052346  -0.00325790  0.16679162  1
  Ag  Ag20  1  0.34319109  0.83766140  0.16235682  1
  Ag  Ag21  1  0.81710637  0.33212353  0.50439416  1
  Ag  Ag22  1  0.83285875  0.67363909  0.83669444  1
  Ag  Ag23  1  0.49983910  -0.00166762  0.50065813  1
  Ag  Ag24  1  0.66114179  0.83643648  0.83197204  1
  Ag  Ag25  1  0.66315561  -0.00541509  -0.00498419  1
  Ag  Ag26  1  0.50481159  0.15670866  0.66016705  1
  Ag  Ag27  1  0.82073266  0.67865248  0.16000658  1
  Ag  Ag28  1  -0.00525484  -0.00244641  0.66772313  1
  Ag  Ag29  1  0.17130446  0.00000134  0.48800900  1
  Ag  Ag30  1  0.33363680  0.15569558  0.16756466  1
  Ag  Ag31  1  0.66247352  0.67670678  0.00515248  1
  Ag  Ag32  1  0.16775804  0.83632397  0.66347399  1
  Ag  Ag33  1  -0.00880698  0.32348718  0.66344480  1
  Ag  Ag34  1  0.50163140  0.49368212  0.33627519  1
  Ag  Ag35  1  0.66072827  0.83426252  0.16158619  1
  Ag  Ag36  1  0.17126687  0.32705890  0.49945892  1
  Ag  Ag37  1  0.33659015  0.67426586  0.66998535  1
  Ag  Ag38  1  0.65994638  0.49776388  0.49855800  1
  Ag  Ag39  1  0.50349972  0.68030455  0.16906976  1
  Ag  Ag40  1  0.16819440  0.16468399  0.00826067  1
  Ag  Ag41  1  0.16763143  0.84525561  0.33706523  1
  Ag  Ag42  1  -0.00127951  -0.00500810  0.00402032  1
  Ag  Ag43  1  0.16985504  0.49773161  0.00279278  1
  Ag  Ag44  1  0.82226434  0.15808789  0.66664867  1
  Ag  Ag45  1  0.34262358  0.49988259  0.49971110  1
  Ag  Ag46  1  0.49822213  -0.00293393  0.16935002  1
  Ag  Ag47  1  0.65949636  0.33161054  0.00042465  1
  Ag  Ag48  1  -0.00082607  0.68028897  0.67184720  1
  Ag  Ag49  1  0.00752666  0.15944745  0.16535289  1
  Ag  Ag50  1  0.50237433  0.32791037  0.17348442  1
  Ag  Ag51  1  0.16777513  0.00149010  0.17355630  1
  Ag  Ag52  1  0.66182183  0.83159895  0.50541946  1
  Ag  Ag53  1  0.50299562  0.67057363  0.49529773  1
  Sb  Sb54  1  0.83026471  0.00233779  0.50156168  1
  Sb  Sb55  1  0.66459712  0.50398917  0.82957764  1
  Sb  Sb56  1  0.50227025  0.32406934  0.83243508  1
  Sb  Sb57  1  0.00025364  0.49793276  0.50103179  1
  Sb  Sb58  1  -0.00257184  0.84013419  0.15985994  1
  Sb  Sb59  1  0.17061993  -0.00272137  0.83430394  1
  Sb  Sb60  1  -0.00494937  0.15788452  0.83484325  1
  Sb  Sb61  1  0.17250876  0.32324241  0.17028565  1
  Sb  Sb62  1  0.16723905  0.50329411  0.66821943  1
  Sb  Sb63  1  0.34098822  0.32643421  0.32936775  1
  Sb  Sb64  1  -0.00546193  0.67536561  0.33158800  1
  Sb  Sb65  1  -0.00215327  0.83522407  0.50827513  1
  Sb  Sb66  1  0.82482751  0.83327965  -0.00550670  1
  Sb  Sb67  1  0.83123374  0.50238384  0.66527781  1
  Sb  Sb68  1  0.49771796  0.50453796  0.00652164  1
  Sb  Sb69  1  0.82413870  0.32917785  0.17049486  1
  Sb  Sb70  1  0.16369047  0.67091880  0.83416640  1
  Sb  Sb71  1  0.66266374  0.16686995  0.50598381  1
  Sb  Sb72  1  0.83074232  0.33549191  0.82782842  1
  Sb  Sb73  1  0.17512415  0.49730785  0.33126643  1
  Sb  Sb74  1  0.50161644  0.50476202  0.65729707  1
  Sb  Sb75  1  0.82516053  0.66565619  0.50113753  1
  Sb  Sb76  1  0.34107758  0.67301153  0.33147253  1
  Sb  Sb77  1  0.00176630  0.16409768  0.49768866  1
  Sb  Sb78  1  0.66558662  0.67553490  0.66802157  1
  Sb  Sb79  1  0.00040038  0.50681320  0.83291875  1
  Sb  Sb80  1  0.83296280  0.16269558  -0.00260481  1
  Sb  Sb81  1  0.33657053  0.50235283  0.16923529  1
  Sb  Sb82  1  0.33929080  0.15892855  0.83962485  1
  Sb  Sb83  1  0.82624011  -0.00591844  0.83371579  1
  Sb  Sb84  1  0.17333288  0.67045106  0.50160019  1
  Sb  Sb85  1  0.33979377  0.83226724  0.50052708  1
  Sb  Sb86  1  0.49751865  0.83773047  0.33182660  1
  Sb  Sb87  1  0.17040742  0.83629451  0.00044602  1
  Sb  Sb88  1  -0.00216929  0.32609056  0.33749538  1
  Sb  Sb89  1  0.33527774  0.50774157  0.83196716  1
  Sb  Sb90  1  0.16772589  0.33054576  0.82992460  1
  Sb  Sb91  1  0.83326510  0.50370495  0.00125529  1
  Sb  Sb92  1  0.66184649  -0.00097703  0.33394020  1
  Sb  Sb93  1  0.66327990  0.50776065  0.17088339  1
  Sb  Sb94  1  0.33833934  0.33664268  0.66661653  1
  Sb  Sb95  1  0.50387104  0.67602515  0.83525556  1
  Sb  Sb96  1  0.33618204  -0.00356930  0.00792823  1
  Sb  Sb97  1  0.33846600  -0.00552032  0.66201733  1
  Sb  Sb98  1  0.49789050  0.16134077  0.00414972  1
  Sb  Sb99  1  0.16827759  0.15971005  0.66383589  1
  Sb  Sb100  1  0.83408164  0.83629359  0.33614353  1
  Sb  Sb101  1  0.33609065  0.16712162  0.49550565  1
  Sb  Sb102  1  0.82515989  0.50068894  0.33475980  1
  Sb  Sb103  1  0.00109355  0.33000362  -0.00405808  1
  Sb  Sb104  1  0.00199052  0.49845363  0.16478678  1
  Sb  Sb105  1  0.17049691  0.67639921  0.16500206  1
  Sb  Sb106  1  0.66292908  0.15926775  0.16257349  1
  Sb  Sb107  1  0.82932191  0.16449199  0.33641959  1
  Te  Te108  1  0.16871393  0.16326217  0.16867695  1
  Te  Te109  1  0.16869021  0.16327214  0.49594653  1
  Te  Te110  1  0.16783936  0.16567735  0.83890361  1
  Te  Te111  1  0.16805647  0.49826937  0.16220380  1
  Te  Te112  1  0.16992868  0.49784759  0.49936830  1
  Te  Te113  1  0.16806693  0.49862868  0.84179027  1
  Te  Te114  1  0.16727089  0.84047695  0.16906329  1
  Te  Te115  1  0.16783474  0.83746024  0.50082650  1
  Te  Te116  1  0.16596995  0.83415755  0.82672810  1
  Te  Te117  1  0.49722955  0.16755126  0.16871977  1
  Te  Te118  1  0.49852341  0.16272465  0.49973760  1
  Te  Te119  1  0.50495605  0.15748497  0.82942754  1
  Te  Te120  1  0.50008463  0.49014526  0.17361270  1
  Te  Te121  1  0.50221086  0.49870353  0.49669963  1
  Te  Te122  1  0.49875948  0.49925890  0.83222036  1
  Te  Te123  1  0.50056816  0.83553867  0.16745449  1
  Te  Te124  1  0.50211437  0.83382576  0.49947879  1
  Te  Te125  1  0.50164159  0.83630541  0.83388137  1
  Te  Te126  1  0.83580131  0.16053901  0.16679336  1
  Te  Te127  1  0.83478695  0.17161102  0.50635435  1
  Te  Te128  1  0.82748290  0.16782695  0.82620722  1
  Te  Te129  1  0.83411327  0.50532626  0.16777622  1
  Te  Te130  1  0.82830031  0.49345662  0.49965539  1
  Te  Te131  1  0.83275629  0.51189795  0.83340719  1
  Te  Te132  1  0.83085384  0.83578649  0.16872700  1
  Te  Te133  1  0.82517225  0.83367930  0.50645746  1
  Te  Te134  1  0.83412349  0.83113399  0.82865562  1
  Te  Te135  1  0.16520484  0.00320092  0.00156040  1
  Te  Te136  1  0.16744369  0.00146880  0.33218505  1
  Te  Te137  1  0.16473676  -0.00346230  0.66689048  1
  Te  Te138  1  0.16742042  0.33048571  0.00042760  1
  Te  Te139  1  0.16670520  0.33010764  0.33887643  1
  Te  Te140  1  0.16863144  0.33234804  0.66144479  1
  Te  Te141  1  0.16787868  0.66603052  0.00114745  1
  Te  Te142  1  0.16511714  0.66720954  0.33382868  1
  Te  Te143  1  0.16393106  0.67115058  0.66651524  1
  Te  Te144  1  0.50240606  -0.00327405  0.00621727  1
  Te  Te145  1  0.49898298  0.00448257  0.33252355  1
  Te  Te146  1  0.50050968  -0.00211958  0.66304882  1
  Te  Te147  1  0.49937148  0.33393833  -0.00066274  1
  Te  Te148  1  0.50097327  0.32964155  0.33419956  1
  Te  Te149  1  0.50367206  0.33120515  0.66450805  1
  Te  Te150  1  0.50119171  0.66991727  0.00251327  1
  Te  Te151  1  0.50345226  0.66864759  0.33262984  1
  Te  Te152  1  0.49789946  0.67188473  0.66485789  1
  Te  Te153  1  0.83288096  -0.00027532  0.00546179  1
  Te  Te154  1  0.83813979  0.00132798  0.32976514  1
  Te  Te155  1  0.83195346  -0.00050069  0.66661463  1
  Te  Te156  1  0.82934507  0.33444341  0.00004563  1
  Te  Te157  1  0.82707062  0.33286523  0.33980349  1
  Te  Te158  1  0.83196279  0.33396119  0.66407938  1
  Te  Te159  1  0.83442141  0.66766403  0.00185957  1
  Te  Te160  1  0.82609066  0.66805781  0.32817693  1
  Te  Te161  1  0.83656436  0.67120938  0.66790122  1
  Te  Te162  1  0.00247192  0.16243475  0.00222965  1
  Te  Te163  1  -0.00014173  0.16102739  0.32827355  1
  Te  Te164  1  0.00050519  0.16387039  0.66758163  1
  Te  Te165  1  0.00562890  0.50272156  -0.00076930  1
  Te  Te166  1  0.00125504  0.50120332  0.33281116  1
  Te  Te167  1  0.00105216  0.49757106  0.66709433  1
  Te  Te168  1  0.00284652  0.83434000  -0.00575495  1
  Te  Te169  1  0.00524419  0.83871832  0.33447379  1
  Te  Te170  1  -0.00028669  0.83648002  0.66835362  1
  Te  Te171  1  0.33062633  0.17015966  0.00475226  1
  Te  Te172  1  0.33504187  0.16207565  0.32893310  1
  Te  Te173  1  0.33897214  0.16744020  0.67000281  1
  Te  Te174  1  0.33087563  0.50273839  -0.00032469  1
  Te  Te175  1  0.33973391  0.50181986  0.33854967  1
  Te  Te176  1  0.33247857  0.50839677  0.66281167  1
  Te  Te177  1  0.33661109  0.83092767  0.00010807  1
  Te  Te178  1  0.32745738  0.83747992  0.32928865  1
  Te  Te179  1  0.33413333  0.83153369  0.66740270  1
  Te  Te180  1  0.66615470  0.16628774  -0.00586942  1
  Te  Te181  1  0.66185335  0.17120206  0.33081435  1
  Te  Te182  1  0.66498532  0.16349574  0.66802267  1
  Te  Te183  1  0.66575357  0.49637353  -0.00144735  1
  Te  Te184  1  0.66079843  0.49957384  0.33738423  1
  Te  Te185  1  0.66597886  0.49143924  0.66149218  1
  Te  Te186  1  0.66393359  0.83462333  0.00063818  1
  Te  Te187  1  0.66826111  0.83083141  0.33332530  1
  Te  Te188  1  0.66490573  0.83553965  0.66876751  1
  Te  Te189  1  0.00244851  0.00038618  0.16386290  1
  Te  Te190  1  0.00068215  -0.00059366  0.50510888  1
  Te  Te191  1  -0.00030672  -0.00469880  0.83275624  1
  Te  Te192  1  -0.00359434  0.32723223  0.16652096  1
  Te  Te193  1  0.00731483  0.33268179  0.50497495  1
  Te  Te194  1  -0.00067916  0.33269337  0.82515290  1
  Te  Te195  1  -0.00087269  0.66738083  0.16241617  1
  Te  Te196  1  -0.00178430  0.66604977  0.50337601  1
  Te  Te197  1  -0.00285453  0.67193025  0.83345700  1
  Te  Te198  1  0.33521485  -0.00157503  0.16768334  1
  Te  Te199  1  0.33379672  -0.00052607  0.49394817  1
  Te  Te200  1  0.34147290  -0.00673404  0.83418684  1
  Te  Te201  1  0.33813669  0.33404467  0.16242404  1
  Te  Te202  1  0.33707734  0.33705247  0.50021436  1
  Te  Te203  1  0.33407841  0.33381330  0.84019951  1
  Te  Te204  1  0.33862968  0.67072132  0.16259900  1
  Te  Te205  1  0.34026764  0.66395404  0.50120917  1
  Te  Te206  1  0.33381537  0.67339468  0.83401714  1
  Te  Te207  1  0.66509749  -0.00457776  0.16677413  1
  Te  Te208  1  0.66383398  -0.00507916  0.50198752  1
  Te  Te209  1  0.66495241  -0.00325375  0.83396206  1
  Te  Te210  1  0.66353887  0.33201082  0.16274784  1
  Te  Te211  1  0.66062720  0.33041520  0.50063029  1
  Te  Te212  1  0.66751431  0.33624352  0.83744377  1
  Te  Te213  1  0.66398703  0.66914403  0.16515126  1
  Te  Te214  1  0.66270508  0.66768190  0.50117810  1
  Te  Te215  1  0.67045049  0.67137277  0.83802302  1
