# generated using pymatgen
data_AgSbTe2
_symmetry_space_group_name_H-M   'P 1'
_cell_length_a   18.34934802
_cell_length_b   18.34214237
_cell_length_c   18.34003564
_cell_angle_alpha   90.00376534
_cell_angle_beta   90.00064918
_cell_angle_gamma   90.00005129
_symmetry_Int_Tables_number   1
_chemical_formula_structural   AgSbTe2
_chemical_formula_sum   'Ag54 Sb54 Te108'
_cell_volume   6172.63890908
_cell_formula_units_Z   54
loop_
 _symmetry_equiv_pos_site_id
 _symmetry_equiv_pos_as_xyz
  1  'x, y, z'
loop_
 _atom_site_type_symbol
 _atom_site_label
 _atom_site_symmetry_multiplicity
 _atom_site_fract_x
 _atom_site_fract_y
 _atom_site_fract_z
 _atom_site_occupancy
  Ag  Ag0  1  0.32862697  0.00208449  0.33413851  1
  Ag  Ag1  1  -0.00583734  0.50379625  0.83531495  1
  Ag  Ag2  1  0.33907280  0.16777105  0.16415168  1
  Ag  Ag3  1  0.34138429  0.33456566  0.32933713  1
  Ag  Ag4  1  0.83490569  -0.00931154  0.49054239  1
  Ag  Ag5  1  0.16548981  0.50422576  0.66304695  1
  Ag  Ag6  1  0.83335093  -0.00364766  0.16956880  1
  Ag  Ag7  1  0.82872273  0.66918690  0.15468135  1
  Ag  Ag8  1  0.83211182  0.66129120  0.84242620  1
  Ag  Ag9  1  0.50682577  0.34756276  0.83957001  1
  Ag  Ag10  1  0.51180414  0.66371450  0.83689790  1
  Ag  Ag11  1  -0.01263415  0.16439331  0.16508956  1
  Ag  Ag12  1  0.50917377  0.50355579  0.67411722  1
  Ag  Ag13  1  0.66662296  0.34415552  0.00206071  1
  Ag  Ag14  1  0.83202968  0.34734609  0.50103912  1
  Ag  Ag15  1  0.66463704  0.34437236  0.32595730  1
  Ag  Ag16  1  0.82709678  0.50804232  -0.00436309  1
  Ag  Ag17  1  0.33599935  0.17024008  0.84051348  1
  Ag  Ag18  1  -0.00330903  0.82102900  0.83593033  1
  Ag  Ag19  1  0.83520028  0.83500032  0.33026115  1
  Ag  Ag20  1  0.51164818  0.66371685  0.15416326  1
  Ag  Ag21  1  -0.00532808  -0.00356622  0.33139812  1
  Ag  Ag22  1  0.33792883  0.82726872  0.83585341  1
  Ag  Ag23  1  0.34133477  0.50146433  0.49903714  1
  Ag  Ag24  1  0.15516565  0.83134018  0.33847412  1
  Ag  Ag25  1  0.51415416  0.82268576  -0.00320756  1
  Ag  Ag26  1  0.66625960  0.50254700  0.16596607  1
  Ag  Ag27  1  0.16379816  0.66613794  0.82912075  1
  Ag  Ag28  1  0.17127252  0.50592922  0.34083468  1
  Ag  Ag29  1  0.34816428  0.33248056  -0.00008367  1
  Ag  Ag30  1  0.50627997  -0.00062714  0.49614052  1
  Ag  Ag31  1  0.66805525  0.66177303  0.67763775  1
  Ag  Ag32  1  0.83057916  0.82149088  0.00088983  1
  Ag  Ag33  1  0.83213547  0.15938492  0.32980619  1
  Ag  Ag34  1  -0.00954675  -0.00421774  0.00653567  1
  Ag  Ag35  1  0.50705435  0.50092087  0.33432976  1
  Ag  Ag36  1  0.67073717  -0.01285578  0.00251327  1
  Ag  Ag37  1  0.83318175  0.66501546  0.50021325  1
  Ag  Ag38  1  0.50198338  0.17852219  0.00125152  1
  Ag  Ag39  1  0.33804025  0.66248687  0.66986334  1
  Ag  Ag40  1  0.16037554  0.66592764  0.50334050  1
  Ag  Ag41  1  0.67020505  0.82592379  0.84035164  1
  Ag  Ag42  1  0.83067721  0.50250849  0.67771008  1
  Ag  Ag43  1  -0.01261767  0.34002129  -0.00412597  1
  Ag  Ag44  1  0.66618589  0.50327957  0.49404018  1
  Ag  Ag45  1  -0.01383221  0.66698239  -0.00489476  1
  Ag  Ag46  1  0.51004853  0.50185424  -0.00537954  1
  Ag  Ag47  1  0.66963851  0.66231698  0.32385538  1
  Ag  Ag48  1  0.82973889  0.34305653  0.83938565  1
  Ag  Ag49  1  -0.00436152  0.33922892  0.67712123  1
  Ag  Ag50  1  0.66769316  0.17209612  0.16381948  1
  Ag  Ag51  1  0.67155617  0.66297979  -0.00010883  1
  Ag  Ag52  1  -0.00303302  0.83324195  0.49812603  1
  Ag  Ag53  1  0.16215034  -0.01057027  0.49492387  1
  Sb  Sb54  1  0.66932812  0.82678001  0.16022683  1
  Sb  Sb55  1  -0.00223624  0.16274337  0.49405479  1
  Sb  Sb56  1  0.67145338  -0.00222658  0.32795231  1
  Sb  Sb57  1  0.82942205  0.33451868  0.16546026  1
  Sb  Sb58  1  0.33419707  0.83628077  0.16396357  1
  Sb  Sb59  1  0.49982223  0.17417785  0.67398393  1
  Sb  Sb60  1  0.50455399  0.33545666  0.50259835  1
  Sb  Sb61  1  0.67269669  0.82603335  0.50301423  1
  Sb  Sb62  1  0.16466131  0.82399863  0.66248321  1
  Sb  Sb63  1  0.83439052  -0.00344347  0.83780773  1
  Sb  Sb64  1  0.50346864  0.17118144  0.32656421  1
  Sb  Sb65  1  0.00136210  0.17040852  0.84186697  1
  Sb  Sb66  1  0.33045448  0.82824537  0.50166984  1
  Sb  Sb67  1  0.82782219  0.16789309  0.00435972  1
  Sb  Sb68  1  0.67219778  0.50661222  0.83797098  1
  Sb  Sb69  1  -0.00465131  0.83703503  0.16545360  1
  Sb  Sb70  1  0.49966420  -0.00463164  0.83344018  1
  Sb  Sb71  1  0.50282214  0.33955941  0.15938127  1
  Sb  Sb72  1  0.50033582  0.82426580  0.67244782  1
  Sb  Sb73  1  0.16535467  -0.00847356  0.82895605  1
  Sb  Sb74  1  -0.00418933  0.50613194  0.50345408  1
  Sb  Sb75  1  0.83472147  0.82414740  0.66982238  1
  Sb  Sb76  1  -0.00658811  0.49683269  0.16153439  1
  Sb  Sb77  1  0.66362756  0.16582606  0.84264304  1
  Sb  Sb78  1  0.33407839  -0.00574420  0.66194553  1
  Sb  Sb79  1  0.16098980  0.83157707  0.00150692  1
  Sb  Sb80  1  0.33572223  0.66436071  0.33709583  1
  Sb  Sb81  1  0.67096099  0.34429253  0.67083888  1
  Sb  Sb82  1  0.83255509  0.17551703  0.66056986  1
  Sb  Sb83  1  0.82919099  0.50316625  0.33131174  1
  Sb  Sb84  1  0.34112313  0.49680907  0.17069069  1
  Sb  Sb85  1  0.16783681  0.33465765  0.16750004  1
  Sb  Sb86  1  0.16198947  0.66594803  0.16790928  1
  Sb  Sb87  1  -0.00324654  0.66018479  0.67375018  1
  Sb  Sb88  1  0.16423644  0.16578568  0.33294810  1
  Sb  Sb89  1  0.33623719  0.00419725  0.00357944  1
  Sb  Sb90  1  0.33498420  0.16946506  0.49751986  1
  Sb  Sb91  1  -0.00511618  0.33134923  0.33077826  1
  Sb  Sb92  1  0.33111064  0.34178275  0.66801213  1
  Sb  Sb93  1  -0.00699595  0.67055377  0.33093364  1
  Sb  Sb94  1  0.16957115  0.16717782  0.00026721  1
  Sb  Sb95  1  0.16107076  0.00034275  0.17163386  1
  Sb  Sb96  1  0.16656004  0.17283596  0.66692871  1
  Sb  Sb97  1  0.66915939  0.17065901  0.49139962  1
  Sb  Sb98  1  0.33393868  0.50268324  0.82984141  1
  Sb  Sb99  1  0.50463052  0.82875188  0.33015877  1
  Sb  Sb100  1  -0.00215588  0.00271854  0.66391781  1
  Sb  Sb101  1  0.16559652  0.50175258  -0.00166499  1
  Sb  Sb102  1  0.50687708  -0.00276247  0.16690694  1
  Sb  Sb103  1  0.16572774  0.34074161  0.83412417  1
  Sb  Sb104  1  0.33989647  0.66116888  -0.00572995  1
  Sb  Sb105  1  0.50318706  0.66585457  0.50250135  1
  Sb  Sb106  1  0.66791943  -0.00714186  0.66930352  1
  Sb  Sb107  1  0.16166479  0.33973671  0.49833211  1
  Te  Te108  1  0.17569068  0.16679570  0.16764611  1
  Te  Te109  1  0.16683100  0.16108498  0.50048346  1
  Te  Te110  1  0.17453051  0.16497140  0.83199919  1
  Te  Te111  1  0.16710226  0.50161353  0.17454026  1
  Te  Te112  1  0.16312623  0.50361494  0.50159405  1
  Te  Te113  1  0.16223170  0.50647797  0.83040101  1
  Te  Te114  1  0.16681456  0.83271658  0.17867326  1
  Te  Te115  1  0.16468152  0.82979067  0.49668252  1
  Te  Te116  1  0.16121616  0.82644175  0.83324051  1
  Te  Te117  1  0.50140595  0.16487328  0.16162429  1
  Te  Te118  1  0.50090396  0.16169851  0.50090626  1
  Te  Te119  1  0.49582473  0.16406299  0.83946830  1
  Te  Te120  1  0.50540021  0.50500202  0.16849219  1
  Te  Te121  1  0.50120335  0.49911786  0.49692752  1
  Te  Te122  1  0.49734403  0.50390239  0.83367232  1
  Te  Te123  1  0.49924622  0.82642859  0.15998221  1
  Te  Te124  1  0.49985974  0.83825642  0.50013419  1
  Te  Te125  1  0.49896136  0.82892982  0.83703026  1
  Te  Te126  1  0.82983460  0.16711419  0.16927152  1
  Te  Te127  1  0.83314213  0.16238231  0.49259320  1
  Te  Te128  1  0.83295758  0.17115668  0.83033976  1
  Te  Te129  1  0.82861225  0.50451218  0.16113996  1
  Te  Te130  1  0.83121212  0.50375583  0.49694214  1
  Te  Te131  1  0.83389244  0.49950459  0.83519630  1
  Te  Te132  1  0.83359978  0.83267096  0.16621221  1
  Te  Te133  1  0.83631871  0.83180115  0.50217776  1
  Te  Te134  1  0.83531783  0.83213588  0.83647774  1
  Te  Te135  1  0.16114192  -0.00099243  -0.00011746  1
  Te  Te136  1  0.16502448  -0.00152573  0.33627224  1
  Te  Te137  1  0.16630592  0.00119491  0.65727689  1
  Te  Te138  1  0.16311417  0.33427929  -0.00014162  1
  Te  Te139  1  0.17039292  0.33739395  0.33454818  1
  Te  Te140  1  0.16023560  0.34176638  0.66583144  1
  Te  Te141  1  0.16570990  0.66641880  -0.00296952  1
  Te  Te142  1  0.16718901  0.66779312  0.33547113  1
  Te  Te143  1  0.16444432  0.66157642  0.66623210  1
  Te  Te144  1  0.50408811  -0.00585070  0.00021442  1
  Te  Te145  1  0.49980372  -0.00054931  0.33527431  1
  Te  Te146  1  0.50038053  0.00058179  0.65926856  1
  Te  Te147  1  0.50460169  0.33764879  -0.00316263  1
  Te  Te148  1  0.50219042  0.33741583  0.33562907  1
  Te  Te149  1  0.49975212  0.34163215  0.67442743  1
  Te  Te150  1  0.50059022  0.66334946  -0.00339225  1
  Te  Te151  1  0.50432834  0.66284689  0.33403415  1
  Te  Te152  1  0.50103155  0.66119513  0.66946363  1
  Te  Te153  1  0.83209168  0.00243907  0.00204337  1
  Te  Te154  1  0.83307765  -0.00244514  0.33111250  1
  Te  Te155  1  0.83272975  0.00318097  0.66106009  1
  Te  Te156  1  0.82954063  0.33346496  -0.00093590  1
  Te  Te157  1  0.83012973  0.33291519  0.33541553  1
  Te  Te158  1  0.83562504  0.34003785  0.66501361  1
  Te  Te159  1  0.83146036  0.66627093  -0.00119779  1
  Te  Te160  1  0.83053019  0.66953554  0.33937663  1
  Te  Te161  1  0.83071178  0.66150226  0.66069269  1
  Te  Te162  1  0.00138592  0.16432502  0.00523274  1
  Te  Te163  1  -0.00350871  0.16253203  0.32636128  1
  Te  Te164  1  0.00059772  0.17563366  0.66815864  1
  Te  Te165  1  0.00002131  0.49894932  -0.00302703  1
  Te  Te166  1  0.00665634  0.49905564  0.33099526  1
  Te  Te167  1  -0.00450822  0.49706636  0.66971510  1
  Te  Te168  1  -0.00337094  0.83371579  -0.00222317  1
  Te  Te169  1  -0.00360738  0.83590386  0.33487075  1
  Te  Te170  1  0.00034937  0.83720679  0.66984805  1
  Te  Te171  1  0.33719731  0.16909690  0.00138086  1
  Te  Te172  1  0.33529520  0.16873801  0.33050703  1
  Te  Te173  1  0.33400106  0.16758277  0.67204313  1
  Te  Te174  1  0.33387832  0.49260176  0.00172388  1
  Te  Te175  1  0.33431017  0.49782743  0.33708770  1
  Te  Te176  1  0.33098132  0.50373995  0.66243813  1
  Te  Te177  1  0.32953535  0.83539422  -0.00416421  1
  Te  Te178  1  0.33603242  0.83861667  0.33276911  1
  Te  Te179  1  0.33256308  0.82615350  0.67364096  1
  Te  Te180  1  0.66162963  0.17048342  0.00445870  1
  Te  Te181  1  0.67048825  0.16863005  0.32570952  1
  Te  Te182  1  0.66537238  0.16528701  0.66702719  1
  Te  Te183  1  0.66678892  0.50230858  0.00034279  1
  Te  Te184  1  0.66809985  0.50111907  0.33280696  1
  Te  Te185  1  0.66816309  0.50378717  0.66015305  1
  Te  Te186  1  0.66992161  0.83054475  -0.00129901  1
  Te  Te187  1  0.67282892  0.82673298  0.33487161  1
  Te  Te188  1  0.66662772  0.82488416  0.67547741  1
  Te  Te189  1  -0.00460379  0.00323552  0.16757662  1
  Te  Te190  1  -0.00255468  -0.00381053  0.49726677  1
  Te  Te191  1  0.00102643  0.00036664  0.83701143  1
  Te  Te192  1  0.00003713  0.32669004  0.16086965  1
  Te  Te193  1  -0.00682367  0.33188692  0.49898913  1
  Te  Te194  1  -0.00169947  0.33521282  0.83700446  1
  Te  Te195  1  -0.00628236  0.66542757  0.15923575  1
  Te  Te196  1  0.00055869  0.67200674  0.49857068  1
  Te  Te197  1  -0.00527657  0.66456840  0.83455039  1
  Te  Te198  1  0.33388173  0.00428550  0.17193369  1
  Te  Te199  1  0.32936783  0.00030286  0.49524730  1
  Te  Te200  1  0.33178654  -0.00251942  0.83199368  1
  Te  Te201  1  0.33479325  0.32903559  0.16683353  1
  Te  Te202  1  0.33286690  0.33794634  0.49698929  1
  Te  Te203  1  0.33395026  0.33206210  0.83572766  1
  Te  Te204  1  0.33443734  0.66723432  0.16685483  1
  Te  Te205  1  0.33093511  0.66201916  0.50491838  1
  Te  Te206  1  0.32991866  0.66831083  0.83027967  1
  Te  Te207  1  0.67188175  0.00487843  0.16223153  1
  Te  Te208  1  0.66988347  -0.00098251  0.50041733  1
  Te  Te209  1  0.66697447  -0.00704165  0.83879616  1
  Te  Te210  1  0.66612891  0.33542868  0.16652824  1
  Te  Te211  1  0.67128756  0.33762068  0.49934721  1
  Te  Te212  1  0.66643062  0.33013333  0.83706774  1
  Te  Te213  1  0.66876703  0.66537151  0.16455005  1
  Te  Te214  1  0.66787296  0.66325570  0.50055995  1
  Te  Te215  1  0.67065145  0.66737369  0.83604844  1
