# generated using pymatgen
data_AgSbTe2
_symmetry_space_group_name_H-M   'P 1'
_cell_length_a   18.31071817
_cell_length_b   18.31277938
_cell_length_c   18.31537775
_cell_angle_alpha   89.99527776
_cell_angle_beta   90.00193653
_cell_angle_gamma   90.00131196
_symmetry_Int_Tables_number   1
_chemical_formula_structural   AgSbTe2
_chemical_formula_sum   'Ag54 Sb54 Te108'
_cell_volume   6141.51504394
_cell_formula_units_Z   54
loop_
 _symmetry_equiv_pos_site_id
 _symmetry_equiv_pos_as_xyz
  1  'x, y, z'
loop_
 _atom_site_type_symbol
 _atom_site_label
 _atom_site_symmetry_multiplicity
 _atom_site_fract_x
 _atom_site_fract_y
 _atom_site_fract_z
 _atom_site_occupancy
  Ag  Ag0  1  -0.01258092  0.32917394  0.67052141  1
  Ag  Ag1  1  0.33483571  0.83350306  0.49897782  1
  Ag  Ag2  1  0.66126060  0.49312776  0.16458398  1
  Ag  Ag3  1  -0.01170457  0.49781457  0.82678725  1
  Ag  Ag4  1  0.33527733  0.17207545  0.83095548  1
  Ag  Ag5  1  0.50108470  -0.00033609  0.83925417  1
  Ag  Ag6  1  0.82707608  0.33628802  0.51062459  1
  Ag  Ag7  1  0.66688261  0.49541879  0.83278309  1
  Ag  Ag8  1  0.82639338  0.33945276  0.82357066  1
  Ag  Ag9  1  0.67170529  0.00409717  0.66194700  1
  Ag  Ag10  1  0.15707197  0.84036908  0.33623358  1
  Ag  Ag11  1  0.66334791  0.32873937  0.33549513  1
  Ag  Ag12  1  0.50704519  0.34015862  0.83489858  1
  Ag  Ag13  1  0.67283554  0.33250925  0.66555051  1
  Ag  Ag14  1  0.83465699  0.17818644  0.66628703  1
  Ag  Ag15  1  0.66664221  0.17325682  0.49908598  1
  Ag  Ag16  1  0.66718111  0.17102012  0.17335426  1
  Ag  Ag17  1  0.50445769  0.33825297  0.16998651  1
  Ag  Ag18  1  -0.00486244  0.83116948  0.49674639  1
  Ag  Ag19  1  0.34508638  0.33225884  0.33521560  1
  Ag  Ag20  1  0.33889119  0.66442450  0.67073754  1
  Ag  Ag21  1  0.83426364  0.66567159  0.50788182  1
  Ag  Ag22  1  0.50486216  -0.00063050  0.16237316  1
  Ag  Ag23  1  0.66742257  0.33260324  -0.00311309  1
  Ag  Ag24  1  0.66839438  0.66245273  0.66869946  1
  Ag  Ag25  1  0.50906082  0.33333850  0.49448510  1
  Ag  Ag26  1  -0.00692841  0.00408890  0.66747176  1
  Ag  Ag27  1  0.50196640  0.49542215  0.32804140  1
  Ag  Ag28  1  0.83609142  0.83374486  0.33397737  1
  Ag  Ag29  1  0.67072708  0.83714628  0.49523803  1
  Ag  Ag30  1  0.50254008  0.66254595  0.83753231  1
  Ag  Ag31  1  0.66817000  0.00235045  0.33367364  1
  Ag  Ag32  1  0.16018205  0.67066741  0.50082388  1
  Ag  Ag33  1  0.34418003  0.49899828  0.83539224  1
  Ag  Ag34  1  0.34476456  0.50011470  0.16323573  1
  Ag  Ag35  1  0.16390257  0.16628777  0.00039228  1
  Ag  Ag36  1  -0.00380594  -0.00349761  0.33154938  1
  Ag  Ag37  1  0.50172788  0.66093748  0.16044186  1
  Ag  Ag38  1  0.16452219  0.16311451  0.33502110  1
  Ag  Ag39  1  0.82701854  0.66017078  0.82624401  1
  Ag  Ag40  1  0.33583762  -0.00123883  -0.00127388  1
  Ag  Ag41  1  -0.00798506  0.84174569  0.16992064  1
  Ag  Ag42  1  0.50400338  0.83457266  0.00176972  1
  Ag  Ag43  1  0.83144197  0.83326507  0.00254794  1
  Ag  Ag44  1  -0.00463697  0.83259746  0.83313590  1
  Ag  Ag45  1  0.66698056  0.83560219  0.17050711  1
  Ag  Ag46  1  -0.00779678  0.32725041  -0.00661626  1
  Ag  Ag47  1  -0.00508777  0.50266332  0.50587831  1
  Ag  Ag48  1  0.33772569  0.66983349  -0.00596655  1
  Ag  Ag49  1  -0.00369875  0.15928762  0.16394450  1
  Ag  Ag50  1  0.00240817  0.00142067  0.00166168  1
  Ag  Ag51  1  0.83292227  0.49102408  0.66821509  1
  Ag  Ag52  1  0.33444880  0.16733819  0.50307382  1
  Ag  Ag53  1  0.16144470  0.16742147  0.66408142  1
  Sb  Sb54  1  0.50448914  0.00311754  0.49886322  1
  Sb  Sb55  1  0.66611435  0.00280907  0.00120542  1
  Sb  Sb56  1  0.33587389  0.16959934  0.16693281  1
  Sb  Sb57  1  0.16784322  0.00102300  0.83368737  1
  Sb  Sb58  1  0.33847343  0.33231327  0.00090839  1
  Sb  Sb59  1  0.16419190  0.83568741  0.66083419  1
  Sb  Sb60  1  0.00189612  0.67052515  -0.00330342  1
  Sb  Sb61  1  0.49802648  0.16282585  -0.00028733  1
  Sb  Sb62  1  -0.00254458  0.16467493  0.50100541  1
  Sb  Sb63  1  0.50407581  0.16798191  0.66692452  1
  Sb  Sb64  1  0.83290965  0.83162888  0.66476118  1
  Sb  Sb65  1  0.33538766  0.66401891  0.33540374  1
  Sb  Sb66  1  0.17170910  0.66936591  0.17054932  1
  Sb  Sb67  1  0.33695549  0.33498664  0.66496452  1
  Sb  Sb68  1  0.33519124  0.00031941  0.66963473  1
  Sb  Sb69  1  -0.00442077  0.32715564  0.33537726  1
  Sb  Sb70  1  0.66222430  0.66422031  -0.00403131  1
  Sb  Sb71  1  0.50207695  0.83231720  0.67023096  1
  Sb  Sb72  1  0.33646682  0.00399917  0.32992163  1
  Sb  Sb73  1  0.16716609  0.49551757  -0.00116434  1
  Sb  Sb74  1  0.33212453  0.49938247  0.50193630  1
  Sb  Sb75  1  0.50113159  0.50352175  0.00266792  1
  Sb  Sb76  1  0.83268253  0.16351164  0.33862337  1
  Sb  Sb77  1  0.83015557  -0.00135184  0.16683053  1
  Sb  Sb78  1  0.50658706  0.49914848  0.66836565  1
  Sb  Sb79  1  -0.00386495  0.49744514  0.16545259  1
  Sb  Sb80  1  0.16942599  0.49787969  0.33520043  1
  Sb  Sb81  1  0.17159058  0.33051014  0.16681225  1
  Sb  Sb82  1  0.50389596  0.66298547  0.50211575  1
  Sb  Sb83  1  -0.00077713  0.67523536  0.33611979  1
  Sb  Sb84  1  0.50093553  0.17356096  0.33300169  1
  Sb  Sb85  1  0.33826567  0.83067778  0.16950292  1
  Sb  Sb86  1  0.66684545  0.66759828  0.33722457  1
  Sb  Sb87  1  0.50347852  0.83061255  0.32971727  1
  Sb  Sb88  1  0.67058042  0.49499194  0.50278861  1
  Sb  Sb89  1  0.83217554  -0.00313455  0.50059835  1
  Sb  Sb90  1  0.83621784  0.16535700  -0.00416340  1
  Sb  Sb91  1  0.16877251  0.66644372  0.82818652  1
  Sb  Sb92  1  0.82391166  0.33330851  0.16517860  1
  Sb  Sb93  1  0.66964637  0.82929141  0.83361922  1
  Sb  Sb94  1  0.16597288  0.00116513  0.16684218  1
  Sb  Sb95  1  0.16517337  0.33329213  0.50020270  1
  Sb  Sb96  1  0.66275844  0.17353306  0.83043503  1
  Sb  Sb97  1  -0.00365216  0.66572985  0.66533488  1
  Sb  Sb98  1  0.16581271  0.33166524  0.83311905  1
  Sb  Sb99  1  0.83142058  0.50206616  -0.00866554  1
  Sb  Sb100  1  0.00264847  0.16811369  0.83426818  1
  Sb  Sb101  1  0.33280723  0.83193532  0.83170444  1
  Sb  Sb102  1  0.83013253  0.00018922  0.83168941  1
  Sb  Sb103  1  0.16546581  -0.00347432  0.49946737  1
  Sb  Sb104  1  0.82876737  0.50218422  0.33997136  1
  Sb  Sb105  1  0.16481925  0.83745181  0.00483809  1
  Sb  Sb106  1  0.82643077  0.67027187  0.16450154  1
  Sb  Sb107  1  0.16127186  0.49628642  0.66634364  1
  Te  Te108  1  0.16281131  0.16682867  0.16784607  1
  Te  Te109  1  0.16888121  0.16651359  0.49956937  1
  Te  Te110  1  0.17456563  0.16634179  0.83341459  1
  Te  Te111  1  0.17159078  0.50044521  0.16786332  1
  Te  Te112  1  0.16006752  0.50704793  0.49907171  1
  Te  Te113  1  0.16759573  0.50010233  0.83261173  1
  Te  Te114  1  0.16094748  0.83296657  0.17475377  1
  Te  Te115  1  0.16531938  0.83075801  0.49580386  1
  Te  Te116  1  0.15657192  0.83294767  0.83443941  1
  Te  Te117  1  0.50467413  0.16720086  0.16628266  1
  Te  Te118  1  0.49962094  0.17186112  0.50002294  1
  Te  Te119  1  0.49420400  0.16703949  0.83361572  1
  Te  Te120  1  0.50208356  0.49883213  0.16642860  1
  Te  Te121  1  0.49926946  0.49415346  0.49536164  1
  Te  Te122  1  0.50228720  0.50106449  0.83388973  1
  Te  Te123  1  0.50271418  0.83326653  0.16325424  1
  Te  Te124  1  0.50119685  0.83295576  0.49932490  1
  Te  Te125  1  0.49990348  0.82986255  0.83833747  1
  Te  Te126  1  0.83446651  0.16671145  0.16673139  1
  Te  Te127  1  0.82917506  0.17146213  0.50487867  1
  Te  Te128  1  0.83293186  0.17332894  0.82786657  1
  Te  Te129  1  0.82585325  0.50253059  0.16685036  1
  Te  Te130  1  0.83637218  0.50265812  0.50450852  1
  Te  Te131  1  0.83053909  0.49976554  0.83063330  1
  Te  Te132  1  0.83222922  0.83251466  0.16738332  1
  Te  Te133  1  0.83148862  0.83062499  0.49886603  1
  Te  Te134  1  0.83642332  0.82988352  0.83544734  1
  Te  Te135  1  0.16588122  0.00522120  0.00032538  1
  Te  Te136  1  0.16592334  0.00134157  0.33309821  1
  Te  Te137  1  0.16269740  0.00689132  0.66683198  1
  Te  Te138  1  0.16070395  0.32668457  0.00043861  1
  Te  Te139  1  0.16804327  0.32774464  0.33366771  1
  Te  Te140  1  0.16294635  0.32669043  0.66550010  1
  Te  Te141  1  0.17589419  0.66678833  0.00067094  1
  Te  Te142  1  0.16813993  0.66979036  0.33960106  1
  Te  Te143  1  0.17114814  0.66636909  0.66035334  1
  Te  Te144  1  0.49977965  -0.00314616  -0.00001219  1
  Te  Te145  1  0.50595569  -0.00115175  0.32724811  1
  Te  Te146  1  0.50487600  0.00007447  0.67191795  1
  Te  Te147  1  0.50468691  0.33072376  -0.00318444  1
  Te  Te148  1  0.50272526  0.33453054  0.33244076  1
  Te  Te149  1  0.50560815  0.33412141  0.67025562  1
  Te  Te150  1  0.49774161  0.67160612  -0.00128440  1
  Te  Te151  1  0.50003392  0.65954802  0.32761128  1
  Te  Te152  1  0.50182266  0.66552422  0.67150334  1
  Te  Te153  1  0.84006802  -0.00617388  -0.00232564  1
  Te  Te154  1  0.83106082  -0.00492597  0.33403978  1
  Te  Te155  1  0.83245439  0.00348459  0.66730382  1
  Te  Te156  1  0.83290778  0.33369669  -0.00288441  1
  Te  Te157  1  0.82624797  0.33363557  0.33789516  1
  Te  Te158  1  0.83201692  0.33444312  0.66701389  1
  Te  Te159  1  0.83352095  0.67386331  -0.00540328  1
  Te  Te160  1  0.83250160  0.67175730  0.33888787  1
  Te  Te161  1  0.83071249  0.66582622  0.66775976  1
  Te  Te162  1  0.00167730  0.16496904  0.00108530  1
  Te  Te163  1  0.00192950  0.16065327  0.33012296  1
  Te  Te164  1  -0.00068466  0.16535141  0.66688154  1
  Te  Te165  1  -0.00018869  0.49564668  -0.00260234  1
  Te  Te166  1  -0.00038842  0.49840610  0.33615741  1
  Te  Te167  1  -0.00400373  0.49816643  0.66685683  1
  Te  Te168  1  -0.00035529  0.83618593  0.00215739  1
  Te  Te169  1  -0.00237119  0.83716151  0.33398384  1
  Te  Te170  1  -0.00024393  0.83826845  0.66534628  1
  Te  Te171  1  0.32822818  0.16430373  -0.00194609  1
  Te  Te172  1  0.32753729  0.17000709  0.33573684  1
  Te  Te173  1  0.32964202  0.16632409  0.66547829  1
  Te  Te174  1  0.33241018  0.50173020  -0.00277743  1
  Te  Te175  1  0.33679567  0.49493015  0.33239585  1
  Te  Te176  1  0.33202207  0.50337680  0.67175876  1
  Te  Te177  1  0.33437196  0.83499387  0.00033465  1
  Te  Te178  1  0.33111984  0.83419244  0.33848750  1
  Te  Te179  1  0.33222564  0.83103312  0.66040605  1
  Te  Te180  1  0.66837814  0.17150483  0.00584263  1
  Te  Te181  1  0.66799647  0.16463521  0.33477256  1
  Te  Te182  1  0.66932598  0.16668102  0.66391659  1
  Te  Te183  1  0.66758934  0.49454977  -0.00091621  1
  Te  Te184  1  0.66332057  0.49705284  0.33024989  1
  Te  Te185  1  0.67068351  0.49968798  0.66965124  1
  Te  Te186  1  0.66743740  0.83361943  0.00300805  1
  Te  Te187  1  0.66881644  0.83498130  0.33332675  1
  Te  Te188  1  0.66736636  0.83717640  0.66278635  1
  Te  Te189  1  0.00050606  0.00004864  0.16667143  1
  Te  Te190  1  -0.00103982  -0.00450384  0.49959920  1
  Te  Te191  1  -0.00111744  -0.00239835  0.83314531  1
  Te  Te192  1  -0.00135629  0.33272155  0.16403501  1
  Te  Te193  1  -0.00357698  0.33557349  0.50210377  1
  Te  Te194  1  -0.00030893  0.33509421  0.83256580  1
  Te  Te195  1  -0.00003107  0.66745488  0.16512800  1
  Te  Te196  1  -0.00263369  0.66876252  0.50112646  1
  Te  Te197  1  -0.00185749  0.66403401  0.83225403  1
  Te  Te198  1  0.34099871  0.00033335  0.16114180  1
  Te  Te199  1  0.33582198  0.00186398  0.49988378  1
  Te  Te200  1  0.33881297  0.00005650  0.83725008  1
  Te  Te201  1  0.33993161  0.33774453  0.16934138  1
  Te  Te202  1  0.33490339  0.32980692  0.49749363  1
  Te  Te203  1  0.33738148  0.33496472  0.83348816  1
  Te  Te204  1  0.33911927  0.66240996  0.16374603  1
  Te  Te205  1  0.33560501  0.66861863  0.50416393  1
  Te  Te206  1  0.33567048  0.66581281  0.83246167  1
  Te  Te207  1  0.66392612  -0.00188990  0.16728172  1
  Te  Te208  1  0.66587958  -0.00047599  0.50003130  1
  Te  Te209  1  0.66152009  0.00042901  0.83080140  1
  Te  Te210  1  0.66393080  0.33214555  0.16868966  1
  Te  Te211  1  0.66698702  0.33342568  0.50134960  1
  Te  Te212  1  0.66656885  0.33416071  0.83184382  1
  Te  Te213  1  0.66138641  0.66942954  0.16551581  1
  Te  Te214  1  0.66950057  0.66975871  0.50594770  1
  Te  Te215  1  0.66558055  0.66365716  0.83002345  1
