# generated using pymatgen
data_AgSbTe2
_symmetry_space_group_name_H-M   'P 1'
_cell_length_a   18.32653958
_cell_length_b   18.31927690
_cell_length_c   18.32759467
_cell_angle_alpha   89.99894816
_cell_angle_beta   89.99950848
_cell_angle_gamma   89.99778116
_symmetry_Int_Tables_number   1
_chemical_formula_structural   AgSbTe2
_chemical_formula_sum   'Ag54 Sb54 Te108'
_cell_volume   6153.10416836
_cell_formula_units_Z   54
loop_
 _symmetry_equiv_pos_site_id
 _symmetry_equiv_pos_as_xyz
  1  'x, y, z'
loop_
 _atom_site_type_symbol
 _atom_site_label
 _atom_site_symmetry_multiplicity
 _atom_site_fract_x
 _atom_site_fract_y
 _atom_site_fract_z
 _atom_site_occupancy
  Ag  Ag0  1  0.33726148  -0.01171359  0.33880144  1
  Ag  Ag1  1  0.33196731  0.50298249  0.83279420  1
  Ag  Ag2  1  -0.00038273  0.16044614  0.16938340  1
  Ag  Ag3  1  0.83947035  0.16279562  0.66910364  1
  Ag  Ag4  1  0.49999868  0.50820794  0.00135195  1
  Ag  Ag5  1  0.33133983  0.67091850  0.33554206  1
  Ag  Ag6  1  0.16846710  0.67331120  0.49189225  1
  Ag  Ag7  1  0.66401652  0.66531462  0.65367070  1
  Ag  Ag8  1  0.33178891  0.32745613  0.66398449  1
  Ag  Ag9  1  0.49816337  0.67913566  0.83010579  1
  Ag  Ag10  1  0.50407583  -0.00579054  0.16971154  1
  Ag  Ag11  1  0.33462848  0.83482622  0.17267831  1
  Ag  Ag12  1  0.33692185  0.83552483  0.83325651  1
  Ag  Ag13  1  0.00093415  0.15695871  0.49822012  1
  Ag  Ag14  1  0.00041851  0.83346127  0.17180071  1
  Ag  Ag15  1  0.66239565  -0.00642742  0.33079381  1
  Ag  Ag16  1  0.16983810  0.50544684  0.00236747  1
  Ag  Ag17  1  0.17216982  0.83384354  0.00205685  1
  Ag  Ag18  1  0.83377307  -0.00687016  0.49680779  1
  Ag  Ag19  1  0.16664922  0.16345338  0.67160457  1
  Ag  Ag20  1  0.00596784  0.16183501  0.83211645  1
  Ag  Ag21  1  0.33060847  0.33644159  0.33483755  1
  Ag  Ag22  1  0.00641397  0.83576334  0.49238867  1
  Ag  Ag23  1  0.17708168  0.00249710  0.83012849  1
  Ag  Ag24  1  0.66953431  0.66880155  0.33633541  1
  Ag  Ag25  1  0.50304421  0.67357659  0.49839705  1
  Ag  Ag26  1  0.32943013  0.15305037  0.82990160  1
  Ag  Ag27  1  0.50068455  0.33234244  0.16771146  1
  Ag  Ag28  1  0.83614927  0.66494061  0.17384697  1
  Ag  Ag29  1  0.33392002  -0.00056381  0.66783773  1
  Ag  Ag30  1  0.17102335  0.50012762  0.66363145  1
  Ag  Ag31  1  0.83238492  0.34431777  0.16854617  1
  Ag  Ag32  1  0.82998791  0.00149483  0.83276298  1
  Ag  Ag33  1  0.67022806  0.50182487  0.16950203  1
  Ag  Ag34  1  0.16562292  0.50726818  0.33271403  1
  Ag  Ag35  1  0.00092613  0.66553174  0.33328286  1
  Ag  Ag36  1  0.83340438  0.50679819  0.32794660  1
  Ag  Ag37  1  0.49684047  0.83345864  0.66002509  1
  Ag  Ag38  1  0.49329721  -0.00833073  0.49445638  1
  Ag  Ag39  1  0.66815403  0.15961628  0.83287601  1
  Ag  Ag40  1  0.33544941  0.83458266  0.49390953  1
  Ag  Ag41  1  0.49491309  0.83382982  0.00033551  1
  Ag  Ag42  1  0.00252681  0.33899721  0.33155652  1
  Ag  Ag43  1  0.82878271  -0.00455142  0.16789594  1
  Ag  Ag44  1  0.82742356  0.50734380  0.01019137  1
  Ag  Ag45  1  0.17306168  -0.00741814  0.50146628  1
  Ag  Ag46  1  0.49567209  0.83358359  0.33861426  1
  Ag  Ag47  1  0.83384919  0.83493627  0.00540799  1
  Ag  Ag48  1  0.16556384  0.15382123  -0.00780263  1
  Ag  Ag49  1  0.82633113  0.67292381  0.49063524  1
  Ag  Ag50  1  0.49336554  -0.00463227  0.83367272  1
  Ag  Ag51  1  0.16233871  0.66893264  0.17528542  1
  Ag  Ag52  1  0.66634050  -0.00208414  0.00287264  1
  Ag  Ag53  1  0.66684232  0.50902325  0.48994135  1
  Sb  Sb54  1  -0.00216764  0.66768151  0.65688228  1
  Sb  Sb55  1  0.16499235  0.33808064  0.16841859  1
  Sb  Sb56  1  0.00022445  0.66786731  0.00670320  1
  Sb  Sb57  1  0.17347726  0.67078676  0.83277832  1
  Sb  Sb58  1  0.49592192  0.33091099  0.83747340  1
  Sb  Sb59  1  0.83564280  0.33433114  0.49423522  1
  Sb  Sb60  1  -0.00090166  0.50410628  0.49537457  1
  Sb  Sb61  1  0.50021174  0.50726156  0.32923764  1
  Sb  Sb62  1  0.49492949  0.50681577  0.67092000  1
  Sb  Sb63  1  0.49763468  0.15702999  0.33257309  1
  Sb  Sb64  1  0.66637615  0.33630996  0.33096549  1
  Sb  Sb65  1  0.66516793  0.67123037  0.00397141  1
  Sb  Sb66  1  0.16888064  0.32485445  0.83348123  1
  Sb  Sb67  1  0.32772660  0.15567847  0.50397951  1
  Sb  Sb68  1  0.66131455  0.33619611  0.66626523  1
  Sb  Sb69  1  0.82684775  0.67386859  0.83485008  1
  Sb  Sb70  1  0.83590628  0.49849116  0.66434077  1
  Sb  Sb71  1  -0.00052050  0.33158864  0.00776237  1
  Sb  Sb72  1  0.33684425  -0.00387511  -0.00217799  1
  Sb  Sb73  1  0.66276260  0.49964187  0.83671011  1
  Sb  Sb74  1  0.00736973  0.49710439  0.83509323  1
  Sb  Sb75  1  0.17368644  0.82660585  0.33047192  1
  Sb  Sb76  1  0.66155914  -0.00414056  0.66565822  1
  Sb  Sb77  1  -0.00363351  -0.00045882  0.00103666  1
  Sb  Sb78  1  0.66706916  0.83218221  0.16765135  1
  Sb  Sb79  1  0.16766132  -0.00690474  0.16727884  1
  Sb  Sb80  1  0.17339696  0.83554848  0.66529366  1
  Sb  Sb81  1  0.32887847  0.16133529  0.16376272  1
  Sb  Sb82  1  0.33327044  0.33467590  0.00157930  1
  Sb  Sb83  1  0.67098971  0.16445047  0.50371677  1
  Sb  Sb84  1  0.50036317  0.67279900  0.16998329  1
  Sb  Sb85  1  0.83431171  0.32786482  0.83964214  1
  Sb  Sb86  1  0.00566525  0.83852860  0.83496034  1
  Sb  Sb87  1  0.00577678  0.00164560  0.66453871  1
  Sb  Sb88  1  0.66613027  0.33003482  0.00142025  1
  Sb  Sb89  1  0.65661235  0.83954517  0.83532083  1
  Sb  Sb90  1  0.49641719  0.16092623  -0.00068328  1
  Sb  Sb91  1  0.67104634  0.16450961  0.16373258  1
  Sb  Sb92  1  0.00078472  -0.00541498  0.33496421  1
  Sb  Sb93  1  0.33531564  0.50549984  0.16537697  1
  Sb  Sb94  1  0.49678498  0.33489388  0.49386629  1
  Sb  Sb95  1  0.33488361  0.50818638  0.50118709  1
  Sb  Sb96  1  -0.00469551  0.50369606  0.16924269  1
  Sb  Sb97  1  0.82879601  0.83904913  0.66655704  1
  Sb  Sb98  1  0.49615936  0.15940392  0.66871681  1
  Sb  Sb99  1  0.33403751  0.66976128  0.00471534  1
  Sb  Sb100  1  0.83554169  0.16665065  0.33417873  1
  Sb  Sb101  1  0.16539396  0.16806164  0.33449056  1
  Sb  Sb102  1  0.00506015  0.32865828  0.65984507  1
  Sb  Sb103  1  0.33651201  0.67163927  0.66243196  1
  Sb  Sb104  1  0.83744115  0.16099289  -0.00175924  1
  Sb  Sb105  1  0.66175717  0.82901633  0.49826830  1
  Sb  Sb106  1  0.16788228  0.33324727  0.49966253  1
  Sb  Sb107  1  0.83016066  0.82790531  0.33020388  1
  Te  Te108  1  0.16090251  0.16627361  0.16205614  1
  Te  Te109  1  0.16111671  0.16276266  0.50349139  1
  Te  Te110  1  0.16765302  0.16260149  0.83284299  1
  Te  Te111  1  0.16704518  0.50568261  0.16746453  1
  Te  Te112  1  0.16697354  0.50472893  0.49811960  1
  Te  Te113  1  0.17108709  0.50233729  0.83526845  1
  Te  Te114  1  0.16619141  0.82979343  0.16234841  1
  Te  Te115  1  0.16776761  0.83343384  0.50160301  1
  Te  Te116  1  0.17138682  0.83868803  0.83753084  1
  Te  Te117  1  0.49935249  0.16610068  0.16501684  1
  Te  Te118  1  0.50121236  0.15965086  0.50083059  1
  Te  Te119  1  0.49481526  0.16152853  0.83441033  1
  Te  Te120  1  0.50287494  0.50140131  0.16202110  1
  Te  Te121  1  0.50489277  0.50437541  0.50115060  1
  Te  Te122  1  0.49588908  0.49866721  0.83916274  1
  Te  Te123  1  0.49791380  0.83555739  0.16122714  1
  Te  Te124  1  0.49870530  0.83446643  0.49983085  1
  Te  Te125  1  0.49676935  0.83511180  0.83942313  1
  Te  Te126  1  0.83840222  0.15970923  0.16554929  1
  Te  Te127  1  0.83777461  0.16433065  0.50353916  1
  Te  Te128  1  0.83565673  0.16348102  0.83210132  1
  Te  Te129  1  0.83310969  0.50289140  0.16752170  1
  Te  Te130  1  0.83034114  0.50345654  0.49840151  1
  Te  Te131  1  0.83463395  0.50029633  0.83716253  1
  Te  Te132  1  0.83429006  0.83475440  0.16529626  1
  Te  Te133  1  0.83674334  0.83284429  0.50113175  1
  Te  Te134  1  0.83608548  0.83958917  0.83800073  1
  Te  Te135  1  0.16647404  -0.00344319  -0.00131687  1
  Te  Te136  1  0.17227882  0.00155111  0.33862227  1
  Te  Te137  1  0.17174476  0.00189523  0.66569934  1
  Te  Te138  1  0.16649675  0.34432982  0.00069656  1
  Te  Te139  1  0.16714011  0.33969509  0.33349076  1
  Te  Te140  1  0.17234366  0.33376578  0.66669612  1
  Te  Te141  1  0.16700203  0.66868756  0.00082474  1
  Te  Te142  1  0.16731826  0.66534912  0.33419895  1
  Te  Te143  1  0.16643971  0.66279614  0.66412892  1
  Te  Te144  1  0.50385836  -0.00300598  0.00024322  1
  Te  Te145  1  0.49891708  -0.00377376  0.33276028  1
  Te  Te146  1  0.49612008  -0.00510478  0.66866855  1
  Te  Te147  1  0.49979277  0.33803613  0.00709670  1
  Te  Te148  1  0.49713487  0.33373648  0.32758679  1
  Te  Te149  1  0.49263836  0.33341783  0.66455060  1
  Te  Te150  1  0.50037354  0.66862716  -0.00271343  1
  Te  Te151  1  0.50021483  0.67115820  0.33637024  1
  Te  Te152  1  0.50217257  0.67088439  0.66465324  1
  Te  Te153  1  0.82944995  -0.00295579  0.00262853  1
  Te  Te154  1  0.83143876  -0.00111183  0.33381325  1
  Te  Te155  1  0.83081182  0.00362916  0.66587299  1
  Te  Te156  1  0.83318704  0.34028004  0.00774949  1
  Te  Te157  1  0.83476813  0.33853145  0.32773616  1
  Te  Te158  1  0.83277531  0.32723548  0.66724526  1
  Te  Te159  1  0.83289644  0.66835138  0.00275655  1
  Te  Te160  1  0.83060362  0.66621816  0.33388541  1
  Te  Te161  1  0.82812191  0.66597694  0.66413061  1
  Te  Te162  1  0.00577297  0.16700359  -0.00015043  1
  Te  Te163  1  0.00029213  0.16843245  0.33300684  1
  Te  Te164  1  0.00199619  0.16729461  0.66620342  1
  Te  Te165  1  0.00346518  0.49956931  -0.00035739  1
  Te  Te166  1  0.00075612  0.50165979  0.33364559  1
  Te  Te167  1  0.00914452  0.49681690  0.66596543  1
  Te  Te168  1  0.00019829  0.83293977  0.00395460  1
  Te  Te169  1  -0.00093964  0.82843887  0.33271361  1
  Te  Te170  1  -0.00102884  0.83291995  0.66054174  1
  Te  Te171  1  0.32540402  0.16750277  -0.00577555  1
  Te  Te172  1  0.33160669  0.17489994  0.33305599  1
  Te  Te173  1  0.32993623  0.16518169  0.66937006  1
  Te  Te174  1  0.33357921  0.50168478  -0.00281574  1
  Te  Te175  1  0.33128961  0.50005571  0.33368077  1
  Te  Te176  1  0.32970843  0.49898487  0.66850859  1
  Te  Te177  1  0.33302071  0.83296533  0.00020668  1
  Te  Te178  1  0.33545338  0.83197817  0.33271835  1
  Te  Te179  1  0.33745711  0.83756493  0.66904086  1
  Te  Te180  1  0.66679110  0.15944683  -0.00522764  1
  Te  Te181  1  0.66667341  0.16060674  0.33364778  1
  Te  Te182  1  0.66875533  0.16758344  0.67177763  1
  Te  Te183  1  0.66707693  0.49969179  0.00352090  1
  Te  Te184  1  0.66783944  0.50237159  0.33108560  1
  Te  Te185  1  0.66728838  0.50394268  0.66700442  1
  Te  Te186  1  0.66882349  0.83846408  0.00079249  1
  Te  Te187  1  0.65765639  0.83387083  0.33278208  1
  Te  Te188  1  0.66017041  0.82573140  0.66803074  1
  Te  Te189  1  -0.00257579  -0.00286704  0.16859984  1
  Te  Te190  1  -0.00298653  -0.00276453  0.49868365  1
  Te  Te191  1  -0.00442354  0.00372330  0.83278148  1
  Te  Te192  1  -0.00303229  0.32860237  0.17342204  1
  Te  Te193  1  0.00035194  0.32625385  0.49175257  1
  Te  Te194  1  0.00000427  0.32470333  0.83259684  1
  Te  Te195  1  -0.00108145  0.67114634  0.17175667  1
  Te  Te196  1  0.00191496  0.67063723  0.49417019  1
  Te  Te197  1  -0.00192841  0.66755604  0.83059957  1
  Te  Te198  1  0.33678854  -0.00371703  0.17207507  1
  Te  Te199  1  0.33390762  -0.00407541  0.49904381  1
  Te  Te200  1  0.33403152  -0.00290716  0.83416269  1
  Te  Te201  1  0.33657058  0.33168572  0.17096315  1
  Te  Te202  1  0.33409911  0.33284421  0.49837330  1
  Te  Te203  1  0.33396485  0.34065243  0.83000473  1
  Te  Te204  1  0.32978964  0.67284073  0.17353474  1
  Te  Te205  1  0.33275154  0.67258620  0.49649674  1
  Te  Te206  1  0.33878671  0.66802689  0.83107936  1
  Te  Te207  1  0.66622147  0.00085863  0.16837522  1
  Te  Te208  1  0.67041663  0.00153358  0.49669354  1
  Te  Te209  1  0.66966407  0.00243875  0.83179153  1
  Te  Te210  1  0.66752917  0.33576916  0.16659677  1
  Te  Te211  1  0.66592379  0.34010423  0.50006752  1
  Te  Te212  1  0.66507492  0.32383705  0.83250690  1
  Te  Te213  1  0.67075181  0.66237302  0.17081160  1
  Te  Te214  1  0.66699985  0.66612942  0.49674736  1
  Te  Te215  1  0.65947994  0.66543623  0.83250252  1
