# generated using pymatgen
data_AgSbTe2
_symmetry_space_group_name_H-M   'P 1'
_cell_length_a   18.34477346
_cell_length_b   18.34623041
_cell_length_c   18.34701095
_cell_angle_alpha   90.00135264
_cell_angle_beta   90.00033039
_cell_angle_gamma   90.00045306
_symmetry_Int_Tables_number   1
_chemical_formula_structural   AgSbTe2
_chemical_formula_sum   'Ag54 Sb54 Te108'
_cell_volume   6174.82305043
_cell_formula_units_Z   54
loop_
 _symmetry_equiv_pos_site_id
 _symmetry_equiv_pos_as_xyz
  1  'x, y, z'
loop_
 _atom_site_type_symbol
 _atom_site_label
 _atom_site_symmetry_multiplicity
 _atom_site_fract_x
 _atom_site_fract_y
 _atom_site_fract_z
 _atom_site_occupancy
  Ag  Ag0  1  0.49403633  0.51137850  0.67350994  1
  Ag  Ag1  1  0.66990191  0.67132442  0.32914896  1
  Ag  Ag2  1  0.17602498  0.83298795  0.01282355  1
  Ag  Ag3  1  0.33308380  0.83088884  0.83398320  1
  Ag  Ag4  1  0.83846417  0.83281531  0.33610093  1
  Ag  Ag5  1  -0.00427696  0.83229640  0.49356554  1
  Ag  Ag6  1  0.17069966  0.83473561  0.33160360  1
  Ag  Ag7  1  0.33137408  0.32598112  0.32456682  1
  Ag  Ag8  1  0.83418266  0.67293961  0.50088342  1
  Ag  Ag9  1  0.33314469  0.83494536  0.16742427  1
  Ag  Ag10  1  0.49643830  0.50806607  0.00268901  1
  Ag  Ag11  1  0.49072776  0.15782481  0.32462472  1
  Ag  Ag12  1  0.33132624  -0.01288609  0.66294290  1
  Ag  Ag13  1  0.16670295  -0.00759182  0.49611636  1
  Ag  Ag14  1  0.33121098  -0.00322158  0.33005898  1
  Ag  Ag15  1  0.00793138  0.33806558  0.32830038  1
  Ag  Ag16  1  0.84246706  -0.01246630  0.50044160  1
  Ag  Ag17  1  0.49182606  -0.00640719  0.16700129  1
  Ag  Ag18  1  0.65528394  0.82748565  0.17453253  1
  Ag  Ag19  1  0.49493222  0.82615908  0.00747537  1
  Ag  Ag20  1  0.33539610  0.16274939  0.16478562  1
  Ag  Ag21  1  0.33480295  0.67056966  -0.00283363  1
  Ag  Ag22  1  -0.00014233  0.67233883  0.33227216  1
  Ag  Ag23  1  0.33254905  0.33817888  0.00625207  1
  Ag  Ag24  1  0.01460032  -0.00451601  0.66339487  1
  Ag  Ag25  1  0.17065099  -0.00186762  0.82993794  1
  Ag  Ag26  1  0.65367665  0.50969897  0.16940329  1
  Ag  Ag27  1  0.82943903  0.66899027  0.82890001  1
  Ag  Ag28  1  0.65414660  0.66767791  0.01133411  1
  Ag  Ag29  1  0.33167270  0.15965155  0.84107800  1
  Ag  Ag30  1  0.33417001  0.50243400  0.16060999  1
  Ag  Ag31  1  0.17568760  0.50345010  0.66552504  1
  Ag  Ag32  1  0.01051125  0.33314048  0.00971486  1
  Ag  Ag33  1  0.17254744  0.15459187  0.33125508  1
  Ag  Ag34  1  0.16569471  0.67404103  0.49177822  1
  Ag  Ag35  1  0.49551042  0.66802709  0.83691566  1
  Ag  Ag36  1  0.49300137  0.83110904  0.66303575  1
  Ag  Ag37  1  0.33340252  0.66941137  0.67428801  1
  Ag  Ag38  1  0.01632609  0.82836411  0.17645527  1
  Ag  Ag39  1  0.16876686  0.67388832  0.17242726  1
  Ag  Ag40  1  0.68060171  0.82983934  0.49113363  1
  Ag  Ag41  1  0.83439138  0.33450273  0.49787137  1
  Ag  Ag42  1  0.33391747  0.34445934  0.66811690  1
  Ag  Ag43  1  0.00974073  0.50653947  0.16694507  1
  Ag  Ag44  1  0.49429621  0.33044763  0.16630244  1
  Ag  Ag45  1  0.82959489  0.83303692  0.65184717  1
  Ag  Ag46  1  0.83143130  0.16846831  -0.00068813  1
  Ag  Ag47  1  0.17203857  -0.00890525  0.17477504  1
  Ag  Ag48  1  0.32954679  0.83377404  0.49456262  1
  Ag  Ag49  1  0.49314257  0.83475891  0.32754182  1
  Ag  Ag50  1  0.49514915  0.16711919  0.00523440  1
  Ag  Ag51  1  0.66577594  0.51277652  0.49236016  1
  Ag  Ag52  1  0.33426876  0.50816984  0.83628072  1
  Ag  Ag53  1  0.01306400  0.16535610  0.83751096  1
  Sb  Sb54  1  0.00479545  0.67182333  0.66208697  1
  Sb  Sb55  1  0.49294974  0.16344287  0.66933828  1
  Sb  Sb56  1  0.83724151  0.33620591  0.83229527  1
  Sb  Sb57  1  0.33548719  0.50490230  0.49963643  1
  Sb  Sb58  1  0.49405285  0.33738381  0.83860792  1
  Sb  Sb59  1  0.49931395  0.67125419  0.50343259  1
  Sb  Sb60  1  0.00260662  0.00176512  -0.00151164  1
  Sb  Sb61  1  0.00838870  0.16523111  0.16532406  1
  Sb  Sb62  1  0.84068162  -0.00566376  0.82874622  1
  Sb  Sb63  1  0.83058160  0.83363354  0.00312501  1
  Sb  Sb64  1  -0.00169101  0.50523940  0.49622336  1
  Sb  Sb65  1  0.00882403  -0.00684035  0.33689458  1
  Sb  Sb66  1  0.66021038  0.83033134  0.83366399  1
  Sb  Sb67  1  0.66364069  -0.00565602  0.00191764  1
  Sb  Sb68  1  0.49304781  0.67021699  0.16149522  1
  Sb  Sb69  1  0.49501076  -0.00503218  0.49560948  1
  Sb  Sb70  1  0.17698437  0.50514954  -0.00037894  1
  Sb  Sb71  1  0.49091228  -0.00612072  0.83836677  1
  Sb  Sb72  1  0.33239577  -0.00570643  0.00469242  1
  Sb  Sb73  1  0.17495043  0.33557836  0.16752448  1
  Sb  Sb74  1  0.83421608  0.66817098  0.16978441  1
  Sb  Sb75  1  0.00351197  0.66438850  0.00608408  1
  Sb  Sb76  1  0.66169348  -0.00449139  0.66333075  1
  Sb  Sb77  1  0.00806219  0.49801852  0.83933728  1
  Sb  Sb78  1  0.66442596  0.33907932  0.33229037  1
  Sb  Sb79  1  0.00166114  0.16131532  0.50093703  1
  Sb  Sb80  1  0.83157443  0.50596722  0.66395744  1
  Sb  Sb81  1  0.83629649  -0.00233855  0.17088807  1
  Sb  Sb82  1  0.65656854  0.16303264  0.16693716  1
  Sb  Sb83  1  0.65893668  0.50492759  0.83581553  1
  Sb  Sb84  1  0.17307244  0.83179950  0.65823787  1
  Sb  Sb85  1  0.65996668  0.33729714  0.66329654  1
  Sb  Sb86  1  0.00453364  0.33084279  0.66438881  1
  Sb  Sb87  1  0.16649397  0.33512035  0.49726340  1
  Sb  Sb88  1  0.49792754  0.50454738  0.33044830  1
  Sb  Sb89  1  0.66099233  0.16607359  0.83657129  1
  Sb  Sb90  1  0.83603679  0.16256287  0.33065104  1
  Sb  Sb91  1  0.17303640  0.32828353  0.83384124  1
  Sb  Sb92  1  0.33243742  0.16248722  0.49419106  1
  Sb  Sb93  1  0.83406642  0.50578141  0.33333605  1
  Sb  Sb94  1  0.83590218  0.16195501  0.66968743  1
  Sb  Sb95  1  0.66669282  0.16170773  0.49663055  1
  Sb  Sb96  1  0.83225561  0.33259557  0.16809646  1
  Sb  Sb97  1  0.49842750  0.33484580  0.49501432  1
  Sb  Sb98  1  0.33320212  0.67266621  0.33088369  1
  Sb  Sb99  1  0.66146012  0.66923831  0.66392726  1
  Sb  Sb100  1  0.16796593  0.50602354  0.33402222  1
  Sb  Sb101  1  0.65983239  0.33819454  0.00369040  1
  Sb  Sb102  1  0.65898292  -0.01034308  0.33330242  1
  Sb  Sb103  1  0.00796890  0.83528575  0.83267964  1
  Sb  Sb104  1  0.17242476  0.67231616  0.83386646  1
  Sb  Sb105  1  0.17301267  0.16125757  0.00390107  1
  Sb  Sb106  1  0.17079336  0.16427581  0.66333385  1
  Sb  Sb107  1  0.82919773  0.49975650  0.00086609  1
  Te  Te108  1  0.17327445  0.16218329  0.17171566  1
  Te  Te109  1  0.16595204  0.16187302  0.49218428  1
  Te  Te110  1  0.16985297  0.16060386  0.83332120  1
  Te  Te111  1  0.16860923  0.50490737  0.16652010  1
  Te  Te112  1  0.16628137  0.50485765  0.50437025  1
  Te  Te113  1  0.17400097  0.49933712  0.82836927  1
  Te  Te114  1  0.17029456  0.83160578  0.16860458  1
  Te  Te115  1  0.16931292  0.83183687  0.49916575  1
  Te  Te116  1  0.17197741  0.83901291  0.83690084  1
  Te  Te117  1  0.49708824  0.16727701  0.16789784  1
  Te  Te118  1  0.50172133  0.16615751  0.49514674  1
  Te  Te119  1  0.49314088  0.16599452  0.83893759  1
  Te  Te120  1  0.49614863  0.50056739  0.16449830  1
  Te  Te121  1  0.50633549  0.49969468  0.50094900  1
  Te  Te122  1  0.49396062  0.50344646  0.83345376  1
  Te  Te123  1  0.49638839  0.83367134  0.16583999  1
  Te  Te124  1  0.48974286  0.83488039  0.50335621  1
  Te  Te125  1  0.49497048  0.82921493  0.83177473  1
  Te  Te126  1  0.83100116  0.16486622  0.16125001  1
  Te  Te127  1  0.83318219  0.17164939  0.50012768  1
  Te  Te128  1  0.83049623  0.16584729  0.83847275  1
  Te  Te129  1  0.83476398  0.49844354  0.16629510  1
  Te  Te130  1  0.82845739  0.49936677  0.50010204  1
  Te  Te131  1  0.83351126  0.50635770  0.83204348  1
  Te  Te132  1  0.82811138  0.83492387  0.17096975  1
  Te  Te133  1  0.83694040  0.82973841  0.49610225  1
  Te  Te134  1  0.83290295  0.82868383  0.83480797  1
  Te  Te135  1  0.16508848  -0.00628146  -0.00156360  1
  Te  Te136  1  0.16944938  -0.00311202  0.33477769  1
  Te  Te137  1  0.17076101  0.00071931  0.66524441  1
  Te  Te138  1  0.16845540  0.33420580  0.00057315  1
  Te  Te139  1  0.16762583  0.33348256  0.33364207  1
  Te  Te140  1  0.17128360  0.33680810  0.66482035  1
  Te  Te141  1  0.16984230  0.67158138  0.00362456  1
  Te  Te142  1  0.16522705  0.67033929  0.33269725  1
  Te  Te143  1  0.17157757  0.66299003  0.66686009  1
  Te  Te144  1  0.50185974  0.00326676  0.00551028  1
  Te  Te145  1  0.49290360  -0.00205696  0.33055290  1
  Te  Te146  1  0.49215151  -0.00498527  0.66786101  1
  Te  Te147  1  0.49540330  0.33177264  0.00469649  1
  Te  Te148  1  0.49622829  0.33433665  0.32750697  1
  Te  Te149  1  0.49270848  0.33229636  0.66565679  1
  Te  Te150  1  0.49698647  0.66819811  -0.00191989  1
  Te  Te151  1  0.50445856  0.67391489  0.33553801  1
  Te  Te152  1  0.49592363  0.66829377  0.66980302  1
  Te  Te153  1  0.83248877  0.00598757  -0.00094206  1
  Te  Te154  1  0.83352635  -0.00378843  0.33893608  1
  Te  Te155  1  0.83003901  -0.00518535  0.66087136  1
  Te  Te156  1  0.83219698  0.32926884  -0.00152370  1
  Te  Te157  1  0.83347717  0.33128075  0.33696143  1
  Te  Te158  1  0.83335650  0.33392768  0.66130353  1
  Te  Te159  1  0.83513271  0.66603647  -0.00445451  1
  Te  Te160  1  0.83575484  0.67122405  0.33646929  1
  Te  Te161  1  0.83443300  0.67110448  0.66443391  1
  Te  Te162  1  0.00242583  0.17072275  -0.00242916  1
  Te  Te163  1  0.00341931  0.17312146  0.33236892  1
  Te  Te164  1  0.00061234  0.16095062  0.67236392  1
  Te  Te165  1  -0.00054152  0.49374208  0.00523754  1
  Te  Te166  1  0.00091572  0.49921440  0.32800627  1
  Te  Te167  1  0.00465733  0.49957486  0.66866296  1
  Te  Te168  1  0.00072551  0.83277810  0.00191081  1
  Te  Te169  1  0.00276400  0.83317121  0.33309157  1
  Te  Te170  1  -0.00351197  0.83728160  0.66719251  1
  Te  Te171  1  0.33442392  0.16885345  0.00196262  1
  Te  Te172  1  0.33356616  0.16612711  0.33291358  1
  Te  Te173  1  0.33347617  0.16929325  0.67192184  1
  Te  Te174  1  0.33547988  0.49884989  -0.00021702  1
  Te  Te175  1  0.33303022  0.49236549  0.33094794  1
  Te  Te176  1  0.33523768  0.50344060  0.66155907  1
  Te  Te177  1  0.33512613  0.83303814  0.00182704  1
  Te  Te178  1  0.33270383  0.83363338  0.33153869  1
  Te  Te179  1  0.33192686  0.83015227  0.66859516  1
  Te  Te180  1  0.66431635  0.16761012  0.00086330  1
  Te  Te181  1  0.66333785  0.16684350  0.33231777  1
  Te  Te182  1  0.66541868  0.16760017  0.66636940  1
  Te  Te183  1  0.66092561  0.50612330  0.00330506  1
  Te  Te184  1  0.66669609  0.50744863  0.33244004  1
  Te  Te185  1  0.66070610  0.50123892  0.66488072  1
  Te  Te186  1  0.66331890  0.82638530  0.00211246  1
  Te  Te187  1  0.66239601  0.83112589  0.33403296  1
  Te  Te188  1  0.66699784  0.83303283  0.66430920  1
  Te  Te189  1  0.00614885  -0.00497497  0.16656659  1
  Te  Te190  1  0.00269604  -0.00284468  0.50354306  1
  Te  Te191  1  0.00504616  0.00424930  0.82926535  1
  Te  Te192  1  -0.00110321  0.33267149  0.16765866  1
  Te  Te193  1  -0.00211271  0.33518872  0.49622280  1
  Te  Te194  1  0.00133518  0.32826827  0.83570695  1
  Te  Te195  1  0.00198619  0.66753105  0.17070702  1
  Te  Te196  1  0.00122155  0.67023269  0.49580192  1
  Te  Te197  1  -0.00404852  0.66505638  0.83338778  1
  Te  Te198  1  0.33250733  -0.00146765  0.16642152  1
  Te  Te199  1  0.32965199  -0.00246892  0.50130809  1
  Te  Te200  1  0.33088323  -0.00115736  0.83070223  1
  Te  Te201  1  0.33326865  0.33447794  0.16648236  1
  Te  Te202  1  0.33271000  0.33220015  0.50208368  1
  Te  Te203  1  0.33411801  0.33458577  0.83162853  1
  Te  Te204  1  0.32858795  0.66617503  0.16520003  1
  Te  Te205  1  0.32938731  0.67111238  0.49973126  1
  Te  Te206  1  0.33326764  0.66847626  0.83552974  1
  Te  Te207  1  0.66446090  -0.00674040  0.16666424  1
  Te  Te208  1  0.67289804  -0.00711256  0.49972033  1
  Te  Te209  1  0.66746456  0.00050314  0.83259427  1
  Te  Te210  1  0.66190322  0.34068849  0.16764875  1
  Te  Te211  1  0.67054141  0.33282734  0.49940504  1
  Te  Te212  1  0.66782769  0.33450849  0.83205799  1
  Te  Te213  1  0.66953614  0.66757854  0.16796752  1
  Te  Te214  1  0.66662418  0.66975795  0.49859260  1
  Te  Te215  1  0.66701567  0.66695933  0.83550576  1
