# generated using pymatgen
data_AgSbTe2
_symmetry_space_group_name_H-M   'P 1'
_cell_length_a   18.30900384
_cell_length_b   18.31678027
_cell_length_c   18.31228743
_cell_angle_alpha   90.00054872
_cell_angle_beta   89.99826878
_cell_angle_gamma   89.99788078
_symmetry_Int_Tables_number   1
_chemical_formula_structural   AgSbTe2
_chemical_formula_sum   'Ag54 Sb54 Te108'
_cell_volume   6141.24533605
_cell_formula_units_Z   54
loop_
 _symmetry_equiv_pos_site_id
 _symmetry_equiv_pos_as_xyz
  1  'x, y, z'
loop_
 _atom_site_type_symbol
 _atom_site_label
 _atom_site_symmetry_multiplicity
 _atom_site_fract_x
 _atom_site_fract_y
 _atom_site_fract_z
 _atom_site_occupancy
  Ag  Ag0  1  -0.00518049  0.49982920  0.83623622  1
  Ag  Ag1  1  0.15734738  0.66217719  0.49968901  1
  Ag  Ag2  1  0.50494771  0.16433365  0.66408149  1
  Ag  Ag3  1  0.33359142  0.49674545  0.50066297  1
  Ag  Ag4  1  0.33926094  0.83320037  0.15852900  1
  Ag  Ag5  1  0.83877545  0.83270203  -0.00351969  1
  Ag  Ag6  1  0.84072702  0.16477521  -0.00375457  1
  Ag  Ag7  1  -0.00284407  0.66058602  0.00346829  1
  Ag  Ag8  1  0.49689633  0.50094787  -0.00013492  1
  Ag  Ag9  1  0.49922029  0.17237793  0.33369939  1
  Ag  Ag10  1  0.67104462  0.00372913  0.66482875  1
  Ag  Ag11  1  0.33962156  0.00089154  0.67400816  1
  Ag  Ag12  1  0.49476266  0.33791612  0.83851901  1
  Ag  Ag13  1  0.33233935  0.33122148  0.32740366  1
  Ag  Ag14  1  0.83733226  0.50142607  0.66911157  1
  Ag  Ag15  1  -0.00233391  0.82444803  0.16189099  1
  Ag  Ag16  1  0.83397562  0.66363513  0.83661577  1
  Ag  Ag17  1  0.66990601  0.17183250  0.50095569  1
  Ag  Ag18  1  -0.00251717  0.33888805  0.66457513  1
  Ag  Ag19  1  0.16770250  0.33382910  0.83933609  1
  Ag  Ag20  1  0.16160773  0.17369805  0.00222605  1
  Ag  Ag21  1  -0.00587321  0.17128501  0.50381619  1
  Ag  Ag22  1  -0.00249393  0.50109305  0.50388955  1
  Ag  Ag23  1  0.83567206  0.83619825  0.67060410  1
  Ag  Ag24  1  0.83418869  0.16334681  0.66746119  1
  Ag  Ag25  1  0.33930251  0.83929843  0.83972263  1
  Ag  Ag26  1  0.83297306  0.34075580  0.16289005  1
  Ag  Ag27  1  0.33020340  0.32954300  -0.00001100  1
  Ag  Ag28  1  0.50085487  0.00125655  0.16228740  1
  Ag  Ag29  1  0.50748176  0.66374114  0.15915776  1
  Ag  Ag30  1  0.50252952  0.83919789  0.67302737  1
  Ag  Ag31  1  -0.00876691  0.50309825  0.15927421  1
  Ag  Ag32  1  0.00474212  0.33748848  0.33323339  1
  Ag  Ag33  1  0.49995692  0.33276310  0.50059080  1
  Ag  Ag34  1  -0.00718258  0.00125346  0.66740878  1
  Ag  Ag35  1  0.67122142  0.50060765  0.83610693  1
  Ag  Ag36  1  0.83622651  0.00368202  0.50896309  1
  Ag  Ag37  1  0.66454403  0.17529540  0.16994073  1
  Ag  Ag38  1  0.15992165  0.49274989  -0.00092064  1
  Ag  Ag39  1  -0.00473126  0.66047629  0.66383217  1
  Ag  Ag40  1  0.16771774  0.17147108  0.32951653  1
  Ag  Ag41  1  -0.00341724  0.65895817  0.33363036  1
  Ag  Ag42  1  0.33506860  0.16639015  0.83556726  1
  Ag  Ag43  1  0.00492982  0.33937075  0.00012567  1
  Ag  Ag44  1  0.50414259  0.33346483  0.16337395  1
  Ag  Ag45  1  0.67087291  0.49821240  0.16424565  1
  Ag  Ag46  1  -0.00271533  0.82648470  0.50281169  1
  Ag  Ag47  1  0.49741168  0.82790850  -0.00174745  1
  Ag  Ag48  1  0.66945436  0.49556917  0.50169873  1
  Ag  Ag49  1  0.67260670  0.66240686  0.33044889  1
  Ag  Ag50  1  0.83577400  0.66073087  0.16032381  1
  Ag  Ag51  1  0.50451236  0.66201204  0.84056233  1
  Ag  Ag52  1  -0.00025402  0.00181562  -0.00271154  1
  Ag  Ag53  1  0.33238015  0.00307076  -0.00486716  1
  Sb  Sb54  1  0.66642973  0.00171983  -0.00316579  1
  Sb  Sb55  1  0.16307389  0.49546575  0.32954843  1
  Sb  Sb56  1  0.16412327  0.83552644  0.33303183  1
  Sb  Sb57  1  0.50352210  0.00588929  0.50252014  1
  Sb  Sb58  1  0.67209314  0.83297249  0.50350259  1
  Sb  Sb59  1  0.67022354  0.66376658  0.00335367  1
  Sb  Sb60  1  0.66767542  0.82921637  0.16515401  1
  Sb  Sb61  1  -0.00584547  0.17115298  0.16561193  1
  Sb  Sb62  1  0.33561621  0.00700079  0.33082037  1
  Sb  Sb63  1  0.83437590  0.33222345  0.49838793  1
  Sb  Sb64  1  0.16533332  0.33358644  0.16076540  1
  Sb  Sb65  1  0.33014500  0.83041264  0.50280258  1
  Sb  Sb66  1  0.15950319  0.66538235  0.16802951  1
  Sb  Sb67  1  0.49828500  -0.00092954  0.83526835  1
  Sb  Sb68  1  0.83215216  0.16966211  0.33514676  1
  Sb  Sb69  1  0.83019304  -0.00021371  0.16596868  1
  Sb  Sb70  1  0.33360100  0.49744826  0.83196457  1
  Sb  Sb71  1  0.66603112  -0.00007534  0.33600266  1
  Sb  Sb72  1  0.16739404  0.00556493  0.83493036  1
  Sb  Sb73  1  0.16282654  0.66127875  0.83256480  1
  Sb  Sb74  1  0.16147110  0.83310484  0.66806771  1
  Sb  Sb75  1  0.83443260  -0.00420614  0.82875264  1
  Sb  Sb76  1  0.33076590  0.66064864  0.33148391  1
  Sb  Sb77  1  0.83685297  0.50101394  -0.00136342  1
  Sb  Sb78  1  0.15990839  -0.00037006  0.50172235  1
  Sb  Sb79  1  0.66331104  0.17342279  0.83107573  1
  Sb  Sb80  1  0.00169938  0.17358504  0.83186997  1
  Sb  Sb81  1  0.33410885  0.17077801  0.50353293  1
  Sb  Sb82  1  0.33162489  0.66970596  0.66842877  1
  Sb  Sb83  1  0.33293656  0.66635173  0.00016123  1
  Sb  Sb84  1  0.16581990  0.83286327  -0.00104412  1
  Sb  Sb85  1  0.49872073  0.83496816  0.32945205  1
  Sb  Sb86  1  0.16930001  0.00111355  0.16367368  1
  Sb  Sb87  1  0.49911705  0.16939317  -0.00095336  1
  Sb  Sb88  1  0.83839895  0.66629994  0.50256401  1
  Sb  Sb89  1  0.33939434  0.16662397  0.16048235  1
  Sb  Sb90  1  0.66715776  0.33472767  0.00166927  1
  Sb  Sb91  1  0.83492989  0.33792229  0.83740004  1
  Sb  Sb92  1  0.67264215  0.66702705  0.66450397  1
  Sb  Sb93  1  0.83499452  0.50030131  0.33362144  1
  Sb  Sb94  1  -0.00046674  0.82730608  0.83401055  1
  Sb  Sb95  1  0.66365359  0.82614304  0.83259193  1
  Sb  Sb96  1  0.16363793  0.16775821  0.66814174  1
  Sb  Sb97  1  0.15823297  0.49897197  0.66968264  1
  Sb  Sb98  1  0.50081063  0.49412822  0.32848895  1
  Sb  Sb99  1  0.83554270  0.82960086  0.33325742  1
  Sb  Sb100  1  -0.00101226  0.00229485  0.33252801  1
  Sb  Sb101  1  0.50583104  0.49766264  0.67134702  1
  Sb  Sb102  1  0.66569134  0.33625526  0.33179869  1
  Sb  Sb103  1  0.67132604  0.33045620  0.66571760  1
  Sb  Sb104  1  0.33241589  0.33018600  0.67004685  1
  Sb  Sb105  1  0.33608933  0.50015078  0.16602559  1
  Sb  Sb106  1  0.16553342  0.33666017  0.50227198  1
  Sb  Sb107  1  0.50046479  0.66074640  0.50041820  1
  Te  Te108  1  0.16664509  0.16653378  0.16572692  1
  Te  Te109  1  0.16152572  0.16824594  0.49736589  1
  Te  Te110  1  0.17087655  0.17239654  0.83783355  1
  Te  Te111  1  0.16144662  0.50060898  0.15933119  1
  Te  Te112  1  0.16142846  0.50266091  0.49924463  1
  Te  Te113  1  0.16364168  0.49526945  0.83914085  1
  Te  Te114  1  0.16461016  0.83326866  0.16685253  1
  Te  Te115  1  0.16001675  0.82745610  0.49978539  1
  Te  Te116  1  0.17862647  0.83058017  0.83353467  1
  Te  Te117  1  0.50383372  0.17081702  0.16627663  1
  Te  Te118  1  0.50210782  0.17064864  0.50254256  1
  Te  Te119  1  0.49756044  0.17172109  0.82972620  1
  Te  Te120  1  0.50153061  0.50001325  0.16287239  1
  Te  Te121  1  0.50455477  0.49520262  0.50160375  1
  Te  Te122  1  0.50060702  0.50036619  0.83619312  1
  Te  Te123  1  0.49996029  0.83166466  0.16498016  1
  Te  Te124  1  0.50046980  0.83286991  0.50420722  1
  Te  Te125  1  0.49879309  0.83124695  0.83435514  1
  Te  Te126  1  0.82628890  0.16598524  0.16399802  1
  Te  Te127  1  0.83289706  0.16706024  0.50273736  1
  Te  Te128  1  0.83215413  0.16846509  0.83269936  1
  Te  Te129  1  0.83181014  0.50044032  0.16504758  1
  Te  Te130  1  0.83332538  0.49913530  0.50590393  1
  Te  Te131  1  0.83312319  0.50312981  0.83180968  1
  Te  Te132  1  0.83628278  0.83163423  0.16186044  1
  Te  Te133  1  0.83836566  0.83657883  0.50408910  1
  Te  Te134  1  0.83182983  0.82626691  0.83438223  1
  Te  Te135  1  0.16675863  0.00584105  0.00016996  1
  Te  Te136  1  0.16815618  0.01097626  0.33342785  1
  Te  Te137  1  0.16553218  0.00018689  0.66765040  1
  Te  Te138  1  0.16723756  0.33233870  -0.00119966  1
  Te  Te139  1  0.16652022  0.32937834  0.33351105  1
  Te  Te140  1  0.15899764  0.33249532  0.67484335  1
  Te  Te141  1  0.16022679  0.66097755  0.00010724  1
  Te  Te142  1  0.16196631  0.66626774  0.33784520  1
  Te  Te143  1  0.15943940  0.66629979  0.66256539  1
  Te  Te144  1  0.49831858  -0.00335803  0.00284901  1
  Te  Te145  1  0.50046964  0.00754842  0.32736916  1
  Te  Te146  1  0.49872864  0.00086463  0.66750485  1
  Te  Te147  1  0.49858972  0.33411837  0.00052499  1
  Te  Te148  1  0.49900910  0.33047003  0.33273738  1
  Te  Te149  1  0.50011699  0.32990934  0.66537265  1
  Te  Te150  1  0.49895025  0.66848480  -0.00022400  1
  Te  Te151  1  0.49996705  0.66616711  0.33080435  1
  Te  Te152  1  0.50123607  0.67053128  0.66982081  1
  Te  Te153  1  0.83595354  -0.00131764  -0.00163846  1
  Te  Te154  1  0.83214851  -0.00174123  0.34139372  1
  Te  Te155  1  0.83451272  0.00084071  0.66721434  1
  Te  Te156  1  0.83748188  0.32915501  0.00412160  1
  Te  Te157  1  0.84287687  0.33356912  0.32387685  1
  Te  Te158  1  0.83893355  0.33000598  0.66773227  1
  Te  Te159  1  0.83606637  0.66908805  -0.00032448  1
  Te  Te160  1  0.83643830  0.66637554  0.32558948  1
  Te  Te161  1  0.83665574  0.66815559  0.66979720  1
  Te  Te162  1  -0.00015707  0.16449215  -0.00069344  1
  Te  Te163  1  0.00056791  0.16983743  0.33543836  1
  Te  Te164  1  -0.00261942  0.16355187  0.66539583  1
  Te  Te165  1  -0.00215702  0.49934231  0.00010286  1
  Te  Te166  1  0.00053597  0.49894664  0.33553875  1
  Te  Te167  1  -0.00285376  0.49945707  0.66556014  1
  Te  Te168  1  -0.00049658  0.83498268  0.00005710  1
  Te  Te169  1  0.00069057  0.83011697  0.33352172  1
  Te  Te170  1  -0.00417192  0.83673203  0.66654279  1
  Te  Te171  1  0.33192463  0.16683975  -0.00327080  1
  Te  Te172  1  0.33512767  0.17305797  0.33427521  1
  Te  Te173  1  0.33499370  0.16279506  0.67101110  1
  Te  Te174  1  0.33623187  0.49604915  -0.00067069  1
  Te  Te175  1  0.33157837  0.49227511  0.33849454  1
  Te  Te176  1  0.33317303  0.49987768  0.65994589  1
  Te  Te177  1  0.33296263  0.83463610  0.00066034  1
  Te  Te178  1  0.33201155  0.83481656  0.32855843  1
  Te  Te179  1  0.33704742  0.83785343  0.66805706  1
  Te  Te180  1  0.67425937  0.16641881  0.00243321  1
  Te  Te181  1  0.66302911  0.16768906  0.33568580  1
  Te  Te182  1  0.66698987  0.16510443  0.66428906  1
  Te  Te183  1  0.65928435  0.50004375  0.00145339  1
  Te  Te184  1  0.66726220  0.50323010  0.33315320  1
  Te  Te185  1  0.67386958  0.49919358  0.66433209  1
  Te  Te186  1  0.66587664  0.83479130  -0.00116764  1
  Te  Te187  1  0.66623308  0.82492590  0.33484006  1
  Te  Te188  1  0.66780180  0.83868523  0.66680767  1
  Te  Te189  1  -0.00144107  -0.00421319  0.16316429  1
  Te  Te190  1  -0.00290041  0.00166039  0.50033412  1
  Te  Te191  1  0.00091057  -0.00116971  0.83537347  1
  Te  Te192  1  -0.00160489  0.33527903  0.16441350  1
  Te  Te193  1  -0.00063439  0.33384678  0.50041296  1
  Te  Te194  1  0.00026842  0.33838543  0.83689686  1
  Te  Te195  1  -0.00219739  0.66506848  0.16537811  1
  Te  Te196  1  -0.00209848  0.66477231  0.49996841  1
  Te  Te197  1  -0.00163491  0.66157324  0.83333479  1
  Te  Te198  1  0.33831722  -0.00342426  0.16308905  1
  Te  Te199  1  0.33227318  -0.00121391  0.50546711  1
  Te  Te200  1  0.33289052  0.00121692  0.83516243  1
  Te  Te201  1  0.33872205  0.33428423  0.16465973  1
  Te  Te202  1  0.33560505  0.33701064  0.50093587  1
  Te  Te203  1  0.33492847  0.33202588  0.83650954  1
  Te  Te204  1  0.33903846  0.67076883  0.16783254  1
  Te  Te205  1  0.32942155  0.66070176  0.49952044  1
  Te  Te206  1  0.33779182  0.66903797  0.83287830  1
  Te  Te207  1  0.66144845  0.00290259  0.16727976  1
  Te  Te208  1  0.67101700  0.00380090  0.50352314  1
  Te  Te209  1  0.66640656  0.00233807  0.82527628  1
  Te  Te210  1  0.66620401  0.33613024  0.16756954  1
  Te  Te211  1  0.66424181  0.33355543  0.49854430  1
  Te  Te212  1  0.65912248  0.34189748  0.83311479  1
  Te  Te213  1  0.66706614  0.66310701  0.16929774  1
  Te  Te214  1  0.66824682  0.66110159  0.49379362  1
  Te  Te215  1  0.66646696  0.65908513  0.83205568  1
