# generated using pymatgen
data_AgSbTe2
_symmetry_space_group_name_H-M   'P 1'
_cell_length_a   18.31325189
_cell_length_b   18.31513734
_cell_length_c   18.31374609
_cell_angle_alpha   90.00270722
_cell_angle_beta   89.99895136
_cell_angle_gamma   90.00072687
_symmetry_Int_Tables_number   1
_chemical_formula_structural   AgSbTe2
_chemical_formula_sum   'Ag54 Sb54 Te108'
_cell_volume   6142.60850288
_cell_formula_units_Z   54
loop_
 _symmetry_equiv_pos_site_id
 _symmetry_equiv_pos_as_xyz
  1  'x, y, z'
loop_
 _atom_site_type_symbol
 _atom_site_label
 _atom_site_symmetry_multiplicity
 _atom_site_fract_x
 _atom_site_fract_y
 _atom_site_fract_z
 _atom_site_occupancy
  Ag  Ag0  1  0.16390785  0.65828156  0.16727534  1
  Ag  Ag1  1  0.66665730  0.82452105  0.83366761  1
  Ag  Ag2  1  0.50163959  0.66086540  0.83203707  1
  Ag  Ag3  1  0.82954396  0.00686694  0.49363965  1
  Ag  Ag4  1  -0.00333890  0.17202259  0.50011918  1
  Ag  Ag5  1  0.66973688  0.50046640  0.83244258  1
  Ag  Ag6  1  0.49573684  0.00224283  0.49926009  1
  Ag  Ag7  1  0.50201750  0.83144265  -0.00031069  1
  Ag  Ag8  1  0.16773210  0.49650830  0.00316670  1
  Ag  Ag9  1  0.83659600  0.49584804  0.66811137  1
  Ag  Ag10  1  0.00100069  0.49432621  0.49884552  1
  Ag  Ag11  1  0.17360243  0.17436666  0.66631597  1
  Ag  Ag12  1  0.33163323  0.00302841  0.33772032  1
  Ag  Ag13  1  0.49638151  0.16573608  0.66352484  1
  Ag  Ag14  1  0.00187177  0.66525694  0.33207171  1
  Ag  Ag15  1  0.49877133  0.00884140  0.16883830  1
  Ag  Ag16  1  0.16984890  0.17244453  -0.00009514  1
  Ag  Ag17  1  -0.00512722  0.83513909  0.16891746  1
  Ag  Ag18  1  0.49334603  0.66886101  0.50403239  1
  Ag  Ag19  1  0.33584246  0.16607627  0.49827722  1
  Ag  Ag20  1  0.83250149  0.33314582  0.50122030  1
  Ag  Ag21  1  0.83606642  0.83170190  0.32565964  1
  Ag  Ag22  1  0.33682020  0.16861676  0.17047549  1
  Ag  Ag23  1  0.83900156  0.49985351  0.33248100  1
  Ag  Ag24  1  0.50446745  0.34011733  0.83764550  1
  Ag  Ag25  1  0.33354073  0.66624089  0.65777792  1
  Ag  Ag26  1  -0.00662377  0.33541663  0.66286229  1
  Ag  Ag27  1  0.32907655  0.66166161  0.33893359  1
  Ag  Ag28  1  0.83385013  -0.00319017  0.17199503  1
  Ag  Ag29  1  0.66592496  0.16749132  0.49951410  1
  Ag  Ag30  1  0.83720686  0.66821596  0.16611215  1
  Ag  Ag31  1  0.33336846  0.33102074  0.00840796  1
  Ag  Ag32  1  0.66107273  0.16967719  0.17206798  1
  Ag  Ag33  1  -0.00271626  -0.00444121  0.33020579  1
  Ag  Ag34  1  0.83037740  0.65949766  0.83935023  1
  Ag  Ag35  1  0.67070408  0.32940385  0.66397433  1
  Ag  Ag36  1  0.17327900  0.33773858  0.16471659  1
  Ag  Ag37  1  0.66126812  0.00978385  0.66251829  1
  Ag  Ag38  1  0.66854173  0.33266496  0.33367329  1
  Ag  Ag39  1  0.16496094  0.50101976  0.33348323  1
  Ag  Ag40  1  0.16435708  0.49573485  0.66504493  1
  Ag  Ag41  1  0.00079621  0.00049786  0.00948619  1
  Ag  Ag42  1  0.33566034  0.33244030  0.32946483  1
  Ag  Ag43  1  0.49389077  0.32648474  0.16288971  1
  Ag  Ag44  1  0.83506111  0.50100169  -0.00195834  1
  Ag  Ag45  1  0.33841455  0.00317615  0.65471209  1
  Ag  Ag46  1  0.83215219  0.33639683  0.16943011  1
  Ag  Ag47  1  0.16856351  0.66141400  0.83686799  1
  Ag  Ag48  1  0.83132389  0.82896887  0.00652544  1
  Ag  Ag49  1  0.33278607  0.00625966  0.00746120  1
  Ag  Ag50  1  0.33107687  0.49978060  0.49787348  1
  Ag  Ag51  1  0.33675707  0.83336055  0.49764164  1
  Ag  Ag52  1  0.49693692  0.49801316  -0.00287362  1
  Ag  Ag53  1  0.82589447  0.34167706  0.82634094  1
  Sb  Sb54  1  -0.00629702  0.49987556  0.82885939  1
  Sb  Sb55  1  0.33405420  0.33259213  0.66275747  1
  Sb  Sb56  1  0.66909116  0.66603366  -0.00134119  1
  Sb  Sb57  1  0.17198812  0.00421209  0.49877268  1
  Sb  Sb58  1  0.66828209  0.66066170  0.33438397  1
  Sb  Sb59  1  0.66304570  0.84093577  0.50315789  1
  Sb  Sb60  1  -0.00104576  0.33553601  0.33696023  1
  Sb  Sb61  1  0.16991251  0.17323258  0.33320922  1
  Sb  Sb62  1  0.49929257  0.49660446  0.66968638  1
  Sb  Sb63  1  0.49431438  0.16920321  -0.00016638  1
  Sb  Sb64  1  0.49831820  0.49835390  0.33063006  1
  Sb  Sb65  1  0.83443737  0.16966053  0.33457592  1
  Sb  Sb66  1  0.49801125  0.16699473  0.33644447  1
  Sb  Sb67  1  0.16732112  0.00345887  0.16733556  1
  Sb  Sb68  1  0.00131469  0.83418675  0.49426225  1
  Sb  Sb69  1  0.66521209  -0.00006222  -0.00037829  1
  Sb  Sb70  1  0.66725916  0.49292556  0.50347473  1
  Sb  Sb71  1  0.16423879  0.33478042  0.49700591  1
  Sb  Sb72  1  0.33166925  0.83849963  0.17035677  1
  Sb  Sb73  1  0.83074424  0.17535542  0.66241105  1
  Sb  Sb74  1  0.16773858  -0.00305135  0.83385480  1
  Sb  Sb75  1  0.00061558  0.00795763  0.65989389  1
  Sb  Sb76  1  0.66345239  0.33436594  0.00065029  1
  Sb  Sb77  1  0.49997391  -0.00011044  0.83326025  1
  Sb  Sb78  1  -0.00601439  0.83056716  0.84089269  1
  Sb  Sb79  1  0.00426170  0.65947781  0.66075186  1
  Sb  Sb80  1  0.67010079  0.49231139  0.16322508  1
  Sb  Sb81  1  0.16692457  0.83281890  0.00238612  1
  Sb  Sb82  1  0.33366732  0.16816070  0.83213799  1
  Sb  Sb83  1  0.49915734  0.66535990  0.16500482  1
  Sb  Sb84  1  0.33631704  0.50040793  0.83057181  1
  Sb  Sb85  1  0.82997288  0.66265888  0.49793374  1
  Sb  Sb86  1  0.83103227  -0.00116713  0.83446571  1
  Sb  Sb87  1  0.50229731  0.83425596  0.33024362  1
  Sb  Sb88  1  0.16870952  0.33917555  0.83636344  1
  Sb  Sb89  1  0.66781996  0.00629980  0.33591794  1
  Sb  Sb90  1  0.16989243  0.82964292  0.66582354  1
  Sb  Sb91  1  0.33221316  0.66427176  0.00219245  1
  Sb  Sb92  1  0.50239879  0.32974050  0.49905446  1
  Sb  Sb93  1  0.83183345  0.82872740  0.66699256  1
  Sb  Sb94  1  0.33864780  0.83051877  0.83206324  1
  Sb  Sb95  1  0.66286085  0.66240935  0.66874970  1
  Sb  Sb96  1  -0.00004014  0.16814278  0.82809441  1
  Sb  Sb97  1  0.00235026  0.33169053  -0.00148048  1
  Sb  Sb98  1  0.00149777  0.16413029  0.17215399  1
  Sb  Sb99  1  -0.00170826  0.66750690  0.00733463  1
  Sb  Sb100  1  0.16419637  0.82713538  0.33137667  1
  Sb  Sb101  1  0.50001120  0.83656213  0.66938493  1
  Sb  Sb102  1  0.67220075  0.83939120  0.16390017  1
  Sb  Sb103  1  0.66552586  0.17096684  0.83055590  1
  Sb  Sb104  1  0.17439871  0.66128323  0.49748251  1
  Sb  Sb105  1  -0.00051384  0.50291074  0.17294664  1
  Sb  Sb106  1  0.33068135  0.49241110  0.17122857  1
  Sb  Sb107  1  0.83792254  0.16887823  0.00342868  1
  Te  Te108  1  0.17095922  0.17194222  0.16331677  1
  Te  Te109  1  0.17034832  0.16893294  0.50438566  1
  Te  Te110  1  0.16586264  0.16793554  0.83362191  1
  Te  Te111  1  0.16557221  0.49857569  0.16553743  1
  Te  Te112  1  0.16692092  0.49860422  0.50045606  1
  Te  Te113  1  0.16679927  0.50339398  0.83305028  1
  Te  Te114  1  0.15998600  0.82482920  0.16585403  1
  Te  Te115  1  0.17520716  0.83337185  0.49928026  1
  Te  Te116  1  0.16538822  0.82230136  0.83451762  1
  Te  Te117  1  0.49770104  0.16700461  0.16497190  1
  Te  Te118  1  0.49924383  0.16395446  0.50308156  1
  Te  Te119  1  0.50052029  0.17265156  0.82733770  1
  Te  Te120  1  0.50161752  0.49679043  0.15842418  1
  Te  Te121  1  0.49584514  0.50237948  0.50023020  1
  Te  Te122  1  0.50272544  0.50033002  0.83594880  1
  Te  Te123  1  0.50133303  0.83533347  0.15981495  1
  Te  Te124  1  0.49582098  0.83594155  0.49949486  1
  Te  Te125  1  0.50550862  0.82968622  0.83876152  1
  Te  Te126  1  0.83121782  0.16648011  0.16732608  1
  Te  Te127  1  0.83264208  0.16648278  0.50071416  1
  Te  Te128  1  0.83329982  0.17461603  0.83400566  1
  Te  Te129  1  0.83352503  0.49919137  0.16564625  1
  Te  Te130  1  0.83336117  0.49754711  0.50009182  1
  Te  Te131  1  0.83217169  0.49950525  0.83497852  1
  Te  Te132  1  0.83344726  0.83495740  0.16580862  1
  Te  Te133  1  0.83217134  0.83582081  0.49695090  1
  Te  Te134  1  0.82733720  0.82890138  0.83773395  1
  Te  Te135  1  0.16917076  0.00133097  -0.00025381  1
  Te  Te136  1  0.16908018  -0.00130051  0.33224109  1
  Te  Te137  1  0.17061029  0.00333908  0.66781556  1
  Te  Te138  1  0.16896752  0.33513248  0.00274862  1
  Te  Te139  1  0.16933145  0.34040499  0.32699451  1
  Te  Te140  1  0.16603323  0.33524572  0.66873997  1
  Te  Te141  1  0.16552765  0.66126529  0.00139148  1
  Te  Te142  1  0.16735565  0.66130743  0.33015308  1
  Te  Te143  1  0.17164960  0.66176586  0.66945436  1
  Te  Te144  1  0.49655024  -0.00110899  0.00151153  1
  Te  Te145  1  0.49692284  -0.00171371  0.33156373  1
  Te  Te146  1  0.49851142  0.00239196  0.66616075  1
  Te  Te147  1  0.49635211  0.33532839  0.00165903  1
  Te  Te148  1  0.49846889  0.33419709  0.32708007  1
  Te  Te149  1  0.50267835  0.32934738  0.66872027  1
  Te  Te150  1  0.49893589  0.66448878  -0.00317268  1
  Te  Te151  1  0.49511500  0.66677702  0.33515739  1
  Te  Te152  1  0.49552353  0.66713105  0.66819873  1
  Te  Te153  1  0.83528677  -0.00177757  0.00316441  1
  Te  Te154  1  0.83292258  -0.00045378  0.33267895  1
  Te  Te155  1  0.83134234  -0.00109766  0.66344366  1
  Te  Te156  1  0.83478621  0.33732245  0.00506240  1
  Te  Te157  1  0.83336956  0.33724663  0.33281142  1
  Te  Te158  1  0.83212303  0.33608364  0.66421893  1
  Te  Te159  1  0.83548023  0.66478419  0.00120398  1
  Te  Te160  1  0.83447448  0.66272704  0.33205128  1
  Te  Te161  1  0.83370709  0.65947519  0.66927189  1
  Te  Te162  1  0.00741906  0.16110301  0.00018051  1
  Te  Te163  1  0.00340074  0.15974694  0.34078808  1
  Te  Te164  1  0.00664498  0.17179296  0.65981616  1
  Te  Te165  1  0.00034421  0.49982623  -0.00015184  1
  Te  Te166  1  0.00007365  0.50162035  0.33871365  1
  Te  Te167  1  0.00115637  0.49617919  0.66058276  1
  Te  Te168  1  -0.00338127  0.83821001  0.00634388  1
  Te  Te169  1  -0.00339578  0.83432531  0.33040285  1
  Te  Te170  1  0.00117135  0.83530853  0.66606681  1
  Te  Te171  1  0.32953563  0.16685039  0.00048561  1
  Te  Te172  1  0.33197444  0.16701541  0.33400788  1
  Te  Te173  1  0.33311387  0.16529062  0.66483110  1
  Te  Te174  1  0.33234350  0.49700265  0.00003465  1
  Te  Te175  1  0.33253827  0.49962935  0.33723312  1
  Te  Te176  1  0.33016088  0.50112572  0.66118114  1
  Te  Te177  1  0.33695967  0.83704409  0.00075708  1
  Te  Te178  1  0.33477154  0.83628344  0.33752450  1
  Te  Te179  1  0.33371210  0.83524615  0.66201918  1
  Te  Te180  1  0.66658468  0.16606920  0.00629123  1
  Te  Te181  1  0.66625604  0.17368316  0.33446413  1
  Te  Te182  1  0.66438798  0.16887687  0.66397033  1
  Te  Te183  1  0.66908941  0.49971698  -0.00647831  1
  Te  Te184  1  0.67118032  0.49233641  0.33441967  1
  Te  Te185  1  0.66970572  0.49463498  0.67085880  1
  Te  Te186  1  0.66745791  0.83436347  -0.00445161  1
  Te  Te187  1  0.67514804  0.83165145  0.33432707  1
  Te  Te188  1  0.66703526  0.83754048  0.67229650  1
  Te  Te189  1  -0.00080266  -0.00134448  0.16884406  1
  Te  Te190  1  -0.00430647  0.00154891  0.49508005  1
  Te  Te191  1  -0.00026822  -0.00055994  0.83914341  1
  Te  Te192  1  -0.00477538  0.33087276  0.16726614  1
  Te  Te193  1  -0.00322372  0.33352977  0.50201306  1
  Te  Te194  1  -0.00631278  0.33305986  0.82687819  1
  Te  Te195  1  -0.00268475  0.66960413  0.17226063  1
  Te  Te196  1  -0.00088894  0.66448087  0.49268423  1
  Te  Te197  1  -0.00159889  0.66732077  0.83004392  1
  Te  Te198  1  0.33491291  0.00384755  0.16823414  1
  Te  Te199  1  0.33540347  0.00495309  0.49799480  1
  Te  Te200  1  0.33299474  -0.00154686  0.83486325  1
  Te  Te201  1  0.33376953  0.33083580  0.16849637  1
  Te  Te202  1  0.33420469  0.33126843  0.49445127  1
  Te  Te203  1  0.33906046  0.33461845  0.83983887  1
  Te  Te204  1  0.33044040  0.66908109  0.17252697  1
  Te  Te205  1  0.33528547  0.66407127  0.49900246  1
  Te  Te206  1  0.33523215  0.66686472  0.83124269  1
  Te  Te207  1  0.66410724  0.00679721  0.16794931  1
  Te  Te208  1  0.66536560  0.00580316  0.50252511  1
  Te  Te209  1  0.66644834  0.00035055  0.82530337  1
  Te  Te210  1  0.66920779  0.32903107  0.16926475  1
  Te  Te211  1  0.66953158  0.32811909  0.50033757  1
  Te  Te212  1  0.66610730  0.33587574  0.83200774  1
  Te  Te213  1  0.67326206  0.66643211  0.16864370  1
  Te  Te214  1  0.65591978  0.66818711  0.50172840  1
  Te  Te215  1  0.66608959  0.66448783  0.83237484  1
