# generated using pymatgen
data_AgSbTe2
_symmetry_space_group_name_H-M   'P 1'
_cell_length_a   18.30721913
_cell_length_b   18.31136408
_cell_length_c   18.31427459
_cell_angle_alpha   90.00004363
_cell_angle_beta   89.99827377
_cell_angle_gamma   89.99900753
_symmetry_Int_Tables_number   1
_chemical_formula_structural   AgSbTe2
_chemical_formula_sum   'Ag54 Sb54 Te108'
_cell_volume   6139.49710143
_cell_formula_units_Z   54
loop_
 _symmetry_equiv_pos_site_id
 _symmetry_equiv_pos_as_xyz
  1  'x, y, z'
loop_
 _atom_site_type_symbol
 _atom_site_label
 _atom_site_symmetry_multiplicity
 _atom_site_fract_x
 _atom_site_fract_y
 _atom_site_fract_z
 _atom_site_occupancy
  Ag  Ag0  1  0.33656416  0.32713072  -0.00392566  1
  Ag  Ag1  1  0.16519995  0.16570329  0.66570018  1
  Ag  Ag2  1  0.66671841  0.00458474  -0.00549427  1
  Ag  Ag3  1  -0.00226142  0.50601039  0.82623810  1
  Ag  Ag4  1  -0.00101404  0.66683893  -0.00920221  1
  Ag  Ag5  1  0.50308013  0.50203012  0.66503224  1
  Ag  Ag6  1  0.67022439  -0.00104586  0.66547925  1
  Ag  Ag7  1  0.67913385  0.67002681  0.66231928  1
  Ag  Ag8  1  0.67390732  0.49728010  0.16706686  1
  Ag  Ag9  1  0.33003837  0.49712028  0.82561540  1
  Ag  Ag10  1  0.33116244  0.83427329  0.16988496  1
  Ag  Ag11  1  0.83397529  0.33038305  0.83387768  1
  Ag  Ag12  1  0.33947255  0.83457820  0.49725937  1
  Ag  Ag13  1  0.50403367  0.00047415  0.17383481  1
  Ag  Ag14  1  0.49712792  0.32522420  0.50015193  1
  Ag  Ag15  1  0.16395375  0.66957339  0.16249306  1
  Ag  Ag16  1  -0.00942633  -0.00129679  0.66508973  1
  Ag  Ag17  1  0.67200121  0.16443567  0.16715426  1
  Ag  Ag18  1  0.34075653  0.16794024  0.50384248  1
  Ag  Ag19  1  -0.00838454  0.16833714  0.17040056  1
  Ag  Ag20  1  0.66990381  0.32167281  -0.00106069  1
  Ag  Ag21  1  0.83627128  0.50658472  0.66650339  1
  Ag  Ag22  1  0.51019976  0.00221946  0.83128900  1
  Ag  Ag23  1  0.66346455  0.84090465  0.49894813  1
  Ag  Ag24  1  -0.00273632  0.82575898  0.83167539  1
  Ag  Ag25  1  0.16001068  0.66709266  0.83283833  1
  Ag  Ag26  1  0.82953170  0.16611018  0.00029704  1
  Ag  Ag27  1  0.83512498  0.49918998  -0.00350250  1
  Ag  Ag28  1  -0.00260048  0.33146952  0.33913615  1
  Ag  Ag29  1  0.33023626  0.66344346  0.66578616  1
  Ag  Ag30  1  0.50462057  0.00374513  0.49781752  1
  Ag  Ag31  1  0.33245453  0.49811163  0.50743878  1
  Ag  Ag32  1  0.50049960  0.84187098  0.33740010  1
  Ag  Ag33  1  0.16187114  0.83166105  0.00275731  1
  Ag  Ag34  1  -0.00898860  0.00484696  0.33697069  1
  Ag  Ag35  1  -0.00860419  0.49851142  0.16750962  1
  Ag  Ag36  1  0.17013080  0.83349060  0.33142023  1
  Ag  Ag37  1  0.66685568  0.16071015  0.83529450  1
  Ag  Ag38  1  0.66608809  0.00354880  0.33771167  1
  Ag  Ag39  1  0.51105338  0.15936614  0.33856690  1
  Ag  Ag40  1  -0.00186934  0.34191044  0.66295601  1
  Ag  Ag41  1  0.34131901  0.00234005  -0.00337179  1
  Ag  Ag42  1  0.83197975  0.66464836  0.50365949  1
  Ag  Ag43  1  0.82938881  0.16743901  0.33040835  1
  Ag  Ag44  1  0.83760743  0.83469432  -0.00756855  1
  Ag  Ag45  1  0.16817993  0.33240410  0.50154964  1
  Ag  Ag46  1  0.82899016  0.00405544  0.83292699  1
  Ag  Ag47  1  0.66193794  0.16002112  0.49502827  1
  Ag  Ag48  1  -0.00270678  0.66088238  0.67126106  1
  Ag  Ag49  1  0.83495822  0.49600912  0.33467902  1
  Ag  Ag50  1  0.83431056  0.82834777  0.67001040  1
  Ag  Ag51  1  0.33820194  0.16773587  0.83071340  1
  Ag  Ag52  1  0.66878422  0.67346609  0.34165471  1
  Ag  Ag53  1  -0.00292407  0.49779490  0.50767177  1
  Sb  Sb54  1  0.15888141  0.50430200  0.33528940  1
  Sb  Sb55  1  0.16930061  -0.00474990  0.16765242  1
  Sb  Sb56  1  0.49842064  0.67147928  0.16871623  1
  Sb  Sb57  1  0.83109207  0.83545080  0.33548388  1
  Sb  Sb58  1  0.16335495  -0.00312594  0.83277588  1
  Sb  Sb59  1  0.32927873  0.33625014  0.66683749  1
  Sb  Sb60  1  0.66950122  0.49971217  0.49896593  1
  Sb  Sb61  1  0.34063598  -0.00175381  0.33231535  1
  Sb  Sb62  1  0.50248847  0.32913730  0.82848160  1
  Sb  Sb63  1  0.33350556  0.50421738  0.16589388  1
  Sb  Sb64  1  0.50860134  0.16416732  0.00214134  1
  Sb  Sb65  1  -0.00458197  0.66627825  0.33557225  1
  Sb  Sb66  1  0.66362269  0.83731506  0.17100881  1
  Sb  Sb67  1  0.67259540  0.49651098  0.83426982  1
  Sb  Sb68  1  0.83243242  0.33307469  0.16061430  1
  Sb  Sb69  1  0.33641322  0.16086440  0.16553478  1
  Sb  Sb70  1  0.83478931  0.16524908  0.66720434  1
  Sb  Sb71  1  0.15956312  0.50460410  -0.00160536  1
  Sb  Sb72  1  0.49572153  0.66976793  0.83073761  1
  Sb  Sb73  1  0.32490184  0.66856925  -0.00498970  1
  Sb  Sb74  1  0.16173896  0.49849251  0.66622707  1
  Sb  Sb75  1  0.67670148  0.66916491  -0.00227805  1
  Sb  Sb76  1  0.67456252  0.83978860  0.82760291  1
  Sb  Sb77  1  0.16354140  0.16193696  0.33690144  1
  Sb  Sb78  1  0.50470732  0.66837848  0.50154493  1
  Sb  Sb79  1  0.16401999  0.66436241  0.50258829  1
  Sb  Sb80  1  0.50184441  0.32757188  0.17203247  1
  Sb  Sb81  1  0.83408458  0.33625293  0.50367878  1
  Sb  Sb82  1  0.50758574  0.49902708  0.33871483  1
  Sb  Sb83  1  0.00302004  0.83195557  0.16389594  1
  Sb  Sb84  1  0.33007534  0.33263832  0.33578894  1
  Sb  Sb85  1  0.16381350  0.33712469  0.16990022  1
  Sb  Sb86  1  0.16342568  0.33613814  0.82911457  1
  Sb  Sb87  1  -0.00381691  0.33698881  -0.00167091  1
  Sb  Sb88  1  0.49996590  0.16844791  0.66099638  1
  Sb  Sb89  1  0.83674047  0.66383571  0.17055807  1
  Sb  Sb90  1  0.17038734  0.00301629  0.49972712  1
  Sb  Sb91  1  -0.00263453  0.16988596  0.49811209  1
  Sb  Sb92  1  0.32893006  0.83484143  0.83218885  1
  Sb  Sb93  1  0.50159796  0.83844523  0.00257216  1
  Sb  Sb94  1  0.16368712  0.16235397  -0.00325879  1
  Sb  Sb95  1  -0.00512356  -0.00324694  -0.00109180  1
  Sb  Sb96  1  -0.00229564  0.83101303  0.50403347  1
  Sb  Sb97  1  0.33608216  0.66973852  0.33946513  1
  Sb  Sb98  1  0.16138560  0.83587956  0.66626731  1
  Sb  Sb99  1  0.67120668  0.33162814  0.66908656  1
  Sb  Sb100  1  0.67345078  0.32759774  0.33205003  1
  Sb  Sb101  1  0.33744178  -0.00164890  0.66865522  1
  Sb  Sb102  1  -0.00346680  0.16724040  0.83382569  1
  Sb  Sb103  1  0.50509687  0.49769054  -0.00482915  1
  Sb  Sb104  1  0.83869793  0.66694024  0.82610991  1
  Sb  Sb105  1  0.82813474  0.00219030  0.16286694  1
  Sb  Sb106  1  0.82649525  -0.00232679  0.50494607  1
  Sb  Sb107  1  0.50660635  0.83181558  0.66141625  1
  Te  Te108  1  0.16205930  0.16772963  0.16676322  1
  Te  Te109  1  0.17047731  0.17063887  0.50311127  1
  Te  Te110  1  0.17079774  0.16703906  0.82945208  1
  Te  Te111  1  0.16400502  0.50718996  0.16689775  1
  Te  Te112  1  0.16779518  0.49556204  0.49937647  1
  Te  Te113  1  0.16682037  0.50376863  0.83369179  1
  Te  Te114  1  0.16964758  0.83002741  0.16600961  1
  Te  Te115  1  0.17166096  0.83307362  0.49582282  1
  Te  Te116  1  0.16101630  0.82932603  0.83581725  1
  Te  Te117  1  0.50416184  0.16094974  0.17393509  1
  Te  Te118  1  0.50052725  0.16553755  0.49952335  1
  Te  Te119  1  0.49951372  0.16316568  0.83218141  1
  Te  Te120  1  0.50490122  0.50004533  0.16742413  1
  Te  Te121  1  0.49718655  0.49928663  0.50361440  1
  Te  Te122  1  0.49590998  0.49991833  0.82691236  1
  Te  Te123  1  0.49487357  0.83850920  0.17187222  1
  Te  Te124  1  0.50047446  0.83502443  0.49709302  1
  Te  Te125  1  0.49873991  0.84082570  0.83306316  1
  Te  Te126  1  0.83242406  0.16715554  0.16784394  1
  Te  Te127  1  0.82720032  0.16764445  0.49530437  1
  Te  Te128  1  0.83098992  0.16607400  0.83456027  1
  Te  Te129  1  0.83304279  0.49909893  0.16781000  1
  Te  Te130  1  0.83611253  0.50164937  0.50129809  1
  Te  Te131  1  0.83641899  0.49784248  0.83323195  1
  Te  Te132  1  0.83329710  0.83272297  0.15883182  1
  Te  Te133  1  0.82955606  0.82822554  0.50391289  1
  Te  Te134  1  0.83746328  0.83682421  0.83266772  1
  Te  Te135  1  0.17006955  -0.00644329  0.00014595  1
  Te  Te136  1  0.16049768  -0.00623051  0.33314679  1
  Te  Te137  1  0.16150048  0.00472171  0.66674445  1
  Te  Te138  1  0.17255545  0.33210492  -0.00006352  1
  Te  Te139  1  0.15974326  0.33331096  0.33869855  1
  Te  Te140  1  0.16052478  0.32743013  0.66258414  1
  Te  Te141  1  0.16069673  0.67129390  -0.00180654  1
  Te  Te142  1  0.16710717  0.67325676  0.33115361  1
  Te  Te143  1  0.16292781  0.66857950  0.67030587  1
  Te  Te144  1  0.50220864  0.00069214  -0.00301168  1
  Te  Te145  1  0.50223284  -0.00016180  0.33586554  1
  Te  Te146  1  0.50574812  -0.00015957  0.66645983  1
  Te  Te147  1  0.50011425  0.33300108  0.00010727  1
  Te  Te148  1  0.49874393  0.32951497  0.34028562  1
  Te  Te149  1  0.50123899  0.34067115  0.66087497  1
  Te  Te150  1  0.50123782  0.66749962  0.00002237  1
  Te  Te151  1  0.50839650  0.67065067  0.33334063  1
  Te  Te152  1  0.49624036  0.66140091  0.66727166  1
  Te  Te153  1  0.82976807  0.00176497  -0.00352296  1
  Te  Te154  1  0.83151647  0.00306442  0.33293957  1
  Te  Te155  1  0.83102209  -0.00103451  0.67032825  1
  Te  Te156  1  0.83108214  0.33303689  -0.00549730  1
  Te  Te157  1  0.83912161  0.33373585  0.33554805  1
  Te  Te158  1  0.83813581  0.33645703  0.67197747  1
  Te  Te159  1  0.83938108  0.66592310  0.00100915  1
  Te  Te160  1  0.82770091  0.66532904  0.33839736  1
  Te  Te161  1  0.83562168  0.66704455  0.66505325  1
  Te  Te162  1  -0.00539192  0.16742543  0.00569873  1
  Te  Te163  1  -0.00186335  0.16561644  0.33113820  1
  Te  Te164  1  0.00265800  0.16271682  0.66632412  1
  Te  Te165  1  -0.00531302  0.50223059  0.00178880  1
  Te  Te166  1  -0.00542080  0.49929887  0.33146775  1
  Te  Te167  1  -0.00196932  0.50067403  0.66655804  1
  Te  Te168  1  -0.00085573  0.83095494  -0.00261086  1
  Te  Te169  1  0.00114410  0.83778518  0.33390146  1
  Te  Te170  1  -0.00406285  0.83633208  0.66919296  1
  Te  Te171  1  0.33163434  0.16485671  -0.00224182  1
  Te  Te172  1  0.33371735  0.16629358  0.33683704  1
  Te  Te173  1  0.33070303  0.16675758  0.66662037  1
  Te  Te174  1  0.33499201  0.49834803  -0.00294959  1
  Te  Te175  1  0.33473496  0.50040556  0.33725804  1
  Te  Te176  1  0.33027195  0.50110142  0.66651472  1
  Te  Te177  1  0.33154954  0.83640910  0.00121318  1
  Te  Te178  1  0.33400289  0.83321514  0.33586697  1
  Te  Te179  1  0.33304376  0.82954622  0.66239002  1
  Te  Te180  1  0.66957422  0.16521177  -0.00047196  1
  Te  Te181  1  0.66902146  0.16603627  0.33274649  1
  Te  Te182  1  0.66616545  0.16304788  0.66927794  1
  Te  Te183  1  0.67297702  0.50081506  0.00325270  1
  Te  Te184  1  0.67252845  0.49844376  0.32913864  1
  Te  Te185  1  0.67116121  0.50229590  0.66741494  1
  Te  Te186  1  0.67128648  0.83850086  0.00095155  1
  Te  Te187  1  0.66581776  0.83508735  0.33742907  1
  Te  Te188  1  0.67144512  0.83390562  0.66177820  1
  Te  Te189  1  0.00000715  0.00387679  0.16995253  1
  Te  Te190  1  -0.00012181  0.00045996  0.50120242  1
  Te  Te191  1  -0.00465044  -0.00073069  0.83061891  1
  Te  Te192  1  0.00071706  0.33518214  0.17027218  1
  Te  Te193  1  0.00084321  0.33596956  0.50099324  1
  Te  Te194  1  -0.00392303  0.33634131  0.82984086  1
  Te  Te195  1  0.00357525  0.66348714  0.16702130  1
  Te  Te196  1  -0.00355064  0.66219538  0.50428864  1
  Te  Te197  1  0.00041180  0.66604901  0.83187244  1
  Te  Te198  1  0.33867634  -0.00473129  0.16199054  1
  Te  Te199  1  0.33880150  0.00017276  0.50092628  1
  Te  Te200  1  0.33395952  0.00336563  0.83576886  1
  Te  Te201  1  0.33310364  0.33407958  0.15969422  1
  Te  Te202  1  0.33272927  0.33302100  0.50057081  1
  Te  Te203  1  0.33377249  0.33253764  0.83544164  1
  Te  Te204  1  0.32818867  0.67257916  0.16672198  1
  Te  Te205  1  0.33231929  0.66513225  0.50539260  1
  Te  Te206  1  0.32799843  0.66366858  0.82773472  1
  Te  Te207  1  0.66270481  0.00291352  0.16893010  1
  Te  Te208  1  0.66545629  0.00026044  0.50006684  1
  Te  Te209  1  0.66803277  0.00084195  0.83291322  1
  Te  Te210  1  0.66512482  0.33197800  0.16115980  1
  Te  Te211  1  0.66112730  0.32831158  0.50054655  1
  Te  Te212  1  0.66998995  0.32804349  0.83762612  1
  Te  Te213  1  0.66660256  0.66359275  0.16753068  1
  Te  Te214  1  0.67021313  0.66563280  0.50197876  1
  Te  Te215  1  0.66411340  0.66700742  0.82624350  1
