# generated using pymatgen
data_AgSbTe2
_symmetry_space_group_name_H-M   'P 1'
_cell_length_a   18.34601175
_cell_length_b   18.34627697
_cell_length_c   18.35120756
_cell_angle_alpha   90.00246440
_cell_angle_beta   90.00304503
_cell_angle_gamma   89.99638145
_symmetry_Int_Tables_number   1
_chemical_formula_structural   AgSbTe2
_chemical_formula_sum   'Ag54 Sb54 Te108'
_cell_volume   6176.66799919
_cell_formula_units_Z   54
loop_
 _symmetry_equiv_pos_site_id
 _symmetry_equiv_pos_as_xyz
  1  'x, y, z'
loop_
 _atom_site_type_symbol
 _atom_site_label
 _atom_site_symmetry_multiplicity
 _atom_site_fract_x
 _atom_site_fract_y
 _atom_site_fract_z
 _atom_site_occupancy
  Ag  Ag0  1  -0.00314467  0.84180147  0.16005094  1
  Ag  Ag1  1  0.00313300  0.17007851  0.15077728  1
  Ag  Ag2  1  0.15357764  0.32862117  0.15957449  1
  Ag  Ag3  1  0.00140950  0.48548404  0.82640468  1
  Ag  Ag4  1  0.50579330  0.50200307  0.66578189  1
  Ag  Ag5  1  0.83328862  0.49689825  0.66527007  1
  Ag  Ag6  1  -0.00032057  0.32221978  -0.01623163  1
  Ag  Ag7  1  0.50080212  0.83948256  0.00091213  1
  Ag  Ag8  1  -0.00601821  0.33208828  0.33856273  1
  Ag  Ag9  1  0.15919041  0.16340738  0.67302177  1
  Ag  Ag10  1  0.15314837  0.32871009  0.50548191  1
  Ag  Ag11  1  0.51095890  0.33412380  0.50104432  1
  Ag  Ag12  1  0.34674886  0.49733360  0.50762478  1
  Ag  Ag13  1  0.34171943  0.66207751  0.66792106  1
  Ag  Ag14  1  0.00479235  0.01239089  -0.01063495  1
  Ag  Ag15  1  0.16104784  0.84120432  0.66966450  1
  Ag  Ag16  1  0.84280719  0.16453276  -0.00579471  1
  Ag  Ag17  1  0.15449215  0.16335442  -0.01017237  1
  Ag  Ag18  1  0.49933510  0.00337023  0.50372335  1
  Ag  Ag19  1  0.67235086  0.33360102  0.66384289  1
  Ag  Ag20  1  0.66681529  0.49704805  0.17237419  1
  Ag  Ag21  1  0.00269834  0.00874732  0.67230497  1
  Ag  Ag22  1  0.15531548  0.32448857  0.82770627  1
  Ag  Ag23  1  0.50332839  0.84076811  0.33342923  1
  Ag  Ag24  1  -0.00012249  0.65276960  0.66539548  1
  Ag  Ag25  1  0.84344996  0.01065407  0.83378312  1
  Ag  Ag26  1  0.50299229  0.16353244  0.33718924  1
  Ag  Ag27  1  -0.00183097  0.33085306  0.66890545  1
  Ag  Ag28  1  0.66867546  0.00725850  0.66853302  1
  Ag  Ag29  1  -0.00215382  0.17133646  0.83597428  1
  Ag  Ag30  1  0.50096308  0.65439453  0.50898927  1
  Ag  Ag31  1  0.00169267  0.17042475  0.50706916  1
  Ag  Ag32  1  0.84330158  0.84240879  -0.00020730  1
  Ag  Ag33  1  0.50179945  -0.00052526  0.15825436  1
  Ag  Ag34  1  0.67752981  0.16418197  0.82487223  1
  Ag  Ag35  1  0.66624334  0.49096661  0.50485335  1
  Ag  Ag36  1  0.15948140  0.00576304  0.82919026  1
  Ag  Ag37  1  0.33359815  0.49918138  0.82519596  1
  Ag  Ag38  1  0.84266417  0.32866151  0.83521946  1
  Ag  Ag39  1  0.32405199  0.00059271  -0.00229465  1
  Ag  Ag40  1  -0.00304473  0.48857586  0.51028069  1
  Ag  Ag41  1  0.66679489  0.83339488  0.16420146  1
  Ag  Ag42  1  0.67247901  0.33461843  0.34590343  1
  Ag  Ag43  1  0.50057658  0.50105145  -0.01403746  1
  Ag  Ag44  1  0.15985314  0.01001133  0.51139505  1
  Ag  Ag45  1  0.49999917  0.66116420  0.82726272  1
  Ag  Ag46  1  0.00325098  0.84095029  0.50642413  1
  Ag  Ag47  1  0.50095130  0.00030880  0.83332128  1
  Ag  Ag48  1  0.15829360  0.84535539  -0.00519760  1
  Ag  Ag49  1  0.83805466  0.33246691  0.16233019  1
  Ag  Ag50  1  0.32264284  0.16635369  0.16420529  1
  Ag  Ag51  1  0.66959762  0.17413390  0.50726970  1
  Ag  Ag52  1  0.83129730  0.49214415  0.34790166  1
  Ag  Ag53  1  0.65695649  0.65509394  0.66551125  1
  Sb  Sb54  1  0.66385287  0.00613746  0.33906543  1
  Sb  Sb55  1  0.50050187  0.33198755  0.82848345  1
  Sb  Sb56  1  0.67120122  0.33238231  -0.00353639  1
  Sb  Sb57  1  0.33792958  0.66519660  0.34189583  1
  Sb  Sb58  1  0.66712438  0.83501924  0.49864389  1
  Sb  Sb59  1  0.33297970  0.17037378  0.49774519  1
  Sb  Sb60  1  0.33555660  0.67063505  -0.00674827  1
  Sb  Sb61  1  0.16857521  0.66786734  0.82857451  1
  Sb  Sb62  1  0.33578236  0.00212373  0.33049189  1
  Sb  Sb63  1  0.32695133  0.32804280  -0.00113638  1
  Sb  Sb64  1  0.33064193  -0.00241605  0.67062658  1
  Sb  Sb65  1  0.33345356  0.83235756  0.83293435  1
  Sb  Sb66  1  0.83169772  0.00418909  0.15937829  1
  Sb  Sb67  1  -0.00052100  0.00664364  0.33547840  1
  Sb  Sb68  1  0.16859264  0.66325722  0.50611336  1
  Sb  Sb69  1  0.66596730  0.83874601  0.83506806  1
  Sb  Sb70  1  0.16772564  0.00657598  0.16086987  1
  Sb  Sb71  1  0.83386230  0.33323764  0.50555953  1
  Sb  Sb72  1  0.50096132  0.67214924  0.16562930  1
  Sb  Sb73  1  0.66497920  0.66649617  -0.00634590  1
  Sb  Sb74  1  0.50063526  0.16488254  0.00154062  1
  Sb  Sb75  1  0.33968934  0.49295229  0.16577631  1
  Sb  Sb76  1  0.49871419  0.83086789  0.66665770  1
  Sb  Sb77  1  0.66453193  0.66095815  0.33926420  1
  Sb  Sb78  1  0.82985824  0.82913143  0.32779189  1
  Sb  Sb79  1  0.16750700  0.83717444  0.33349076  1
  Sb  Sb80  1  0.66917199  -0.00061286  -0.00662404  1
  Sb  Sb81  1  0.67010728  0.16635317  0.16632821  1
  Sb  Sb82  1  0.83939797  0.17333808  0.67379158  1
  Sb  Sb83  1  0.50052151  0.16908683  0.66241025  1
  Sb  Sb84  1  -0.00094129  0.66244096  0.34066512  1
  Sb  Sb85  1  -0.00558346  0.48993669  0.16595554  1
  Sb  Sb86  1  0.16926144  0.49431745  -0.00344821  1
  Sb  Sb87  1  0.83049042  0.66404173  0.83013788  1
  Sb  Sb88  1  0.83271075  0.66175555  0.16438035  1
  Sb  Sb89  1  0.32854583  0.16763990  0.83560486  1
  Sb  Sb90  1  0.83068336  0.49550018  -0.00533611  1
  Sb  Sb91  1  0.82963270  0.66431172  0.50347636  1
  Sb  Sb92  1  0.33373306  0.83908253  0.16313647  1
  Sb  Sb93  1  0.00002103  0.66906808  -0.00737700  1
  Sb  Sb94  1  0.16392292  0.49521912  0.66705905  1
  Sb  Sb95  1  0.50425432  0.32853078  0.17093755  1
  Sb  Sb96  1  0.50617873  0.49610217  0.34088550  1
  Sb  Sb97  1  0.15987370  0.49459509  0.33636255  1
  Sb  Sb98  1  0.83539275  0.00218196  0.50995516  1
  Sb  Sb99  1  0.16630429  0.16834940  0.33381831  1
  Sb  Sb100  1  0.16364267  0.66453633  0.16300167  1
  Sb  Sb101  1  0.33025907  0.33736892  0.66552947  1
  Sb  Sb102  1  0.66662797  0.49403386  0.82572720  1
  Sb  Sb103  1  0.33145089  0.83228782  0.50239904  1
  Sb  Sb104  1  0.00105816  0.83962349  0.83155144  1
  Sb  Sb105  1  0.83194690  0.17507850  0.32950102  1
  Sb  Sb106  1  0.33363678  0.33275407  0.33615060  1
  Sb  Sb107  1  0.83822468  0.83178599  0.67127863  1
  Te  Te108  1  0.16265436  0.17014792  0.16813147  1
  Te  Te109  1  0.16626843  0.16876659  0.49982528  1
  Te  Te110  1  0.16694648  0.16539759  0.83310123  1
  Te  Te111  1  0.16914324  0.49247926  0.16605923  1
  Te  Te112  1  0.15729154  0.49499487  0.49992781  1
  Te  Te113  1  0.16676414  0.49810213  0.83484017  1
  Te  Te114  1  0.16228641  0.83414604  0.16407885  1
  Te  Te115  1  0.16364705  0.83340293  0.50163759  1
  Te  Te116  1  0.16752066  0.83881718  0.83491006  1
  Te  Te117  1  0.50253007  0.16144720  0.16957068  1
  Te  Te118  1  0.50014365  0.16700728  0.49816339  1
  Te  Te119  1  0.49894672  0.16343688  0.83305041  1
  Te  Te120  1  0.50492270  0.50136462  0.16996344  1
  Te  Te121  1  0.50463797  0.49728326  0.50262708  1
  Te  Te122  1  0.50035578  0.49948246  0.82809333  1
  Te  Te123  1  0.50077255  0.83693900  0.16480787  1
  Te  Te124  1  0.49936505  0.84104495  0.49844956  1
  Te  Te125  1  0.49999243  0.83638080  0.83607285  1
  Te  Te126  1  0.83856320  0.17095241  0.16040749  1
  Te  Te127  1  0.82962129  0.16428526  0.49720779  1
  Te  Te128  1  0.83535992  0.16756471  0.83442745  1
  Te  Te129  1  0.82688956  0.49490306  0.16222170  1
  Te  Te130  1  0.83301572  0.50090069  0.50542207  1
  Te  Te131  1  0.83695005  0.49621326  0.82917904  1
  Te  Te132  1  0.83319193  0.83316227  0.16255175  1
  Te  Te133  1  0.84109951  0.83262703  0.49728935  1
  Te  Te134  1  0.83298068  0.83499219  0.83999440  1
  Te  Te135  1  0.16458949  0.00258542  0.00095273  1
  Te  Te136  1  0.16793839  0.00020850  0.34765684  1
  Te  Te137  1  0.16719300  0.00124147  0.66823502  1
  Te  Te138  1  0.16176839  0.32948086  -0.00005073  1
  Te  Te139  1  0.16214428  0.33249925  0.34002953  1
  Te  Te140  1  0.16445305  0.32962415  0.66674868  1
  Te  Te141  1  0.16802633  0.67761796  -0.00237310  1
  Te  Te142  1  0.16885400  0.66732255  0.33250177  1
  Te  Te143  1  0.15805102  0.67658736  0.66716618  1
  Te  Te144  1  0.50311267  -0.00007680  -0.00032684  1
  Te  Te145  1  0.50081420  0.00114310  0.33780831  1
  Te  Te146  1  0.49914677  -0.00092649  0.66779233  1
  Te  Te147  1  0.49829869  0.33913092  0.00122630  1
  Te  Te148  1  0.50505436  0.32902074  0.33826072  1
  Te  Te149  1  0.50113844  0.33773575  0.66188104  1
  Te  Te150  1  0.49913858  0.66533399  -0.00562980  1
  Te  Te151  1  0.50111298  0.67324596  0.33817318  1
  Te  Te152  1  0.50057460  0.66691023  0.66694663  1
  Te  Te153  1  0.83618030  0.00192661  -0.00471877  1
  Te  Te154  1  0.83230772  -0.00178360  0.33327910  1
  Te  Te155  1  0.83310232  -0.00267092  0.67450012  1
  Te  Te156  1  0.83825109  0.33205805  -0.00261913  1
  Te  Te157  1  0.83197079  0.33589714  0.32768115  1
  Te  Te158  1  0.83332739  0.33734232  0.67234340  1
  Te  Te159  1  0.83260348  0.67704827  -0.00165497  1
  Te  Te160  1  0.83240943  0.65502319  0.33241172  1
  Te  Te161  1  0.83897189  0.66121180  0.66751817  1
  Te  Te162  1  -0.00031409  0.16720237  -0.00330764  1
  Te  Te163  1  -0.00119120  0.17233961  0.34353626  1
  Te  Te164  1  -0.00043364  0.16835841  0.66661719  1
  Te  Te165  1  -0.00014093  0.50009009  -0.00227577  1
  Te  Te166  1  -0.00708445  0.49529993  0.33462732  1
  Te  Te167  1  0.00245809  0.49534510  0.66675965  1
  Te  Te168  1  0.00066654  0.83333261  0.00069939  1
  Te  Te169  1  -0.00092983  0.83240070  0.33222675  1
  Te  Te170  1  0.00158384  0.84255380  0.66555352  1
  Te  Te171  1  0.33299101  0.16149693  0.00466261  1
  Te  Te172  1  0.34151605  0.16723708  0.32542636  1
  Te  Te173  1  0.32411236  0.16661812  0.66630027  1
  Te  Te174  1  0.33921371  0.50114881  -0.00182391  1
  Te  Te175  1  0.33320281  0.49999720  0.33994174  1
  Te  Te176  1  0.33138936  0.50275274  0.66510113  1
  Te  Te177  1  0.33855611  0.83900854  -0.00044612  1
  Te  Te178  1  0.34122150  0.83315222  0.33175259  1
  Te  Te179  1  0.32552004  0.82543947  0.66666595  1
  Te  Te180  1  0.67019046  0.16685197  -0.00443852  1
  Te  Te181  1  0.66411652  0.17306712  0.33475205  1
  Te  Te182  1  0.66468457  0.16727235  0.66600831  1
  Te  Te183  1  0.66187531  0.50035174  0.00286428  1
  Te  Te184  1  0.67039258  0.49531368  0.33579719  1
  Te  Te185  1  0.66581874  0.49778175  0.66506229  1
  Te  Te186  1  0.65972814  0.83293525  0.00464128  1
  Te  Te187  1  0.66378307  0.83241586  0.32873720  1
  Te  Te188  1  0.66897140  0.83596746  0.66601631  1
  Te  Te189  1  -0.00012922  0.00197514  0.16795011  1
  Te  Te190  1  0.00083504  0.00196828  0.50247256  1
  Te  Te191  1  0.00145806  0.00115561  0.83295798  1
  Te  Te192  1  -0.00166876  0.33158115  0.17375296  1
  Te  Te193  1  -0.00389216  0.33202357  0.50222794  1
  Te  Te194  1  0.00124127  0.33032370  0.82860684  1
  Te  Te195  1  -0.00039067  0.67101816  0.16722679  1
  Te  Te196  1  0.00040947  0.66773245  0.50500300  1
  Te  Te197  1  -0.00035359  0.66265732  0.82679360  1
  Te  Te198  1  0.33754600  0.00499987  0.16150410  1
  Te  Te199  1  0.33782620  0.00105677  0.50069656  1
  Te  Te200  1  0.33711657  -0.00029335  0.83782269  1
  Te  Te201  1  0.33103307  0.32711939  0.16764473  1
  Te  Te202  1  0.33634029  0.33865988  0.49976671  1
  Te  Te203  1  0.33153604  0.33943521  0.83327091  1
  Te  Te204  1  0.33237035  0.66365375  0.16767633  1
  Te  Te205  1  0.33806617  0.66085581  0.50733135  1
  Te  Te206  1  0.33754547  0.66048829  0.82783745  1
  Te  Te207  1  0.66342107  -0.00290160  0.16898990  1
  Te  Te208  1  0.66432638  0.00230210  0.50626187  1
  Te  Te209  1  0.66180109  0.00392864  0.82852275  1
  Te  Te210  1  0.67052297  0.33521295  0.16448716  1
  Te  Te211  1  0.66962557  0.33225905  0.50333715  1
  Te  Te212  1  0.66756023  0.32681092  0.82858073  1
  Te  Te213  1  0.66636295  0.66827767  0.16717132  1
  Te  Te214  1  0.66124580  0.66719888  0.50632987  1
  Te  Te215  1  0.66136483  0.66620069  0.82566292  1
