# generated using pymatgen
data_AgSbTe2
_symmetry_space_group_name_H-M   'P 1'
_cell_length_a   18.32142953
_cell_length_b   18.32521312
_cell_length_c   18.32182355
_cell_angle_alpha   89.99752111
_cell_angle_beta   90.00018504
_cell_angle_gamma   90.00023525
_symmetry_Int_Tables_number   1
_chemical_formula_structural   AgSbTe2
_chemical_formula_sum   'Ag54 Sb54 Te108'
_cell_volume   6151.44416536
_cell_formula_units_Z   54
loop_
 _symmetry_equiv_pos_site_id
 _symmetry_equiv_pos_as_xyz
  1  'x, y, z'
loop_
 _atom_site_type_symbol
 _atom_site_label
 _atom_site_symmetry_multiplicity
 _atom_site_fract_x
 _atom_site_fract_y
 _atom_site_fract_z
 _atom_site_occupancy
  Ag  Ag0  1  0.00672716  0.32227760  0.65959298  1
  Ag  Ag1  1  0.32878558  0.33695597  0.66292653  1
  Ag  Ag2  1  0.82925071  0.33992307  0.83282828  1
  Ag  Ag3  1  0.32826210  0.82215208  0.50570229  1
  Ag  Ag4  1  0.33775319  0.82742936  0.82109278  1
  Ag  Ag5  1  0.84201091  0.16907078  -0.00610438  1
  Ag  Ag6  1  0.33052908  0.67018199  0.34692295  1
  Ag  Ag7  1  0.00458326  0.32471470  0.33750955  1
  Ag  Ag8  1  0.67452160  0.50069066  0.83224897  1
  Ag  Ag9  1  0.33017815  0.50947024  0.50575759  1
  Ag  Ag10  1  0.17048901  0.33253133  0.49974327  1
  Ag  Ag11  1  0.49727748  0.16550694  0.00361223  1
  Ag  Ag12  1  0.83989609  0.49791848  -0.00785239  1
  Ag  Ag13  1  0.84371135  0.16799306  0.67222348  1
  Ag  Ag14  1  0.00174478  0.00202503  -0.00026518  1
  Ag  Ag15  1  0.83085195  0.66170254  0.83184662  1
  Ag  Ag16  1  0.16661029  0.49668730  0.33492318  1
  Ag  Ag17  1  0.00331471  0.49044526  0.16425009  1
  Ag  Ag18  1  0.66621234  0.33019227  0.33076356  1
  Ag  Ag19  1  0.32617612  0.17165755  0.49991070  1
  Ag  Ag20  1  -0.00000652  0.00447621  0.66407233  1
  Ag  Ag21  1  0.17276183  0.67323893  0.50036445  1
  Ag  Ag22  1  0.16622308  -0.00029844  0.83284768  1
  Ag  Ag23  1  0.66492959  0.82998333  0.82946529  1
  Ag  Ag24  1  -0.00148623  0.67080662  -0.00007135  1
  Ag  Ag25  1  0.66551899  0.83493128  0.15902900  1
  Ag  Ag26  1  0.49944087  0.16453411  0.33293657  1
  Ag  Ag27  1  0.00172975  0.00572301  0.33576395  1
  Ag  Ag28  1  0.16214265  0.16383509  0.66246126  1
  Ag  Ag29  1  0.82938386  0.83406815  0.67199039  1
  Ag  Ag30  1  0.66910399  0.33112068  -0.00206685  1
  Ag  Ag31  1  0.16265731  0.16847451  0.00651860  1
  Ag  Ag32  1  0.16342051  0.32571753  0.17253299  1
  Ag  Ag33  1  0.15957458  0.49316670  0.00288602  1
  Ag  Ag34  1  0.49512565  0.83831530  0.34223093  1
  Ag  Ag35  1  0.00586986  0.16854817  0.16831027  1
  Ag  Ag36  1  0.17222450  0.83209861  0.34338506  1
  Ag  Ag37  1  0.16825437  0.83812442  0.66176063  1
  Ag  Ag38  1  0.49462342  0.83196761  0.66628629  1
  Ag  Ag39  1  0.32296273  0.16802578  0.17082550  1
  Ag  Ag40  1  0.48572314  0.67088072  0.50356917  1
  Ag  Ag41  1  0.00633901  0.16495564  0.50407498  1
  Ag  Ag42  1  0.67420110  -0.00685128  0.66713596  1
  Ag  Ag43  1  0.50378461  0.33345348  0.82801887  1
  Ag  Ag44  1  0.66433914  0.67494958  0.66928842  1
  Ag  Ag45  1  0.50652883  0.83683304  -0.00774283  1
  Ag  Ag46  1  0.16257617  0.00819497  0.16360582  1
  Ag  Ag47  1  0.48762091  0.33305813  0.50454643  1
  Ag  Ag48  1  0.33459412  0.66874328  0.66052900  1
  Ag  Ag49  1  0.33423402  0.50212461  0.82373428  1
  Ag  Ag50  1  0.66703962  0.00030768  0.33564507  1
  Ag  Ag51  1  0.83085419  0.83167331  -0.00933257  1
  Ag  Ag52  1  0.83421877  0.49848732  0.67458336  1
  Ag  Ag53  1  0.01074226  0.83858232  0.50320643  1
  Sb  Sb54  1  0.83595895  0.66786761  0.50948716  1
  Sb  Sb55  1  0.49976024  0.50386961  0.66724711  1
  Sb  Sb56  1  0.66888673  0.16328441  0.16585951  1
  Sb  Sb57  1  0.16456231  -0.00023362  0.50082301  1
  Sb  Sb58  1  0.67108057  0.66674538  -0.00820006  1
  Sb  Sb59  1  0.49929043  -0.00185652  0.49989938  1
  Sb  Sb60  1  0.16767146  0.16645768  0.33490037  1
  Sb  Sb61  1  0.33162803  0.16877295  0.83075324  1
  Sb  Sb62  1  0.49789881  0.16365720  0.66530282  1
  Sb  Sb63  1  0.49370453  0.49785690  0.33665145  1
  Sb  Sb64  1  0.83281462  0.83397199  0.33694318  1
  Sb  Sb65  1  0.16505316  0.66929131  0.82839716  1
  Sb  Sb66  1  0.50108829  0.49938965  -0.00466531  1
  Sb  Sb67  1  0.66241021  0.83301212  0.50679097  1
  Sb  Sb68  1  0.49986179  0.67003396  0.17109881  1
  Sb  Sb69  1  -0.00162075  0.83447818  0.82804042  1
  Sb  Sb70  1  0.49638459  0.00058809  0.16780907  1
  Sb  Sb71  1  -0.00158694  0.49909660  0.83614467  1
  Sb  Sb72  1  0.16511637  0.33114907  0.83085227  1
  Sb  Sb73  1  0.32964135  0.33382161  0.34268814  1
  Sb  Sb74  1  0.83857255  0.00076226  0.16435862  1
  Sb  Sb75  1  0.66685478  0.16712092  0.83371357  1
  Sb  Sb76  1  0.00755459  0.49797411  0.49763023  1
  Sb  Sb77  1  0.49656270  -0.00019808  0.83230734  1
  Sb  Sb78  1  0.84003997  0.49744430  0.33339206  1
  Sb  Sb79  1  0.83746152  -0.00099951  0.83152829  1
  Sb  Sb80  1  0.66140030  0.49791982  0.50580421  1
  Sb  Sb81  1  0.65997155  0.66901621  0.34128479  1
  Sb  Sb82  1  0.32928105  0.66723107  -0.00379943  1
  Sb  Sb83  1  0.67148767  0.00068981  -0.00163260  1
  Sb  Sb84  1  0.33536321  0.33266952  -0.00628157  1
  Sb  Sb85  1  0.83623152  0.00019109  0.50436462  1
  Sb  Sb86  1  0.32811365  -0.00161547  0.33465137  1
  Sb  Sb87  1  0.83541717  0.66784155  0.15826148  1
  Sb  Sb88  1  0.67321371  0.50138869  0.16087162  1
  Sb  Sb89  1  0.32728132  0.00091399  -0.00048898  1
  Sb  Sb90  1  0.83452825  0.16747414  0.33493628  1
  Sb  Sb91  1  0.50271945  0.66642844  0.82808302  1
  Sb  Sb92  1  0.32753429  -0.00328510  0.66579526  1
  Sb  Sb93  1  0.16640614  0.66603427  0.17110738  1
  Sb  Sb94  1  0.83761157  0.33343160  0.50721340  1
  Sb  Sb95  1  0.32454670  0.49378186  0.16910437  1
  Sb  Sb96  1  0.66593032  0.33297353  0.66904394  1
  Sb  Sb97  1  0.00628337  0.66778119  0.33095698  1
  Sb  Sb98  1  -0.00183526  0.83768700  0.16906708  1
  Sb  Sb99  1  0.49419799  0.33048622  0.16842443  1
  Sb  Sb100  1  0.00050083  0.16696663  0.83117469  1
  Sb  Sb101  1  0.16381321  0.83581540  -0.00211844  1
  Sb  Sb102  1  0.00146155  0.66915249  0.66848950  1
  Sb  Sb103  1  0.16627366  0.49813329  0.66623269  1
  Sb  Sb104  1  0.33542177  0.83694242  0.16912151  1
  Sb  Sb105  1  0.83876467  0.33218341  0.16071514  1
  Sb  Sb106  1  0.66652931  0.16852751  0.50028395  1
  Sb  Sb107  1  -0.00204715  0.32953526  0.00061359  1
  Te  Te108  1  0.16529953  0.16854570  0.16963407  1
  Te  Te109  1  0.16454272  0.16885843  0.50055440  1
  Te  Te110  1  0.16894859  0.16282996  0.83481671  1
  Te  Te111  1  0.16253918  0.49879850  0.16487575  1
  Te  Te112  1  0.17052728  0.49466338  0.49895333  1
  Te  Te113  1  0.17234837  0.50033776  0.83769614  1
  Te  Te114  1  0.16665770  0.83584772  0.16779666  1
  Te  Te115  1  0.16874593  0.83558086  0.50014928  1
  Te  Te116  1  0.17132287  0.83606026  0.83001268  1
  Te  Te117  1  0.49931267  0.16665656  0.16548680  1
  Te  Te118  1  0.49942332  0.17016395  0.49694057  1
  Te  Te119  1  0.49855319  0.17154815  0.83787232  1
  Te  Te120  1  0.50063533  0.50067889  0.16623687  1
  Te  Te121  1  0.49290644  0.49660728  0.50052485  1
  Te  Te122  1  0.49710618  0.49453764  0.83362120  1
  Te  Te123  1  0.50371629  0.83461114  0.16679177  1
  Te  Te124  1  0.49583924  0.83198574  0.50150346  1
  Te  Te125  1  0.49977902  0.83289742  0.83131237  1
  Te  Te126  1  0.83938038  0.16696948  0.16000749  1
  Te  Te127  1  0.84043729  0.16808389  0.50652134  1
  Te  Te128  1  0.83188422  0.17059068  0.83365745  1
  Te  Te129  1  0.84099362  0.50044004  0.16001328  1
  Te  Te130  1  0.83283250  0.50099780  0.50704960  1
  Te  Te131  1  0.83399621  0.50000967  0.83422536  1
  Te  Te132  1  0.82774909  0.83367090  0.16262575  1
  Te  Te133  1  0.83902189  0.83203119  0.50666920  1
  Te  Te134  1  0.83146579  0.83350209  0.83234798  1
  Te  Te135  1  0.16160456  0.00281502  0.00020138  1
  Te  Te136  1  0.16218683  -0.00485536  0.32819194  1
  Te  Te137  1  0.16238776  0.00118709  0.66855759  1
  Te  Te138  1  0.16597911  0.33118710  -0.00059126  1
  Te  Te139  1  0.16473776  0.33413789  0.33510330  1
  Te  Te140  1  0.16667246  0.33106422  0.66488140  1
  Te  Te141  1  0.16072728  0.66462745  -0.00056829  1
  Te  Te142  1  0.16955410  0.66941842  0.33789515  1
  Te  Te143  1  0.16994849  0.66960649  0.66215118  1
  Te  Te144  1  0.50145455  0.00071178  -0.00000716  1
  Te  Te145  1  0.50392764  -0.00011159  0.33327691  1
  Te  Te146  1  0.50709285  -0.00560841  0.66731106  1
  Te  Te147  1  0.50386524  0.33055330  -0.00120265  1
  Te  Te148  1  0.50177889  0.33045483  0.33577744  1
  Te  Te149  1  0.49780033  0.33122801  0.66559537  1
  Te  Te150  1  0.49971435  0.67400823  0.00099450  1
  Te  Te151  1  0.49475962  0.66991164  0.33988948  1
  Te  Te152  1  0.49787794  0.67021737  0.66335841  1
  Te  Te153  1  0.83939584  0.00211424  -0.00196930  1
  Te  Te154  1  0.83331945  -0.00028227  0.33256450  1
  Te  Te155  1  0.83644987  -0.00039949  0.66852770  1
  Te  Te156  1  0.83130605  0.33197934  -0.00455965  1
  Te  Te157  1  0.83215325  0.33354352  0.33461906  1
  Te  Te158  1  0.83187889  0.33103810  0.67117368  1
  Te  Te159  1  0.83659273  0.66811959  -0.00679269  1
  Te  Te160  1  0.83129058  0.66527664  0.33421142  1
  Te  Te161  1  0.83316459  0.66903064  0.67196811  1
  Te  Te162  1  0.00234000  0.16504407  0.00124882  1
  Te  Te163  1  -0.00201176  0.16618998  0.33367376  1
  Te  Te164  1  0.00143378  0.16508878  0.66624853  1
  Te  Te165  1  0.00038396  0.49555195  0.00177940  1
  Te  Te166  1  0.00554127  0.49723510  0.32837863  1
  Te  Te167  1  -0.00476325  0.49883527  0.66562799  1
  Te  Te168  1  -0.00409211  0.83545679  0.00035651  1
  Te  Te169  1  0.00150411  0.83668578  0.33748668  1
  Te  Te170  1  0.00390555  0.83429829  0.66319217  1
  Te  Te171  1  0.33263786  0.16683852  0.00154779  1
  Te  Te172  1  0.33894848  0.16632470  0.33419683  1
  Te  Te173  1  0.32992855  0.16760069  0.66351739  1
  Te  Te174  1  0.32908435  0.50095079  -0.00177746  1
  Te  Te175  1  0.32684778  0.50393034  0.33625754  1
  Te  Te176  1  0.33265825  0.49920837  0.66630272  1
  Te  Te177  1  0.33813590  0.83286168  -0.00025636  1
  Te  Te178  1  0.33438073  0.83229177  0.33405908  1
  Te  Te179  1  0.33266256  0.83513158  0.66446001  1
  Te  Te180  1  0.66536827  0.16891826  0.00091168  1
  Te  Te181  1  0.66502934  0.16639994  0.33267154  1
  Te  Te182  1  0.66939847  0.15987472  0.66610509  1
  Te  Te183  1  0.67061679  0.49670161  -0.00528079  1
  Te  Te184  1  0.66824490  0.49656517  0.33105166  1
  Te  Te185  1  0.67045851  0.50092054  0.67287508  1
  Te  Te186  1  0.66800932  0.83402602  -0.00307643  1
  Te  Te187  1  0.66376676  0.83513069  0.33578015  1
  Te  Te188  1  0.66916735  0.83424948  0.66787212  1
  Te  Te189  1  0.00354799  0.00313538  0.16811627  1
  Te  Te190  1  -0.00034026  0.00148255  0.49987963  1
  Te  Te191  1  0.00573315  -0.00068420  0.83292389  1
  Te  Te192  1  0.00369557  0.33009885  0.16876408  1
  Te  Te193  1  0.00364122  0.33171627  0.49932745  1
  Te  Te194  1  -0.00445583  0.33381949  0.82181223  1
  Te  Te195  1  0.00024349  0.66396517  0.16093674  1
  Te  Te196  1  0.00624770  0.66990671  0.49893984  1
  Te  Te197  1  -0.00491550  0.66705745  0.84005678  1
  Te  Te198  1  0.32521082  0.00714208  0.16687223  1
  Te  Te199  1  0.33367956  0.01130102  0.49949252  1
  Te  Te200  1  0.32793659  -0.00777859  0.83314712  1
  Te  Te201  1  0.32628714  0.32734594  0.16581506  1
  Te  Te202  1  0.33177894  0.32962751  0.50243271  1
  Te  Te203  1  0.33630646  0.33667957  0.82640697  1
  Te  Te204  1  0.33382380  0.66504610  0.16994030  1
  Te  Te205  1  0.33011262  0.66548201  0.50274258  1
  Te  Te206  1  0.33408582  0.66616811  0.82833283  1
  Te  Te207  1  0.66701698  -0.00475582  0.17041736  1
  Te  Te208  1  0.66753816  0.00065257  0.49682667  1
  Te  Te209  1  0.66546061  -0.00664314  0.82986751  1
  Te  Te210  1  0.66622618  0.33405503  0.16733937  1
  Te  Te211  1  0.66308674  0.33438682  0.49408557  1
  Te  Te212  1  0.66582400  0.33446793  0.83491045  1
  Te  Te213  1  0.66739755  0.67291769  0.16871829  1
  Te  Te214  1  0.66351586  0.66454534  0.50902866  1
  Te  Te215  1  0.66895387  0.66664174  0.82814328  1
