# generated using pymatgen
data_AgSbTe2
_symmetry_space_group_name_H-M   'P 1'
_cell_length_a   18.35439722
_cell_length_b   18.35614657
_cell_length_c   18.35000880
_cell_angle_alpha   90.00111193
_cell_angle_beta   90.00013418
_cell_angle_gamma   90.00478697
_symmetry_Int_Tables_number   1
_chemical_formula_structural   AgSbTe2
_chemical_formula_sum   'Ag54 Sb54 Te108'
_cell_volume   6182.41164562
_cell_formula_units_Z   54
loop_
 _symmetry_equiv_pos_site_id
 _symmetry_equiv_pos_as_xyz
  1  'x, y, z'
loop_
 _atom_site_type_symbol
 _atom_site_label
 _atom_site_symmetry_multiplicity
 _atom_site_fract_x
 _atom_site_fract_y
 _atom_site_fract_z
 _atom_site_occupancy
  Ag  Ag0  1  0.49802952  0.16936376  -0.00631614  1
  Ag  Ag1  1  0.83346532  0.48536461  0.32514928  1
  Ag  Ag2  1  0.49696617  0.00815536  0.83400433  1
  Ag  Ag3  1  0.82995778  0.17116450  0.67448838  1
  Ag  Ag4  1  0.33353981  0.00997460  -0.00350711  1
  Ag  Ag5  1  0.49775605  0.66914803  0.83164078  1
  Ag  Ag6  1  0.66572638  0.66101672  -0.00104707  1
  Ag  Ag7  1  0.00890595  0.32812339  0.00074300  1
  Ag  Ag8  1  0.66301709  0.83493568  0.49650672  1
  Ag  Ag9  1  0.84558484  0.16854357  -0.00131524  1
  Ag  Ag10  1  0.33657991  0.84675892  0.83261962  1
  Ag  Ag11  1  0.33897541  0.00225636  0.67618085  1
  Ag  Ag12  1  0.00832099  0.17023477  0.84559487  1
  Ag  Ag13  1  0.66332531  0.49485752  0.83678659  1
  Ag  Ag14  1  0.00042544  0.84043726  0.16586259  1
  Ag  Ag15  1  0.83691369  0.33150032  0.49799059  1
  Ag  Ag16  1  0.33591385  0.16643540  0.83672319  1
  Ag  Ag17  1  0.00310980  0.32872940  0.67452272  1
  Ag  Ag18  1  0.15920025  0.17382027  -0.00275535  1
  Ag  Ag19  1  0.49973077  0.32668600  0.83476037  1
  Ag  Ag20  1  0.49523989  0.00486143  0.15857446  1
  Ag  Ag21  1  0.33615809  0.66875172  0.33586535  1
  Ag  Ag22  1  0.83482081  0.84215768  0.00210940  1
  Ag  Ag23  1  0.16664285  0.00881995  0.49504558  1
  Ag  Ag24  1  0.50285838  0.84166941  0.33803773  1
  Ag  Ag25  1  0.00860544  0.01750662  0.00390073  1
  Ag  Ag26  1  0.50049357  0.16262295  0.67538392  1
  Ag  Ag27  1  0.16838911  0.48250468  0.67496734  1
  Ag  Ag28  1  0.66308523  0.00600483  0.33525417  1
  Ag  Ag29  1  0.16817910  0.00863804  0.16469685  1
  Ag  Ag30  1  0.16854730  0.48822585  0.00081329  1
  Ag  Ag31  1  0.32062908  0.32523710  -0.00251127  1
  Ag  Ag32  1  0.83877623  0.32932436  0.83239628  1
  Ag  Ag33  1  -0.00106686  0.16742741  0.15903937  1
  Ag  Ag34  1  0.16251998  0.32894055  0.83862916  1
  Ag  Ag35  1  0.32633501  0.49941644  0.16212940  1
  Ag  Ag36  1  0.50721712  0.16224483  0.32553728  1
  Ag  Ag37  1  0.16656745  0.16781527  0.67998366  1
  Ag  Ag38  1  0.16202381  0.32699447  0.15299098  1
  Ag  Ag39  1  0.67189312  0.16702508  0.16833768  1
  Ag  Ag40  1  0.67504739  0.32760297  0.66762532  1
  Ag  Ag41  1  -0.00213853  0.33107492  0.32016445  1
  Ag  Ag42  1  0.33704016  0.67139532  0.66712245  1
  Ag  Ag43  1  0.82569659  0.17033890  0.32796848  1
  Ag  Ag44  1  0.00410229  0.48507729  0.16366909  1
  Ag  Ag45  1  0.68122573  0.32162574  0.33806651  1
  Ag  Ag46  1  0.83024791  0.83718522  0.32758802  1
  Ag  Ag47  1  0.16091955  0.32875161  0.50645660  1
  Ag  Ag48  1  0.17065907  0.83731025  0.33148362  1
  Ag  Ag49  1  0.49830551  0.84559574  0.66858115  1
  Ag  Ag50  1  0.83527970  0.48696354  0.00353286  1
  Ag  Ag51  1  0.50001517  0.48788845  -0.00240756  1
  Ag  Ag52  1  0.65500277  0.01047598  0.66426260  1
  Ag  Ag53  1  0.49923199  0.67070781  0.50798713  1
  Sb  Sb54  1  0.67092892  0.33153875  -0.00298002  1
  Sb  Sb55  1  -0.00374670  0.83586916  0.49391671  1
  Sb  Sb56  1  0.50365361  0.49748394  0.32584826  1
  Sb  Sb57  1  0.00294712  0.01006207  0.67355292  1
  Sb  Sb58  1  0.66916754  0.48941249  0.16206196  1
  Sb  Sb59  1  0.33097084  0.16832922  0.15883152  1
  Sb  Sb60  1  0.49566710  0.49640898  0.67476688  1
  Sb  Sb61  1  0.83442747  0.00346245  0.16631190  1
  Sb  Sb62  1  0.50239738  0.83744173  -0.00227528  1
  Sb  Sb63  1  0.66372390  0.17190324  0.83425575  1
  Sb  Sb64  1  0.17438253  0.65797357  0.83338935  1
  Sb  Sb65  1  0.33797035  0.66464321  -0.00235769  1
  Sb  Sb66  1  0.83498908  0.00680305  0.49721620  1
  Sb  Sb67  1  0.83235897  0.66756434  0.16619458  1
  Sb  Sb68  1  0.16672871  0.16586644  0.32871254  1
  Sb  Sb69  1  0.33886312  0.83440661  0.50299474  1
  Sb  Sb70  1  0.16364543  0.49879782  0.32923426  1
  Sb  Sb71  1  0.00673220  0.65693484  0.66889910  1
  Sb  Sb72  1  0.66586955  0.50038027  0.50365239  1
  Sb  Sb73  1  0.49834126  -0.00221696  0.50331195  1
  Sb  Sb74  1  0.17579550  0.00895165  0.83745877  1
  Sb  Sb75  1  0.33717435  -0.00146998  0.33169500  1
  Sb  Sb76  1  0.17333938  0.84206352  0.66297898  1
  Sb  Sb77  1  0.66466004  0.00249670  0.00070233  1
  Sb  Sb78  1  0.50161087  0.33388128  0.50483696  1
  Sb  Sb79  1  0.66061576  0.83172107  0.83223363  1
  Sb  Sb80  1  0.33114109  0.83232629  0.16441912  1
  Sb  Sb81  1  0.16718632  0.66433823  0.16527149  1
  Sb  Sb82  1  0.33288508  0.49884603  0.49921513  1
  Sb  Sb83  1  0.17315043  0.66591808  0.49877597  1
  Sb  Sb84  1  0.66658262  0.16314925  0.49931400  1
  Sb  Sb85  1  0.49613413  0.32665164  0.15945109  1
  Sb  Sb86  1  0.00490855  0.84539749  0.83867004  1
  Sb  Sb87  1  0.83942442  0.33000959  0.16525152  1
  Sb  Sb88  1  0.49955072  0.67173628  0.16367165  1
  Sb  Sb89  1  0.82581565  0.66216205  0.49870558  1
  Sb  Sb90  1  0.82652486  0.84261605  0.66831181  1
  Sb  Sb91  1  -0.00014134  0.16958811  0.49834454  1
  Sb  Sb92  1  0.33011856  0.33432583  0.32608840  1
  Sb  Sb93  1  0.32980142  0.32897585  0.67428295  1
  Sb  Sb94  1  -0.00225209  0.48980361  0.84049773  1
  Sb  Sb95  1  -0.00458710  0.66099274  0.00041182  1
  Sb  Sb96  1  0.16378893  0.83910498  0.00354721  1
  Sb  Sb97  1  0.82605677  0.00819826  0.83439577  1
  Sb  Sb98  1  0.65903203  0.66550338  0.67018875  1
  Sb  Sb99  1  0.83697460  0.48966679  0.67010040  1
  Sb  Sb100  1  -0.00256647  0.00562675  0.32620797  1
  Sb  Sb101  1  0.66284044  0.66781597  0.32881499  1
  Sb  Sb102  1  0.00252250  0.66480637  0.33120901  1
  Sb  Sb103  1  0.33246215  0.16549863  0.50705183  1
  Sb  Sb104  1  -0.00001613  0.49331400  0.49421217  1
  Sb  Sb105  1  0.33647874  0.49361072  0.83841285  1
  Sb  Sb106  1  0.82659611  0.65926909  0.83525496  1
  Sb  Sb107  1  0.66837227  0.84139589  0.16970453  1
  Te  Te108  1  0.16483372  0.16722197  0.16367645  1
  Te  Te109  1  0.16671706  0.16777611  0.49635305  1
  Te  Te110  1  0.16804565  0.16878474  0.83705400  1
  Te  Te111  1  0.16411049  0.49799652  0.16406458  1
  Te  Te112  1  0.16632779  0.49711413  0.50278787  1
  Te  Te113  1  0.16579812  0.49228111  0.83534089  1
  Te  Te114  1  0.16373697  0.83466530  0.17045317  1
  Te  Te115  1  0.16495880  0.83452469  0.49399133  1
  Te  Te116  1  0.17357119  0.83129240  0.83303489  1
  Te  Te117  1  0.49679323  0.16289847  0.16881789  1
  Te  Te118  1  0.49852237  0.16836365  0.50247119  1
  Te  Te119  1  0.50057351  0.16613500  0.83229162  1
  Te  Te120  1  0.49960616  0.49977550  0.15866683  1
  Te  Te121  1  0.49969518  0.50695982  0.49862245  1
  Te  Te122  1  0.50240683  0.49800916  0.83845164  1
  Te  Te123  1  0.49957939  0.84011174  0.17133975  1
  Te  Te124  1  0.50222998  0.83108850  0.49966577  1
  Te  Te125  1  0.49653952  0.83166567  0.83039750  1
  Te  Te126  1  0.83295427  0.16474888  0.16541167  1
  Te  Te127  1  0.83367417  0.17295193  0.49579716  1
  Te  Te128  1  0.83135961  0.17062854  0.83494259  1
  Te  Te129  1  0.83638955  0.50174945  0.16481455  1
  Te  Te130  1  0.83275623  0.49401204  0.49337667  1
  Te  Te131  1  0.82927388  0.49290348  0.83801144  1
  Te  Te132  1  0.83599070  0.83517524  0.16491183  1
  Te  Te133  1  0.82806237  0.83372491  0.49933173  1
  Te  Te134  1  0.83420246  0.83309327  0.83725396  1
  Te  Te135  1  0.16830603  0.00265038  0.00316499  1
  Te  Te136  1  0.16648898  -0.00200644  0.32999275  1
  Te  Te137  1  0.16948926  0.00717511  0.66640876  1
  Te  Te138  1  0.16572774  0.33313540  -0.00191053  1
  Te  Te139  1  0.16182376  0.33385895  0.34069147  1
  Te  Te140  1  0.16879892  0.32663525  0.66689896  1
  Te  Te141  1  0.16698715  0.66035797  -0.00142751  1
  Te  Te142  1  0.17229197  0.67217564  0.33357818  1
  Te  Te143  1  0.17414445  0.66968837  0.66525728  1
  Te  Te144  1  0.49783379  0.00165139  -0.00101019  1
  Te  Te145  1  0.50198572  0.00054203  0.33724911  1
  Te  Te146  1  0.49861164  0.00162372  0.66549910  1
  Te  Te147  1  0.50485626  0.33093495  -0.00391677  1
  Te  Te148  1  0.49932140  0.33019708  0.33534059  1
  Te  Te149  1  0.50065354  0.32931228  0.66974570  1
  Te  Te150  1  0.50417135  0.67004352  -0.00421389  1
  Te  Te151  1  0.49670944  0.66597054  0.33183482  1
  Te  Te152  1  0.49633758  0.66278186  0.66930549  1
  Te  Te153  1  0.83347377  0.00414633  -0.00054954  1
  Te  Te154  1  0.82856481  -0.00241944  0.33354495  1
  Te  Te155  1  0.83190550  0.00908032  0.66577446  1
  Te  Te156  1  0.83257691  0.32890219  -0.00260730  1
  Te  Te157  1  0.83700071  0.32895430  0.32960278  1
  Te  Te158  1  0.83390344  0.33070738  0.66821674  1
  Te  Te159  1  0.82791673  0.66588060  -0.00132219  1
  Te  Te160  1  0.83313336  0.67773571  0.33443035  1
  Te  Te161  1  0.83538430  0.66579226  0.66625034  1
  Te  Te162  1  0.00004372  0.17186904  0.00129721  1
  Te  Te163  1  -0.00186737  0.17035435  0.32821203  1
  Te  Te164  1  0.00065428  0.17108771  0.66620958  1
  Te  Te165  1  -0.00347104  0.49680643  0.00457286  1
  Te  Te166  1  -0.00513157  0.49721154  0.32611028  1
  Te  Te167  1  0.00681619  0.49212665  0.66766094  1
  Te  Te168  1  -0.00453769  0.83008804  0.00361080  1
  Te  Te169  1  -0.00264832  0.83453338  0.32888070  1
  Te  Te170  1  -0.00191914  0.83402671  0.66799387  1
  Te  Te171  1  0.33901641  0.16695661  -0.00160568  1
  Te  Te172  1  0.33990518  0.16663739  0.33376659  1
  Te  Te173  1  0.33386647  0.16400956  0.67230427  1
  Te  Te174  1  0.33438619  0.50020907  0.00235038  1
  Te  Te175  1  0.33352730  0.50366339  0.32779781  1
  Te  Te176  1  0.32812574  0.50234044  0.66717515  1
  Te  Te177  1  0.33268410  0.83337130  -0.00472124  1
  Te  Te178  1  0.33540379  0.83110826  0.33242177  1
  Te  Te179  1  0.33767588  0.83513590  0.67005143  1
  Te  Te180  1  0.65749377  0.16514207  0.00717581  1
  Te  Te181  1  0.66685267  0.16528714  0.33462047  1
  Te  Te182  1  0.66659996  0.16800121  0.66638189  1
  Te  Te183  1  0.66815594  0.49894924  -0.00157179  1
  Te  Te184  1  0.67324978  0.49979494  0.33256165  1
  Te  Te185  1  0.66800060  0.49627740  0.67154838  1
  Te  Te186  1  0.67260266  0.83362284  0.00084603  1
  Te  Te187  1  0.66430781  0.83355173  0.33418474  1
  Te  Te188  1  0.66149372  0.83354800  0.66368368  1
  Te  Te189  1  0.00305264  0.00183913  0.16253373  1
  Te  Te190  1  0.00703691  0.00018532  0.50162153  1
  Te  Te191  1  -0.00225447  0.00932843  0.84171046  1
  Te  Te192  1  0.00302566  0.32871650  0.16341818  1
  Te  Te193  1  -0.00141933  0.33346682  0.50519104  1
  Te  Te194  1  -0.00005893  0.33002709  0.83512377  1
  Te  Te195  1  -0.00013701  0.67665930  0.16733270  1
  Te  Te196  1  -0.00059693  0.66627758  0.50108289  1
  Te  Te197  1  0.00055555  0.66968539  0.83193390  1
  Te  Te198  1  0.33232864  -0.00176061  0.16360753  1
  Te  Te199  1  0.32482826  -0.00046049  0.50297284  1
  Te  Te200  1  0.33677177  0.00391478  0.83525266  1
  Te  Te201  1  0.32727792  0.33870378  0.15984113  1
  Te  Te202  1  0.32804675  0.33340192  0.49714518  1
  Te  Te203  1  0.33632265  0.32868107  0.83846597  1
  Te  Te204  1  0.33388661  0.66193389  0.17004653  1
  Te  Te205  1  0.33951028  0.66641090  0.50035124  1
  Te  Te206  1  0.33886269  0.66409162  0.82960865  1
  Te  Te207  1  0.65995708  0.00650574  0.17096374  1
  Te  Te208  1  0.66869372  -0.00489632  0.50068467  1
  Te  Te209  1  0.65874256  -0.00192818  0.82716293  1
  Te  Te210  1  0.66247994  0.32634298  0.17747468  1
  Te  Te211  1  0.66964801  0.33528464  0.50059133  1
  Te  Te212  1  0.66420724  0.33544624  0.83062483  1
  Te  Te213  1  0.66492990  0.66533861  0.15950083  1
  Te  Te214  1  0.66004662  0.67118326  0.50049752  1
  Te  Te215  1  0.65986659  0.66170417  0.83743648  1
