# generated using pymatgen
data_AgSbTe2
_symmetry_space_group_name_H-M   'P 1'
_cell_length_a   18.33580430
_cell_length_b   18.33426840
_cell_length_c   18.34386674
_cell_angle_alpha   89.99762165
_cell_angle_beta   89.99916141
_cell_angle_gamma   90.00080344
_symmetry_Int_Tables_number   1
_chemical_formula_structural   AgSbTe2
_chemical_formula_sum   'Ag54 Sb54 Te108'
_cell_volume   6166.72292773
_cell_formula_units_Z   54
loop_
 _symmetry_equiv_pos_site_id
 _symmetry_equiv_pos_as_xyz
  1  'x, y, z'
loop_
 _atom_site_type_symbol
 _atom_site_label
 _atom_site_symmetry_multiplicity
 _atom_site_fract_x
 _atom_site_fract_y
 _atom_site_fract_z
 _atom_site_occupancy
  Ag  Ag0  1  0.48859685  0.33791676  0.83563298  1
  Ag  Ag1  1  0.33005576  0.66562538  0.65532416  1
  Ag  Ag2  1  0.00888882  0.67081871  0.00573089  1
  Ag  Ag3  1  0.83712538  0.84427460  0.66266008  1
  Ag  Ag4  1  0.00404777  0.31968019  0.66562299  1
  Ag  Ag5  1  0.48770370  0.82083317  0.33276923  1
  Ag  Ag6  1  0.48829932  0.65768255  0.48913513  1
  Ag  Ag7  1  0.84246440  0.49593388  0.00177649  1
  Ag  Ag8  1  0.17051068  0.66636888  0.48928080  1
  Ag  Ag9  1  0.32661129  0.65921884  0.00414576  1
  Ag  Ag10  1  0.49206037  0.66082545  0.83617919  1
  Ag  Ag11  1  0.32132717  -0.00304035  0.33476308  1
  Ag  Ag12  1  0.16445351  0.00174091  0.17334603  1
  Ag  Ag13  1  0.00372162  0.00341248  0.66857008  1
  Ag  Ag14  1  0.00199033  -0.00041050  -0.00386679  1
  Ag  Ag15  1  0.16383901  0.16154378  -0.00277020  1
  Ag  Ag16  1  0.16803261  0.49276821  -0.00235972  1
  Ag  Ag17  1  0.33381925  0.34224459  0.32937479  1
  Ag  Ag18  1  0.84515013  0.16266732  0.66830617  1
  Ag  Ag19  1  0.66469221  0.49729801  0.16653792  1
  Ag  Ag20  1  0.32752540  0.33984939  0.00499401  1
  Ag  Ag21  1  0.83250957  0.32861874  0.49428857  1
  Ag  Ag22  1  0.33004063  0.66545898  0.33619598  1
  Ag  Ag23  1  0.49847574  0.33836954  0.49218835  1
  Ag  Ag24  1  0.65658689  0.33357893  0.33194963  1
  Ag  Ag25  1  0.68555503  0.00184133  0.00042349  1
  Ag  Ag26  1  0.83826478  0.84348880  0.00201022  1
  Ag  Ag27  1  0.16498656  0.84131014  0.33157706  1
  Ag  Ag28  1  0.00894147  -0.00561291  0.33382039  1
  Ag  Ag29  1  0.00400736  0.16341759  0.83171189  1
  Ag  Ag30  1  0.83849857  0.33510747  0.16844787  1
  Ag  Ag31  1  0.32852903  0.50267100  0.50134670  1
  Ag  Ag32  1  0.84543494  0.83585122  0.33152798  1
  Ag  Ag33  1  0.16216136  -0.00040734  0.48899306  1
  Ag  Ag34  1  0.48877503  0.65983778  0.17282822  1
  Ag  Ag35  1  0.01442862  0.67521316  0.32745662  1
  Ag  Ag36  1  0.49676090  0.50206813  0.33227640  1
  Ag  Ag37  1  0.31959709  0.00148894  -0.00115953  1
  Ag  Ag38  1  0.33036417  0.50030090  0.83231078  1
  Ag  Ag39  1  0.84514870  0.00201165  0.83309457  1
  Ag  Ag40  1  0.16250713  0.16315130  0.66927724  1
  Ag  Ag41  1  0.84469309  0.00675470  0.50713328  1
  Ag  Ag42  1  0.16861560  0.33298415  0.16218434  1
  Ag  Ag43  1  0.00147897  0.83355371  0.16837586  1
  Ag  Ag44  1  0.01159846  0.50053472  0.49935114  1
  Ag  Ag45  1  0.32038796  -0.00217844  0.66456218  1
  Ag  Ag46  1  0.49449382  0.33968886  0.17492590  1
  Ag  Ag47  1  0.16947504  0.66603340  0.17246647  1
  Ag  Ag48  1  0.16909052  0.49566196  0.66728612  1
  Ag  Ag49  1  0.16237343  0.00721909  0.83669286  1
  Ag  Ag50  1  0.16975715  0.32784170  0.84300291  1
  Ag  Ag51  1  0.16709240  0.15623329  0.33390362  1
  Ag  Ag52  1  0.84414912  0.16209283  -0.00462097  1
  Ag  Ag53  1  0.67098878  0.16849953  0.49947416  1
  Sb  Sb54  1  0.16157413  0.83768732  0.00679174  1
  Sb  Sb55  1  0.00787291  0.49605394  0.83286339  1
  Sb  Sb56  1  0.00376778  0.16195070  0.16123781  1
  Sb  Sb57  1  0.49400097  0.17113941  0.33408878  1
  Sb  Sb58  1  0.49314095  0.00167565  0.83468950  1
  Sb  Sb59  1  0.66140543  0.66281666  0.33192070  1
  Sb  Sb60  1  0.33187853  0.82835773  0.83455155  1
  Sb  Sb61  1  0.66292930  0.49439522  0.49464793  1
  Sb  Sb62  1  0.67347674  0.16741402  0.83154319  1
  Sb  Sb63  1  0.49535493  0.16883682  -0.00028556  1
  Sb  Sb64  1  0.00034673  0.84019734  0.83909721  1
  Sb  Sb65  1  0.17042789  0.66570434  0.83657302  1
  Sb  Sb66  1  0.00751220  0.67152373  0.66548278  1
  Sb  Sb67  1  0.84116472  0.00296311  0.16471917  1
  Sb  Sb68  1  0.83816390  0.66703881  0.49797408  1
  Sb  Sb69  1  0.84037951  0.16433655  0.33414606  1
  Sb  Sb70  1  0.16661372  0.33385680  0.49781167  1
  Sb  Sb71  1  0.33200048  0.82715371  0.49671676  1
  Sb  Sb72  1  0.66885282  0.83867933  0.49706289  1
  Sb  Sb73  1  0.67128711  0.33171984  0.66077921  1
  Sb  Sb74  1  0.66019517  0.66560496  0.66474629  1
  Sb  Sb75  1  0.67436177  0.00178360  0.66924759  1
  Sb  Sb76  1  0.66881735  0.00435125  0.33012259  1
  Sb  Sb77  1  0.66805119  0.83507750  0.83468066  1
  Sb  Sb78  1  0.49387202  0.00040740  0.49760595  1
  Sb  Sb79  1  0.67160178  0.83084084  0.16827614  1
  Sb  Sb80  1  0.32395608  0.17195012  0.83341810  1
  Sb  Sb81  1  0.50121112  0.83059276  0.00603225  1
  Sb  Sb82  1  0.00125376  0.50283367  0.16929249  1
  Sb  Sb83  1  0.33236012  0.17061993  0.49910863  1
  Sb  Sb84  1  0.83844016  0.32878595  0.83553439  1
  Sb  Sb85  1  0.32603915  0.33569145  0.66654556  1
  Sb  Sb86  1  -0.00094364  0.16680992  0.50614051  1
  Sb  Sb87  1  0.67033503  0.17087228  0.16968513  1
  Sb  Sb88  1  0.49983421  0.83130928  0.66146935  1
  Sb  Sb89  1  0.49182063  0.49988584  0.66250377  1
  Sb  Sb90  1  0.00546529  0.33151943  0.33686639  1
  Sb  Sb91  1  0.83259028  0.67172387  0.83608469  1
  Sb  Sb92  1  0.49055187  -0.00115218  0.16745734  1
  Sb  Sb93  1  0.83759813  0.66401052  0.16635391  1
  Sb  Sb94  1  0.49299586  0.49934316  0.00546161  1
  Sb  Sb95  1  0.32924597  0.16948262  0.16717085  1
  Sb  Sb96  1  0.00680125  0.33133090  -0.00204160  1
  Sb  Sb97  1  0.66058330  0.49739686  0.84041673  1
  Sb  Sb98  1  0.49516280  0.16868568  0.66585737  1
  Sb  Sb99  1  0.16202781  0.84007848  0.66059473  1
  Sb  Sb100  1  0.33395850  0.50064376  0.16944700  1
  Sb  Sb101  1  0.00062696  0.83422832  0.49264273  1
  Sb  Sb102  1  0.84428428  0.49659776  0.66953234  1
  Sb  Sb103  1  0.32632521  0.83092278  0.16864243  1
  Sb  Sb104  1  0.83120332  0.50134436  0.33046146  1
  Sb  Sb105  1  0.17157545  0.50122601  0.33358011  1
  Sb  Sb106  1  0.66616950  0.66793132  0.00257651  1
  Sb  Sb107  1  0.66422155  0.33022657  0.00673586  1
  Te  Te108  1  0.16580624  0.16740808  0.16317606  1
  Te  Te109  1  0.16628091  0.16339000  0.50137287  1
  Te  Te110  1  0.16385720  0.16772112  0.83380972  1
  Te  Te111  1  0.16558056  0.50016944  0.15915523  1
  Te  Te112  1  0.16906162  0.50036620  0.50166272  1
  Te  Te113  1  0.17043849  0.49829632  0.83481689  1
  Te  Te114  1  0.16125244  0.83018120  0.17210878  1
  Te  Te115  1  0.16666716  0.83263025  0.49337359  1
  Te  Te116  1  0.16654633  0.84217881  0.83053183  1
  Te  Te117  1  0.50158507  0.17617647  0.16641741  1
  Te  Te118  1  0.50562048  0.17282997  0.50093139  1
  Te  Te119  1  0.50165889  0.17360178  0.83206897  1
  Te  Te120  1  0.50192752  0.49933698  0.16940933  1
  Te  Te121  1  0.49778764  0.49895179  0.49666434  1
  Te  Te122  1  0.49414254  0.49940033  0.83289604  1
  Te  Te123  1  0.50277695  0.82959796  0.17405723  1
  Te  Te124  1  0.50202009  0.82914738  0.49321680  1
  Te  Te125  1  0.50062650  0.82784393  0.83230422  1
  Te  Te126  1  0.83507679  0.17446374  0.16268906  1
  Te  Te127  1  0.83333622  0.16680426  0.49938212  1
  Te  Te128  1  0.83833867  0.16290235  0.83387922  1
  Te  Te129  1  0.83098167  0.49611556  0.16286918  1
  Te  Te130  1  0.83138663  0.49528747  0.50183183  1
  Te  Te131  1  0.83283325  0.49991255  0.83987541  1
  Te  Te132  1  0.83845165  0.83275425  0.16672194  1
  Te  Te133  1  0.83346222  0.83632981  0.49854452  1
  Te  Te134  1  0.83328678  0.83949567  0.83758473  1
  Te  Te135  1  0.16270808  -0.00081449  -0.00077319  1
  Te  Te136  1  0.16581570  0.00020626  0.33213731  1
  Te  Te137  1  0.16417716  0.00061392  0.66915979  1
  Te  Te138  1  0.16793617  0.33324270  0.00121813  1
  Te  Te139  1  0.17252602  0.33363306  0.32868845  1
  Te  Te140  1  0.16395693  0.33260851  0.66486735  1
  Te  Te141  1  0.16780903  0.67108233  0.00100966  1
  Te  Te142  1  0.16931832  0.66109002  0.33272993  1
  Te  Te143  1  0.17090145  0.66749920  0.66728482  1
  Te  Te144  1  0.49092038  -0.00032129  0.00042289  1
  Te  Te145  1  0.49853541  -0.00168223  0.33278008  1
  Te  Te146  1  0.49601764  -0.00110600  0.66678783  1
  Te  Te147  1  0.49369106  0.33345293  -0.00203046  1
  Te  Te148  1  0.49546470  0.33238309  0.33264642  1
  Te  Te149  1  0.50000806  0.33314759  0.66704646  1
  Te  Te150  1  0.49661374  0.66674902  0.00031072  1
  Te  Te151  1  0.49871159  0.66421846  0.33203070  1
  Te  Te152  1  0.49243117  0.66729410  0.66837186  1
  Te  Te153  1  0.84122255  0.00277277  0.00227652  1
  Te  Te154  1  0.83429559  -0.00324450  0.33432356  1
  Te  Te155  1  0.83521548  0.00248154  0.66636885  1
  Te  Te156  1  0.83318809  0.33254066  0.00176437  1
  Te  Te157  1  0.83696921  0.33317134  0.33309373  1
  Te  Te158  1  0.83918082  0.32875656  0.66582348  1
  Te  Te159  1  0.83484849  0.66460857  0.00020077  1
  Te  Te160  1  0.83389983  0.67245128  0.33427279  1
  Te  Te161  1  0.83320925  0.66971478  0.66754363  1
  Te  Te162  1  0.00233811  0.16553045  -0.00438876  1
  Te  Te163  1  0.00745566  0.16202544  0.33210192  1
  Te  Te164  1  0.00152984  0.16332449  0.66943830  1
  Te  Te165  1  0.00282378  0.50286316  0.00045519  1
  Te  Te166  1  -0.00169060  0.50380624  0.33850871  1
  Te  Te167  1  0.00840118  0.50345111  0.66309045  1
  Te  Te168  1  -0.00357416  0.83198034  0.00420797  1
  Te  Te169  1  0.00320534  0.83280342  0.33129272  1
  Te  Te170  1  -0.00530711  0.83875731  0.66726152  1
  Te  Te171  1  0.32800685  0.16391573  -0.00014755  1
  Te  Te172  1  0.32696234  0.16033159  0.33395767  1
  Te  Te173  1  0.32765425  0.15910197  0.66624571  1
  Te  Te174  1  0.33005120  0.49937290  -0.00354738  1
  Te  Te175  1  0.33651486  0.50123136  0.33763231  1
  Te  Te176  1  0.32800904  0.50264445  0.66586289  1
  Te  Te177  1  0.33573395  0.83574653  0.00084364  1
  Te  Te178  1  0.33069395  0.83302157  0.33280517  1
  Te  Te179  1  0.33425101  0.83430385  0.66670520  1
  Te  Te180  1  0.66769008  0.16176867  -0.00006258  1
  Te  Te181  1  0.66840887  0.17253746  0.33714460  1
  Te  Te182  1  0.67027857  0.16653847  0.66150964  1
  Te  Te183  1  0.67176455  0.49901918  0.00582270  1
  Te  Te184  1  0.66261742  0.49348819  0.32795589  1
  Te  Te185  1  0.66946561  0.49953059  0.66997869  1
  Te  Te186  1  0.67330273  0.83942449  0.00151039  1
  Te  Te187  1  0.67127396  0.83472087  0.33273567  1
  Te  Te188  1  0.67590961  0.83343044  0.66624417  1
  Te  Te189  1  0.00453569  -0.00383710  0.16866393  1
  Te  Te190  1  0.00113570  -0.00017512  0.49904605  1
  Te  Te191  1  0.00080687  0.00169772  0.83420060  1
  Te  Te192  1  0.00105405  0.33444451  0.16771723  1
  Te  Te193  1  -0.00305034  0.33868438  0.50300248  1
  Te  Te194  1  0.00553018  0.32912657  0.82749105  1
  Te  Te195  1  0.00363429  0.66906281  0.16708803  1
  Te  Te196  1  0.00499740  0.66187048  0.49781228  1
  Te  Te197  1  -0.00055593  0.66611883  0.84048426  1
  Te  Te198  1  0.32588505  -0.00054379  0.16717753  1
  Te  Te199  1  0.32918999  0.00123030  0.49909544  1
  Te  Te200  1  0.32970949  -0.00025990  0.83475560  1
  Te  Te201  1  0.33114250  0.33486738  0.16637486  1
  Te  Te202  1  0.33648562  0.33756667  0.49777916  1
  Te  Te203  1  0.32963932  0.33711332  0.83300485  1
  Te  Te204  1  0.33109746  0.66577677  0.16548922  1
  Te  Te205  1  0.33173868  0.66375679  0.49778185  1
  Te  Te206  1  0.33457215  0.66248123  0.83960443  1
  Te  Te207  1  0.66339592  0.00027954  0.16130183  1
  Te  Te208  1  0.66663397  0.00613622  0.49983691  1
  Te  Te209  1  0.66483744  0.00148417  0.84056094  1
  Te  Te210  1  0.66587164  0.33610348  0.17100643  1
  Te  Te211  1  0.66845638  0.33061390  0.49473440  1
  Te  Te212  1  0.65934789  0.33296775  0.83388960  1
  Te  Te213  1  0.66126757  0.66057416  0.16617129  1
  Te  Te214  1  0.66038212  0.66583862  0.50014486  1
  Te  Te215  1  0.65669804  0.66611113  0.83379393  1
