# generated using pymatgen
data_AgSbTe2
_symmetry_space_group_name_H-M   'P 1'
_cell_length_a   18.33475974
_cell_length_b   18.32733376
_cell_length_c   18.33718307
_cell_angle_alpha   90.00396450
_cell_angle_beta   90.00423720
_cell_angle_gamma   89.99553287
_symmetry_Int_Tables_number   1
_chemical_formula_structural   AgSbTe2
_chemical_formula_sum   'Ag54 Sb54 Te108'
_cell_volume   6161.79335385
_cell_formula_units_Z   54
loop_
 _symmetry_equiv_pos_site_id
 _symmetry_equiv_pos_as_xyz
  1  'x, y, z'
loop_
 _atom_site_type_symbol
 _atom_site_label
 _atom_site_symmetry_multiplicity
 _atom_site_fract_x
 _atom_site_fract_y
 _atom_site_fract_z
 _atom_site_occupancy
  Ag  Ag0  1  0.83309817  0.16554793  0.66145920  1
  Ag  Ag1  1  0.84203000  0.83248521  -0.00550098  1
  Ag  Ag2  1  0.83030546  0.82776490  0.67149216  1
  Ag  Ag3  1  0.49921506  0.66679958  0.82552727  1
  Ag  Ag4  1  0.32819697  -0.00814998  0.00191082  1
  Ag  Ag5  1  -0.00399497  0.33078962  -0.00053273  1
  Ag  Ag6  1  0.16177211  0.82378024  0.33254000  1
  Ag  Ag7  1  0.50314600  0.34009889  0.16960307  1
  Ag  Ag8  1  0.00585629  0.67007863  0.32752383  1
  Ag  Ag9  1  0.15665147  0.66880246  0.83434737  1
  Ag  Ag10  1  0.16300889  0.16571341  0.00543925  1
  Ag  Ag11  1  0.16637175  0.66646381  0.16935262  1
  Ag  Ag12  1  0.49868377  0.32791851  0.50224159  1
  Ag  Ag13  1  0.17102232  0.66593544  0.49277136  1
  Ag  Ag14  1  0.83433474  0.50561112  0.66581454  1
  Ag  Ag15  1  0.34036447  0.66174519  0.66111083  1
  Ag  Ag16  1  -0.00192669  0.82634437  0.16098130  1
  Ag  Ag17  1  -0.00407350  0.00555217  0.32958836  1
  Ag  Ag18  1  0.00031160  0.16801498  0.49645062  1
  Ag  Ag19  1  0.66844997  0.33420982  0.00392509  1
  Ag  Ag20  1  0.50392551  0.16919896  0.66139817  1
  Ag  Ag21  1  0.33848040  0.50609564  0.17129851  1
  Ag  Ag22  1  0.50533686  0.82229926  0.66869364  1
  Ag  Ag23  1  -0.00466479  0.66541561  0.67056144  1
  Ag  Ag24  1  0.82645777  0.00384834  0.49720209  1
  Ag  Ag25  1  0.49322020  0.66478489  0.50564132  1
  Ag  Ag26  1  -0.00629423  0.33207726  0.66826746  1
  Ag  Ag27  1  0.50183877  0.82991202  -0.00394947  1
  Ag  Ag28  1  0.83741964  0.16254761  0.34062121  1
  Ag  Ag29  1  0.65995571  0.50038716  0.49812564  1
  Ag  Ag30  1  -0.00293543  0.82453909  0.83851527  1
  Ag  Ag31  1  0.66521058  0.49860945  0.17188529  1
  Ag  Ag32  1  0.83657847  -0.00039963  0.17622210  1
  Ag  Ag33  1  0.83511897  0.33551606  0.82952482  1
  Ag  Ag34  1  0.50111770  0.16801853  0.34269648  1
  Ag  Ag35  1  0.32697187  0.66591210  0.33454387  1
  Ag  Ag36  1  0.67752106  0.00755884  0.33976635  1
  Ag  Ag37  1  0.34204532  0.17155259  0.49966254  1
  Ag  Ag38  1  -0.00061429  0.16749176  0.82905677  1
  Ag  Ag39  1  0.66665478  0.32743359  0.33204555  1
  Ag  Ag40  1  0.49196271  0.66218412  0.16783223  1
  Ag  Ag41  1  -0.00033482  -0.00667118  0.00602638  1
  Ag  Ag42  1  0.84088354  0.66610518  0.82739416  1
  Ag  Ag43  1  0.34299888  0.33891232  0.66307623  1
  Ag  Ag44  1  0.66814376  -0.00365347  0.65897066  1
  Ag  Ag45  1  -0.00489700  0.32269857  0.33359769  1
  Ag  Ag46  1  0.34003453  0.50394404  0.49848087  1
  Ag  Ag47  1  0.15448699  0.16460127  0.33287401  1
  Ag  Ag48  1  0.00460706  0.67353000  -0.00074090  1
  Ag  Ag49  1  -0.00138868  0.50636092  0.16799446  1
  Ag  Ag50  1  0.66295524  0.66953346  0.66601091  1
  Ag  Ag51  1  0.32956580  0.66882010  0.00305262  1
  Ag  Ag52  1  0.50564978  0.33454519  0.82658911  1
  Ag  Ag53  1  0.50484325  0.01059392  0.50061939  1
  Sb  Sb54  1  0.83423753  0.67012805  0.50587298  1
  Sb  Sb55  1  -0.00754668  0.00011208  0.66400842  1
  Sb  Sb56  1  0.33325979  0.17230487  0.17139906  1
  Sb  Sb57  1  0.67073405  0.00314723  0.00155757  1
  Sb  Sb58  1  0.50030720  0.49469169  0.33415789  1
  Sb  Sb59  1  0.16279896  0.33683806  0.83330234  1
  Sb  Sb60  1  0.00038635  0.16650332  0.16877271  1
  Sb  Sb61  1  0.16778823  -0.00123878  0.49748776  1
  Sb  Sb62  1  0.16162942  0.50267783  0.66497076  1
  Sb  Sb63  1  -0.00136644  0.83455638  0.49955548  1
  Sb  Sb64  1  0.66751079  0.33533946  0.66283284  1
  Sb  Sb65  1  -0.00075567  0.49811373  0.49768176  1
  Sb  Sb66  1  0.16316362  0.83194082  0.00388394  1
  Sb  Sb67  1  0.16061490  -0.00600921  0.16749258  1
  Sb  Sb68  1  0.50476041  0.50107007  0.66299119  1
  Sb  Sb69  1  0.16341854  0.16778124  0.66331917  1
  Sb  Sb70  1  0.50450221  -0.00113732  0.17080948  1
  Sb  Sb71  1  0.83467096  0.49569546  0.33733420  1
  Sb  Sb72  1  -0.00232731  0.50214832  0.83630308  1
  Sb  Sb73  1  0.33581211  0.50354160  0.82910709  1
  Sb  Sb74  1  0.32980852  0.82627197  0.16548978  1
  Sb  Sb75  1  0.84046115  0.16434093  -0.00155830  1
  Sb  Sb76  1  0.66548843  0.66529733  0.33735500  1
  Sb  Sb77  1  0.66630502  0.83271353  0.50176231  1
  Sb  Sb78  1  0.83153071  0.33076337  0.16442061  1
  Sb  Sb79  1  0.83606547  -0.00165040  0.82993337  1
  Sb  Sb80  1  0.16634083  0.50182160  0.33338332  1
  Sb  Sb81  1  0.67254369  0.16973468  0.83043385  1
  Sb  Sb82  1  0.33472875  0.82865823  0.50074113  1
  Sb  Sb83  1  0.83902299  0.83830538  0.33453973  1
  Sb  Sb84  1  0.34211985  -0.00108805  0.66656960  1
  Sb  Sb85  1  0.67082638  0.82808691  0.16632370  1
  Sb  Sb86  1  0.66648263  0.66215624  -0.00288679  1
  Sb  Sb87  1  0.32902608  0.16816544  0.82853187  1
  Sb  Sb88  1  0.67142250  0.83085753  0.83153201  1
  Sb  Sb89  1  0.33097592  -0.00123358  0.33008779  1
  Sb  Sb90  1  0.16958241  0.33602765  0.49878982  1
  Sb  Sb91  1  0.33527928  0.33700391  0.33826952  1
  Sb  Sb92  1  0.83440004  0.50280544  -0.00284710  1
  Sb  Sb93  1  0.16709542  0.33832641  0.16836715  1
  Sb  Sb94  1  0.66504041  0.16832206  0.49964857  1
  Sb  Sb95  1  0.50015818  0.50538469  0.00295794  1
  Sb  Sb96  1  0.66700607  0.17164157  0.17079882  1
  Sb  Sb97  1  0.33427912  0.33736205  -0.00342807  1
  Sb  Sb98  1  0.33019268  0.82852785  0.83392802  1
  Sb  Sb99  1  0.82996533  0.32810931  0.50318046  1
  Sb  Sb100  1  0.16442257  0.82731834  0.66335670  1
  Sb  Sb101  1  0.16510080  0.50138822  0.00184473  1
  Sb  Sb102  1  0.66734121  0.50008401  0.83043248  1
  Sb  Sb103  1  0.49569442  0.16484602  -0.00280866  1
  Sb  Sb104  1  0.83744763  0.66906771  0.16269307  1
  Sb  Sb105  1  0.49717137  0.83466620  0.33554345  1
  Sb  Sb106  1  0.16271387  -0.00394627  0.83571078  1
  Sb  Sb107  1  0.49997017  -0.00168569  0.82746682  1
  Te  Te108  1  0.16859358  0.16718336  0.16888171  1
  Te  Te109  1  0.16168089  0.16702797  0.49576475  1
  Te  Te110  1  0.16049302  0.16779725  0.83527766  1
  Te  Te111  1  0.16470675  0.50579857  0.16727297  1
  Te  Te112  1  0.17413892  0.50633247  0.49996930  1
  Te  Te113  1  0.16831985  0.50963599  0.83427209  1
  Te  Te114  1  0.16023716  0.82743595  0.17159944  1
  Te  Te115  1  0.16655361  0.82795641  0.49415059  1
  Te  Te116  1  0.15910819  0.82786782  0.83273180  1
  Te  Te117  1  0.49902114  0.17018025  0.16814781  1
  Te  Te118  1  0.50075430  0.16861708  0.50248878  1
  Te  Te119  1  0.49873537  0.17022649  0.82803420  1
  Te  Te120  1  0.49996229  0.50081752  0.16795381  1
  Te  Te121  1  0.49985565  0.50314873  0.49953103  1
  Te  Te122  1  0.50132148  0.49633042  0.83455659  1
  Te  Te123  1  0.50167817  0.82954656  0.16425146  1
  Te  Te124  1  0.49999210  0.82778099  0.50417930  1
  Te  Te125  1  0.49953728  0.83090845  0.83151925  1
  Te  Te126  1  0.83312653  0.16092704  0.17046460  1
  Te  Te127  1  0.83707967  0.16451080  0.50019872  1
  Te  Te128  1  0.83916319  0.17067292  0.83087494  1
  Te  Te129  1  0.83422264  0.49998333  0.16783193  1
  Te  Te130  1  0.83022581  0.49942291  0.50530474  1
  Te  Te131  1  0.83233892  0.50013749  0.82778518  1
  Te  Te132  1  0.83752747  0.83681655  0.16214804  1
  Te  Te133  1  0.83308807  0.84183968  0.50848440  1
  Te  Te134  1  0.83714238  0.83149446  0.83270409  1
  Te  Te135  1  0.16428678  0.00332781  0.00158333  1
  Te  Te136  1  0.16253696  0.00448325  0.33291105  1
  Te  Te137  1  0.16998005  -0.00278202  0.66669929  1
  Te  Te138  1  0.16226923  0.32850963  0.00000519  1
  Te  Te139  1  0.15984772  0.32522324  0.33331615  1
  Te  Te140  1  0.16063122  0.33418363  0.66749179  1
  Te  Te141  1  0.16558696  0.66734186  0.00072359  1
  Te  Te142  1  0.16579032  0.66465357  0.33174674  1
  Te  Te143  1  0.16465940  0.66729488  0.66989688  1
  Te  Te144  1  0.50097349  -0.00443885  0.00010057  1
  Te  Te145  1  0.49939157  0.00334701  0.33791510  1
  Te  Te146  1  0.50514494  0.00349031  0.66228139  1
  Te  Te147  1  0.50079452  0.33170132  0.00066859  1
  Te  Te148  1  0.50037838  0.32842047  0.33411590  1
  Te  Te149  1  0.50191136  0.33329019  0.66583912  1
  Te  Te150  1  0.50135193  0.67028315  0.00154969  1
  Te  Te151  1  0.49867016  0.66912778  0.33251015  1
  Te  Te152  1  0.50023255  0.66447272  0.66568268  1
  Te  Te153  1  0.83645421  -0.00404672  0.00034993  1
  Te  Te154  1  0.83531213  0.00057550  0.33582941  1
  Te  Te155  1  0.82940393  0.00386446  0.66330925  1
  Te  Te156  1  0.83515114  0.33270085  -0.00451302  1
  Te  Te157  1  0.83408138  0.32811643  0.33302149  1
  Te  Te158  1  0.83349660  0.32737838  0.66909035  1
  Te  Te159  1  0.83507619  0.67064130  -0.00620277  1
  Te  Te160  1  0.83720088  0.66852859  0.33559737  1
  Te  Te161  1  0.83580296  0.66845565  0.66741842  1
  Te  Te162  1  0.00254508  0.16930488  0.00025564  1
  Te  Te163  1  -0.00291142  0.16592108  0.33295900  1
  Te  Te164  1  -0.00171363  0.16746393  0.66703710  1
  Te  Te165  1  -0.00103203  0.49754656  0.00630188  1
  Te  Te166  1  -0.00064473  0.50259744  0.32969850  1
  Te  Te167  1  -0.00546380  0.49817808  0.66539883  1
  Te  Te168  1  0.00118367  0.83343429  -0.00030978  1
  Te  Te169  1  0.00209971  0.83071427  0.33264621  1
  Te  Te170  1  -0.00310688  0.83160841  0.67010422  1
  Te  Te171  1  0.32685736  0.16709385  -0.00058624  1
  Te  Te172  1  0.33866365  0.16734155  0.33857281  1
  Te  Te173  1  0.33440366  0.16805269  0.66149068  1
  Te  Te174  1  0.33239228  0.50657506  0.00633526  1
  Te  Te175  1  0.33278271  0.50489373  0.33367166  1
  Te  Te176  1  0.33185640  0.50052589  0.66216290  1
  Te  Te177  1  0.33629956  0.83106284  -0.00001353  1
  Te  Te178  1  0.32657299  0.82839711  0.33282924  1
  Te  Te179  1  0.33907397  0.82875497  0.66770682  1
  Te  Te180  1  0.66670844  0.17286472  -0.00043192  1
  Te  Te181  1  0.66592844  0.16708758  0.33366762  1
  Te  Te182  1  0.66742693  0.16457761  0.66663536  1
  Te  Te183  1  0.66761892  0.49355823  0.00758255  1
  Te  Te184  1  0.66858237  0.49631491  0.33429399  1
  Te  Te185  1  0.67399263  0.50337495  0.66314162  1
  Te  Te186  1  0.66434842  0.83466431  -0.00059010  1
  Te  Te187  1  0.66731085  0.84073858  0.33256651  1
  Te  Te188  1  0.66640450  0.83152325  0.66718715  1
  Te  Te189  1  -0.00304372  -0.00124823  0.16692115  1
  Te  Te190  1  0.00018708  0.00410974  0.49591926  1
  Te  Te191  1  -0.00023183  0.00456275  0.83815484  1
  Te  Te192  1  -0.00027185  0.33783261  0.16673749  1
  Te  Te193  1  0.00002781  0.33115865  0.50023876  1
  Te  Te194  1  -0.00178405  0.33425980  0.83207404  1
  Te  Te195  1  -0.00110591  0.66723988  0.16561564  1
  Te  Te196  1  0.00280877  0.66526070  0.50249796  1
  Te  Te197  1  -0.00224371  0.66498760  0.83338206  1
  Te  Te198  1  0.33437519  0.00014596  0.16078169  1
  Te  Te199  1  0.33751201  0.00611238  0.49921667  1
  Te  Te200  1  0.33169645  -0.00016336  0.84298544  1
  Te  Te201  1  0.33824072  0.34123076  0.16658041  1
  Te  Te202  1  0.33660671  0.33450195  0.50328804  1
  Te  Te203  1  0.33521323  0.33528076  0.82602368  1
  Te  Te204  1  0.33315622  0.66553069  0.16568316  1
  Te  Te205  1  0.33274520  0.66603153  0.50046500  1
  Te  Te206  1  0.34115447  0.66598290  0.83508256  1
  Te  Te207  1  0.67307063  -0.00101957  0.17064759  1
  Te  Te208  1  0.66504203  -0.00063273  0.49924541  1
  Te  Te209  1  0.66663656  0.00164621  0.82794440  1
  Te  Te210  1  0.66476291  0.33730345  0.16974190  1
  Te  Te211  1  0.66165564  0.33884283  0.49556944  1
  Te  Te212  1  0.66618253  0.33453948  0.83705620  1
  Te  Te213  1  0.66388081  0.66007825  0.16764601  1
  Te  Te214  1  0.66399096  0.66231073  0.50308810  1
  Te  Te215  1  0.66124496  0.66493630  0.82877605  1
