# generated using pymatgen
data_AgSbTe2
_symmetry_space_group_name_H-M   'P 1'
_cell_length_a   18.33936650
_cell_length_b   18.33360057
_cell_length_c   18.33036226
_cell_angle_alpha   89.99835196
_cell_angle_beta   89.99865192
_cell_angle_gamma   90.00138227
_symmetry_Int_Tables_number   1
_chemical_formula_structural   AgSbTe2
_chemical_formula_sum   'Ag54 Sb54 Te108'
_cell_volume   6163.15573959
_cell_formula_units_Z   54
loop_
 _symmetry_equiv_pos_site_id
 _symmetry_equiv_pos_as_xyz
  1  'x, y, z'
loop_
 _atom_site_type_symbol
 _atom_site_label
 _atom_site_symmetry_multiplicity
 _atom_site_fract_x
 _atom_site_fract_y
 _atom_site_fract_z
 _atom_site_occupancy
  Ag  Ag0  1  0.00301378  0.16793959  0.82434062  1
  Ag  Ag1  1  0.00579939  0.00332863  0.34469919  1
  Ag  Ag2  1  0.66369850  0.33854344  0.33735801  1
  Ag  Ag3  1  0.33653908  -0.00064644  0.00888481  1
  Ag  Ag4  1  -0.00121291  0.49926894  0.49877775  1
  Ag  Ag5  1  0.82520492  0.50102104  0.33749011  1
  Ag  Ag6  1  0.00006205  0.00482807  0.66113274  1
  Ag  Ag7  1  0.50382575  0.49770215  0.34201369  1
  Ag  Ag8  1  0.84321794  0.16383947  0.66569059  1
  Ag  Ag9  1  0.66652855  0.49727416  0.82584464  1
  Ag  Ag10  1  0.66025529  0.16532295  0.50213809  1
  Ag  Ag11  1  0.16284799  0.16395675  0.66006553  1
  Ag  Ag12  1  0.16653350  0.66434384  0.83257521  1
  Ag  Ag13  1  0.83918114  0.33141807  0.82925027  1
  Ag  Ag14  1  0.66756811  -0.00126820  0.66360509  1
  Ag  Ag15  1  0.65874583  0.66570862  0.66159400  1
  Ag  Ag16  1  0.17168215  0.66057266  0.16443879  1
  Ag  Ag17  1  0.50357254  0.65650476  0.50501661  1
  Ag  Ag18  1  0.66578298  0.82854663  0.50233341  1
  Ag  Ag19  1  0.16432921  0.00756753  0.82793505  1
  Ag  Ag20  1  0.17381342  0.32743666  0.16509283  1
  Ag  Ag21  1  0.33061092  0.16465009  0.49738718  1
  Ag  Ag22  1  0.00418690  0.49739776  0.17248646  1
  Ag  Ag23  1  0.00732053  0.16086022  0.50554441  1
  Ag  Ag24  1  0.16618602  0.16325249  0.33603323  1
  Ag  Ag25  1  0.00984742  0.16771506  0.17240983  1
  Ag  Ag26  1  0.33996718  0.49319761  0.17381444  1
  Ag  Ag27  1  0.33394537  0.83533251  0.83107153  1
  Ag  Ag28  1  0.65692951  0.50174483  0.49909635  1
  Ag  Ag29  1  0.49490479  0.65561109  0.17118700  1
  Ag  Ag30  1  0.34388822  0.49400742  0.49792648  1
  Ag  Ag31  1  0.83418516  0.83115874  0.34004993  1
  Ag  Ag32  1  0.49916678  0.34414254  0.49962720  1
  Ag  Ag33  1  0.49768398  0.00014574  0.49868112  1
  Ag  Ag34  1  -0.00081613  0.49181497  0.82759096  1
  Ag  Ag35  1  0.65744053  -0.00117487  -0.00619964  1
  Ag  Ag36  1  0.65361768  0.49871473  0.18107682  1
  Ag  Ag37  1  0.16504854  0.00536015  0.49760612  1
  Ag  Ag38  1  0.50044862  0.82853642  0.66473689  1
  Ag  Ag39  1  0.33544503  0.33641577  0.66445136  1
  Ag  Ag40  1  0.33911427  0.66079352  0.66491416  1
  Ag  Ag41  1  0.00190419  0.66499557  0.00034115  1
  Ag  Ag42  1  0.17302227  0.01200453  0.17600504  1
  Ag  Ag43  1  0.16534553  0.33045350  0.83268082  1
  Ag  Ag44  1  0.32783808  0.16495576  0.17457152  1
  Ag  Ag45  1  0.49781542  0.33653767  0.82226000  1
  Ag  Ag46  1  -0.00531819  0.84528483  0.49952632  1
  Ag  Ag47  1  0.83965447  0.00458121  0.82842190  1
  Ag  Ag48  1  0.50035759  0.50489557  0.65550411  1
  Ag  Ag49  1  0.32891550  0.00347038  0.33112983  1
  Ag  Ag50  1  0.49323175  0.34086390  0.17276628  1
  Ag  Ag51  1  0.82209360  0.66429045  0.50055987  1
  Ag  Ag52  1  0.49118417  0.00117883  0.17397626  1
  Ag  Ag53  1  0.49907082  0.83610027  -0.00453177  1
  Sb  Sb54  1  0.66577624  0.65990225  0.34173081  1
  Sb  Sb55  1  0.16382124  0.84130499  0.33402657  1
  Sb  Sb56  1  0.16703829  0.16449187  0.00208883  1
  Sb  Sb57  1  0.83874246  0.16705770  0.34076787  1
  Sb  Sb58  1  0.83466272  0.16521213  -0.00695487  1
  Sb  Sb59  1  0.83409698  0.50076225  0.00185454  1
  Sb  Sb60  1  0.00405657  -0.00278766  -0.00195402  1
  Sb  Sb61  1  -0.00165851  0.33068670  0.33392156  1
  Sb  Sb62  1  0.00415065  0.83619278  0.82793759  1
  Sb  Sb63  1  0.16955586  0.66950548  0.50029136  1
  Sb  Sb64  1  0.49832258  0.00281230  0.82982395  1
  Sb  Sb65  1  0.33465108  0.32881506  0.00054061  1
  Sb  Sb66  1  0.17215950  0.32663011  0.49992640  1
  Sb  Sb67  1  0.33477748  0.66947041  0.33586544  1
  Sb  Sb68  1  0.50032351  0.50427231  0.00188465  1
  Sb  Sb69  1  0.83383156  0.33472599  0.16528612  1
  Sb  Sb70  1  0.00449892  0.32762956  0.66686192  1
  Sb  Sb71  1  0.33318029  0.00264310  0.66367161  1
  Sb  Sb72  1  0.16912266  0.49383862  0.33141190  1
  Sb  Sb73  1  0.82910940  0.83511717  0.00314609  1
  Sb  Sb74  1  0.82842704  0.83804186  0.66093860  1
  Sb  Sb75  1  0.49484979  0.17052898  0.33622578  1
  Sb  Sb76  1  0.66224892  0.82875623  0.17326050  1
  Sb  Sb77  1  0.66610036  0.66923060  -0.00467872  1
  Sb  Sb78  1  0.66257295  0.83211992  0.82610561  1
  Sb  Sb79  1  0.66062834  0.33424130  0.66210119  1
  Sb  Sb80  1  0.16638463  0.50165370  0.00134206  1
  Sb  Sb81  1  0.66358868  0.33080253  0.00063396  1
  Sb  Sb82  1  0.17109687  0.83431913  -0.00126972  1
  Sb  Sb83  1  0.33723304  0.32925183  0.33540938  1
  Sb  Sb84  1  0.50405601  0.83124914  0.33872370  1
  Sb  Sb85  1  0.33238738  0.50076710  0.83077279  1
  Sb  Sb86  1  0.00092829  0.66761627  0.33239168  1
  Sb  Sb87  1  0.82820533  0.33652584  0.50398709  1
  Sb  Sb88  1  0.49602875  0.66346338  0.82774392  1
  Sb  Sb89  1  0.83462109  0.00224690  0.16504161  1
  Sb  Sb90  1  0.49933815  0.16082685  0.00143628  1
  Sb  Sb91  1  0.17068571  0.49525285  0.66566511  1
  Sb  Sb92  1  0.66580940  0.00431393  0.33929818  1
  Sb  Sb93  1  0.66358257  0.17023294  0.17343004  1
  Sb  Sb94  1  0.83151314  0.66284168  0.17341188  1
  Sb  Sb95  1  0.32687741  0.16459794  0.83000640  1
  Sb  Sb96  1  0.33761210  0.83596244  0.50450092  1
  Sb  Sb97  1  0.49751161  0.16842032  0.66247838  1
  Sb  Sb98  1  0.17151780  0.83864919  0.66640734  1
  Sb  Sb99  1  0.00122898  0.33673786  -0.00154910  1
  Sb  Sb100  1  0.82864827  0.49553550  0.66176999  1
  Sb  Sb101  1  0.83465238  -0.00174325  0.50395692  1
  Sb  Sb102  1  0.83720390  0.66533293  0.82601576  1
  Sb  Sb103  1  0.33442685  0.83644920  0.16407629  1
  Sb  Sb104  1  0.67066767  0.16938450  0.82579115  1
  Sb  Sb105  1  0.00188250  0.83448423  0.17179616  1
  Sb  Sb106  1  0.33231002  0.67044136  -0.00128641  1
  Sb  Sb107  1  0.00234297  0.66943000  0.66620742  1
  Te  Te108  1  0.16726222  0.16719796  0.16639868  1
  Te  Te109  1  0.16764507  0.16534893  0.49985024  1
  Te  Te110  1  0.16387777  0.16744756  0.83274592  1
  Te  Te111  1  0.16381051  0.50052732  0.16753399  1
  Te  Te112  1  0.16071899  0.49960222  0.49865867  1
  Te  Te113  1  0.16386229  0.49846654  0.83272046  1
  Te  Te114  1  0.16642918  0.82676741  0.16639056  1
  Te  Te115  1  0.16153217  0.83887463  0.49986751  1
  Te  Te116  1  0.17129596  0.83138831  0.83292251  1
  Te  Te117  1  0.49759212  0.16180997  0.16889873  1
  Te  Te118  1  0.49850385  0.15924740  0.49980977  1
  Te  Te119  1  0.49912107  0.17585234  0.83279374  1
  Te  Te120  1  0.49918918  0.49901747  0.16460725  1
  Te  Te121  1  0.49953889  0.50066664  0.49957412  1
  Te  Te122  1  0.50066846  0.49607687  0.83468674  1
  Te  Te123  1  0.50055734  0.84098998  0.16748213  1
  Te  Te124  1  0.50338302  0.83828047  0.50347581  1
  Te  Te125  1  0.49636237  0.83336781  0.83013877  1
  Te  Te126  1  0.83857583  0.16872691  0.16689394  1
  Te  Te127  1  0.83660700  0.16904964  0.50475089  1
  Te  Te128  1  0.83738555  0.16612120  0.82758879  1
  Te  Te129  1  0.83936067  0.49949719  0.17263730  1
  Te  Te130  1  0.83734424  0.50189770  0.49758408  1
  Te  Te131  1  0.83590032  0.49786614  0.83257738  1
  Te  Te132  1  0.83216736  0.83237890  0.17587510  1
  Te  Te133  1  0.83302781  0.82932948  0.49842594  1
  Te  Te134  1  0.83284052  0.83894390  0.83382384  1
  Te  Te135  1  0.17150101  -0.00251085  -0.00240853  1
  Te  Te136  1  0.16572992  0.00322289  0.33417324  1
  Te  Te137  1  0.16598405  0.00323866  0.66672481  1
  Te  Te138  1  0.16779802  0.33374667  -0.00070145  1
  Te  Te139  1  0.16591780  0.32600282  0.32628981  1
  Te  Te140  1  0.17243287  0.32803856  0.66973373  1
  Te  Te141  1  0.16430243  0.66836463  0.00003540  1
  Te  Te142  1  0.16807574  0.66744133  0.32650762  1
  Te  Te143  1  0.17125659  0.66689494  0.66978136  1
  Te  Te144  1  0.49833655  -0.00395719  -0.00299213  1
  Te  Te145  1  0.49870887  -0.00075736  0.33423034  1
  Te  Te146  1  0.50216249  -0.00174792  0.66352620  1
  Te  Te147  1  0.50007443  0.33271341  0.00658597  1
  Te  Te148  1  0.50282900  0.33629716  0.33367969  1
  Te  Te149  1  0.49614460  0.33507416  0.66303384  1
  Te  Te150  1  0.50047675  0.67500948  0.00449612  1
  Te  Te151  1  0.49938119  0.66309180  0.33113212  1
  Te  Te152  1  0.49966650  0.66493180  0.66614168  1
  Te  Te153  1  0.82876295  -0.00158930  -0.00679614  1
  Te  Te154  1  0.83884817  -0.00127106  0.33159107  1
  Te  Te155  1  0.83324275  0.00302773  0.66984521  1
  Te  Te156  1  0.83162428  0.33300428  -0.01222028  1
  Te  Te157  1  0.82690970  0.33929936  0.33289321  1
  Te  Te158  1  0.83196338  0.32708488  0.67165400  1
  Te  Te159  1  0.83803923  0.66910710  -0.00103961  1
  Te  Te160  1  0.83396679  0.66526980  0.34047952  1
  Te  Te161  1  0.83069909  0.66700640  0.65977307  1
  Te  Te162  1  -0.00096905  0.16652305  0.00190565  1
  Te  Te163  1  0.00296835  0.16415242  0.33362807  1
  Te  Te164  1  0.00244015  0.16491688  0.66595009  1
  Te  Te165  1  -0.00095130  0.50465643  -0.00106195  1
  Te  Te166  1  0.00006706  0.49917090  0.33292701  1
  Te  Te167  1  -0.00047315  0.50016011  0.66915700  1
  Te  Te168  1  -0.00252692  0.82761194  -0.00059099  1
  Te  Te169  1  -0.00401057  0.83814443  0.33897036  1
  Te  Te170  1  -0.00038161  0.83963254  0.66026959  1
  Te  Te171  1  0.33432914  0.15984822  0.00696534  1
  Te  Te172  1  0.32933416  0.16312743  0.33507709  1
  Te  Te173  1  0.32877302  0.17096320  0.66213553  1
  Te  Te174  1  0.33358861  0.50057247  0.01064464  1
  Te  Te175  1  0.33696622  0.50127927  0.33476120  1
  Te  Te176  1  0.33711715  0.49905146  0.66487277  1
  Te  Te177  1  0.33870935  0.83766593  -0.00537546  1
  Te  Te178  1  0.33458909  0.84210017  0.33562439  1
  Te  Te179  1  0.33853657  0.82896787  0.66993149  1
  Te  Te180  1  0.66741929  0.15797619  0.00141430  1
  Te  Te181  1  0.67010244  0.17279513  0.34108353  1
  Te  Te182  1  0.66642486  0.16282950  0.66121533  1
  Te  Te183  1  0.66829704  0.50002204  -0.00653898  1
  Te  Te184  1  0.66541389  0.49886831  0.33660204  1
  Te  Te185  1  0.66370048  0.50044037  0.66479750  1
  Te  Te186  1  0.66155245  0.83775658  -0.00001880  1
  Te  Te187  1  0.67220138  0.83600984  0.34124148  1
  Te  Te188  1  0.66227362  0.83394843  0.66190635  1
  Te  Te189  1  0.00382498  0.00277055  0.16498573  1
  Te  Te190  1  -0.00112481  0.00290579  0.50170348  1
  Te  Te191  1  0.00281627  0.00227408  0.83288058  1
  Te  Te192  1  0.00165868  0.33381736  0.16583432  1
  Te  Te193  1  0.00009676  0.33671183  0.50028623  1
  Te  Te194  1  0.00288061  0.33205943  0.83284159  1
  Te  Te195  1  -0.00024331  0.66414807  0.16423494  1
  Te  Te196  1  0.00306694  0.66012794  0.50047143  1
  Te  Te197  1  0.00430819  0.66695733  0.83424152  1
  Te  Te198  1  0.33171778  -0.00031589  0.16785790  1
  Te  Te199  1  0.33239997  0.00189647  0.49839287  1
  Te  Te200  1  0.32914435  -0.00189489  0.83243771  1
  Te  Te201  1  0.33355136  0.33233916  0.16689233  1
  Te  Te202  1  0.33690611  0.33411558  0.50153330  1
  Te  Te203  1  0.33253436  0.33325431  0.83237348  1
  Te  Te204  1  0.33390612  0.66625985  0.16677368  1
  Te  Te205  1  0.33728454  0.66478093  0.50339714  1
  Te  Te206  1  0.32814659  0.66854253  0.83061331  1
  Te  Te207  1  0.66496795  0.00076056  0.16669517  1
  Te  Te208  1  0.66692616  0.00340449  0.50239502  1
  Te  Te209  1  0.66666536  0.00072630  0.82957808  1
  Te  Te210  1  0.66387758  0.33793523  0.16877190  1
  Te  Te211  1  0.66156404  0.33562142  0.49853529  1
  Te  Te212  1  0.66208269  0.33652813  0.83309514  1
  Te  Te213  1  0.66253705  0.65989008  0.16375349  1
  Te  Te214  1  0.66321630  0.66449775  0.50301920  1
  Te  Te215  1  0.66778661  0.66117256  0.82679658  1
