# generated using pymatgen
data_AgSbTe2
_symmetry_space_group_name_H-M   'P 1'
_cell_length_a   18.33091149
_cell_length_b   18.34252128
_cell_length_c   18.33083653
_cell_angle_alpha   90.00094371
_cell_angle_beta   90.00795997
_cell_angle_gamma   89.99781815
_symmetry_Int_Tables_number   1
_chemical_formula_structural   AgSbTe2
_chemical_formula_sum   'Ag54 Sb54 Te108'
_cell_volume   6163.47121326
_cell_formula_units_Z   54
loop_
 _symmetry_equiv_pos_site_id
 _symmetry_equiv_pos_as_xyz
  1  'x, y, z'
loop_
 _atom_site_type_symbol
 _atom_site_label
 _atom_site_symmetry_multiplicity
 _atom_site_fract_x
 _atom_site_fract_y
 _atom_site_fract_z
 _atom_site_occupancy
  Ag  Ag0  1  0.00256326  0.50351108  0.16752540  1
  Ag  Ag1  1  0.65662195  0.15575050  0.16999050  1
  Ag  Ag2  1  0.33581849  0.50661102  0.51209507  1
  Ag  Ag3  1  0.49304094  0.83237031  -0.00280089  1
  Ag  Ag4  1  0.49243579  0.66762546  0.82692809  1
  Ag  Ag5  1  0.16669585  0.16517131  0.33929289  1
  Ag  Ag6  1  0.17653192  0.32435469  0.82589111  1
  Ag  Ag7  1  0.16724304  0.49521951  0.33246990  1
  Ag  Ag8  1  0.17229332  0.83522653  -0.00344259  1
  Ag  Ag9  1  0.16731616  0.32853011  0.50738259  1
  Ag  Ag10  1  0.16571257  0.00194236  0.50233671  1
  Ag  Ag11  1  0.66245120  0.50933678  0.49863514  1
  Ag  Ag12  1  0.33001552  0.18006801  0.83210259  1
  Ag  Ag13  1  0.49058106  0.33399307  0.83247932  1
  Ag  Ag14  1  0.33462331  0.49580026  0.16550197  1
  Ag  Ag15  1  0.83074555  0.50865304  0.66539753  1
  Ag  Ag16  1  0.84298774  0.15939475  0.66680510  1
  Ag  Ag17  1  0.33693226  0.65932884  0.67258662  1
  Ag  Ag18  1  0.33582074  0.66498977  -0.01084597  1
  Ag  Ag19  1  0.82989712  0.83127421  0.34206947  1
  Ag  Ag20  1  0.00872034  0.83366488  0.83345828  1
  Ag  Ag21  1  0.17054817  -0.00218810  0.17083431  1
  Ag  Ag22  1  0.33367165  0.33968141  -0.01475500  1
  Ag  Ag23  1  0.50372768  0.66646454  0.50606433  1
  Ag  Ag24  1  0.16311494  0.83771210  0.33179896  1
  Ag  Ag25  1  0.00799265  0.32830198  0.66875199  1
  Ag  Ag26  1  0.66765555  -0.01085284  0.33838480  1
  Ag  Ag27  1  0.33671321  0.17204945  0.16144766  1
  Ag  Ag28  1  0.49194245  0.16939114  0.67127398  1
  Ag  Ag29  1  0.67150137  0.00005557  0.66122370  1
  Ag  Ag30  1  -0.00055766  0.83141246  0.16579964  1
  Ag  Ag31  1  0.66376410  0.50506447  0.17436974  1
  Ag  Ag32  1  0.01119982  0.49909735  0.82948949  1
  Ag  Ag33  1  0.33043222  0.83000609  0.83022867  1
  Ag  Ag34  1  -0.00154157  0.00763201  0.66809058  1
  Ag  Ag35  1  0.49540199  0.33162694  0.16299381  1
  Ag  Ag36  1  0.83346892  0.83242973  0.65967897  1
  Ag  Ag37  1  0.83243924  -0.00938302  0.50451486  1
  Ag  Ag38  1  0.49333650  0.49946678  0.66763144  1
  Ag  Ag39  1  0.33498202  0.82623653  0.50691044  1
  Ag  Ag40  1  0.67096357  0.82860670  0.49511826  1
  Ag  Ag41  1  0.32864604  0.33697322  0.67283272  1
  Ag  Ag42  1  0.01330845  0.16608581  0.82652072  1
  Ag  Ag43  1  0.66919199  0.67282940  0.33656795  1
  Ag  Ag44  1  0.82985251  0.66870029  0.17029740  1
  Ag  Ag45  1  0.17210686  0.00403607  0.82528513  1
  Ag  Ag46  1  0.49768121  0.00218972  0.16303650  1
  Ag  Ag47  1  0.00545315  0.33481596  0.33848772  1
  Ag  Ag48  1  0.33083919  0.49251201  0.82791458  1
  Ag  Ag49  1  0.66995655  0.83305767  0.17496996  1
  Ag  Ag50  1  0.82510094  0.67355773  0.50334093  1
  Ag  Ag51  1  0.83041245  0.66796488  0.82355241  1
  Ag  Ag52  1  0.49195843  -0.00235134  0.83124633  1
  Ag  Ag53  1  0.16632468  0.16882604  0.67030514  1
  Sb  Sb54  1  0.66341804  -0.00220603  0.00243145  1
  Sb  Sb55  1  0.00026629  0.66609170  0.66887106  1
  Sb  Sb56  1  0.83784399  0.33437803  0.50285258  1
  Sb  Sb57  1  0.83647378  0.50651393  0.33779569  1
  Sb  Sb58  1  0.83695586  -0.00557459  0.82320094  1
  Sb  Sb59  1  0.33712999  0.66655981  0.33501155  1
  Sb  Sb60  1  0.00307429  0.49939592  0.50244664  1
  Sb  Sb61  1  0.49601666  0.16315548  -0.00324479  1
  Sb  Sb62  1  0.83261469  -0.00750120  0.17415837  1
  Sb  Sb63  1  0.16516940  0.67072364  0.16804879  1
  Sb  Sb64  1  0.66173711  0.50221974  0.82906310  1
  Sb  Sb65  1  0.16379055  0.84030142  0.66682993  1
  Sb  Sb66  1  0.50257048  0.83362588  0.33110138  1
  Sb  Sb67  1  -0.00447014  0.66643141  0.33214657  1
  Sb  Sb68  1  0.32703872  0.33433434  0.33645383  1
  Sb  Sb69  1  0.83360342  0.83130094  -0.00040449  1
  Sb  Sb70  1  0.33257110  0.83312658  0.16448702  1
  Sb  Sb71  1  0.00544079  0.66779824  -0.00140067  1
  Sb  Sb72  1  0.83317196  0.50318677  -0.00415070  1
  Sb  Sb73  1  0.00112945  0.00148695  0.33828071  1
  Sb  Sb74  1  0.17087993  0.16211168  -0.00462456  1
  Sb  Sb75  1  0.00970275  0.33503927  -0.00544919  1
  Sb  Sb76  1  0.66561030  0.16290689  0.49768473  1
  Sb  Sb77  1  0.83797327  0.16078492  0.33766378  1
  Sb  Sb78  1  0.00449361  0.16560915  0.16310050  1
  Sb  Sb79  1  0.82985145  0.33922126  0.16799896  1
  Sb  Sb80  1  0.00358241  -0.00204156  -0.00718459  1
  Sb  Sb81  1  0.49919858  -0.00500445  0.50270487  1
  Sb  Sb82  1  0.49620458  0.49968884  0.33610802  1
  Sb  Sb83  1  0.66426846  0.33065820  0.66570060  1
  Sb  Sb84  1  0.66523986  0.83339284  0.83054803  1
  Sb  Sb85  1  0.50293936  0.66684157  0.16630691  1
  Sb  Sb86  1  0.49654622  0.50408926  -0.00450341  1
  Sb  Sb87  1  0.50106966  0.83245212  0.66975476  1
  Sb  Sb88  1  0.66450009  0.67023510  0.66025801  1
  Sb  Sb89  1  0.49292576  0.33950398  0.50448015  1
  Sb  Sb90  1  0.33236174  0.00146016  0.66970603  1
  Sb  Sb91  1  0.67136255  0.33470417  0.33341092  1
  Sb  Sb92  1  0.16963672  0.49319692  0.66431138  1
  Sb  Sb93  1  0.49530137  0.16600172  0.33358048  1
  Sb  Sb94  1  0.17082316  0.50416770  0.00232886  1
  Sb  Sb95  1  0.17219857  0.33030270  0.16600495  1
  Sb  Sb96  1  0.83685805  0.33719352  0.82789135  1
  Sb  Sb97  1  0.66159295  0.66797942  0.00366168  1
  Sb  Sb98  1  0.16904002  0.66784827  0.49989962  1
  Sb  Sb99  1  0.00277756  0.16605348  0.50832967  1
  Sb  Sb100  1  -0.00186625  0.83416504  0.50103219  1
  Sb  Sb101  1  0.33058864  0.16697986  0.50453325  1
  Sb  Sb102  1  0.65647235  0.33427845  0.00149532  1
  Sb  Sb103  1  0.17196974  0.66842987  0.83257465  1
  Sb  Sb104  1  0.66168963  0.16405553  0.83284805  1
  Sb  Sb105  1  0.33271565  -0.00295749  -0.00270087  1
  Sb  Sb106  1  0.83261326  0.16666850  -0.00549247  1
  Sb  Sb107  1  0.33309438  -0.00120663  0.33293676  1
  Te  Te108  1  0.16888012  0.16034262  0.16459368  1
  Te  Te109  1  0.16834414  0.16522668  0.49925213  1
  Te  Te110  1  0.17044613  0.16423955  0.83292819  1
  Te  Te111  1  0.16505767  0.49939475  0.16953860  1
  Te  Te112  1  0.17030731  0.50021022  0.49433961  1
  Te  Te113  1  0.16934448  0.49913153  0.83476529  1
  Te  Te114  1  0.16508017  0.83669961  0.17052085  1
  Te  Te115  1  0.16786704  0.83559200  0.49744339  1
  Te  Te116  1  0.16726740  0.83489031  0.83286925  1
  Te  Te117  1  0.49785496  0.16428817  0.16691128  1
  Te  Te118  1  0.49825439  0.16774475  0.50704648  1
  Te  Te119  1  0.49641104  0.16373224  0.83131074  1
  Te  Te120  1  0.49859322  0.49893003  0.16679452  1
  Te  Te121  1  0.49736411  0.50314784  0.50354179  1
  Te  Te122  1  0.49697175  0.50265926  0.82909498  1
  Te  Te123  1  0.50119375  0.83597670  0.16400514  1
  Te  Te124  1  0.49743041  0.82930288  0.50012332  1
  Te  Te125  1  0.49909390  0.83299131  0.83521838  1
  Te  Te126  1  0.83262615  0.16661736  0.16631550  1
  Te  Te127  1  0.83220049  0.16297357  0.50649846  1
  Te  Te128  1  0.83059657  0.16702991  0.82723661  1
  Te  Te129  1  0.83532820  0.50502479  0.16786745  1
  Te  Te130  1  0.83135872  0.50123355  0.50449531  1
  Te  Te131  1  0.83023179  0.50531798  0.82811179  1
  Te  Te132  1  0.83496530  0.82966931  0.16633386  1
  Te  Te133  1  0.83388295  0.83373043  0.49978729  1
  Te  Te134  1  0.83354654  0.82805335  0.83237960  1
  Te  Te135  1  0.16683029  -0.00633519  0.00320497  1
  Te  Te136  1  0.16621009  0.00008687  0.33467489  1
  Te  Te137  1  0.16475410  0.00530893  0.66631152  1
  Te  Te138  1  0.17450016  0.33349525  -0.00596059  1
  Te  Te139  1  0.16288004  0.33273556  0.33206944  1
  Te  Te140  1  0.16753978  0.33181460  0.66691211  1
  Te  Te141  1  0.17502027  0.67472217  0.00076067  1
  Te  Te142  1  0.16556135  0.66905697  0.33431547  1
  Te  Te143  1  0.17354159  0.66686154  0.66475767  1
  Te  Te144  1  0.49899816  -0.00573351  0.00012578  1
  Te  Te145  1  0.50643871  0.00134481  0.32934636  1
  Te  Te146  1  0.50175326  0.00234643  0.66922129  1
  Te  Te147  1  0.49203156  0.33385028  0.00017469  1
  Te  Te148  1  0.50150705  0.33150414  0.32640015  1
  Te  Te149  1  0.49734657  0.33395474  0.66893241  1
  Te  Te150  1  0.49496047  0.67134028  -0.00419399  1
  Te  Te151  1  0.50794729  0.66642265  0.33920797  1
  Te  Te152  1  0.49867842  0.66579627  0.66692105  1
  Te  Te153  1  0.83305287  0.00003367  -0.00137565  1
  Te  Te154  1  0.83070667  -0.00484311  0.34131468  1
  Te  Te155  1  0.83430462  -0.00122579  0.66389502  1
  Te  Te156  1  0.83250843  0.33386246  -0.00215289  1
  Te  Te157  1  0.84458162  0.33131378  0.33486026  1
  Te  Te158  1  0.83729346  0.33107218  0.66574232  1
  Te  Te159  1  0.83317153  0.66666117  0.00306459  1
  Te  Te160  1  0.82967821  0.67130163  0.33219397  1
  Te  Te161  1  0.83364788  0.66832826  0.66514972  1
  Te  Te162  1  -0.00081611  0.16732424  -0.01277255  1
  Te  Te163  1  0.00625934  0.17163266  0.33097549  1
  Te  Te164  1  0.00266258  0.16759808  0.67045532  1
  Te  Te165  1  0.00146922  0.50032058  0.00141088  1
  Te  Te166  1  0.00380843  0.49743016  0.33084694  1
  Te  Te167  1  -0.00193865  0.49813725  0.66959137  1
  Te  Te168  1  0.00475340  0.83289778  -0.00010770  1
  Te  Te169  1  0.00039338  0.83389148  0.32884339  1
  Te  Te170  1  -0.00399931  0.83370048  0.67139046  1
  Te  Te171  1  0.33373320  0.17394367  -0.00018831  1
  Te  Te172  1  0.32727012  0.16636020  0.32913557  1
  Te  Te173  1  0.33207696  0.16848346  0.67019100  1
  Te  Te174  1  0.33377150  0.50178456  0.00145163  1
  Te  Te175  1  0.32832623  0.50054947  0.32727133  1
  Te  Te176  1  0.33283804  0.49964511  0.66808798  1
  Te  Te177  1  0.33303555  0.83016549  -0.00094826  1
  Te  Te178  1  0.32794442  0.83280689  0.33740164  1
  Te  Te179  1  0.33255321  0.83084823  0.66666053  1
  Te  Te180  1  0.66621061  0.16707654  0.01212414  1
  Te  Te181  1  0.66830129  0.16584855  0.32927725  1
  Te  Te182  1  0.66641964  0.16237610  0.66559272  1
  Te  Te183  1  0.66597873  0.49981348  0.01228974  1
  Te  Te184  1  0.66768969  0.50163681  0.33506924  1
  Te  Te185  1  0.66851355  0.49812656  0.66227389  1
  Te  Te186  1  0.66334162  0.83309031  0.00710699  1
  Te  Te187  1  0.66696560  0.83277505  0.33474394  1
  Te  Te188  1  0.67082931  0.83885671  0.66279553  1
  Te  Te189  1  0.00219564  -0.00381781  0.16615497  1
  Te  Te190  1  0.00286856  -0.00052529  0.50604598  1
  Te  Te191  1  0.00313360  -0.00358432  0.82780441  1
  Te  Te192  1  -0.00005276  0.33614016  0.16276589  1
  Te  Te193  1  0.00669007  0.33339131  0.50214827  1
  Te  Te194  1  0.00259049  0.33755633  0.82975861  1
  Te  Te195  1  -0.00471384  0.66670070  0.16528678  1
  Te  Te196  1  -0.01015566  0.66596041  0.50053427  1
  Te  Te197  1  -0.00406881  0.66530782  0.83392053  1
  Te  Te198  1  0.33419936  0.00244642  0.16542798  1
  Te  Te199  1  0.32972539  -0.00510229  0.50056029  1
  Te  Te200  1  0.33190885  -0.00994469  0.83336901  1
  Te  Te201  1  0.33556567  0.33365794  0.17045926  1
  Te  Te202  1  0.32725074  0.33779993  0.50384950  1
  Te  Te203  1  0.33497207  0.33582599  0.83020258  1
  Te  Te204  1  0.33447387  0.66101795  0.16639972  1
  Te  Te205  1  0.33537941  0.66598938  0.50124960  1
  Te  Te206  1  0.33443232  0.67022774  0.83216890  1
  Te  Te207  1  0.66630967  -0.00268946  0.16904477  1
  Te  Te208  1  0.66578750  -0.00251769  0.49967898  1
  Te  Te209  1  0.66101455  -0.00042656  0.82962297  1
  Te  Te210  1  0.66122360  0.33883692  0.16788661  1
  Te  Te211  1  0.66535655  0.34093250  0.49898691  1
  Te  Te212  1  0.65712476  0.33324485  0.83483077  1
  Te  Te213  1  0.66779898  0.66776193  0.17027544  1
  Te  Te214  1  0.66620258  0.66801338  0.49916960  1
  Te  Te215  1  0.66805193  0.66646433  0.83528454  1
