# generated using pymatgen
data_AgSbTe2
_symmetry_space_group_name_H-M   'P 1'
_cell_length_a   18.36503629
_cell_length_b   18.35899070
_cell_length_c   18.35352537
_cell_angle_alpha   90.00336761
_cell_angle_beta   90.00132931
_cell_angle_gamma   89.99950583
_symmetry_Int_Tables_number   1
_chemical_formula_structural   AgSbTe2
_chemical_formula_sum   'Ag54 Sb54 Te108'
_cell_volume   6188.13939843
_cell_formula_units_Z   54
loop_
 _symmetry_equiv_pos_site_id
 _symmetry_equiv_pos_as_xyz
  1  'x, y, z'
loop_
 _atom_site_type_symbol
 _atom_site_label
 _atom_site_symmetry_multiplicity
 _atom_site_fract_x
 _atom_site_fract_y
 _atom_site_fract_z
 _atom_site_occupancy
  Ag  Ag0  1  0.17507226  0.66341656  0.50079305  1
  Ag  Ag1  1  0.65298994  0.17364063  0.83204671  1
  Ag  Ag2  1  0.17373349  0.33403906  0.49915925  1
  Ag  Ag3  1  0.33466686  0.17239585  0.83109666  1
  Ag  Ag4  1  0.48734538  0.66307827  0.49949908  1
  Ag  Ag5  1  0.16930875  0.16741301  -0.00061462  1
  Ag  Ag6  1  0.01376814  0.33578144  0.34073460  1
  Ag  Ag7  1  0.33279385  0.50865384  0.50478097  1
  Ag  Ag8  1  0.65130050  0.33103055  -0.01447438  1
  Ag  Ag9  1  0.33408759  0.49279128  0.82239575  1
  Ag  Ag10  1  0.01276015  0.65979215  0.33326611  1
  Ag  Ag11  1  0.83665803  0.83611385  0.66592507  1
  Ag  Ag12  1  0.48932344  0.01367374  0.82783784  1
  Ag  Ag13  1  0.65868710  0.48669882  0.83048041  1
  Ag  Ag14  1  0.33175070  0.82630170  0.17916444  1
  Ag  Ag15  1  0.17252388  0.00390464  0.82118497  1
  Ag  Ag16  1  0.17208731  0.00603894  0.16824442  1
  Ag  Ag17  1  0.33131407  0.33558235  0.32584424  1
  Ag  Ag18  1  0.65338901  0.66960710  0.33656300  1
  Ag  Ag19  1  0.48905034  0.17332258  0.67059669  1
  Ag  Ag20  1  0.49094485  0.33770455  0.51006786  1
  Ag  Ag21  1  0.33256446  0.66541685  0.33850877  1
  Ag  Ag22  1  0.33269068  0.66494852  0.65455073  1
  Ag  Ag23  1  0.17172490  0.83768424  0.34063802  1
  Ag  Ag24  1  0.33192969  0.65817820  0.00650652  1
  Ag  Ag25  1  0.33264054  -0.00275262  0.66382923  1
  Ag  Ag26  1  0.32932466  0.17862234  0.16181088  1
  Ag  Ag27  1  0.65326445  0.83171586  0.50035865  1
  Ag  Ag28  1  0.83362343  0.01052924  0.83165569  1
  Ag  Ag29  1  0.65390168  0.33315327  0.67272151  1
  Ag  Ag30  1  0.84148543  0.00167341  0.16637954  1
  Ag  Ag31  1  0.33097400  -0.00224291  0.33432416  1
  Ag  Ag32  1  0.17075766  0.17092014  0.33494374  1
  Ag  Ag33  1  0.84278944  0.16818944  -0.00435518  1
  Ag  Ag34  1  0.48927854  0.33615973  0.16663239  1
  Ag  Ag35  1  0.83474203  0.50028549  0.33207995  1
  Ag  Ag36  1  0.49152281  0.49167222  0.66599556  1
  Ag  Ag37  1  0.00304280  0.32998161  0.66527107  1
  Ag  Ag38  1  0.33340503  0.49503260  0.17347796  1
  Ag  Ag39  1  0.33442107  0.33493908  0.00853677  1
  Ag  Ag40  1  0.01528978  0.00880543  0.66838811  1
  Ag  Ag41  1  0.01100954  0.66414513  0.00854229  1
  Ag  Ag42  1  0.50298295  0.33194887  0.82697395  1
  Ag  Ag43  1  0.00556845  0.16993245  0.50252237  1
  Ag  Ag44  1  0.49214278  0.65914298  0.17649723  1
  Ag  Ag45  1  0.17004310  0.16672916  0.66635337  1
  Ag  Ag46  1  0.17444475  0.49037525  0.66558405  1
  Ag  Ag47  1  0.17708910  0.32766832  0.18137583  1
  Ag  Ag48  1  0.81895777  0.32946081  0.83183690  1
  Ag  Ag49  1  0.49113126  0.83414831  0.66396962  1
  Ag  Ag50  1  0.65527718  -0.00249401  0.33305167  1
  Ag  Ag51  1  0.00670055  0.49824327  0.82994635  1
  Ag  Ag52  1  0.17144603  0.84301819  0.66091194  1
  Ag  Ag53  1  0.33338529  0.82533491  0.50080868  1
  Sb  Sb54  1  0.66038044  0.33427348  0.33630353  1
  Sb  Sb55  1  0.16969387  0.49759565  0.33856551  1
  Sb  Sb56  1  0.33292444  0.33575404  0.66531714  1
  Sb  Sb57  1  0.49755977  0.50144969  0.33799159  1
  Sb  Sb58  1  0.00858395  0.66562217  0.66268548  1
  Sb  Sb59  1  0.00638886  0.49652066  0.50204566  1
  Sb  Sb60  1  0.66113408  0.16677543  0.16214200  1
  Sb  Sb61  1  0.83388016  0.50059179  0.66619141  1
  Sb  Sb62  1  0.83499544  0.16470193  0.67207376  1
  Sb  Sb63  1  0.49701177  -0.00044847  0.50507240  1
  Sb  Sb64  1  0.17281501  0.32900183  0.82931389  1
  Sb  Sb65  1  0.66102094  0.00308962  0.66587553  1
  Sb  Sb66  1  0.17560828  0.66487325  0.17205943  1
  Sb  Sb67  1  0.48988871  0.83167028  0.33899657  1
  Sb  Sb68  1  0.32859327  0.16928146  0.50286158  1
  Sb  Sb69  1  0.17013829  0.83622248  -0.00043427  1
  Sb  Sb70  1  0.33367143  0.83473212  0.82749874  1
  Sb  Sb71  1  0.16957668  0.00374521  0.50146002  1
  Sb  Sb72  1  0.83408948  0.49531181  0.00068578  1
  Sb  Sb73  1  0.49478312  0.66216429  0.82766064  1
  Sb  Sb74  1  0.83455458  0.33363290  0.50444411  1
  Sb  Sb75  1  0.00657807  0.49845297  0.16636235  1
  Sb  Sb76  1  0.17108368  0.49600939  -0.00561748  1
  Sb  Sb77  1  0.49651615  0.83153391  -0.00420352  1
  Sb  Sb78  1  0.66057635  0.83442186  0.17530346  1
  Sb  Sb79  1  0.66537145  0.83614857  0.82564972  1
  Sb  Sb80  1  0.16992629  0.66860431  0.82818930  1
  Sb  Sb81  1  0.83346036  0.83798163  -0.00346214  1
  Sb  Sb82  1  0.00750173  0.00234586  0.33769380  1
  Sb  Sb83  1  0.00651748  0.33540270  -0.00259902  1
  Sb  Sb84  1  0.66789811  0.00711465  0.00105020  1
  Sb  Sb85  1  0.49497668  0.49583034  -0.00646891  1
  Sb  Sb86  1  0.66009416  0.49931217  0.16488727  1
  Sb  Sb87  1  0.83432587  0.32975625  0.16220184  1
  Sb  Sb88  1  0.00662149  0.83359855  0.16926463  1
  Sb  Sb89  1  0.49312038  0.16789303  0.33737687  1
  Sb  Sb90  1  0.83821097  0.16970989  0.32795551  1
  Sb  Sb91  1  0.49180345  0.00252792  0.16328225  1
  Sb  Sb92  1  0.83536159  0.66372343  0.83217544  1
  Sb  Sb93  1  0.83633766  0.83097024  0.33622657  1
  Sb  Sb94  1  0.33165137  0.00364819  -0.00155547  1
  Sb  Sb95  1  0.01075000  0.16695176  0.17020603  1
  Sb  Sb96  1  0.83305290  -0.00075741  0.50261601  1
  Sb  Sb97  1  0.66039783  0.50373935  0.50329111  1
  Sb  Sb98  1  0.49424952  0.17016360  -0.00660990  1
  Sb  Sb99  1  0.00497403  0.16956979  0.82907616  1
  Sb  Sb100  1  0.83101199  0.67025133  0.16958221  1
  Sb  Sb101  1  0.00128273  0.83160081  0.83069794  1
  Sb  Sb102  1  0.66072775  0.65909252  0.00270968  1
  Sb  Sb103  1  0.66713823  0.16475754  0.50436529  1
  Sb  Sb104  1  0.65832227  0.66447020  0.66266916  1
  Sb  Sb105  1  0.00693664  0.83525807  0.50090212  1
  Sb  Sb106  1  0.83402702  0.66634402  0.49923858  1
  Sb  Sb107  1  0.00219534  -0.00230281  -0.00477807  1
  Te  Te108  1  0.17086372  0.16785663  0.17045285  1
  Te  Te109  1  0.16476107  0.17074981  0.50155353  1
  Te  Te110  1  0.16947570  0.16255564  0.83060426  1
  Te  Te111  1  0.17265209  0.49446385  0.16309139  1
  Te  Te112  1  0.16992713  0.49861156  0.50524969  1
  Te  Te113  1  0.16981744  0.50256632  0.82714763  1
  Te  Te114  1  0.17255696  0.83565968  0.16759767  1
  Te  Te115  1  0.16970882  0.83072994  0.49977355  1
  Te  Te116  1  0.16531266  0.84220267  0.83025538  1
  Te  Te117  1  0.49155929  0.17089120  0.16831517  1
  Te  Te118  1  0.50227947  0.17302541  0.50803865  1
  Te  Te119  1  0.49767711  0.17049717  0.83115288  1
  Te  Te120  1  0.49495185  0.50000192  0.16647944  1
  Te  Te121  1  0.49698953  0.50029430  0.50445489  1
  Te  Te122  1  0.49843803  0.49667752  0.82797711  1
  Te  Te123  1  0.49269149  0.83263002  0.16453743  1
  Te  Te124  1  0.49661842  0.83367810  0.50393826  1
  Te  Te125  1  0.50256038  0.83302227  0.82619440  1
  Te  Te126  1  0.82959375  0.16259430  0.16019041  1
  Te  Te127  1  0.83925759  0.16654773  0.49714122  1
  Te  Te128  1  0.84010268  0.16889869  0.83621967  1
  Te  Te129  1  0.83295307  0.50066434  0.17023386  1
  Te  Te130  1  0.83251979  0.50056179  0.49326907  1
  Te  Te131  1  0.83228423  0.49480861  0.83385738  1
  Te  Te132  1  0.83183465  0.84102467  0.16580171  1
  Te  Te133  1  0.83484110  0.83346241  0.50445665  1
  Te  Te134  1  0.83263236  0.83508074  0.82811233  1
  Te  Te135  1  0.16487642  0.00395916  0.00558791  1
  Te  Te136  1  0.16976629  0.00039397  0.33086205  1
  Te  Te137  1  0.17052816  0.00203093  0.66395358  1
  Te  Te138  1  0.17169886  0.32860470  -0.00022702  1
  Te  Te139  1  0.17040264  0.33413758  0.33735907  1
  Te  Te140  1  0.16344075  0.33105441  0.66374441  1
  Te  Te141  1  0.16934979  0.66752964  0.00067593  1
  Te  Te142  1  0.17101285  0.66498350  0.33584105  1
  Te  Te143  1  0.17144051  0.66879637  0.66292468  1
  Te  Te144  1  0.50165856  -0.00058382  -0.01069997  1
  Te  Te145  1  0.49687667  0.00016961  0.33199760  1
  Te  Te146  1  0.49702460  -0.00030291  0.67025178  1
  Te  Te147  1  0.49562442  0.33300144  0.00475226  1
  Te  Te148  1  0.49604954  0.33375663  0.32825494  1
  Te  Te149  1  0.49703482  0.33272142  0.66683617  1
  Te  Te150  1  0.49519515  0.66549139  0.00564274  1
  Te  Te151  1  0.49595584  0.66707087  0.33678459  1
  Te  Te152  1  0.49539252  0.67005867  0.66119426  1
  Te  Te153  1  0.83456039  0.00548906  -0.00149359  1
  Te  Te154  1  0.83812663  0.00009794  0.32795722  1
  Te  Te155  1  0.82885014  -0.00298385  0.67032133  1
  Te  Te156  1  0.83943394  0.32785250  -0.00461762  1
  Te  Te157  1  0.83031512  0.33757377  0.33210990  1
  Te  Te158  1  0.84114846  0.33472493  0.67188313  1
  Te  Te159  1  0.83264634  0.66787689  0.00160605  1
  Te  Te160  1  0.83573081  0.66296867  0.33244067  1
  Te  Te161  1  0.83440165  0.67324808  0.66680177  1
  Te  Te162  1  0.00469752  0.16631516  0.00167852  1
  Te  Te163  1  0.00521146  0.17112713  0.33807854  1
  Te  Te164  1  0.00082637  0.16674521  0.66381324  1
  Te  Te165  1  0.00104317  0.50564766  -0.00381165  1
  Te  Te166  1  -0.00123519  0.49760383  0.33317283  1
  Te  Te167  1  0.00119317  0.49772109  0.66962444  1
  Te  Te168  1  -0.00046736  0.82231204  0.00050149  1
  Te  Te169  1  0.00777305  0.83035130  0.33303744  1
  Te  Te170  1  0.00207139  0.83455269  0.66646836  1
  Te  Te171  1  0.32817956  0.16813123  -0.00144336  1
  Te  Te172  1  0.32944700  0.16456528  0.33582260  1
  Te  Te173  1  0.33246648  0.16084926  0.66716996  1
  Te  Te174  1  0.33283778  0.49724097  0.00128715  1
  Te  Te175  1  0.33423778  0.49986742  0.33342657  1
  Te  Te176  1  0.33251657  0.50004026  0.66484967  1
  Te  Te177  1  0.33356741  0.82828191  -0.00045515  1
  Te  Te178  1  0.33054277  0.83449256  0.33668407  1
  Te  Te179  1  0.33145213  0.83468722  0.66781866  1
  Te  Te180  1  0.66597097  0.17199898  -0.00466822  1
  Te  Te181  1  0.66806452  0.16015486  0.33320957  1
  Te  Te182  1  0.66926933  0.17076465  0.67186458  1
  Te  Te183  1  0.66751564  0.49215827  -0.00568470  1
  Te  Te184  1  0.66964282  0.50402072  0.33327213  1
  Te  Te185  1  0.66615289  0.49675854  0.67072918  1
  Te  Te186  1  0.66675353  0.83109794  0.00226754  1
  Te  Te187  1  0.67001101  0.83378141  0.33907119  1
  Te  Te188  1  0.66625298  0.83283515  0.66056071  1
  Te  Te189  1  0.00091747  -0.00083788  0.16617705  1
  Te  Te190  1  -0.00117886  0.00493323  0.50722983  1
  Te  Te191  1  -0.00202191  -0.00129113  0.82763378  1
  Te  Te192  1  0.00256264  0.33392101  0.17247754  1
  Te  Te193  1  -0.00074769  0.33101980  0.50034609  1
  Te  Te194  1  0.00670861  0.33768728  0.83079056  1
  Te  Te195  1  -0.00097586  0.66575257  0.16897927  1
  Te  Te196  1  0.00364018  0.66566021  0.49340774  1
  Te  Te197  1  0.00031477  0.65963168  0.83465229  1
  Te  Te198  1  0.33157965  -0.00268325  0.16673060  1
  Te  Te199  1  0.33456350  -0.00604049  0.49797986  1
  Te  Te200  1  0.33184784  0.00099403  0.83141635  1
  Te  Te201  1  0.33257285  0.33335314  0.16732712  1
  Te  Te202  1  0.33353808  0.33296957  0.49757358  1
  Te  Te203  1  0.33597125  0.33321594  0.83280023  1
  Te  Te204  1  0.33434716  0.66726498  0.16801022  1
  Te  Te205  1  0.33167144  0.66651180  0.50028075  1
  Te  Te206  1  0.33345855  0.66206569  0.84319766  1
  Te  Te207  1  0.66463066  -0.00067338  0.17196052  1
  Te  Te208  1  0.66664052  -0.00441208  0.49319576  1
  Te  Te209  1  0.67294538  0.00407267  0.83387198  1
  Te  Te210  1  0.66460658  0.33375933  0.16491511  1
  Te  Te211  1  0.66359113  0.33329857  0.50580279  1
  Te  Te212  1  0.66392508  0.33186360  0.83180339  1
  Te  Te213  1  0.65949749  0.66761687  0.17248235  1
  Te  Te214  1  0.66661393  0.67099069  0.49521075  1
  Te  Te215  1  0.66598299  0.66354106  0.83485017  1
