# generated using pymatgen
data_AgSbTe2
_symmetry_space_group_name_H-M   'P 1'
_cell_length_a   18.32661758
_cell_length_b   18.32693046
_cell_length_c   18.32768402
_cell_angle_alpha   89.99637659
_cell_angle_beta   89.99867341
_cell_angle_gamma   90.00124189
_symmetry_Int_Tables_number   1
_chemical_formula_structural   AgSbTe2
_chemical_formula_sum   'Ag54 Sb54 Te108'
_cell_volume   6155.73105501
_cell_formula_units_Z   54
loop_
 _symmetry_equiv_pos_site_id
 _symmetry_equiv_pos_as_xyz
  1  'x, y, z'
loop_
 _atom_site_type_symbol
 _atom_site_label
 _atom_site_symmetry_multiplicity
 _atom_site_fract_x
 _atom_site_fract_y
 _atom_site_fract_z
 _atom_site_occupancy
  Ag  Ag0  1  0.83113438  0.32886214  0.51012497  1
  Ag  Ag1  1  0.67938587  0.33113018  0.66346556  1
  Ag  Ag2  1  0.83212786  -0.00437627  0.16695067  1
  Ag  Ag3  1  0.50410639  0.16776423  0.33003490  1
  Ag  Ag4  1  0.83840903  0.33095688  0.82296819  1
  Ag  Ag5  1  0.15753143  0.00383476  0.82363251  1
  Ag  Ag6  1  0.50105119  0.66404883  0.83542330  1
  Ag  Ag7  1  0.66393492  0.16442826  0.17304586  1
  Ag  Ag8  1  0.66088550  0.66450995  0.33423890  1
  Ag  Ag9  1  0.50869188  0.82407991  0.33373030  1
  Ag  Ag10  1  0.16642530  0.17006073  -0.00889555  1
  Ag  Ag11  1  0.66986351  0.33436792  0.34359562  1
  Ag  Ag12  1  0.34233516  0.16945376  0.16655058  1
  Ag  Ag13  1  0.50119250  0.50622533  0.33116675  1
  Ag  Ag14  1  0.82824193  0.83458299  0.33725022  1
  Ag  Ag15  1  -0.00155972  0.83287532  0.83237200  1
  Ag  Ag16  1  0.16967628  0.49345894  -0.01035911  1
  Ag  Ag17  1  0.83012200  0.67358193  0.50273149  1
  Ag  Ag18  1  0.32417511  0.33389581  0.66546661  1
  Ag  Ag19  1  0.33740469  0.49784649  0.17053859  1
  Ag  Ag20  1  0.16731583  0.00136218  0.51122484  1
  Ag  Ag21  1  0.33285442  0.66552809  0.65980376  1
  Ag  Ag22  1  0.83830192  0.00111827  0.82189623  1
  Ag  Ag23  1  0.34192179  0.66442617  0.33923659  1
  Ag  Ag24  1  -0.00154652  0.49391023  0.82935233  1
  Ag  Ag25  1  0.83465394  0.48240304  0.66659807  1
  Ag  Ag26  1  -0.00920238  0.16709888  0.50471354  1
  Ag  Ag27  1  0.16025872  0.83691847  -0.00929774  1
  Ag  Ag28  1  0.00103679  0.00774567  0.66644769  1
  Ag  Ag29  1  0.50447961  0.00082361  0.50222754  1
  Ag  Ag30  1  0.66622860  0.49305037  0.50437480  1
  Ag  Ag31  1  0.16352648  0.49281913  0.67087661  1
  Ag  Ag32  1  0.33360557  0.83064522  0.50250421  1
  Ag  Ag33  1  0.50012770  0.66462153  0.17265309  1
  Ag  Ag34  1  0.15790314  0.33166861  0.82984672  1
  Ag  Ag35  1  0.68638153  0.00729084  0.66447685  1
  Ag  Ag36  1  -0.00271343  0.33296439  -0.01388053  1
  Ag  Ag37  1  0.83892509  0.85247378  0.66483660  1
  Ag  Ag38  1  0.83996687  0.83647004  0.00181094  1
  Ag  Ag39  1  0.49818687  0.49614570  0.00339951  1
  Ag  Ag40  1  0.67177892  0.33317341  -0.00369756  1
  Ag  Ag41  1  0.33808405  0.50429671  0.50242651  1
  Ag  Ag42  1  -0.00819370  0.33301533  0.34322493  1
  Ag  Ag43  1  0.16040353  0.16278283  0.67028986  1
  Ag  Ag44  1  0.15898623  0.84755615  0.67133852  1
  Ag  Ag45  1  -0.00516738  0.32758424  0.66864380  1
  Ag  Ag46  1  0.67066524  0.49667584  0.82367730  1
  Ag  Ag47  1  0.31383187  0.00042267  0.66288486  1
  Ag  Ag48  1  0.83965529  0.16802716  0.66333534  1
  Ag  Ag49  1  0.67083664  0.17097859  0.50140785  1
  Ag  Ag50  1  0.83110189  0.00289630  0.50954881  1
  Ag  Ag51  1  0.67252405  0.83924892  0.17039413  1
  Ag  Ag52  1  -0.01047079  0.83561596  0.16023387  1
  Ag  Ag53  1  0.50041915  0.17211943  0.00686611  1
  Sb  Sb54  1  0.33113884  0.00178586  -0.00513163  1
  Sb  Sb55  1  0.17306341  0.66666117  0.16539379  1
  Sb  Sb56  1  0.16545452  0.83375359  0.33698090  1
  Sb  Sb57  1  0.17012056  0.16860561  0.33650492  1
  Sb  Sb58  1  0.16117114  0.32858338  0.51086845  1
  Sb  Sb59  1  0.16533648  0.33220646  0.15873278  1
  Sb  Sb60  1  0.50103486  0.16585041  0.66492468  1
  Sb  Sb61  1  0.33601835  0.16692768  0.49945395  1
  Sb  Sb62  1  0.66609711  0.66145841  0.00405709  1
  Sb  Sb63  1  0.83288824  0.50122406  -0.00783627  1
  Sb  Sb64  1  0.00105230  0.17065570  0.82533702  1
  Sb  Sb65  1  -0.00278684  0.49304811  0.50661853  1
  Sb  Sb66  1  0.83512599  0.16451759  -0.00448871  1
  Sb  Sb67  1  0.33196618  0.33376314  -0.00468978  1
  Sb  Sb68  1  0.66827833  0.17258454  0.82975793  1
  Sb  Sb69  1  0.82601905  0.50183720  0.34248204  1
  Sb  Sb70  1  0.50042973  0.33550731  0.16686118  1
  Sb  Sb71  1  -0.00051538  0.66761004  -0.00073690  1
  Sb  Sb72  1  0.82735246  0.16433224  0.34120926  1
  Sb  Sb73  1  0.66761941  0.00145319  0.34018163  1
  Sb  Sb74  1  0.16264879  -0.00012660  0.16379034  1
  Sb  Sb75  1  0.66870431  0.00502318  -0.00381058  1
  Sb  Sb76  1  0.50082675  0.83246241  0.00517292  1
  Sb  Sb77  1  0.17115338  0.49759756  0.33713996  1
  Sb  Sb78  1  0.50192147  0.66850598  0.49649858  1
  Sb  Sb79  1  -0.00320088  0.16300892  0.17048388  1
  Sb  Sb80  1  0.83053069  0.32870119  0.16643307  1
  Sb  Sb81  1  0.33227181  0.49962746  0.82842098  1
  Sb  Sb82  1  0.50097463  0.49998216  0.66495748  1
  Sb  Sb83  1  0.33470867  0.83301566  0.17169489  1
  Sb  Sb84  1  0.00419443  0.50061735  0.16099651  1
  Sb  Sb85  1  -0.00327128  0.66371347  0.33404790  1
  Sb  Sb86  1  0.33084453  0.16737271  0.83341403  1
  Sb  Sb87  1  0.83044609  0.66635039  0.82581406  1
  Sb  Sb88  1  0.49962591  0.83360572  0.66105422  1
  Sb  Sb89  1  0.00136054  0.66588412  0.66646862  1
  Sb  Sb90  1  0.66728957  0.83555593  0.49711303  1
  Sb  Sb91  1  0.32712035  0.83310228  0.82483613  1
  Sb  Sb92  1  0.67368588  0.82991454  0.83552278  1
  Sb  Sb93  1  0.33776410  0.33725566  0.33860375  1
  Sb  Sb94  1  -0.00064396  0.00233720  -0.00975406  1
  Sb  Sb95  1  0.50434187  0.00043724  0.17225678  1
  Sb  Sb96  1  0.82633613  0.67385175  0.17311887  1
  Sb  Sb97  1  0.16731754  0.66967547  0.50338442  1
  Sb  Sb98  1  -0.00108322  0.83944950  0.50432903  1
  Sb  Sb99  1  0.66593792  0.66464394  0.66113231  1
  Sb  Sb100  1  -0.00359711  0.00304268  0.34031262  1
  Sb  Sb101  1  0.50814470  0.33049092  0.50028013  1
  Sb  Sb102  1  0.33629770  -0.00326916  0.34088260  1
  Sb  Sb103  1  0.33453645  0.66446840  -0.00083750  1
  Sb  Sb104  1  0.16907475  0.66606630  0.83048605  1
  Sb  Sb105  1  0.50219185  -0.00224968  0.82624549  1
  Sb  Sb106  1  0.66177195  0.49781230  0.16914730  1
  Sb  Sb107  1  0.50418065  0.33736178  0.83323334  1
  Te  Te108  1  0.16817782  0.16506880  0.16436073  1
  Te  Te109  1  0.16743681  0.16171143  0.50378913  1
  Te  Te110  1  0.16694662  0.16560258  0.83265687  1
  Te  Te111  1  0.17363169  0.50037135  0.16288315  1
  Te  Te112  1  0.16954013  0.50031906  0.50542706  1
  Te  Te113  1  0.16562524  0.49941781  0.83239330  1
  Te  Te114  1  0.16430024  0.83392786  0.16326490  1
  Te  Te115  1  0.16910935  0.83731253  0.50541932  1
  Te  Te116  1  0.16220429  0.83340574  0.83104330  1
  Te  Te117  1  0.50277081  0.16524846  0.16667966  1
  Te  Te118  1  0.50475336  0.16215043  0.49662042  1
  Te  Te119  1  0.49980788  0.16567653  0.84358514  1
  Te  Te120  1  0.49752715  0.50276654  0.16645749  1
  Te  Te121  1  0.50068598  0.49979048  0.49536853  1
  Te  Te122  1  0.50300260  0.50288396  0.83773355  1
  Te  Te123  1  0.50307749  0.83103306  0.17247962  1
  Te  Te124  1  0.49768157  0.83765335  0.49410353  1
  Te  Te125  1  0.50113450  0.82792176  0.83674658  1
  Te  Te126  1  0.82826422  0.16045806  0.16672889  1
  Te  Te127  1  0.83112316  0.16569186  0.50063956  1
  Te  Te128  1  0.83330835  0.16561670  0.82899672  1
  Te  Te129  1  0.83535613  0.50295731  0.16557015  1
  Te  Te130  1  0.83079069  0.49295645  0.50555956  1
  Te  Te131  1  0.83298311  0.49825755  0.82852376  1
  Te  Te132  1  0.83171179  0.83402446  0.16728147  1
  Te  Te133  1  0.83323739  0.83728338  0.50252404  1
  Te  Te134  1  0.83707780  0.83412523  0.82843322  1
  Te  Te135  1  0.16622221  0.00076753  -0.00463886  1
  Te  Te136  1  0.16634214  0.00037313  0.33919749  1
  Te  Te137  1  0.15891661  0.00262178  0.66726718  1
  Te  Te138  1  0.16509741  0.33345927  -0.00653924  1
  Te  Te139  1  0.16112031  0.33343415  0.33364375  1
  Te  Te140  1  0.16511592  0.33337810  0.67013981  1
  Te  Te141  1  0.16707066  0.66635397  -0.00102054  1
  Te  Te142  1  0.17246775  0.66555844  0.33423547  1
  Te  Te143  1  0.17301458  0.66037932  0.66621566  1
  Te  Te144  1  0.49959674  0.00514603  -0.00240418  1
  Te  Te145  1  0.50036521  0.00322717  0.33952373  1
  Te  Te146  1  0.49912600  -0.00040388  0.66186878  1
  Te  Te147  1  0.50208077  0.33373541  -0.00049657  1
  Te  Te148  1  0.50562412  0.33157364  0.33395861  1
  Te  Te149  1  0.49459331  0.33229923  0.66762170  1
  Te  Te150  1  0.50010896  0.66353104  0.00160536  1
  Te  Te151  1  0.50057181  0.66631895  0.33444612  1
  Te  Te152  1  0.49496165  0.66766200  0.67007509  1
  Te  Te153  1  0.83375125  -0.00400716  0.00287994  1
  Te  Te154  1  0.83327399  -0.00585285  0.32913792  1
  Te  Te155  1  0.84124203  0.00744750  0.66607051  1
  Te  Te156  1  0.83456962  0.33313084  -0.00172066  1
  Te  Te157  1  0.83091708  0.33378764  0.33358346  1
  Te  Te158  1  0.83451355  0.32752550  0.66739070  1
  Te  Te159  1  0.83248787  0.67491166  -0.00016098  1
  Te  Te160  1  0.82883954  0.67098889  0.34002853  1
  Te  Te161  1  0.83261898  0.66580589  0.66046958  1
  Te  Te162  1  0.00488687  0.17299344  0.00445603  1
  Te  Te163  1  0.00116983  0.17338198  0.33876989  1
  Te  Te164  1  0.00143002  0.16856981  0.66403923  1
  Te  Te165  1  0.00380690  0.49575499  -0.00448438  1
  Te  Te166  1  0.00046294  0.49435641  0.33126520  1
  Te  Te167  1  -0.00040065  0.49994960  0.67031871  1
  Te  Te168  1  0.00053664  0.83486955  -0.00225142  1
  Te  Te169  1  -0.00449142  0.83231884  0.33102971  1
  Te  Te170  1  -0.00021112  0.83120547  0.66876646  1
  Te  Te171  1  0.33224585  0.16761290  0.00573549  1
  Te  Te172  1  0.33864968  0.16830802  0.32814602  1
  Te  Te173  1  0.33191970  0.16635995  0.66581837  1
  Te  Te174  1  0.33436251  0.49956975  0.00349529  1
  Te  Te175  1  0.33705221  0.50197892  0.33387405  1
  Te  Te176  1  0.33370897  0.50001658  0.66331870  1
  Te  Te177  1  0.32725716  0.83358543  0.00050647  1
  Te  Te178  1  0.33345774  0.82834193  0.33882861  1
  Te  Te179  1  0.33220436  0.83488324  0.66130852  1
  Te  Te180  1  0.66655188  0.17209209  0.00062435  1
  Te  Te181  1  0.66387796  0.16826315  0.33399118  1
  Te  Te182  1  0.66534396  0.16813899  0.66383163  1
  Te  Te183  1  0.66430803  0.49409166  0.00031527  1
  Te  Te184  1  0.66225173  0.49699603  0.33551643  1
  Te  Te185  1  0.66794728  0.49827309  0.66471416  1
  Te  Te186  1  0.66945125  0.83358057  0.00542027  1
  Te  Te187  1  0.66760123  0.83465838  0.33164011  1
  Te  Te188  1  0.67168447  0.83540491  0.66657544  1
  Te  Te189  1  -0.00501411  -0.00471963  0.16831603  1
  Te  Te190  1  -0.00412374  0.00475081  0.50418897  1
  Te  Te191  1  -0.00154283  -0.00476014  0.82946376  1
  Te  Te192  1  -0.00115274  0.33274193  0.16766030  1
  Te  Te193  1  -0.00488829  0.32918229  0.50364445  1
  Te  Te194  1  -0.00140101  0.33389853  0.83044461  1
  Te  Te195  1  0.00083844  0.67414234  0.16777918  1
  Te  Te196  1  -0.00849315  0.66514281  0.49790798  1
  Te  Te197  1  -0.00082460  0.66625137  0.83383998  1
  Te  Te198  1  0.33272527  0.00533477  0.16676389  1
  Te  Te199  1  0.33213464  -0.00011465  0.50444817  1
  Te  Te200  1  0.33113022  -0.00042370  0.82428207  1
  Te  Te201  1  0.33203153  0.33360738  0.16878113  1
  Te  Te202  1  0.33290092  0.33789168  0.50440389  1
  Te  Te203  1  0.32769527  0.33379235  0.82643911  1
  Te  Te204  1  0.33946392  0.66398550  0.17045074  1
  Te  Te205  1  0.33375996  0.66626101  0.49981405  1
  Te  Te206  1  0.34010588  0.66677800  0.82855150  1
  Te  Te207  1  0.66983691  0.00116970  0.16398370  1
  Te  Te208  1  0.66928421  0.00130066  0.50560841  1
  Te  Te209  1  0.67155212  -0.00089645  0.82563846  1
  Te  Te210  1  0.66692904  0.32785882  0.16313441  1
  Te  Te211  1  0.66909969  0.33289857  0.50229790  1
  Te  Te212  1  0.66996138  0.33801387  0.83087125  1
  Te  Te213  1  0.66049274  0.66834774  0.17249069  1
  Te  Te214  1  0.66934095  0.66242282  0.49491220  1
  Te  Te215  1  0.66214072  0.65967973  0.83360626  1
