# generated using pymatgen
data_AgSbTe2
_symmetry_space_group_name_H-M   'P 1'
_cell_length_a   18.33959049
_cell_length_b   18.33372771
_cell_length_c   18.33063604
_cell_angle_alpha   90.00008462
_cell_angle_beta   89.99747237
_cell_angle_gamma   89.99954761
_symmetry_Int_Tables_number   1
_chemical_formula_structural   AgSbTe2
_chemical_formula_sum   'Ag54 Sb54 Te108'
_cell_volume   6163.36581363
_cell_formula_units_Z   54
loop_
 _symmetry_equiv_pos_site_id
 _symmetry_equiv_pos_as_xyz
  1  'x, y, z'
loop_
 _atom_site_type_symbol
 _atom_site_label
 _atom_site_symmetry_multiplicity
 _atom_site_fract_x
 _atom_site_fract_y
 _atom_site_fract_z
 _atom_site_occupancy
  Ag  Ag0  1  0.33776316  0.15636973  0.50497855  1
  Ag  Ag1  1  0.33483034  0.33237363  0.66814256  1
  Ag  Ag2  1  0.82614670  0.67302050  0.51430467  1
  Ag  Ag3  1  0.83111952  0.81887638  0.66267754  1
  Ag  Ag4  1  0.33930073  0.50276997  0.50327691  1
  Ag  Ag5  1  -0.01178069  0.33944355  0.67153013  1
  Ag  Ag6  1  0.33666860  0.67283242  -0.00215366  1
  Ag  Ag7  1  0.83869751  0.83436030  0.00048969  1
  Ag  Ag8  1  0.83314235  0.33566813  0.83020111  1
  Ag  Ag9  1  0.83437298  0.83833395  0.34017130  1
  Ag  Ag10  1  0.49556154  -0.00770009  0.49780699  1
  Ag  Ag11  1  0.50359990  0.66283658  0.82819610  1
  Ag  Ag12  1  0.16381887  -0.00379979  0.17483519  1
  Ag  Ag13  1  0.16518141  0.83579394  0.00437419  1
  Ag  Ag14  1  0.83257704  0.65927238  0.82604526  1
  Ag  Ag15  1  0.66567248  0.49814624  0.50910662  1
  Ag  Ag16  1  -0.00165509  0.83198348  0.16506044  1
  Ag  Ag17  1  0.50406435  0.67334392  0.51007163  1
  Ag  Ag18  1  -0.00693324  0.49532145  0.83130026  1
  Ag  Ag19  1  -0.01164311  0.65911970  0.66967035  1
  Ag  Ag20  1  0.49837569  0.83576664  0.34324426  1
  Ag  Ag21  1  0.33857628  0.83860653  0.49858957  1
  Ag  Ag22  1  0.67168267  0.33899273  0.66812051  1
  Ag  Ag23  1  0.33340888  0.16815997  0.82357467  1
  Ag  Ag24  1  0.16474727  0.83915526  0.33024107  1
  Ag  Ag25  1  0.83147364  -0.00343180  0.49665714  1
  Ag  Ag26  1  0.16008960  0.66533028  0.83201519  1
  Ag  Ag27  1  0.83377634  0.17082587  0.67022615  1
  Ag  Ag28  1  0.49302805  0.83005485  -0.00166370  1
  Ag  Ag29  1  0.51245164  0.34088129  0.83086496  1
  Ag  Ag30  1  -0.00794708  0.17481732  0.83179096  1
  Ag  Ag31  1  -0.00137342  -0.00343794  0.33008119  1
  Ag  Ag32  1  0.83131491  0.15783731  0.34415326  1
  Ag  Ag33  1  0.49716253  0.50812548  -0.00550615  1
  Ag  Ag34  1  0.67441563  0.49535455  0.82661135  1
  Ag  Ag35  1  0.00109828  -0.00286340  0.00354134  1
  Ag  Ag36  1  0.67870788  0.00244097  0.33894063  1
  Ag  Ag37  1  0.67611063  0.65800032  0.66619653  1
  Ag  Ag38  1  -0.00191042  0.50353896  0.16016856  1
  Ag  Ag39  1  0.32642143  -0.00587661  0.00262184  1
  Ag  Ag40  1  0.17314283  -0.00189123  0.49589685  1
  Ag  Ag41  1  0.32942487  -0.00276274  0.34053427  1
  Ag  Ag42  1  0.66995101  0.32815119  0.34433650  1
  Ag  Ag43  1  0.83497521  0.33654482  0.15726922  1
  Ag  Ag44  1  0.16058801  0.17206185  0.66728824  1
  Ag  Ag45  1  -0.00432104  0.33124779  -0.01132011  1
  Ag  Ag46  1  0.32836719  0.50072980  0.16679087  1
  Ag  Ag47  1  0.83626557  0.16451203  -0.00874046  1
  Ag  Ag48  1  0.83394877  0.50367580  0.66961795  1
  Ag  Ag49  1  0.67727514  0.17507911  0.82264543  1
  Ag  Ag50  1  0.83593223  0.66596137  0.16420949  1
  Ag  Ag51  1  0.66820306  0.16855482  0.50489281  1
  Ag  Ag52  1  0.15910616  0.49615076  0.66759687  1
  Ag  Ag53  1  0.50481161  0.82840311  0.65867463  1
  Sb  Sb54  1  0.33451018  0.67313192  0.33169752  1
  Sb  Sb55  1  0.16066548  0.15805580  0.34138321  1
  Sb  Sb56  1  -0.00331841  0.50151782  0.50692439  1
  Sb  Sb57  1  0.16053861  0.33622815  0.82992187  1
  Sb  Sb58  1  0.49414857  -0.00361430  0.17173278  1
  Sb  Sb59  1  0.16061046  0.15995457  -0.00805760  1
  Sb  Sb60  1  0.50291591  0.66810076  0.16461963  1
  Sb  Sb61  1  0.66834946  0.00190570  0.66033090  1
  Sb  Sb62  1  0.67436046  0.83233475  0.16856422  1
  Sb  Sb63  1  0.66964950  -0.00031695  0.00422159  1
  Sb  Sb64  1  0.33938325  0.32851554  0.33913947  1
  Sb  Sb65  1  0.67360282  0.33334415  -0.00814533  1
  Sb  Sb66  1  -0.00484605  0.16425740  0.50742836  1
  Sb  Sb67  1  0.16791477  0.50515975  -0.00585016  1
  Sb  Sb68  1  0.32984897  0.33245373  -0.00673276  1
  Sb  Sb69  1  0.50311008  0.33484482  0.50632823  1
  Sb  Sb70  1  -0.00161452  0.83518059  0.49626949  1
  Sb  Sb71  1  0.32849839  0.83110230  0.16730286  1
  Sb  Sb72  1  0.83023463  0.33237403  0.50773992  1
  Sb  Sb73  1  0.49928440  -0.00261213  0.82948163  1
  Sb  Sb74  1  0.33396063  0.49787333  0.82929416  1
  Sb  Sb75  1  0.50578119  0.33713286  0.16056559  1
  Sb  Sb76  1  0.66388425  0.83674923  0.50081507  1
  Sb  Sb77  1  0.33351955  0.00396335  0.66324103  1
  Sb  Sb78  1  -0.00242376  0.00024561  0.66747840  1
  Sb  Sb79  1  0.50271920  0.16621413  0.66688782  1
  Sb  Sb80  1  0.67113107  0.49956106  0.16488196  1
  Sb  Sb81  1  0.16612067  0.50620557  0.33792445  1
  Sb  Sb82  1  -0.00278241  0.16338783  0.16061698  1
  Sb  Sb83  1  0.50659535  0.15890505  0.33820696  1
  Sb  Sb84  1  0.66735122  0.83173653  0.83099680  1
  Sb  Sb85  1  0.33069980  0.16803112  0.16839962  1
  Sb  Sb86  1  0.00034796  0.66804245  -0.00573393  1
  Sb  Sb87  1  0.50128115  0.50462636  0.33364259  1
  Sb  Sb88  1  0.66922603  0.66907920  0.34364618  1
  Sb  Sb89  1  -0.00193677  0.83190371  0.83670247  1
  Sb  Sb90  1  0.33428514  0.83408638  0.83241159  1
  Sb  Sb91  1  0.16769917  0.67092779  0.50633269  1
  Sb  Sb92  1  0.83294157  0.50091691  0.33796840  1
  Sb  Sb93  1  0.67281422  0.16735727  0.16984911  1
  Sb  Sb94  1  0.15957519  0.33147719  0.16534630  1
  Sb  Sb95  1  -0.00846840  0.32704339  0.33388877  1
  Sb  Sb96  1  0.16498010  0.83276890  0.66559773  1
  Sb  Sb97  1  0.83350745  0.00216642  0.82997512  1
  Sb  Sb98  1  0.50591911  0.50421389  0.67088495  1
  Sb  Sb99  1  0.50340115  0.16518578  -0.00543922  1
  Sb  Sb100  1  0.16613736  -0.00154865  0.83172197  1
  Sb  Sb101  1  0.33511439  0.66222609  0.66973115  1
  Sb  Sb102  1  0.16334646  0.67157684  0.16130221  1
  Sb  Sb103  1  -0.00287963  0.67199755  0.33572749  1
  Sb  Sb104  1  0.83963719  -0.00162896  0.17160554  1
  Sb  Sb105  1  0.83242972  0.50149076  -0.00727152  1
  Sb  Sb106  1  0.16963545  0.32804162  0.50402209  1
  Sb  Sb107  1  0.66502819  0.66621961  -0.00854094  1
  Te  Te108  1  0.16564809  0.15979879  0.16733286  1
  Te  Te109  1  0.17125641  0.16101017  0.50638178  1
  Te  Te110  1  0.17190661  0.16656508  0.82648196  1
  Te  Te111  1  0.16474062  0.50069794  0.16758626  1
  Te  Te112  1  0.16981576  0.50128578  0.50562275  1
  Te  Te113  1  0.16319722  0.50527843  0.82839249  1
  Te  Te114  1  0.16221365  0.83617038  0.16620953  1
  Te  Te115  1  0.17164937  0.83751591  0.49742502  1
  Te  Te116  1  0.16647344  0.82705948  0.83565997  1
  Te  Te117  1  0.50022124  0.16819111  0.16586170  1
  Te  Te118  1  0.50025433  0.16397251  0.50058360  1
  Te  Te119  1  0.49514662  0.16869962  0.83281835  1
  Te  Te120  1  0.49620191  0.50042482  0.16169822  1
  Te  Te121  1  0.50089124  0.50406959  0.49893782  1
  Te  Te122  1  0.49979698  0.50066245  0.83553448  1
  Te  Te123  1  0.50024336  0.83191387  0.15896987  1
  Te  Te124  1  0.50010395  0.83247284  0.49948546  1
  Te  Te125  1  0.50049249  0.82926199  0.83839063  1
  Te  Te126  1  0.83459441  0.17276949  0.16019223  1
  Te  Te127  1  0.83018778  0.16625826  0.50138558  1
  Te  Te128  1  0.83344357  0.16511173  0.83231385  1
  Te  Te129  1  0.83702584  0.49987464  0.16770917  1
  Te  Te130  1  0.82974289  0.50576952  0.50511709  1
  Te  Te131  1  0.83332219  0.49952767  0.83176960  1
  Te  Te132  1  0.83833743  0.83244305  0.16327538  1
  Te  Te133  1  0.83286498  0.83350853  0.50069677  1
  Te  Te134  1  0.83265303  0.83221889  0.83309921  1
  Te  Te135  1  0.16516400  -0.00425217  -0.00172164  1
  Te  Te136  1  0.16637526  -0.00260296  0.33520150  1
  Te  Te137  1  0.16533111  0.00267965  0.66069911  1
  Te  Te138  1  0.15761290  0.33282758  0.00044612  1
  Te  Te139  1  0.16737184  0.33280614  0.33362473  1
  Te  Te140  1  0.17134128  0.33277784  0.66638827  1
  Te  Te141  1  0.17107175  0.67183838  -0.00584496  1
  Te  Te142  1  0.16596196  0.67674796  0.33411830  1
  Te  Te143  1  0.16564819  0.66386503  0.67214142  1
  Te  Te144  1  0.49907604  -0.00487048  0.00042464  1
  Te  Te145  1  0.49225538  -0.00523350  0.33734205  1
  Te  Te146  1  0.50085119  -0.01051292  0.66120901  1
  Te  Te147  1  0.49935893  0.33460067  -0.00776555  1
  Te  Te148  1  0.50847480  0.33312467  0.33059456  1
  Te  Te149  1  0.49959084  0.33357013  0.67262579  1
  Te  Te150  1  0.49849328  0.66812804  -0.00111774  1
  Te  Te151  1  0.50130146  0.67435116  0.33556766  1
  Te  Te152  1  0.49975736  0.67014279  0.66821492  1
  Te  Te153  1  0.83599537  -0.00147426  0.00180273  1
  Te  Te154  1  0.83658838  -0.00125170  0.33313647  1
  Te  Te155  1  0.83409369  0.00667402  0.66039125  1
  Te  Te156  1  0.83681831  0.33491854  -0.00325831  1
  Te  Te157  1  0.82912915  0.33235057  0.33444348  1
  Te  Te158  1  0.83137041  0.33149522  0.66844388  1
  Te  Te159  1  0.83258336  0.67068909  0.00125510  1
  Te  Te160  1  0.83360051  0.67208446  0.32751479  1
  Te  Te161  1  0.83203749  0.66405222  0.66969461  1
  Te  Te162  1  -0.00318556  0.16747240  -0.00546317  1
  Te  Te163  1  -0.00696609  0.16035234  0.33381115  1
  Te  Te164  1  -0.00061876  0.16719236  0.67167161  1
  Te  Te165  1  0.00034135  0.49849362  -0.00141281  1
  Te  Te166  1  0.00123618  0.49764551  0.32807353  1
  Te  Te167  1  -0.00155888  0.49917867  0.66814850  1
  Te  Te168  1  0.00022367  0.83453727  0.00281324  1
  Te  Te169  1  -0.00242825  0.83676217  0.32977462  1
  Te  Te170  1  -0.00547222  0.83113074  0.66743281  1
  Te  Te171  1  0.33228218  0.16260889  0.00005770  1
  Te  Te172  1  0.33248189  0.16146545  0.33826027  1
  Te  Te173  1  0.33687157  0.16938940  0.66381510  1
  Te  Te174  1  0.33454083  0.50024676  0.00123399  1
  Te  Te175  1  0.33298091  0.49898047  0.33541880  1
  Te  Te176  1  0.33128259  0.49578403  0.66327655  1
  Te  Te177  1  0.33153979  0.83369651  0.00019170  1
  Te  Te178  1  0.33433338  0.83707251  0.33397173  1
  Te  Te179  1  0.33509437  0.83300232  0.66194434  1
  Te  Te180  1  0.67343014  0.16593562  -0.00226646  1
  Te  Te181  1  0.67164984  0.16595963  0.33653285  1
  Te  Te182  1  0.66790791  0.16778056  0.66539370  1
  Te  Te183  1  0.65852274  0.49988350  -0.00366144  1
  Te  Te184  1  0.66636535  0.49564619  0.33750330  1
  Te  Te185  1  0.66750905  0.49896472  0.66726339  1
  Te  Te186  1  0.67064948  0.83431053  0.00001176  1
  Te  Te187  1  0.66862673  0.83744235  0.33315969  1
  Te  Te188  1  0.66947104  0.83121811  0.66744161  1
  Te  Te189  1  0.00387444  -0.00272182  0.16460578  1
  Te  Te190  1  -0.00369690  0.00032415  0.49630763  1
  Te  Te191  1  0.00145151  0.00603547  0.84055002  1
  Te  Te192  1  -0.00530515  0.33670674  0.16691271  1
  Te  Te193  1  0.00148958  0.33324377  0.50725817  1
  Te  Te194  1  -0.00218349  0.33443478  0.82993643  1
  Te  Te195  1  -0.00262334  0.66660379  0.16651257  1
  Te  Te196  1  -0.00507731  0.66732642  0.50669422  1
  Te  Te197  1  -0.00381351  0.66517806  0.83045923  1
  Te  Te198  1  0.32699477  -0.00002287  0.16349122  1
  Te  Te199  1  0.33480719  -0.00130861  0.50073399  1
  Te  Te200  1  0.33356033  0.00519562  0.83900128  1
  Te  Te201  1  0.33318034  0.33894649  0.16715258  1
  Te  Te202  1  0.33654490  0.33661975  0.50424747  1
  Te  Te203  1  0.33209999  0.32986831  0.82965501  1
  Te  Te204  1  0.33348093  0.66044666  0.16145314  1
  Te  Te205  1  0.33636777  0.66564064  0.49918833  1
  Te  Te206  1  0.33945408  0.66582435  0.83767428  1
  Te  Te207  1  0.66402787  0.00026041  0.17748669  1
  Te  Te208  1  0.66967164  0.00482086  0.49629281  1
  Te  Te209  1  0.66474649  0.01137683  0.83422838  1
  Te  Te210  1  0.67367251  0.33484158  0.16939826  1
  Te  Te211  1  0.66510014  0.33314690  0.50392164  1
  Te  Te212  1  0.66967618  0.33397550  0.83052308  1
  Te  Te213  1  0.67444141  0.66432174  0.16792479  1
  Te  Te214  1  0.66603768  0.66243544  0.50506428  1
  Te  Te215  1  0.66701670  0.66510972  0.82719665  1
