# generated using pymatgen
data_AgSbTe2
_symmetry_space_group_name_H-M   'P 1'
_cell_length_a   18.32340826
_cell_length_b   18.32670917
_cell_length_c   18.32600491
_cell_angle_alpha   89.99752789
_cell_angle_beta   90.00134620
_cell_angle_gamma   89.99963895
_symmetry_Int_Tables_number   1
_chemical_formula_structural   AgSbTe2
_chemical_formula_sum   'Ag54 Sb54 Te108'
_cell_volume   6154.01490982
_cell_formula_units_Z   54
loop_
 _symmetry_equiv_pos_site_id
 _symmetry_equiv_pos_as_xyz
  1  'x, y, z'
loop_
 _atom_site_type_symbol
 _atom_site_label
 _atom_site_symmetry_multiplicity
 _atom_site_fract_x
 _atom_site_fract_y
 _atom_site_fract_z
 _atom_site_occupancy
  Ag  Ag0  1  0.83914920  0.67313327  0.16395590  1
  Ag  Ag1  1  0.84420114  0.51095000  0.67034119  1
  Ag  Ag2  1  0.83774943  0.15333023  0.00103414  1
  Ag  Ag3  1  0.83213900  0.83673052  0.00163021  1
  Ag  Ag4  1  0.16252132  0.16825627  0.65634825  1
  Ag  Ag5  1  0.16358298  0.16212737  0.00179620  1
  Ag  Ag6  1  0.68025769  0.67052649  0.66297329  1
  Ag  Ag7  1  0.66190176  -0.00226634  0.66525763  1
  Ag  Ag8  1  0.83633174  -0.00699718  0.15777442  1
  Ag  Ag9  1  0.33341613  0.17005593  0.49845002  1
  Ag  Ag10  1  0.66029399  0.15936662  0.16927126  1
  Ag  Ag11  1  0.49611803  0.65959975  0.50175364  1
  Ag  Ag12  1  0.00941762  0.16956415  0.50330699  1
  Ag  Ag13  1  0.50045003  0.49835625  0.00278278  1
  Ag  Ag14  1  0.33239393  0.50090513  0.17606842  1
  Ag  Ag15  1  0.49842026  -0.00016634  0.83374438  1
  Ag  Ag16  1  -0.00197591  0.49805294  0.82742917  1
  Ag  Ag17  1  0.16275076  0.00222091  0.83665885  1
  Ag  Ag18  1  0.83883726  -0.00470898  0.83851741  1
  Ag  Ag19  1  0.15626545  0.67039170  0.17485156  1
  Ag  Ag20  1  -0.00459411  0.00283364  0.00055138  1
  Ag  Ag21  1  0.67692784  0.83979176  0.16560635  1
  Ag  Ag22  1  0.33358656  0.83386091  0.50248097  1
  Ag  Ag23  1  0.49751247  0.50091496  0.65642098  1
  Ag  Ag24  1  0.83332627  0.82350163  0.67503013  1
  Ag  Ag25  1  0.83637414  0.67280957  0.82553125  1
  Ag  Ag26  1  0.33379668  0.83816590  0.82801802  1
  Ag  Ag27  1  0.49048678  0.33124336  0.49378986  1
  Ag  Ag28  1  0.84071030  0.66669343  0.51268264  1
  Ag  Ag29  1  0.00228806  0.50765312  0.16522820  1
  Ag  Ag30  1  -0.00367807  0.82810386  0.16645152  1
  Ag  Ag31  1  0.49496570  0.17075846  0.33489043  1
  Ag  Ag32  1  0.49582741  0.00541690  0.50175238  1
  Ag  Ag33  1  0.49888438  0.32628814  0.17511642  1
  Ag  Ag34  1  0.16487978  -0.00020889  0.16245731  1
  Ag  Ag35  1  0.49457441  0.49063040  0.33783329  1
  Ag  Ag36  1  0.50296670  0.84288679  0.00256938  1
  Ag  Ag37  1  0.33777331  -0.00059218  0.66549134  1
  Ag  Ag38  1  0.16088388  0.49773844  0.66337624  1
  Ag  Ag39  1  0.16442258  0.66161126  0.49642843  1
  Ag  Ag40  1  0.00236198  0.34048565  0.66066792  1
  Ag  Ag41  1  0.00784549  0.33568414  0.33836928  1
  Ag  Ag42  1  0.00260800  0.66225972  0.33473384  1
  Ag  Ag43  1  0.33217098  0.33333377  0.33801801  1
  Ag  Ag44  1  0.00280346  0.16501193  0.83205219  1
  Ag  Ag45  1  0.65571992  0.16446585  0.49701201  1
  Ag  Ag46  1  0.33569495  0.49728570  0.49856763  1
  Ag  Ag47  1  0.50036152  0.15949121  0.00910582  1
  Ag  Ag48  1  0.16678872  0.83482165  0.33192692  1
  Ag  Ag49  1  0.50159667  0.00676656  0.16198066  1
  Ag  Ag50  1  0.16972503  0.16662146  0.33851434  1
  Ag  Ag51  1  0.17075858  0.33059775  0.49915092  1
  Ag  Ag52  1  0.83622314  0.50587495  -0.00294922  1
  Ag  Ag53  1  -0.00746625  0.66000995  0.65977107  1
  Sb  Sb54  1  0.00377300  0.00088134  0.32771551  1
  Sb  Sb55  1  0.33473024  0.66772985  0.00135067  1
  Sb  Sb56  1  0.33296082  0.00076161  -0.00364252  1
  Sb  Sb57  1  0.50135761  0.66590865  0.17063286  1
  Sb  Sb58  1  0.16350652  0.83438575  0.66304474  1
  Sb  Sb59  1  0.83144414  0.33314109  0.16607261  1
  Sb  Sb60  1  0.66949083  0.33254266  0.66271358  1
  Sb  Sb61  1  0.67087917  0.66736623  0.33752687  1
  Sb  Sb62  1  0.17091331  0.00322154  0.50118599  1
  Sb  Sb63  1  0.16995894  0.49851463  0.33834890  1
  Sb  Sb64  1  0.00061175  0.00016770  0.67142357  1
  Sb  Sb65  1  0.66573780  0.50103171  0.16528048  1
  Sb  Sb66  1  0.66260691  0.83559144  0.49855216  1
  Sb  Sb67  1  0.16415567  0.32580869  0.82576578  1
  Sb  Sb68  1  0.49668965  0.32919019  0.83232456  1
  Sb  Sb69  1  -0.00036514  0.16566732  0.16621511  1
  Sb  Sb70  1  0.66952524  -0.00016873  0.00072663  1
  Sb  Sb71  1  0.00582234  0.49897539  0.50220771  1
  Sb  Sb72  1  0.33334589  0.00581510  0.33871540  1
  Sb  Sb73  1  0.84003406  0.83216731  0.32878667  1
  Sb  Sb74  1  0.66698978  0.83612807  0.83632927  1
  Sb  Sb75  1  0.33127432  0.66967316  0.66195540  1
  Sb  Sb76  1  0.33744069  0.16775076  0.17210341  1
  Sb  Sb77  1  0.50490318  0.66936565  0.82835974  1
  Sb  Sb78  1  0.83851415  0.16548234  0.67032598  1
  Sb  Sb79  1  0.00092081  0.32957379  0.00180600  1
  Sb  Sb80  1  0.83699259  0.33717388  0.50131541  1
  Sb  Sb81  1  0.16418691  0.49596189  -0.00105212  1
  Sb  Sb82  1  0.49412194  0.83525289  0.33145859  1
  Sb  Sb83  1  0.66213201  0.33172697  0.33439905  1
  Sb  Sb84  1  0.32832372  0.32989629  0.65786832  1
  Sb  Sb85  1  0.65937953  0.49780274  0.50190136  1
  Sb  Sb86  1  -0.00294706  0.66964675  0.00320829  1
  Sb  Sb87  1  0.67284582  0.50259754  0.83134515  1
  Sb  Sb88  1  0.16964766  0.33211129  0.17398027  1
  Sb  Sb89  1  0.50295624  0.83386588  0.66840575  1
  Sb  Sb90  1  0.15956680  0.67107885  0.83088134  1
  Sb  Sb91  1  0.83523433  0.16636791  0.33025376  1
  Sb  Sb92  1  0.83434178  0.50236742  0.33435826  1
  Sb  Sb93  1  0.32835517  0.66181264  0.33590127  1
  Sb  Sb94  1  0.33006284  0.50635788  0.82900794  1
  Sb  Sb95  1  0.83046850  -0.00250953  0.50329072  1
  Sb  Sb96  1  0.16419426  0.83887560  0.00477788  1
  Sb  Sb97  1  -0.00083621  0.83519127  0.83708795  1
  Sb  Sb98  1  0.67017294  0.16119357  0.83397441  1
  Sb  Sb99  1  0.66598306  0.33119758  0.00201134  1
  Sb  Sb100  1  0.67020685  0.66832262  -0.00228407  1
  Sb  Sb101  1  0.33007966  0.83079015  0.16879274  1
  Sb  Sb102  1  0.32817774  0.15959278  0.82735438  1
  Sb  Sb103  1  0.00358742  0.83294106  0.49640033  1
  Sb  Sb104  1  0.83685236  0.33367912  0.83322796  1
  Sb  Sb105  1  0.33438935  0.33199404  0.00904278  1
  Sb  Sb106  1  0.49660300  0.16655916  0.66135587  1
  Sb  Sb107  1  0.66440732  0.00089342  0.33290117  1
  Te  Te108  1  0.16852709  0.16405740  0.16737121  1
  Te  Te109  1  0.16732512  0.16523698  0.49831488  1
  Te  Te110  1  0.16298828  0.16119954  0.83587766  1
  Te  Te111  1  0.16625542  0.50066128  0.16457649  1
  Te  Te112  1  0.17158806  0.50178800  0.50391362  1
  Te  Te113  1  0.16099772  0.50092257  0.82826768  1
  Te  Te114  1  0.16415670  0.83364867  0.16971265  1
  Te  Te115  1  0.17055542  0.83226059  0.49587924  1
  Te  Te116  1  0.17049705  0.83930962  0.83422194  1
  Te  Te117  1  0.49849972  0.16626442  0.16807619  1
  Te  Te118  1  0.49706054  0.16626018  0.50020791  1
  Te  Te119  1  0.49972198  0.16110078  0.83656632  1
  Te  Te120  1  0.49919861  0.50115750  0.16441618  1
  Te  Te121  1  0.49722226  0.49934071  0.49879923  1
  Te  Te122  1  0.49949190  0.49929625  0.83818460  1
  Te  Te123  1  0.49827466  0.83482635  0.16369484  1
  Te  Te124  1  0.49525936  0.83682191  0.49983168  1
  Te  Te125  1  0.49816452  0.83692771  0.83785817  1
  Te  Te126  1  0.82906904  0.16492163  0.16206796  1
  Te  Te127  1  0.83373935  0.16688268  0.49967715  1
  Te  Te128  1  0.83789037  0.16295230  0.83924334  1
  Te  Te129  1  0.83528995  0.50116991  0.16536560  1
  Te  Te130  1  0.83045190  0.50582732  0.50341171  1
  Te  Te131  1  0.83810194  0.50043779  0.83356361  1
  Te  Te132  1  0.83568342  0.83458472  0.16569167  1
  Te  Te133  1  0.83233156  0.82756802  0.49924630  1
  Te  Te134  1  0.83383877  0.83431361  0.83695575  1
  Te  Te135  1  0.16570939  0.00331440  0.00068503  1
  Te  Te136  1  0.16741347  0.00237715  0.32845497  1
  Te  Te137  1  0.16854549  0.00240954  0.67096615  1
  Te  Te138  1  0.16714680  0.32338974  -0.00068008  1
  Te  Te139  1  0.16751189  0.32993243  0.33806607  1
  Te  Te140  1  0.16272699  0.33211568  0.66033071  1
  Te  Te141  1  0.16635875  0.66634453  0.00462777  1
  Te  Te142  1  0.16289034  0.66506208  0.33398044  1
  Te  Te143  1  0.16223645  0.66510339  0.66332919  1
  Te  Te144  1  0.50053189  0.00071726  0.00043983  1
  Te  Te145  1  0.49919120  0.00388019  0.33445761  1
  Te  Te146  1  0.49958116  0.00018640  0.66623539  1
  Te  Te147  1  0.49969280  0.33548961  0.00247422  1
  Te  Te148  1  0.49931415  0.33151661  0.33446406  1
  Te  Te149  1  0.50061173  0.33863330  0.66321420  1
  Te  Te150  1  0.50261781  0.66224893  -0.00123198  1
  Te  Te151  1  0.50147967  0.66654687  0.34003819  1
  Te  Te152  1  0.49950401  0.66351694  0.66323502  1
  Te  Te153  1  0.83295410  -0.00228534  0.00004868  1
  Te  Te154  1  0.83432940  0.00021784  0.32600597  1
  Te  Te155  1  0.83080572  -0.00241733  0.67024788  1
  Te  Te156  1  0.83334136  0.34054038  0.00084800  1
  Te  Te157  1  0.84312541  0.33445830  0.33374039  1
  Te  Te158  1  0.83949933  0.33971128  0.66644122  1
  Te  Te159  1  0.83303803  0.66657456  0.00349828  1
  Te  Te160  1  0.83914784  0.66602517  0.32670087  1
  Te  Te161  1  0.83551502  0.66682147  0.66869390  1
  Te  Te162  1  -0.00102178  0.16432035  -0.00124838  1
  Te  Te163  1  0.00277136  0.17033086  0.33645518  1
  Te  Te164  1  0.00301608  0.16674955  0.66727632  1
  Te  Te165  1  -0.00231541  0.49808673  0.00010132  1
  Te  Te166  1  0.00064105  0.50078323  0.32957586  1
  Te  Te167  1  0.00122743  0.50026599  0.66490050  1
  Te  Te168  1  -0.00349992  0.83930430  0.00451178  1
  Te  Te169  1  0.00684753  0.82922511  0.32866053  1
  Te  Te170  1  -0.00521998  0.82884988  0.66585395  1
  Te  Te171  1  0.33546746  0.16733482  -0.00138464  1
  Te  Te172  1  0.33318800  0.17143135  0.33757970  1
  Te  Te173  1  0.32759889  0.16270786  0.66068497  1
  Te  Te174  1  0.33542954  0.49973841  -0.00097569  1
  Te  Te175  1  0.33641130  0.49617971  0.33532554  1
  Te  Te176  1  0.33499136  0.49983943  0.66370940  1
  Te  Te177  1  0.33943936  0.83303557  -0.00237842  1
  Te  Te178  1  0.32609094  0.83330411  0.33883015  1
  Te  Te179  1  0.33303572  0.83820868  0.66465971  1
  Te  Te180  1  0.66479107  0.16666188  0.00384181  1
  Te  Te181  1  0.66347977  0.16639251  0.33359719  1
  Te  Te182  1  0.66879829  0.16363446  0.66298719  1
  Te  Te183  1  0.66781081  0.49997493  -0.00098631  1
  Te  Te184  1  0.65722633  0.49991567  0.33279076  1
  Te  Te185  1  0.66224576  0.50185291  0.66710244  1
  Te  Te186  1  0.66592283  0.83292341  0.00579026  1
  Te  Te187  1  0.66513562  0.83320281  0.32494598  1
  Te  Te188  1  0.67179734  0.83353904  0.66582757  1
  Te  Te189  1  0.00185321  -0.00045305  0.16249048  1
  Te  Te190  1  -0.00217358  0.00640776  0.49935913  1
  Te  Te191  1  -0.00033892  0.00208375  0.83724424  1
  Te  Te192  1  0.00059833  0.33818577  0.17125392  1
  Te  Te193  1  0.00231509  0.33178509  0.49986903  1
  Te  Te194  1  0.00083300  0.33209357  0.82854061  1
  Te  Te195  1  0.00011451  0.66621028  0.16542023  1
  Te  Te196  1  0.00143221  0.66688059  0.49812438  1
  Te  Te197  1  -0.00420478  0.66447120  0.83006830  1
  Te  Te198  1  0.33298895  -0.00137505  0.16752110  1
  Te  Te199  1  0.33616384  -0.00013611  0.50387341  1
  Te  Te200  1  0.33621980  -0.00357908  0.82912989  1
  Te  Te201  1  0.33817527  0.34069376  0.17474215  1
  Te  Te202  1  0.33180992  0.33359808  0.49809646  1
  Te  Te203  1  0.33127524  0.33516526  0.83335888  1
  Te  Te204  1  0.32985400  0.66006949  0.16810698  1
  Te  Te205  1  0.33308517  0.66622697  0.49986978  1
  Te  Te206  1  0.33211925  0.67589802  0.83283617  1
  Te  Te207  1  0.66342909  0.00036870  0.16755615  1
  Te  Te208  1  0.66269257  0.00318326  0.50370317  1
  Te  Te209  1  0.66371206  -0.00044238  0.82444962  1
  Te  Te210  1  0.65985382  0.32814191  0.16798030  1
  Te  Te211  1  0.66280122  0.32431853  0.49979455  1
  Te  Te212  1  0.66595945  0.33134404  0.83191093  1
  Te  Te213  1  0.67175925  0.67064398  0.16812282  1
  Te  Te214  1  0.66457313  0.66771757  0.50419960  1
  Te  Te215  1  0.67475392  0.66887938  0.82447072  1
