# generated using pymatgen
data_AgSbTe2
_symmetry_space_group_name_H-M   'P 1'
_cell_length_a   18.34428963
_cell_length_b   18.34683707
_cell_length_c   18.34294744
_cell_angle_alpha   89.99631612
_cell_angle_beta   90.00129039
_cell_angle_gamma   90.00149243
_symmetry_Int_Tables_number   1
_chemical_formula_structural   AgSbTe2
_chemical_formula_sum   'Ag54 Sb54 Te108'
_cell_volume   6173.49674411
_cell_formula_units_Z   54
loop_
 _symmetry_equiv_pos_site_id
 _symmetry_equiv_pos_as_xyz
  1  'x, y, z'
loop_
 _atom_site_type_symbol
 _atom_site_label
 _atom_site_symmetry_multiplicity
 _atom_site_fract_x
 _atom_site_fract_y
 _atom_site_fract_z
 _atom_site_occupancy
  Ag  Ag0  1  -0.02051119  0.50718964  0.82002761  1
  Ag  Ag1  1  0.32458765  0.49954003  0.50965560  1
  Ag  Ag2  1  0.66340483  0.33411354  0.33635746  1
  Ag  Ag3  1  0.15825666  0.50041842  0.66153087  1
  Ag  Ag4  1  0.15824534  0.65605686  0.50878838  1
  Ag  Ag5  1  0.33768742  0.82419642  0.83284405  1
  Ag  Ag6  1  -0.00861200  0.17804587  0.83659213  1
  Ag  Ag7  1  0.51008855  0.34277848  0.83158790  1
  Ag  Ag8  1  0.83514789  0.34040515  0.82958264  1
  Ag  Ag9  1  -0.01247158  0.65391953  0.67420686  1
  Ag  Ag10  1  0.33944046  0.33935449  0.34131637  1
  Ag  Ag11  1  -0.00035077  0.82133825  0.82954595  1
  Ag  Ag12  1  0.15292576  0.16677855  -0.00333492  1
  Ag  Ag13  1  0.50335334  0.16882691  0.34392521  1
  Ag  Ag14  1  -0.00224021  0.65903859  -0.01020591  1
  Ag  Ag15  1  -0.00494923  0.00213616  -0.00235722  1
  Ag  Ag16  1  0.84035134  0.65763868  0.50785053  1
  Ag  Ag17  1  0.66812139  0.49850335  0.15811525  1
  Ag  Ag18  1  0.82910253  0.82451909  0.66618429  1
  Ag  Ag19  1  0.33312146  0.65786913  0.33722035  1
  Ag  Ag20  1  0.33205669  -0.00140745  0.33375267  1
  Ag  Ag21  1  0.51047365  0.50425847  -0.01344995  1
  Ag  Ag22  1  0.66928835  0.17474891  0.83359432  1
  Ag  Ag23  1  0.16132366  0.34151698  0.50146168  1
  Ag  Ag24  1  0.50270191  0.82260797  0.67099296  1
  Ag  Ag25  1  0.83486764  0.17498244  -0.00464106  1
  Ag  Ag26  1  0.50115063  0.00043966  0.50035517  1
  Ag  Ag27  1  0.50127204  0.65937342  0.83095258  1
  Ag  Ag28  1  0.66461273  0.16575561  0.50303669  1
  Ag  Ag29  1  0.00364414  0.00000723  0.33257798  1
  Ag  Ag30  1  0.83281016  0.49739287  -0.01286766  1
  Ag  Ag31  1  0.49883731  0.50037702  0.66969759  1
  Ag  Ag32  1  0.66652691  0.16862303  0.16210619  1
  Ag  Ag33  1  0.50400206  0.17410312  0.66573301  1
  Ag  Ag34  1  0.16639550  0.00019101  0.16657833  1
  Ag  Ag35  1  -0.00740931  0.82037498  0.51313827  1
  Ag  Ag36  1  0.66273772  0.83184599  0.16626114  1
  Ag  Ag37  1  0.15775093  0.66198717  0.82750871  1
  Ag  Ag38  1  0.34081303  0.83355600  0.16351867  1
  Ag  Ag39  1  -0.00251600  0.33501238  -0.01158985  1
  Ag  Ag40  1  -0.00312590  0.34031673  0.66911352  1
  Ag  Ag41  1  0.67060595  0.00058206  -0.00044231  1
  Ag  Ag42  1  0.35114963  0.50430584  0.82358583  1
  Ag  Ag43  1  0.66988910  0.83517493  0.50478953  1
  Ag  Ag44  1  0.84372346  0.50920931  0.67240495  1
  Ag  Ag45  1  0.83702328  0.49791653  0.34838135  1
  Ag  Ag46  1  0.84408911  0.65361429  0.82101845  1
  Ag  Ag47  1  0.66533040  0.49807962  0.83208160  1
  Ag  Ag48  1  0.01232358  0.50419231  0.50936656  1
  Ag  Ag49  1  0.33299087  0.34072511  0.66440004  1
  Ag  Ag50  1  0.16209545  0.49977258  0.34438757  1
  Ag  Ag51  1  0.50279448  0.82821307  -0.01052779  1
  Ag  Ag52  1  0.67404914  0.66495931  0.66811746  1
  Ag  Ag53  1  0.83610875  0.34353015  0.50895183  1
  Sb  Sb54  1  0.66536459  -0.00351228  0.67000062  1
  Sb  Sb55  1  0.16738561  0.66899551  0.16681355  1
  Sb  Sb56  1  0.83359896  -0.00051272  0.83380248  1
  Sb  Sb57  1  0.16717345  0.17661500  0.67082039  1
  Sb  Sb58  1  0.50134846  -0.00129342  0.83014109  1
  Sb  Sb59  1  -0.00141441  0.83507055  0.16308264  1
  Sb  Sb60  1  0.83010692  -0.00128861  0.50006877  1
  Sb  Sb61  1  0.49908079  -0.00044150  0.16969158  1
  Sb  Sb62  1  0.16699229  0.33109923  0.16978558  1
  Sb  Sb63  1  -0.00521275  0.50017811  0.16412982  1
  Sb  Sb64  1  0.83356820  0.82803956  0.33920902  1
  Sb  Sb65  1  0.33846974  0.50370838  0.16861099  1
  Sb  Sb66  1  0.82917583  0.17237612  0.33227829  1
  Sb  Sb67  1  0.33168872  0.65721328  0.66695938  1
  Sb  Sb68  1  0.50244394  0.33457019  0.16310264  1
  Sb  Sb69  1  0.16939246  -0.00122707  0.49546258  1
  Sb  Sb70  1  0.50109996  0.66826706  0.50672472  1
  Sb  Sb71  1  0.16934474  0.16991010  0.33131618  1
  Sb  Sb72  1  0.16764985  0.82505247  0.66806278  1
  Sb  Sb73  1  0.16331052  -0.00416449  0.83652922  1
  Sb  Sb74  1  0.50556269  0.16743168  -0.00326724  1
  Sb  Sb75  1  0.33112448  0.66607421  -0.00325119  1
  Sb  Sb76  1  0.82950761  0.17275108  0.67073469  1
  Sb  Sb77  1  0.67072990  0.33311948  -0.00150401  1
  Sb  Sb78  1  0.33727912  0.17243476  0.49927830  1
  Sb  Sb79  1  0.50039090  0.66662201  0.16146121  1
  Sb  Sb80  1  0.66452421  0.66168035  0.33823793  1
  Sb  Sb81  1  0.49966946  0.83528539  0.33622576  1
  Sb  Sb82  1  -0.00151318  0.33353834  0.33833437  1
  Sb  Sb83  1  0.33761460  0.00279513  0.66349639  1
  Sb  Sb84  1  0.16737451  0.82835805  0.33424809  1
  Sb  Sb85  1  0.83392781  0.00109044  0.16476916  1
  Sb  Sb86  1  0.66735324  0.82915266  0.83067428  1
  Sb  Sb87  1  0.67025168  0.50054713  0.50615804  1
  Sb  Sb88  1  -0.00505230  0.17110553  0.50507772  1
  Sb  Sb89  1  0.66768437  0.34011958  0.66650284  1
  Sb  Sb90  1  -0.00009281  -0.00378511  0.66893110  1
  Sb  Sb91  1  0.33356734  -0.00190529  0.00232270  1
  Sb  Sb92  1  0.00246115  0.66753094  0.34049786  1
  Sb  Sb93  1  0.83119573  0.66439259  0.16375148  1
  Sb  Sb94  1  0.50062111  0.49603337  0.33846365  1
  Sb  Sb95  1  0.33409509  0.82746587  0.50249409  1
  Sb  Sb96  1  0.50227266  0.33192619  0.50655926  1
  Sb  Sb97  1  0.16074341  0.49786318  -0.00537699  1
  Sb  Sb98  1  0.66941051  0.66531048  -0.00784243  1
  Sb  Sb99  1  0.33521153  0.17110930  0.83200753  1
  Sb  Sb100  1  0.16734130  0.83501907  -0.00089652  1
  Sb  Sb101  1  0.66697914  0.00468418  0.33160405  1
  Sb  Sb102  1  0.32938402  0.33629749  -0.00532115  1
  Sb  Sb103  1  0.83158833  0.33501272  0.16286769  1
  Sb  Sb104  1  -0.00359743  0.16582820  0.15905184  1
  Sb  Sb105  1  0.16000204  0.34219448  0.82837084  1
  Sb  Sb106  1  0.33645503  0.16343250  0.16902502  1
  Sb  Sb107  1  0.83163061  0.83026941  -0.00478228  1
  Te  Te108  1  0.16736980  0.16260186  0.16275211  1
  Te  Te109  1  0.16465821  0.17076009  0.50091908  1
  Te  Te110  1  0.16729940  0.16559701  0.83797243  1
  Te  Te111  1  0.16840440  0.50014180  0.16784261  1
  Te  Te112  1  0.16787478  0.49811641  0.49955724  1
  Te  Te113  1  0.16794260  0.50473847  0.83328283  1
  Te  Te114  1  0.16966448  0.83725805  0.16668482  1
  Te  Te115  1  0.16080554  0.83137414  0.49990637  1
  Te  Te116  1  0.16537910  0.82722699  0.83342824  1
  Te  Te117  1  0.50680703  0.16729132  0.16605000  1
  Te  Te118  1  0.50279747  0.16648152  0.50198359  1
  Te  Te119  1  0.50258432  0.16709015  0.82791433  1
  Te  Te120  1  0.50731828  0.50066225  0.16374799  1
  Te  Te121  1  0.49687883  0.49976605  0.50696142  1
  Te  Te122  1  0.50545999  0.49925223  0.83201174  1
  Te  Te123  1  0.50048613  0.83330567  0.16597223  1
  Te  Te124  1  0.50244253  0.83579655  0.50550610  1
  Te  Te125  1  0.49940458  0.83439746  0.83211249  1
  Te  Te126  1  0.82541447  0.16733880  0.16137131  1
  Te  Te127  1  0.82601851  0.16864009  0.50123457  1
  Te  Te128  1  0.83204880  0.16601510  0.83545326  1
  Te  Te129  1  0.82660362  0.49965449  0.16893851  1
  Te  Te130  1  0.82854201  0.50028890  0.50427256  1
  Te  Te131  1  0.82569845  0.49886464  0.83084253  1
  Te  Te132  1  0.82511430  0.83275587  0.16758169  1
  Te  Te133  1  0.83351757  0.83277319  0.50318540  1
  Te  Te134  1  0.83695840  0.83106542  0.82881905  1
  Te  Te135  1  0.16603956  0.00392757  0.00360986  1
  Te  Te136  1  0.16657868  0.00121992  0.32925693  1
  Te  Te137  1  0.16879639  0.00294265  0.66568334  1
  Te  Te138  1  0.16178408  0.32769039  0.00190853  1
  Te  Te139  1  0.16780575  0.33746480  0.33778367  1
  Te  Te140  1  0.16866255  0.33782698  0.66104562  1
  Te  Te141  1  0.15961211  0.66663073  -0.00296664  1
  Te  Te142  1  0.16981846  0.66063645  0.33377219  1
  Te  Te143  1  0.16529802  0.66141185  0.66675066  1
  Te  Te144  1  0.50372601  -0.00330727  0.00122599  1
  Te  Te145  1  0.49905052  0.00339274  0.33765248  1
  Te  Te146  1  0.50070138  0.00433902  0.65991833  1
  Te  Te147  1  0.49789604  0.33750983  -0.00846958  1
  Te  Te148  1  0.50057965  0.32891889  0.33192795  1
  Te  Te149  1  0.50180542  0.33378806  0.67151168  1
  Te  Te150  1  0.49983375  0.66631741  -0.00655488  1
  Te  Te151  1  0.49399114  0.66532160  0.33384728  1
  Te  Te152  1  0.49792262  0.66619441  0.67034844  1
  Te  Te153  1  0.83234545  -0.00120306  0.00052576  1
  Te  Te154  1  0.83999094  -0.00022071  0.33254517  1
  Te  Te155  1  0.83353257  -0.01036642  0.66601168  1
  Te  Te156  1  0.83662923  0.33539478  -0.00304022  1
  Te  Te157  1  0.83137837  0.33753376  0.33401771  1
  Te  Te158  1  0.83480462  0.33687149  0.66818862  1
  Te  Te159  1  0.83704127  0.66264087  -0.00288768  1
  Te  Te160  1  0.83323465  0.65863693  0.33540928  1
  Te  Te161  1  0.83297584  0.66897622  0.66456111  1
  Te  Te162  1  -0.00371092  0.16523365  -0.00218438  1
  Te  Te163  1  -0.00038269  0.16225767  0.33374362  1
  Te  Te164  1  -0.00096935  0.16647519  0.67521340  1
  Te  Te165  1  -0.00510687  0.49871795  0.00032423  1
  Te  Te166  1  -0.00052177  0.49963972  0.33266316  1
  Te  Te167  1  0.00062819  0.49751015  0.66446726  1
  Te  Te168  1  -0.00023429  0.83848479  -0.00505690  1
  Te  Te169  1  -0.00045892  0.83763726  0.33262938  1
  Te  Te170  1  0.00180718  0.83226684  0.66891530  1
  Te  Te171  1  0.33193074  0.16688029  0.00055845  1
  Te  Te172  1  0.33880527  0.16575049  0.33314710  1
  Te  Te173  1  0.33864554  0.17260389  0.66676809  1
  Te  Te174  1  0.33490845  0.49997820  -0.00021226  1
  Te  Te175  1  0.33430132  0.49896708  0.33243096  1
  Te  Te176  1  0.33878924  0.49821872  0.66743299  1
  Te  Te177  1  0.33765303  0.83297046  -0.00119380  1
  Te  Te178  1  0.33390872  0.83705174  0.33384736  1
  Te  Te179  1  0.33677453  0.83556676  0.67188180  1
  Te  Te180  1  0.66918669  0.16641328  -0.00127414  1
  Te  Te181  1  0.66409633  0.16948482  0.33551967  1
  Te  Te182  1  0.66389846  0.16474913  0.66658025  1
  Te  Te183  1  0.66909594  0.49983973  0.00025139  1
  Te  Te184  1  0.66766764  0.49588116  0.33462410  1
  Te  Te185  1  0.66028718  0.50428669  0.66951905  1
  Te  Te186  1  0.66397101  0.83421227  0.00040594  1
  Te  Te187  1  0.66702292  0.83324270  0.33344755  1
  Te  Te188  1  0.66413887  0.83173905  0.66418941  1
  Te  Te189  1  0.00412319  -0.00044912  0.16554837  1
  Te  Te190  1  0.00113137  0.00221083  0.49686151  1
  Te  Te191  1  0.00036877  0.00422807  0.83861147  1
  Te  Te192  1  0.00034954  0.33275337  0.16135230  1
  Te  Te193  1  -0.00266584  0.33532090  0.50404107  1
  Te  Te194  1  -0.00000086  0.33610300  0.83108135  1
  Te  Te195  1  -0.00010441  0.66867751  0.16101984  1
  Te  Te196  1  -0.00020218  0.66513965  0.50033086  1
  Te  Te197  1  -0.00040501  0.66478220  0.83331386  1
  Te  Te198  1  0.33032979  -0.00371754  0.17019071  1
  Te  Te199  1  0.33678749  -0.00066564  0.49477968  1
  Te  Te200  1  0.33186100  -0.00655636  0.83241773  1
  Te  Te201  1  0.33402271  0.33354219  0.17386621  1
  Te  Te202  1  0.33518885  0.33745737  0.50105441  1
  Te  Te203  1  0.33161850  0.33922011  0.82871704  1
  Te  Te204  1  0.33369803  0.67337083  0.17131069  1
  Te  Te205  1  0.33037849  0.66237841  0.49554143  1
  Te  Te206  1  0.34028304  0.66502297  0.83436993  1
  Te  Te207  1  0.66671259  -0.00167175  0.16296427  1
  Te  Te208  1  0.66283105  -0.00062373  0.49937328  1
  Te  Te209  1  0.66655960  0.00656369  0.83988103  1
  Te  Te210  1  0.66644072  0.33430241  0.17150042  1
  Te  Te211  1  0.67043474  0.32954500  0.49789612  1
  Te  Te212  1  0.66972597  0.33330982  0.83321578  1
  Te  Te213  1  0.66552351  0.66818826  0.16908785  1
  Te  Te214  1  0.66982902  0.67266304  0.50444860  1
  Te  Te215  1  0.66236679  0.66465373  0.82942156  1
