# generated using pymatgen
data_AgSbTe2
_symmetry_space_group_name_H-M   'P 1'
_cell_length_a   18.32944825
_cell_length_b   18.33644200
_cell_length_c   18.34000180
_cell_angle_alpha   89.99777734
_cell_angle_beta   89.99964651
_cell_angle_gamma   90.00037462
_symmetry_Int_Tables_number   1
_chemical_formula_structural   AgSbTe2
_chemical_formula_sum   'Ag54 Sb54 Te108'
_cell_volume   6164.01709854
_cell_formula_units_Z   54
loop_
 _symmetry_equiv_pos_site_id
 _symmetry_equiv_pos_as_xyz
  1  'x, y, z'
loop_
 _atom_site_type_symbol
 _atom_site_label
 _atom_site_symmetry_multiplicity
 _atom_site_fract_x
 _atom_site_fract_y
 _atom_site_fract_z
 _atom_site_occupancy
  Ag  Ag0  1  0.00167155  0.50392326  0.16753967  1
  Ag  Ag1  1  0.16587602  0.66887330  0.49291846  1
  Ag  Ag2  1  0.33667882  0.49554736  0.49220596  1
  Ag  Ag3  1  0.49847747  -0.00218066  0.16943820  1
  Ag  Ag4  1  0.35090523  0.17013962  0.82896063  1
  Ag  Ag5  1  0.65916553  0.16699352  0.50101595  1
  Ag  Ag6  1  -0.00087908  0.66077239  0.66719002  1
  Ag  Ag7  1  0.17006266  -0.00091684  0.49353963  1
  Ag  Ag8  1  -0.00610000  0.82739670  0.83130372  1
  Ag  Ag9  1  0.50575486  0.83879647  0.67319753  1
  Ag  Ag10  1  0.34413981  0.49981220  0.17246638  1
  Ag  Ag11  1  0.84219516  0.66515538  0.16573000  1
  Ag  Ag12  1  0.33799343  0.00643610  0.33445234  1
  Ag  Ag13  1  0.83044479  0.32923935  0.83538963  1
  Ag  Ag14  1  0.66400218  0.32775541  -0.00497634  1
  Ag  Ag15  1  -0.00046725  0.33749287  0.33819404  1
  Ag  Ag16  1  0.50610662  0.32067116  0.83956015  1
  Ag  Ag17  1  0.66029248  0.83252659  0.16186315  1
  Ag  Ag18  1  0.17394969  -0.00629813  0.17365291  1
  Ag  Ag19  1  0.00358903  0.66067445  0.33117756  1
  Ag  Ag20  1  0.83124168  0.49536849  0.00108659  1
  Ag  Ag21  1  -0.00204486  0.17074370  0.50129706  1
  Ag  Ag22  1  0.49678064  0.49210455  0.32698474  1
  Ag  Ag23  1  -0.00163089  0.49626346  0.83517755  1
  Ag  Ag24  1  0.34306451  0.33031309  0.33499821  1
  Ag  Ag25  1  0.66277789  0.00939342  -0.00194946  1
  Ag  Ag26  1  0.16044132  0.66887798  0.17372530  1
  Ag  Ag27  1  0.50279671  0.16917085  0.33486556  1
  Ag  Ag28  1  0.50378695  0.16509944  0.67503743  1
  Ag  Ag29  1  0.00220018  0.49802348  0.49548632  1
  Ag  Ag30  1  0.82631671  0.16864333  0.33598958  1
  Ag  Ag31  1  0.50237619  0.00672631  0.84054162  1
  Ag  Ag32  1  0.50126401  0.67058397  0.83889587  1
  Ag  Ag33  1  -0.00275085  0.66246233  0.00416654  1
  Ag  Ag34  1  0.50178381  0.33499129  0.16831377  1
  Ag  Ag35  1  0.49918281  0.66527162  0.16788802  1
  Ag  Ag36  1  -0.00588209  0.17714257  0.82954535  1
  Ag  Ag37  1  0.17127655  0.83312832  0.33224481  1
  Ag  Ag38  1  0.49890185  0.83648035  0.32985597  1
  Ag  Ag39  1  0.66801450  0.32825396  0.67687411  1
  Ag  Ag40  1  0.50490038  0.49602225  0.00654366  1
  Ag  Ag41  1  0.65883215  0.32869946  0.33162767  1
  Ag  Ag42  1  0.82350748  0.17186394  -0.00371339  1
  Ag  Ag43  1  0.50590555  0.16695426  -0.01117357  1
  Ag  Ag44  1  0.34420340  0.16695643  0.49850923  1
  Ag  Ag45  1  0.49596915  0.67048122  0.49452248  1
  Ag  Ag46  1  0.82708470  0.83301294  0.66911926  1
  Ag  Ag47  1  0.15471915  0.33051040  0.83375277  1
  Ag  Ag48  1  0.66096594  0.83972801  0.83639393  1
  Ag  Ag49  1  0.66515304  0.16900036  0.83699685  1
  Ag  Ag50  1  0.50500455  0.83655892  0.00118215  1
  Ag  Ag51  1  0.49876629  0.00638292  0.49372180  1
  Ag  Ag52  1  -0.00479351  0.33513801  0.67063931  1
  Ag  Ag53  1  0.82759580  0.00631539  0.49878875  1
  Sb  Sb54  1  0.00027937  0.83283731  0.50325499  1
  Sb  Sb55  1  0.83556784  0.66994905  0.49650699  1
  Sb  Sb56  1  0.16872783  0.16757508  0.66506299  1
  Sb  Sb57  1  -0.00225239  0.82646041  0.16388008  1
  Sb  Sb58  1  0.16406858  0.49891172  0.66513380  1
  Sb  Sb59  1  -0.00718487  0.33834411  -0.00317451  1
  Sb  Sb60  1  0.34099707  0.84007702  0.83322153  1
  Sb  Sb61  1  0.33926501  0.00201229  0.65966566  1
  Sb  Sb62  1  0.66759881  0.49403923  0.83571792  1
  Sb  Sb63  1  0.33877184  0.16932420  0.17090996  1
  Sb  Sb64  1  0.83116544  0.83678075  0.33536010  1
  Sb  Sb65  1  0.50057053  0.32831038  0.49715025  1
  Sb  Sb66  1  0.17193698  0.00476535  0.83273502  1
  Sb  Sb67  1  0.66167799  0.84123899  0.50160155  1
  Sb  Sb68  1  0.16891327  0.83258559  0.00500102  1
  Sb  Sb69  1  0.83473676  0.32841597  0.50187757  1
  Sb  Sb70  1  0.33311451  0.66347948  0.33352622  1
  Sb  Sb71  1  0.66875471  0.66499557  0.66786907  1
  Sb  Sb72  1  0.82771207  0.33704093  0.16370875  1
  Sb  Sb73  1  0.33560769  0.66470683  0.00159555  1
  Sb  Sb74  1  0.83203987  0.66434158  0.83777364  1
  Sb  Sb75  1  0.16453326  0.50013949  0.00203032  1
  Sb  Sb76  1  0.00385006  0.00120192  0.33479628  1
  Sb  Sb77  1  0.66532641  0.49348344  0.49776668  1
  Sb  Sb78  1  0.66330864  0.50240282  0.16568049  1
  Sb  Sb79  1  0.16957462  0.16239555  0.33547248  1
  Sb  Sb80  1  0.16440809  0.33354448  0.50140110  1
  Sb  Sb81  1  0.50088710  0.49728612  0.66620472  1
  Sb  Sb82  1  0.16899027  0.16693403  -0.00114521  1
  Sb  Sb83  1  0.82720277  0.00345368  0.83030608  1
  Sb  Sb84  1  0.16627975  0.83265396  0.66273185  1
  Sb  Sb85  1  0.82861024  -0.00235120  0.16981706  1
  Sb  Sb86  1  0.33203174  0.66607521  0.66330883  1
  Sb  Sb87  1  0.82853913  0.16540137  0.66604097  1
  Sb  Sb88  1  0.82706663  0.83243253  -0.00324377  1
  Sb  Sb89  1  0.83726146  0.50037299  0.67175165  1
  Sb  Sb90  1  -0.00161478  0.00300636  0.66614362  1
  Sb  Sb91  1  0.34085884  0.82979070  0.17005451  1
  Sb  Sb92  1  0.33470364  0.49288879  0.83540200  1
  Sb  Sb93  1  0.66606174  0.66559293  0.00016852  1
  Sb  Sb94  1  0.65761712  0.00636814  0.32998556  1
  Sb  Sb95  1  0.66405796  0.66375187  0.33187652  1
  Sb  Sb96  1  -0.00566769  -0.00212933  -0.00075999  1
  Sb  Sb97  1  -0.00094372  0.17235273  0.16824174  1
  Sb  Sb98  1  0.34401231  0.33238346  0.00390044  1
  Sb  Sb99  1  0.16409142  0.66355806  0.83357094  1
  Sb  Sb100  1  0.34403962  0.00267301  0.00681228  1
  Sb  Sb101  1  0.33616256  0.83692745  0.49628266  1
  Sb  Sb102  1  0.17022399  0.33590047  0.16606345  1
  Sb  Sb103  1  0.66293049  0.16498840  0.16352418  1
  Sb  Sb104  1  0.33661650  0.33117016  0.66361344  1
  Sb  Sb105  1  0.16995609  0.50450785  0.33331365  1
  Sb  Sb106  1  0.83398895  0.49499781  0.32871483  1
  Sb  Sb107  1  0.66367520  0.00506368  0.67008575  1
  Te  Te108  1  0.16844503  0.16043960  0.16578765  1
  Te  Te109  1  0.16080405  0.16292867  0.50068835  1
  Te  Te110  1  0.15469504  0.16919217  0.83229877  1
  Te  Te111  1  0.16287364  0.50440756  0.16638209  1
  Te  Te112  1  0.16286385  0.50442687  0.49938534  1
  Te  Te113  1  0.16379559  0.49429406  0.83401428  1
  Te  Te114  1  0.16616927  0.83168655  0.17075607  1
  Te  Te115  1  0.16783659  0.83257791  0.49500842  1
  Te  Te116  1  0.16607413  0.83462944  0.83357433  1
  Te  Te117  1  0.49884550  0.16582108  0.17516981  1
  Te  Te118  1  0.49970262  0.16690245  0.49355628  1
  Te  Te119  1  0.50675946  0.16494064  0.83232818  1
  Te  Te120  1  0.50178860  0.49944318  0.16714089  1
  Te  Te121  1  0.49858750  0.50267050  0.49792957  1
  Te  Te122  1  0.49892926  0.50838754  0.83512984  1
  Te  Te123  1  0.50033960  0.83486320  0.16730742  1
  Te  Te124  1  0.50028034  0.83132964  0.49709194  1
  Te  Te125  1  0.50125009  0.83163220  0.83333216  1
  Te  Te126  1  0.83380374  0.16592928  0.16795674  1
  Te  Te127  1  0.83789528  0.16419548  0.49938174  1
  Te  Te128  1  0.83352443  0.16763876  0.83328158  1
  Te  Te129  1  0.83697068  0.50446362  0.16173880  1
  Te  Te130  1  0.83931913  0.50139845  0.49881823  1
  Te  Te131  1  0.83712369  0.49682209  0.83938073  1
  Te  Te132  1  0.82644653  0.82897467  0.16654729  1
  Te  Te133  1  0.83095617  0.83950481  0.50433549  1
  Te  Te134  1  0.83333582  0.83381348  0.83034624  1
  Te  Te135  1  0.16768514  -0.00152356  0.00614697  1
  Te  Te136  1  0.16952524  -0.00416887  0.33357005  1
  Te  Te137  1  0.16798000  -0.00143454  0.65846037  1
  Te  Te138  1  0.16871773  0.33248835  -0.00519285  1
  Te  Te139  1  0.15911818  0.33240403  0.33229017  1
  Te  Te140  1  0.15878340  0.33249805  0.67245829  1
  Te  Te141  1  0.16062617  0.66772570  0.00412639  1
  Te  Te142  1  0.16601826  0.67027396  0.33366190  1
  Te  Te143  1  0.16005027  0.66814952  0.66227366  1
  Te  Te144  1  0.50332314  0.00145629  0.00154087  1
  Te  Te145  1  0.49872979  -0.00065800  0.33247033  1
  Te  Te146  1  0.50047832  0.00030023  0.66253659  1
  Te  Te147  1  0.50342845  0.33238521  0.00101366  1
  Te  Te148  1  0.49916974  0.33391368  0.33335830  1
  Te  Te149  1  0.50364944  0.32996657  0.67150419  1
  Te  Te150  1  0.50017381  0.66538536  0.00241546  1
  Te  Te151  1  0.49991305  0.66929490  0.33296949  1
  Te  Te152  1  0.50056096  0.66652524  0.66378928  1
  Te  Te153  1  0.82659561  0.00551631  0.00099066  1
  Te  Te154  1  0.83358038  0.00522795  0.33819869  1
  Te  Te155  1  0.83231689  -0.00648964  0.66038960  1
  Te  Te156  1  0.82752584  0.33270477  -0.00205880  1
  Te  Te157  1  0.83779156  0.32862595  0.33195634  1
  Te  Te158  1  0.83367336  0.33282242  0.67197588  1
  Te  Te159  1  0.83626713  0.66369943  0.00426010  1
  Te  Te160  1  0.83610017  0.66735046  0.32801584  1
  Te  Te161  1  0.83787380  0.67140052  0.66627416  1
  Te  Te162  1  -0.00279125  0.16682632  -0.00162617  1
  Te  Te163  1  -0.00107339  0.16983844  0.33563185  1
  Te  Te164  1  -0.00178464  0.17017973  0.66636782  1
  Te  Te165  1  -0.00175525  0.50323651  -0.00002707  1
  Te  Te166  1  -0.00124030  0.50093722  0.33382269  1
  Te  Te167  1  -0.00092249  0.49851677  0.66694734  1
  Te  Te168  1  -0.00159271  0.82896166  -0.00677789  1
  Te  Te169  1  0.00034979  0.82865598  0.33297130  1
  Te  Te170  1  -0.00008617  0.83191012  0.67153167  1
  Te  Te171  1  0.33774585  0.16711379  -0.00793098  1
  Te  Te172  1  0.33536190  0.16923740  0.33686204  1
  Te  Te173  1  0.33984848  0.16773604  0.66415722  1
  Te  Te174  1  0.33978586  0.49944055  0.00478662  1
  Te  Te175  1  0.33607565  0.49722235  0.33364454  1
  Te  Te176  1  0.33226139  0.49854124  0.65566091  1
  Te  Te177  1  0.34240379  0.83324445  -0.00009087  1
  Te  Te178  1  0.33468308  0.84066533  0.33300269  1
  Te  Te179  1  0.34342446  0.83301511  0.66674817  1
  Te  Te180  1  0.66541234  0.16805400  0.00000124  1
  Te  Te181  1  0.66726184  0.16870409  0.33307766  1
  Te  Te182  1  0.66373194  0.17045929  0.66625475  1
  Te  Te183  1  0.66651494  0.49439818  -0.00033432  1
  Te  Te184  1  0.66155439  0.49238336  0.33355286  1
  Te  Te185  1  0.66945752  0.48991690  0.66583260  1
  Te  Te186  1  0.66322958  0.83174798  -0.00290710  1
  Te  Te187  1  0.66226880  0.83301211  0.33131804  1
  Te  Te188  1  0.66498735  0.83171063  0.66979739  1
  Te  Te189  1  0.00239793  -0.00057856  0.16593589  1
  Te  Te190  1  0.00353841  0.00368474  0.49979383  1
  Te  Te191  1  0.00169937  -0.00103260  0.83388302  1
  Te  Te192  1  0.00064197  0.34085897  0.16898238  1
  Te  Te193  1  0.00038781  0.33394646  0.50009784  1
  Te  Te194  1  -0.00379623  0.33588938  0.83479089  1
  Te  Te195  1  0.00121353  0.66507749  0.16795819  1
  Te  Te196  1  0.00041902  0.66552793  0.49897480  1
  Te  Te197  1  0.00057617  0.66471581  0.83110932  1
  Te  Te198  1  0.33474977  0.00120087  0.17245354  1
  Te  Te199  1  0.33562608  0.00438542  0.49490534  1
  Te  Te200  1  0.33805275  0.00819916  0.83295008  1
  Te  Te201  1  0.33630909  0.33821414  0.17349013  1
  Te  Te202  1  0.33022238  0.33243290  0.49610530  1
  Te  Te203  1  0.33842776  0.32955565  0.83161824  1
  Te  Te204  1  0.33588714  0.65974225  0.16702228  1
  Te  Te205  1  0.33317565  0.66201134  0.50004650  1
  Te  Te206  1  0.33572046  0.66447060  0.83217484  1
  Te  Te207  1  0.66283882  -0.00691003  0.16106484  1
  Te  Te208  1  0.66398252  0.00764513  0.49959468  1
  Te  Te209  1  0.66232311  0.00052247  0.83615533  1
  Te  Te210  1  0.66142102  0.33374533  0.16992650  1
  Te  Te211  1  0.66850999  0.32637751  0.49466642  1
  Te  Te212  1  0.66646702  0.33208002  0.83523772  1
  Te  Te213  1  0.65876287  0.67183182  0.16641442  1
  Te  Te214  1  0.66131539  0.66486233  0.50082935  1
  Te  Te215  1  0.66266592  0.67183549  0.83243233  1
