# generated using pymatgen
data_AgSbTe2
_symmetry_space_group_name_H-M   'P 1'
_cell_length_a   18.33849938
_cell_length_b   18.33148121
_cell_length_c   18.33580984
_cell_angle_alpha   90.00307863
_cell_angle_beta   90.00132032
_cell_angle_gamma   90.00088311
_symmetry_Int_Tables_number   1
_chemical_formula_structural   AgSbTe2
_chemical_formula_sum   'Ag54 Sb54 Te108'
_cell_volume   6163.98322911
_cell_formula_units_Z   54
loop_
 _symmetry_equiv_pos_site_id
 _symmetry_equiv_pos_as_xyz
  1  'x, y, z'
loop_
 _atom_site_type_symbol
 _atom_site_label
 _atom_site_symmetry_multiplicity
 _atom_site_fract_x
 _atom_site_fract_y
 _atom_site_fract_z
 _atom_site_occupancy
  Ag  Ag0  1  0.33543455  0.84359335  0.49703228  1
  Ag  Ag1  1  0.67110009  0.49445131  0.83568221  1
  Ag  Ag2  1  0.67573289  0.33479595  0.66951969  1
  Ag  Ag3  1  0.33194957  -0.00221154  0.33672731  1
  Ag  Ag4  1  0.83249713  0.16549036  0.33760506  1
  Ag  Ag5  1  0.00217667  0.83653568  0.16159768  1
  Ag  Ag6  1  0.16437184  0.48736274  0.00545471  1
  Ag  Ag7  1  0.00084069  0.00641429  -0.00350607  1
  Ag  Ag8  1  0.67022028  0.48722990  0.15946730  1
  Ag  Ag9  1  0.33383417  0.33311983  0.00180162  1
  Ag  Ag10  1  0.83326969  0.33173191  0.83356068  1
  Ag  Ag11  1  0.66699258  0.00102840  0.33343223  1
  Ag  Ag12  1  0.83496364  0.65089481  0.83450880  1
  Ag  Ag13  1  0.66538694  0.83867807  0.16929827  1
  Ag  Ag14  1  -0.00117161  0.16381230  0.82730999  1
  Ag  Ag15  1  0.83858448  0.00990633  0.50174983  1
  Ag  Ag16  1  0.66948434  0.33443350  0.00431925  1
  Ag  Ag17  1  0.83952833  0.00473326  0.83073245  1
  Ag  Ag18  1  -0.00393363  0.16499018  0.50719857  1
  Ag  Ag19  1  0.16062533  0.00364839  0.49689536  1
  Ag  Ag20  1  0.49750906  0.84032078  0.32508280  1
  Ag  Ag21  1  0.00084883  0.84439591  0.84251400  1
  Ag  Ag22  1  0.66387636  0.84622366  0.49286872  1
  Ag  Ag23  1  0.33228452  0.16390141  0.50132730  1
  Ag  Ag24  1  -0.00690460  0.32862605  0.67374556  1
  Ag  Ag25  1  0.51207172  0.32894497  0.15905425  1
  Ag  Ag26  1  0.82769753  0.49199781  -0.00454459  1
  Ag  Ag27  1  0.51323188  0.49043578  0.67245659  1
  Ag  Ag28  1  0.83085192  0.32781649  0.50506053  1
  Ag  Ag29  1  0.16279478  0.49095719  0.66653026  1
  Ag  Ag30  1  0.16433880  0.17159962  -0.00093512  1
  Ag  Ag31  1  -0.00079955  0.00173999  0.33349399  1
  Ag  Ag32  1  0.50578857  0.00169968  0.84067481  1
  Ag  Ag33  1  -0.00221213  0.32966650  -0.00039942  1
  Ag  Ag34  1  0.67548203  0.16737982  0.49689638  1
  Ag  Ag35  1  0.16546649  0.50116658  0.32335949  1
  Ag  Ag36  1  0.49833212  0.16941345  0.00019269  1
  Ag  Ag37  1  0.15707705  0.17016387  0.66726685  1
  Ag  Ag38  1  0.66540233  0.17097303  0.16761515  1
  Ag  Ag39  1  -0.00153788  0.01065178  0.66870592  1
  Ag  Ag40  1  0.50789292  0.48595735  0.00019797  1
  Ag  Ag41  1  0.50479646  0.00249475  0.16342225  1
  Ag  Ag42  1  0.33348346  0.49269607  0.50262190  1
  Ag  Ag43  1  0.16296561  0.65649083  0.16525896  1
  Ag  Ag44  1  0.32959023  0.83686699  0.83843890  1
  Ag  Ag45  1  0.16970616  0.83854717  0.32699059  1
  Ag  Ag46  1  0.15966194  0.33637808  0.15998898  1
  Ag  Ag47  1  0.49766689  0.84318177  0.00490307  1
  Ag  Ag48  1  0.66609797  0.48761769  0.50439178  1
  Ag  Ag49  1  0.83001835  0.49254575  0.67489012  1
  Ag  Ag50  1  0.00475009  0.49285412  0.16230857  1
  Ag  Ag51  1  0.83094896  0.33477975  0.15542476  1
  Ag  Ag52  1  0.16446563  0.83701226  0.00660505  1
  Ag  Ag53  1  0.49901633  0.17001091  0.66896884  1
  Sb  Sb54  1  -0.00047556  0.32830854  0.33040670  1
  Sb  Sb55  1  0.83658203  0.65994160  0.16147881  1
  Sb  Sb56  1  0.66889300  0.83286955  0.83583575  1
  Sb  Sb57  1  0.83357609  0.83261440  0.66794445  1
  Sb  Sb58  1  0.66691524  0.65801549  0.00103758  1
  Sb  Sb59  1  0.83552927  0.49209824  0.33148597  1
  Sb  Sb60  1  0.83454392  0.83252730  -0.00002981  1
  Sb  Sb61  1  0.66790943  0.32815137  0.33047918  1
  Sb  Sb62  1  0.50459201  0.66892172  0.83470571  1
  Sb  Sb63  1  0.50453062  0.33118376  0.49853834  1
  Sb  Sb64  1  0.83659085  0.17407028  0.66144379  1
  Sb  Sb65  1  0.15987323  0.33315773  0.83939182  1
  Sb  Sb66  1  0.33797042  0.16681757  0.16873385  1
  Sb  Sb67  1  0.50417535  0.16131125  0.33106040  1
  Sb  Sb68  1  0.16681051  0.66827170  0.49619184  1
  Sb  Sb69  1  0.33069856  0.49612884  0.16841893  1
  Sb  Sb70  1  0.33216960  0.66548974  0.66703472  1
  Sb  Sb71  1  -0.00483359  0.16766333  0.16486335  1
  Sb  Sb72  1  0.66690224  0.67240177  0.33206172  1
  Sb  Sb73  1  0.16048291  0.66643367  0.83881842  1
  Sb  Sb74  1  -0.00589073  0.49498197  0.83870949  1
  Sb  Sb75  1  0.00158685  0.67315725  0.33150901  1
  Sb  Sb76  1  0.66735484  0.65703442  0.66720818  1
  Sb  Sb77  1  0.67131702  0.17163792  0.83203431  1
  Sb  Sb78  1  0.00076532  0.66402857  -0.00005522  1
  Sb  Sb79  1  0.00042859  0.84564643  0.49730582  1
  Sb  Sb80  1  0.66813191  0.00612536  0.00346433  1
  Sb  Sb81  1  0.50123947  0.00216497  0.49823698  1
  Sb  Sb82  1  0.50113484  0.83858230  0.66794354  1
  Sb  Sb83  1  0.33267876  0.33265840  0.67091044  1
  Sb  Sb84  1  0.49859216  0.50204225  0.33049428  1
  Sb  Sb85  1  0.50599636  0.32873569  0.83926121  1
  Sb  Sb86  1  0.33199097  0.83614569  0.16734076  1
  Sb  Sb87  1  0.16306996  0.32820734  0.49829317  1
  Sb  Sb88  1  0.33124756  0.66289819  -0.00009066  1
  Sb  Sb89  1  0.49761851  0.66683303  0.16412185  1
  Sb  Sb90  1  0.33149079  0.67179578  0.33350144  1
  Sb  Sb91  1  0.50044868  0.66648489  0.50074662  1
  Sb  Sb92  1  0.83351073  0.84263646  0.33281439  1
  Sb  Sb93  1  0.32933676  0.00202834  0.66271189  1
  Sb  Sb94  1  0.16451452  0.83658596  0.66565415  1
  Sb  Sb95  1  0.33128251  0.16354430  0.83165498  1
  Sb  Sb96  1  0.33194622  0.00316605  0.00239150  1
  Sb  Sb97  1  0.67192826  0.00891751  0.66163843  1
  Sb  Sb98  1  0.83043260  0.00557063  0.16708860  1
  Sb  Sb99  1  -0.00059046  0.49136174  0.49823200  1
  Sb  Sb100  1  -0.00032776  0.66153252  0.67046302  1
  Sb  Sb101  1  0.16258227  0.00010535  0.83169987  1
  Sb  Sb102  1  0.16678563  0.00298190  0.16908121  1
  Sb  Sb103  1  0.33193474  0.32906634  0.33125194  1
  Sb  Sb104  1  0.16316713  0.16434151  0.33316926  1
  Sb  Sb105  1  0.33758576  0.50219307  0.83125701  1
  Sb  Sb106  1  0.83478781  0.17273259  0.00157352  1
  Sb  Sb107  1  0.83143165  0.66359326  0.50456977  1
  Te  Te108  1  0.16720058  0.17193383  0.16187315  1
  Te  Te109  1  0.16715700  0.16375399  0.50044407  1
  Te  Te110  1  0.16348611  0.16647070  0.83330517  1
  Te  Te111  1  0.16663442  0.49752272  0.16484084  1
  Te  Te112  1  0.16750779  0.49978058  0.50282882  1
  Te  Te113  1  0.16743019  0.50183381  0.83363168  1
  Te  Te114  1  0.16518758  0.83834261  0.16663099  1
  Te  Te115  1  0.16955858  0.83656083  0.49744829  1
  Te  Te116  1  0.16639761  0.83281963  0.83453620  1
  Te  Te117  1  0.50415613  0.16613978  0.16437432  1
  Te  Te118  1  0.49672937  0.16737023  0.50259279  1
  Te  Te119  1  0.49923831  0.16223804  0.83466839  1
  Te  Te120  1  0.50361290  0.49937223  0.16214601  1
  Te  Te121  1  0.50144821  0.49897568  0.50020322  1
  Te  Te122  1  0.50428468  0.50099180  0.83606127  1
  Te  Te123  1  0.50067265  0.83306112  0.16521922  1
  Te  Te124  1  0.50069569  0.83378753  0.49998894  1
  Te  Te125  1  0.49995529  0.83712148  0.83672822  1
  Te  Te126  1  0.82703655  0.17234144  0.17068800  1
  Te  Te127  1  0.83324317  0.16625506  0.50054946  1
  Te  Te128  1  0.83760403  0.16583134  0.83531456  1
  Te  Te129  1  0.83144041  0.49544429  0.16501805  1
  Te  Te130  1  0.82952401  0.49628377  0.50010369  1
  Te  Te131  1  0.83290396  0.49374160  0.83477246  1
  Te  Te132  1  0.83382572  0.82935727  0.16656232  1
  Te  Te133  1  0.82728854  0.83408453  0.50019742  1
  Te  Te134  1  0.83684152  0.84471387  0.83377459  1
  Te  Te135  1  0.16419706  -0.00196409  0.00061033  1
  Te  Te136  1  0.16644238  -0.00075106  0.33565446  1
  Te  Te137  1  0.16084617  0.00466874  0.66070361  1
  Te  Te138  1  0.16128794  0.33115221  0.00026410  1
  Te  Te139  1  0.16696684  0.33867991  0.32699775  1
  Te  Te140  1  0.16521025  0.33036672  0.66647692  1
  Te  Te141  1  0.16704387  0.67483967  0.00519428  1
  Te  Te142  1  0.16595422  0.66593371  0.32815576  1
  Te  Te143  1  0.16534690  0.65703114  0.66692935  1
  Te  Te144  1  0.49985461  0.00271744  0.00121314  1
  Te  Te145  1  0.50306041  -0.00241258  0.33151955  1
  Te  Te146  1  0.50172616  0.00567201  0.67174324  1
  Te  Te147  1  0.50398903  0.33019254  0.00080092  1
  Te  Te148  1  0.49801877  0.33438123  0.32096331  1
  Te  Te149  1  0.49965637  0.33255193  0.66681720  1
  Te  Te150  1  0.49906955  0.67137234  -0.00035322  1
  Te  Te151  1  0.49916195  0.67949716  0.33229219  1
  Te  Te152  1  0.49928979  0.65268882  0.66848160  1
  Te  Te153  1  0.83847699  0.00072554  -0.00264502  1
  Te  Te154  1  0.83276948  0.00527246  0.33457589  1
  Te  Te155  1  0.83813101  -0.00188730  0.66585481  1
  Te  Te156  1  0.83358595  0.33403052  -0.00175222  1
  Te  Te157  1  0.83421389  0.32634286  0.34072972  1
  Te  Te158  1  0.83390251  0.33510828  0.66602370  1
  Te  Te159  1  0.83358335  0.65689259  -0.00605643  1
  Te  Te160  1  0.83497592  0.66655830  0.33377858  1
  Te  Te161  1  0.83429159  0.65736090  0.67291041  1
  Te  Te162  1  0.00130320  0.16713841  0.00054513  1
  Te  Te163  1  -0.00302803  0.16104585  0.33547097  1
  Te  Te164  1  0.00005648  0.16791431  0.66690837  1
  Te  Te165  1  0.00462393  0.49760209  0.00263411  1
  Te  Te166  1  0.00438650  0.50065168  0.32839151  1
  Te  Te167  1  0.00017144  0.49355855  0.66759111  1
  Te  Te168  1  -0.00026031  0.83393572  0.00139560  1
  Te  Te169  1  0.00474021  0.84027462  0.32978567  1
  Te  Te170  1  0.00031870  0.83592691  0.66935811  1
  Te  Te171  1  0.33203468  0.17077520  -0.00027656  1
  Te  Te172  1  0.33284574  0.16146648  0.33985706  1
  Te  Te173  1  0.33505849  0.16711748  0.66289259  1
  Te  Te174  1  0.33078696  0.49532258  -0.00098570  1
  Te  Te175  1  0.33004223  0.50008837  0.34037262  1
  Te  Te176  1  0.32846162  0.49873505  0.66356809  1
  Te  Te177  1  0.33319345  0.83450762  -0.00161361  1
  Te  Te178  1  0.33131936  0.83736712  0.33554504  1
  Te  Te179  1  0.33376013  0.83326476  0.66000825  1
  Te  Te180  1  0.66225498  0.17172376  0.00150615  1
  Te  Te181  1  0.66840872  0.16210564  0.33456118  1
  Te  Te182  1  0.66016318  0.17349306  0.66455028  1
  Te  Te183  1  0.66640413  0.49591573  0.00090065  1
  Te  Te184  1  0.66591871  0.50307788  0.33568940  1
  Te  Te185  1  0.66920530  0.49442186  0.66404750  1
  Te  Te186  1  0.66356613  0.83448333  0.00341151  1
  Te  Te187  1  0.66591774  0.83844416  0.33290176  1
  Te  Te188  1  0.66480581  0.83214494  0.66161681  1
  Te  Te189  1  -0.00150153  -0.00167427  0.16572960  1
  Te  Te190  1  -0.00163928  0.00468403  0.49923004  1
  Te  Te191  1  0.00128503  0.00258385  0.83488065  1
  Te  Te192  1  -0.00257778  0.33420533  0.16423666  1
  Te  Te193  1  -0.00453503  0.32628010  0.50172191  1
  Te  Te194  1  -0.00517612  0.33015052  0.83462915  1
  Te  Te195  1  0.00372824  0.67019395  0.16656497  1
  Te  Te196  1  -0.00140220  0.66825103  0.50120329  1
  Te  Te197  1  -0.00647319  0.67816266  0.83322987  1
  Te  Te198  1  0.34274832  0.00111703  0.17336961  1
  Te  Te199  1  0.33417039  0.00122400  0.49770770  1
  Te  Te200  1  0.33817114  -0.00430107  0.83330663  1
  Te  Te201  1  0.33117826  0.33265866  0.16172607  1
  Te  Te202  1  0.33342854  0.33266950  0.49965383  1
  Te  Te203  1  0.33399493  0.33377601  0.84196923  1
  Te  Te204  1  0.32365146  0.66573803  0.16678445  1
  Te  Te205  1  0.33290755  0.66471542  0.50022472  1
  Te  Te206  1  0.33298802  0.67740223  0.83337388  1
  Te  Te207  1  0.66486150  -0.00090117  0.16893623  1
  Te  Te208  1  0.66877528  0.00413537  0.49728635  1
  Te  Te209  1  0.66784286  0.00030129  0.83209037  1
  Te  Te210  1  0.66952537  0.33190392  0.16737756  1
  Te  Te211  1  0.66837790  0.32964847  0.49817044  1
  Te  Te212  1  0.67153664  0.33636089  0.83149170  1
  Te  Te213  1  0.66711174  0.67325839  0.16673327  1
  Te  Te214  1  0.66677750  0.66763311  0.49979169  1
  Te  Te215  1  0.67417589  0.66212505  0.83370676  1
