# generated using pymatgen
data_AgSbTe2
_symmetry_space_group_name_H-M   'P 1'
_cell_length_a   18.31410930
_cell_length_b   18.31083017
_cell_length_c   18.31179804
_cell_angle_alpha   90.00028560
_cell_angle_beta   90.00225348
_cell_angle_gamma   89.99800122
_symmetry_Int_Tables_number   1
_chemical_formula_structural   AgSbTe2
_chemical_formula_sum   'Ag54 Sb54 Te108'
_cell_volume   6140.79820070
_cell_formula_units_Z   54
loop_
 _symmetry_equiv_pos_site_id
 _symmetry_equiv_pos_as_xyz
  1  'x, y, z'
loop_
 _atom_site_type_symbol
 _atom_site_label
 _atom_site_symmetry_multiplicity
 _atom_site_fract_x
 _atom_site_fract_y
 _atom_site_fract_z
 _atom_site_occupancy
  Ag  Ag0  1  0.83996459  0.00350992  0.16349253  1
  Ag  Ag1  1  0.17138255  0.49667479  0.32726743  1
  Ag  Ag2  1  0.00521949  0.00456691  0.66708140  1
  Ag  Ag3  1  0.83610425  0.16651368  0.67110089  1
  Ag  Ag4  1  0.66674050  0.33566311  0.00038428  1
  Ag  Ag5  1  0.16246080  0.84392318  0.67008758  1
  Ag  Ag6  1  0.00188307  -0.00024260  0.33216317  1
  Ag  Ag7  1  0.16197143  0.00247386  0.82589737  1
  Ag  Ag8  1  0.66472903  0.65347222  -0.00008751  1
  Ag  Ag9  1  0.33250225  0.33699682  0.00523605  1
  Ag  Ag10  1  0.00135252  0.33561721  0.00508077  1
  Ag  Ag11  1  0.33234770  0.66686819  0.66920666  1
  Ag  Ag12  1  0.32963539  0.82897715  0.83291402  1
  Ag  Ag13  1  0.82633417  0.49145952  -0.00210704  1
  Ag  Ag14  1  0.83579267  0.83334576  0.33440053  1
  Ag  Ag15  1  0.00351613  0.33681188  0.32216886  1
  Ag  Ag16  1  0.49881998  0.49575343  0.00447828  1
  Ag  Ag17  1  0.33213497  0.49733793  0.16505697  1
  Ag  Ag18  1  0.50488904  0.16660859  0.67330930  1
  Ag  Ag19  1  0.17423893  0.49486126  0.00630705  1
  Ag  Ag20  1  0.16549765  -0.00228060  0.51403433  1
  Ag  Ag21  1  0.00601623  0.83721058  0.83040250  1
  Ag  Ag22  1  0.32706166  0.34052971  0.32361848  1
  Ag  Ag23  1  0.49246432  0.33999297  0.16253827  1
  Ag  Ag24  1  0.16708402  0.33579790  0.16186417  1
  Ag  Ag25  1  0.66845402  0.17319067  0.83777971  1
  Ag  Ag26  1  0.16618736  0.33243098  0.84030057  1
  Ag  Ag27  1  0.66403284  0.49516147  0.84108974  1
  Ag  Ag28  1  0.00865560  0.49030577  0.16748522  1
  Ag  Ag29  1  0.66273586  0.83627077  0.16643714  1
  Ag  Ag30  1  0.31864845  -0.00379386  0.66865078  1
  Ag  Ag31  1  0.50046579  0.82648455  0.32722544  1
  Ag  Ag32  1  0.49907169  0.65600932  0.16323668  1
  Ag  Ag33  1  0.33660034  0.82700522  0.16478688  1
  Ag  Ag34  1  0.82843900  0.17346752  -0.00204256  1
  Ag  Ag35  1  0.33422431  0.49955380  0.49290550  1
  Ag  Ag36  1  -0.00078138  0.32734493  0.66834575  1
  Ag  Ag37  1  0.83583796  0.66001692  0.50111479  1
  Ag  Ag38  1  0.66976912  0.17349567  0.50591478  1
  Ag  Ag39  1  0.83341971  0.33791263  0.50353017  1
  Ag  Ag40  1  0.16428417  0.66605553  0.50010700  1
  Ag  Ag41  1  0.49229834  0.50185906  0.32096174  1
  Ag  Ag42  1  0.66978394  0.49566296  0.50316069  1
  Ag  Ag43  1  0.84013150  0.83781487  0.66649642  1
  Ag  Ag44  1  0.49809546  0.66318194  0.84011756  1
  Ag  Ag45  1  -0.00031102  0.66386620  0.33282312  1
  Ag  Ag46  1  0.83330548  0.49642168  0.66718219  1
  Ag  Ag47  1  0.16033132  0.00592125  0.16581640  1
  Ag  Ag48  1  0.67119207  0.16717902  0.15695856  1
  Ag  Ag49  1  -0.00239375  0.17299633  0.16584873  1
  Ag  Ag50  1  0.33654355  0.50184709  0.83850202  1
  Ag  Ag51  1  0.16111929  0.15681127  0.66886032  1
  Ag  Ag52  1  0.84015140  0.00220137  0.83229891  1
  Ag  Ag53  1  0.50944524  0.17797360  -0.00114836  1
  Sb  Sb54  1  0.33533443  0.16902548  0.83289323  1
  Sb  Sb55  1  0.66771469  0.00731077  0.00097480  1
  Sb  Sb56  1  -0.00382162  0.16782570  0.50127288  1
  Sb  Sb57  1  0.49735656  0.83535057  0.66492836  1
  Sb  Sb58  1  -0.00002089  0.00686302  -0.00113740  1
  Sb  Sb59  1  0.83256694  0.83488808  -0.00037832  1
  Sb  Sb60  1  0.00185482  0.66732275  0.66325147  1
  Sb  Sb61  1  0.49897072  0.00127596  0.16654289  1
  Sb  Sb62  1  0.83531091  0.50200487  0.33266306  1
  Sb  Sb63  1  0.67277202  -0.00085222  0.33105994  1
  Sb  Sb64  1  -0.00032260  0.49990564  0.83721641  1
  Sb  Sb65  1  0.82917827  0.66898655  0.16911945  1
  Sb  Sb66  1  0.66398046  0.49766042  0.16158502  1
  Sb  Sb67  1  0.33121170  0.82755354  0.50051672  1
  Sb  Sb68  1  0.66490237  0.66446784  0.66998827  1
  Sb  Sb69  1  0.49499186  0.00154623  0.50121392  1
  Sb  Sb70  1  0.16356681  0.17488636  -0.00262912  1
  Sb  Sb71  1  0.17213640  0.66610942  0.82826884  1
  Sb  Sb72  1  0.50515069  0.33540286  0.49482230  1
  Sb  Sb73  1  0.16804114  0.82917622  -0.00347479  1
  Sb  Sb74  1  0.67337997  0.00434238  0.66731933  1
  Sb  Sb75  1  0.16280177  0.33454837  0.49922967  1
  Sb  Sb76  1  0.66838611  0.66457267  0.32897160  1
  Sb  Sb77  1  -0.00484093  0.65777883  0.00469366  1
  Sb  Sb78  1  0.66942081  0.33514223  0.32831481  1
  Sb  Sb79  1  0.33198780  0.17290553  0.16458278  1
  Sb  Sb80  1  0.66569112  0.83268117  0.83801446  1
  Sb  Sb81  1  0.83890817  0.00159318  0.50195571  1
  Sb  Sb82  1  0.50142714  0.17038793  0.32939056  1
  Sb  Sb83  1  -0.00402681  0.16443138  0.83420700  1
  Sb  Sb84  1  0.17109565  0.66046149  0.17024694  1
  Sb  Sb85  1  0.33511501  0.17254351  0.50320287  1
  Sb  Sb86  1  0.49930081  0.82847797  0.00487496  1
  Sb  Sb87  1  0.33071777  0.00566175  -0.00260960  1
  Sb  Sb88  1  0.33766746  0.65693686  -0.00272679  1
  Sb  Sb89  1  0.16389562  0.49911271  0.66629363  1
  Sb  Sb90  1  0.32838127  0.33492795  0.66927143  1
  Sb  Sb91  1  -0.00032988  0.49947396  0.49480509  1
  Sb  Sb92  1  0.83526978  0.16434899  0.33210677  1
  Sb  Sb93  1  0.16476476  0.82988010  0.33494075  1
  Sb  Sb94  1  0.83708676  0.33018871  0.16495569  1
  Sb  Sb95  1  0.16415663  0.17118130  0.33426558  1
  Sb  Sb96  1  0.32582676  0.00130617  0.33472154  1
  Sb  Sb97  1  0.83033133  0.66771717  0.83025164  1
  Sb  Sb98  1  0.00045785  0.83419394  0.50388349  1
  Sb  Sb99  1  0.49989779  0.66311010  0.49793760  1
  Sb  Sb100  1  0.67117852  0.33223801  0.67236134  1
  Sb  Sb101  1  0.50196234  0.49569325  0.67052864  1
  Sb  Sb102  1  0.83861309  0.32974155  0.83256789  1
  Sb  Sb103  1  0.00103387  0.83494278  0.16439510  1
  Sb  Sb104  1  0.49593226  0.33748636  0.84186840  1
  Sb  Sb105  1  0.33011112  0.65940177  0.33495664  1
  Sb  Sb106  1  0.49803813  -0.00092248  0.83237741  1
  Sb  Sb107  1  0.67010407  0.83148560  0.49601528  1
  Te  Te108  1  0.16290496  0.16870936  0.16599712  1
  Te  Te109  1  0.16686609  0.16279651  0.50623699  1
  Te  Te110  1  0.16764091  0.16562750  0.83023458  1
  Te  Te111  1  0.16881526  0.49869927  0.16677128  1
  Te  Te112  1  0.16970140  0.50259809  0.49733566  1
  Te  Te113  1  0.16843912  0.49787634  0.83534188  1
  Te  Te114  1  0.17153200  0.83316441  0.16583290  1
  Te  Te115  1  0.16768319  0.83229600  0.50466663  1
  Te  Te116  1  0.16972521  0.83373885  0.83035294  1
  Te  Te117  1  0.50417324  0.16938048  0.16300813  1
  Te  Te118  1  0.50690295  0.16788584  0.50306071  1
  Te  Te119  1  0.50510953  0.16659784  0.83363651  1
  Te  Te120  1  0.50116387  0.49866958  0.16541350  1
  Te  Te121  1  0.49947810  0.49988625  0.50067611  1
  Te  Te122  1  0.50061204  0.50254086  0.83507594  1
  Te  Te123  1  0.49905534  0.83530697  0.16959284  1
  Te  Te124  1  0.50076164  0.83254218  0.49095935  1
  Te  Te125  1  0.49518348  0.82798722  0.83345757  1
  Te  Te126  1  0.83289409  0.16433675  0.16560746  1
  Te  Te127  1  0.82901180  0.16879461  0.50374187  1
  Te  Te128  1  0.82996756  0.16421511  0.83230859  1
  Te  Te129  1  0.83494676  0.49992376  0.16244217  1
  Te  Te130  1  0.83250692  0.50011551  0.49975799  1
  Te  Te131  1  0.83076029  0.50011396  0.83355376  1
  Te  Te132  1  0.83175380  0.83781107  0.16795577  1
  Te  Te133  1  0.83268394  0.83049851  0.50068518  1
  Te  Te134  1  0.83314997  0.83806469  0.83001795  1
  Te  Te135  1  0.16673627  0.00094804  0.00427478  1
  Te  Te136  1  0.16097847  0.00013206  0.32581059  1
  Te  Te137  1  0.16280990  -0.00001324  0.66932559  1
  Te  Te138  1  0.16509773  0.33499169  0.00096528  1
  Te  Te139  1  0.16412456  0.33686299  0.33218090  1
  Te  Te140  1  0.16063653  0.33096033  0.66756514  1
  Te  Te141  1  0.16473873  0.65700478  -0.00002149  1
  Te  Te142  1  0.16127567  0.66222788  0.33831131  1
  Te  Te143  1  0.16960448  0.66747844  0.66086138  1
  Te  Te144  1  0.49911012  0.00795390  -0.00066947  1
  Te  Te145  1  0.49741699  -0.00463411  0.33363288  1
  Te  Te146  1  0.49692299  0.00544799  0.66663264  1
  Te  Te147  1  0.50039074  0.33502670  0.00153141  1
  Te  Te148  1  0.49827610  0.33824805  0.32641192  1
  Te  Te149  1  0.49841420  0.32569262  0.66696356  1
  Te  Te150  1  0.50328737  0.66275396  0.00151138  1
  Te  Te151  1  0.49941849  0.66481642  0.32972574  1
  Te  Te152  1  0.49451991  0.66699193  0.66929464  1
  Te  Te153  1  0.83372809  0.00364759  -0.00071885  1
  Te  Te154  1  0.84001268  -0.00476848  0.33213874  1
  Te  Te155  1  0.83932726  0.00012414  0.66815672  1
  Te  Te156  1  0.83428987  0.33277295  -0.00092644  1
  Te  Te157  1  0.83925593  0.33328312  0.33906757  1
  Te  Te158  1  0.83627733  0.33266845  0.66639403  1
  Te  Te159  1  0.82670590  0.66212022  -0.00040345  1
  Te  Te160  1  0.83719658  0.67100049  0.33668597  1
  Te  Te161  1  0.83327794  0.66576145  0.66235026  1
  Te  Te162  1  -0.00518754  0.17378543  0.00399688  1
  Te  Te163  1  0.00033779  0.16661099  0.32768289  1
  Te  Te164  1  -0.00206033  0.16620852  0.66713008  1
  Te  Te165  1  -0.00241427  0.49552248  0.00482764  1
  Te  Te166  1  0.00163848  0.49818201  0.32892045  1
  Te  Te167  1  -0.00640583  0.49794582  0.66746163  1
  Te  Te168  1  -0.00005297  0.83039540  -0.00806388  1
  Te  Te169  1  -0.00277081  0.83462831  0.33185065  1
  Te  Te170  1  -0.00031499  0.83398012  0.66987177  1
  Te  Te171  1  0.34007443  0.17495461  -0.00106042  1
  Te  Te172  1  0.33417330  0.17562397  0.33460286  1
  Te  Te173  1  0.33118297  0.16439006  0.66674332  1
  Te  Te174  1  0.33509354  0.49703934  0.00061084  1
  Te  Te175  1  0.33333099  0.49878402  0.33036425  1
  Te  Te176  1  0.33324848  0.50261670  0.67194321  1
  Te  Te177  1  0.33357861  0.83548864  0.00020601  1
  Te  Te178  1  0.33494809  0.83234059  0.32886335  1
  Te  Te179  1  0.33350559  0.83331444  0.66799576  1
  Te  Te180  1  0.66851673  0.16965511  -0.00127751  1
  Te  Te181  1  0.66658934  0.16659800  0.33368626  1
  Te  Te182  1  0.66956571  0.16689897  0.66923114  1
  Te  Te183  1  0.66666004  0.49651529  -0.00060674  1
  Te  Te184  1  0.66264091  0.49926591  0.33956917  1
  Te  Te185  1  0.67150200  0.49840444  0.66585194  1
  Te  Te186  1  0.66615682  0.83106286  0.00724936  1
  Te  Te187  1  0.66851313  0.83251023  0.32774401  1
  Te  Te188  1  0.67135093  0.83425989  0.66689887  1
  Te  Te189  1  -0.00028186  0.00039656  0.16578416  1
  Te  Te190  1  0.00625038  0.00128095  0.49920652  1
  Te  Te191  1  0.00113345  -0.00120663  0.83284805  1
  Te  Te192  1  0.00079702  0.33315740  0.16573944  1
  Te  Te193  1  -0.00528721  0.33273553  0.50511444  1
  Te  Te194  1  0.00678559  0.33314185  0.83306455  1
  Te  Te195  1  -0.00086217  0.66526296  0.17277684  1
  Te  Te196  1  -0.00009439  0.66650607  0.49510994  1
  Te  Te197  1  -0.00021422  0.67379560  0.83507921  1
  Te  Te198  1  0.32791218  -0.00096185  0.16723085  1
  Te  Te199  1  0.32618705  0.00131728  0.50423723  1
  Te  Te200  1  0.32953671  -0.00305694  0.82972815  1
  Te  Te201  1  0.33104527  0.33513104  0.16590453  1
  Te  Te202  1  0.33353131  0.34072423  0.49772544  1
  Te  Te203  1  0.32672224  0.33867331  0.83675033  1
  Te  Te204  1  0.33837170  0.66645538  0.16639899  1
  Te  Te205  1  0.33149595  0.66003209  0.50426528  1
  Te  Te206  1  0.33656786  0.66557770  0.83146904  1
  Te  Te207  1  0.67083631  0.00163014  0.16737169  1
  Te  Te208  1  0.66555786  0.00609428  0.49898645  1
  Te  Te209  1  0.67062136  0.00242817  0.83376256  1
  Te  Te210  1  0.66565718  0.32847961  0.16192957  1
  Te  Te211  1  0.67172401  0.33443432  0.49925979  1
  Te  Te212  1  0.66572930  0.33470734  0.83868401  1
  Te  Te213  1  0.66175635  0.66950318  0.16214792  1
  Te  Te214  1  0.67149985  0.66165129  0.50067417  1
  Te  Te215  1  0.66186487  0.66367404  0.83817090  1
