# generated using pymatgen
data_AgSbTe2
_symmetry_space_group_name_H-M   'P 1'
_cell_length_a   18.35889942
_cell_length_b   18.34990333
_cell_length_c   18.34983461
_cell_angle_alpha   90.00278745
_cell_angle_beta   90.00056192
_cell_angle_gamma   90.00172466
_symmetry_Int_Tables_number   1
_chemical_formula_structural   AgSbTe2
_chemical_formula_sum   'Ag54 Sb54 Te108'
_cell_volume   6181.76621722
_cell_formula_units_Z   54
loop_
 _symmetry_equiv_pos_site_id
 _symmetry_equiv_pos_as_xyz
  1  'x, y, z'
loop_
 _atom_site_type_symbol
 _atom_site_label
 _atom_site_symmetry_multiplicity
 _atom_site_fract_x
 _atom_site_fract_y
 _atom_site_fract_z
 _atom_site_occupancy
  Ag  Ag0  1  0.66945358  0.82523130  0.83295578  1
  Ag  Ag1  1  0.00994248  0.50503887  0.82577507  1
  Ag  Ag2  1  0.49247051  0.34453289  0.82842835  1
  Ag  Ag3  1  0.33612270  0.65922977  0.33382686  1
  Ag  Ag4  1  0.33668755  0.34332248  0.33407031  1
  Ag  Ag5  1  0.65681912  0.50078625  0.49800176  1
  Ag  Ag6  1  0.32943978  0.82373137  0.16601047  1
  Ag  Ag7  1  0.65480342  0.16946325  0.17041713  1
  Ag  Ag8  1  0.00712942  0.33831928  -0.00058165  1
  Ag  Ag9  1  0.00776148  0.66575738  0.67206370  1
  Ag  Ag10  1  0.49095564  0.50098549  0.66192950  1
  Ag  Ag11  1  0.49776711  0.17112039  0.00393846  1
  Ag  Ag12  1  0.01171040  0.50025137  0.50222959  1
  Ag  Ag13  1  0.00909149  0.82538992  0.16180095  1
  Ag  Ag14  1  0.17203549  0.82168634  0.34119958  1
  Ag  Ag15  1  0.17773517  0.65820977  0.82192987  1
  Ag  Ag16  1  0.65614469  0.65859061  0.33645077  1
  Ag  Ag17  1  0.83676796  0.82966867  -0.00731860  1
  Ag  Ag18  1  0.00112260  0.82299921  0.83440654  1
  Ag  Ag19  1  0.32403485  0.50864816  0.81327242  1
  Ag  Ag20  1  0.32951100  0.50226485  0.17889124  1
  Ag  Ag21  1  0.82496698  0.17184877  0.33927556  1
  Ag  Ag22  1  0.66491964  0.66509133  0.67257947  1
  Ag  Ag23  1  0.17772546  0.50834969  0.67465618  1
  Ag  Ag24  1  0.33509797  0.65921966  -0.00892723  1
  Ag  Ag25  1  0.50004202  0.33895238  0.49626454  1
  Ag  Ag26  1  0.83936242  0.16499797  0.66177476  1
  Ag  Ag27  1  0.49205476  0.66508074  0.82945188  1
  Ag  Ag28  1  0.33202794  0.34099894  0.67427917  1
  Ag  Ag29  1  0.33588939  0.18046181  0.16778989  1
  Ag  Ag30  1  0.00874947  0.50405899  0.16775918  1
  Ag  Ag31  1  0.33113075  0.82314479  0.83639827  1
  Ag  Ag32  1  0.32056274  0.65318283  0.67882315  1
  Ag  Ag33  1  0.16877173  0.66327909  0.50723032  1
  Ag  Ag34  1  0.16332147  -0.00915026  0.50345929  1
  Ag  Ag35  1  0.33062579  0.50047425  0.49826178  1
  Ag  Ag36  1  0.33079989  0.34440973  -0.00715411  1
  Ag  Ag37  1  0.48855237  0.81843760  0.33336924  1
  Ag  Ag38  1  0.65563583  0.33899389  0.33649687  1
  Ag  Ag39  1  0.00262760  -0.00789482  0.66681260  1
  Ag  Ag40  1  0.17457209  0.34428128  0.82957856  1
  Ag  Ag41  1  0.48746015  0.49698855  0.34165300  1
  Ag  Ag42  1  0.16736754  0.82238754  0.66695906  1
  Ag  Ag43  1  0.83254986  -0.01006612  0.82890666  1
  Ag  Ag44  1  0.16508681  0.17067960  0.66587834  1
  Ag  Ag45  1  0.00396287  0.33932165  0.33366288  1
  Ag  Ag46  1  0.65900398  0.66593112  -0.01199424  1
  Ag  Ag47  1  0.83513069  0.66942539  0.83240943  1
  Ag  Ag48  1  0.50171366  0.17633634  0.33018428  1
  Ag  Ag49  1  0.83914642  0.00612971  0.50794905  1
  Ag  Ag50  1  0.49977581  -0.00992584  0.83204000  1
  Ag  Ag51  1  0.17215057  0.50273854  0.33848350  1
  Ag  Ag52  1  0.17162964  0.50065433  -0.01144420  1
  Ag  Ag53  1  0.83077934  0.33445307  0.49804993  1
  Sb  Sb54  1  0.83015809  0.16492772  -0.00088731  1
  Sb  Sb55  1  0.84108656  0.83392058  0.67319030  1
  Sb  Sb56  1  0.83416470  -0.00055041  0.16672502  1
  Sb  Sb57  1  0.16555100  0.82677891  -0.00388092  1
  Sb  Sb58  1  0.16823195  -0.00371559  0.17371335  1
  Sb  Sb59  1  0.66127372  0.33812751  0.00369669  1
  Sb  Sb60  1  0.33541229  0.17358582  0.83491242  1
  Sb  Sb61  1  0.16970940  0.33788254  0.16435038  1
  Sb  Sb62  1  0.66560720  0.82560714  0.50380467  1
  Sb  Sb63  1  0.00502540  0.66096403  -0.00818994  1
  Sb  Sb64  1  0.66355308  0.83321561  0.16467228  1
  Sb  Sb65  1  0.66427543  0.16415525  0.83529758  1
  Sb  Sb66  1  0.83520427  0.83512277  0.33103942  1
  Sb  Sb67  1  0.33251941  0.17511708  0.49727392  1
  Sb  Sb68  1  0.00055053  0.16819500  0.83127257  1
  Sb  Sb69  1  0.32810330  -0.00342389  0.66759326  1
  Sb  Sb70  1  0.16972076  0.17292127  0.33766383  1
  Sb  Sb71  1  0.83639261  0.49957571  0.66568192  1
  Sb  Sb72  1  0.66218212  0.49748943  0.17280214  1
  Sb  Sb73  1  0.83544104  0.33516679  0.82776024  1
  Sb  Sb74  1  0.00605190  0.33894252  0.66615212  1
  Sb  Sb75  1  0.49541096  0.66607623  0.16650328  1
  Sb  Sb76  1  0.49480770  0.65786040  0.50201621  1
  Sb  Sb77  1  0.16625909  -0.00597342  0.82637367  1
  Sb  Sb78  1  0.84027380  0.50450797  -0.00337438  1
  Sb  Sb79  1  0.49977033  0.83283033  -0.00233781  1
  Sb  Sb80  1  0.49828840  0.17432918  0.66711146  1
  Sb  Sb81  1  0.66261610  0.33948770  0.66180563  1
  Sb  Sb82  1  0.00362021  0.66166557  0.33696864  1
  Sb  Sb83  1  0.49509766  0.33355430  0.16888800  1
  Sb  Sb84  1  0.49842659  0.00191615  0.16496368  1
  Sb  Sb85  1  0.66521708  -0.00494560  -0.00206630  1
  Sb  Sb86  1  0.83471293  0.33343676  0.17334812  1
  Sb  Sb87  1  0.66642195  0.00225119  0.33390002  1
  Sb  Sb88  1  0.16896667  0.66256910  0.16527588  1
  Sb  Sb89  1  0.16948712  0.34231825  0.50432914  1
  Sb  Sb90  1  0.33363247  -0.00038557  -0.00236541  1
  Sb  Sb91  1  0.33289566  -0.00069450  0.33434269  1
  Sb  Sb92  1  0.17215628  0.17636785  -0.00484506  1
  Sb  Sb93  1  0.00123166  0.00143146  0.33941266  1
  Sb  Sb94  1  0.00434474  0.16940914  0.16791991  1
  Sb  Sb95  1  0.67176558  -0.00504029  0.66850592  1
  Sb  Sb96  1  0.33101480  0.82560082  0.49961929  1
  Sb  Sb97  1  0.83512232  0.49586139  0.33615684  1
  Sb  Sb98  1  0.83417774  0.66684526  0.16284580  1
  Sb  Sb99  1  0.48884136  0.49796838  -0.00315754  1
  Sb  Sb100  1  0.83638877  0.66395294  0.50318102  1
  Sb  Sb101  1  0.49416124  0.82494767  0.66696772  1
  Sb  Sb102  1  0.66149310  0.50690043  0.82994652  1
  Sb  Sb103  1  -0.00098022  -0.00127306  -0.00635720  1
  Sb  Sb104  1  0.66927390  0.17324316  0.49699557  1
  Sb  Sb105  1  0.49981395  0.00529329  0.50271444  1
  Sb  Sb106  1  0.00224869  0.82948315  0.50264860  1
  Sb  Sb107  1  -0.00026928  0.17315627  0.50124205  1
  Te  Te108  1  0.17532251  0.16434561  0.16676814  1
  Te  Te109  1  0.16579441  0.16186606  0.50460957  1
  Te  Te110  1  0.16771768  0.16491142  0.82701156  1
  Te  Te111  1  0.16698640  0.49894217  0.17705341  1
  Te  Te112  1  0.16841779  0.50040012  0.49877039  1
  Te  Te113  1  0.16603978  0.49897515  0.83285568  1
  Te  Te114  1  0.16716585  0.83299448  0.16613848  1
  Te  Te115  1  0.16597814  0.83019024  0.50047772  1
  Te  Te116  1  0.16628274  0.82954040  0.83044045  1
  Te  Te117  1  0.49653328  0.16675285  0.16718097  1
  Te  Te118  1  0.50139044  0.17357686  0.49576652  1
  Te  Te119  1  0.50152508  0.16593414  0.83522300  1
  Te  Te120  1  0.49451334  0.50028063  0.17615488  1
  Te  Te121  1  0.49929599  0.49916011  0.50132588  1
  Te  Te122  1  0.49645619  0.50383250  0.83153709  1
  Te  Te123  1  0.49591375  0.83491001  0.17293988  1
  Te  Te124  1  0.49986835  0.83827049  0.49232024  1
  Te  Te125  1  0.49646074  0.82861134  0.83284320  1
  Te  Te126  1  0.83500352  0.16543953  0.16969755  1
  Te  Te127  1  0.83459058  0.16786644  0.49970195  1
  Te  Te128  1  0.83180819  0.16472844  0.82949760  1
  Te  Te129  1  0.84160571  0.50011702  0.16520462  1
  Te  Te130  1  0.83432391  0.49544514  0.50037214  1
  Te  Te131  1  0.83632982  0.50377318  0.83313111  1
  Te  Te132  1  0.83465059  0.83439476  0.16003432  1
  Te  Te133  1  0.83321595  0.83880282  0.49957259  1
  Te  Te134  1  0.83485126  0.83210835  0.83250148  1
  Te  Te135  1  0.16476879  0.00352431  0.00184509  1
  Te  Te136  1  0.16512902  -0.00208959  0.34224453  1
  Te  Te137  1  0.16265298  0.00622628  0.66311860  1
  Te  Te138  1  0.16794299  0.33877093  -0.00538957  1
  Te  Te139  1  0.16634590  0.33709214  0.33499561  1
  Te  Te140  1  0.16963095  0.33238505  0.66936863  1
  Te  Te141  1  0.17335708  0.66146218  -0.00565334  1
  Te  Te142  1  0.16798245  0.66567540  0.33220907  1
  Te  Te143  1  0.16489194  0.66526539  0.66579724  1
  Te  Te144  1  0.50027311  0.00493655  -0.00669519  1
  Te  Te145  1  0.50136193  0.00703813  0.33383859  1
  Te  Te146  1  0.50056029  0.00195816  0.67069937  1
  Te  Te147  1  0.49720110  0.33137943  -0.00489902  1
  Te  Te148  1  0.49835696  0.33568268  0.33288389  1
  Te  Te149  1  0.49572665  0.33819777  0.66786990  1
  Te  Te150  1  0.49850542  0.66658489  -0.00293566  1
  Te  Te151  1  0.49964089  0.66300833  0.33401644  1
  Te  Te152  1  0.50319068  0.66230423  0.66807981  1
  Te  Te153  1  0.83307656  -0.00405223  -0.00596004  1
  Te  Te154  1  0.83449227  0.00559034  0.33615275  1
  Te  Te155  1  0.83680399  0.00118977  0.66763926  1
  Te  Te156  1  0.83369061  0.33164122  -0.00130412  1
  Te  Te157  1  0.83662473  0.33013972  0.33755211  1
  Te  Te158  1  0.83238018  0.32750920  0.66153937  1
  Te  Te159  1  0.83247851  0.67053353  -0.00356310  1
  Te  Te160  1  0.82999056  0.66957429  0.33344317  1
  Te  Te161  1  0.82697325  0.66702337  0.66921070  1
  Te  Te162  1  -0.00000130  0.17493945  0.00087905  1
  Te  Te163  1  -0.00002507  0.17260746  0.33299918  1
  Te  Te164  1  -0.00072595  0.16787503  0.66622994  1
  Te  Te165  1  0.00555051  0.49709120  0.00353747  1
  Te  Te166  1  0.00074521  0.49790322  0.33404407  1
  Te  Te167  1  0.00167459  0.50330501  0.66649350  1
  Te  Te168  1  -0.00196985  0.83376609  -0.00037986  1
  Te  Te169  1  0.00406844  0.83394377  0.32924867  1
  Te  Te170  1  0.00597398  0.82997451  0.66862570  1
  Te  Te171  1  0.33776291  0.16700754  0.00341541  1
  Te  Te172  1  0.33639222  0.16727184  0.32908132  1
  Te  Te173  1  0.33022706  0.16822737  0.66694627  1
  Te  Te174  1  0.33242644  0.50077979  0.00597505  1
  Te  Te175  1  0.33141637  0.49980682  0.33713364  1
  Te  Te176  1  0.33387100  0.49845466  0.66022297  1
  Te  Te177  1  0.33328206  0.82985654  0.00155218  1
  Te  Te178  1  0.33151620  0.83352292  0.33240473  1
  Te  Te179  1  0.32752514  0.82936666  0.66909858  1
  Te  Te180  1  0.66163504  0.16923783  0.00439613  1
  Te  Te181  1  0.66618290  0.16821524  0.33148973  1
  Te  Te182  1  0.66954598  0.16608571  0.66657550  1
  Te  Te183  1  0.66682496  0.50677370  0.00433341  1
  Te  Te184  1  0.66902143  0.49805486  0.33571766  1
  Te  Te185  1  0.66822202  0.50467714  0.66205442  1
  Te  Te186  1  0.66730715  0.82708375  -0.00313751  1
  Te  Te187  1  0.66493584  0.83196683  0.33407174  1
  Te  Te188  1  0.66212334  0.82695205  0.67281382  1
  Te  Te189  1  0.00023451  -0.00556245  0.16601808  1
  Te  Te190  1  -0.00039498  -0.00063261  0.50576654  1
  Te  Te191  1  -0.00310000  -0.00101756  0.82711325  1
  Te  Te192  1  0.00151444  0.33637347  0.16691671  1
  Te  Te193  1  -0.00330102  0.33969403  0.49751596  1
  Te  Te194  1  0.00024310  0.33789369  0.83688347  1
  Te  Te195  1  -0.00072936  0.66653834  0.16683041  1
  Te  Te196  1  0.00312407  0.66165113  0.50539923  1
  Te  Te197  1  -0.00430903  0.66586017  0.83403529  1
  Te  Te198  1  0.33325615  -0.00820572  0.16579129  1
  Te  Te199  1  0.33005484  0.00158776  0.50181439  1
  Te  Te200  1  0.33780492  -0.00532487  0.83291117  1
  Te  Te201  1  0.33291732  0.33688075  0.16821615  1
  Te  Te202  1  0.33658660  0.33689321  0.49586950  1
  Te  Te203  1  0.33432495  0.33463039  0.83419882  1
  Te  Te204  1  0.33341293  0.66585613  0.17468591  1
  Te  Te205  1  0.32934017  0.66357586  0.49365257  1
  Te  Te206  1  0.33408562  0.66706526  0.83374510  1
  Te  Te207  1  0.66675606  0.00863695  0.16545097  1
  Te  Te208  1  0.67100376  -0.00107874  0.50146739  1
  Te  Te209  1  0.66653235  -0.00555704  0.83437496  1
  Te  Te210  1  0.66790735  0.32920207  0.17196370  1
  Te  Te211  1  0.66616290  0.33837599  0.49583011  1
  Te  Te212  1  0.66307364  0.33466713  0.83397895  1
  Te  Te213  1  0.66654657  0.66697074  0.17502104  1
  Te  Te214  1  0.66864180  0.66112925  0.49580338  1
  Te  Te215  1  0.67312577  0.66697007  0.83295025  1
