# generated using pymatgen
data_AgSbTe2
_symmetry_space_group_name_H-M   'P 1'
_cell_length_a   18.33880441
_cell_length_b   18.34034125
_cell_length_c   18.34876459
_cell_angle_alpha   90.00305370
_cell_angle_beta   89.99584560
_cell_angle_gamma   89.99723564
_symmetry_Int_Tables_number   1
_chemical_formula_structural   AgSbTe2
_chemical_formula_sum   'Ag54 Sb54 Te108'
_cell_volume   6171.42218383
_cell_formula_units_Z   54
loop_
 _symmetry_equiv_pos_site_id
 _symmetry_equiv_pos_as_xyz
  1  'x, y, z'
loop_
 _atom_site_type_symbol
 _atom_site_label
 _atom_site_symmetry_multiplicity
 _atom_site_fract_x
 _atom_site_fract_y
 _atom_site_fract_z
 _atom_site_occupancy
  Ag  Ag0  1  0.83862593  0.83490917  0.67826000  1
  Ag  Ag1  1  0.49547720  0.15569374  0.01239876  1
  Ag  Ag2  1  0.50148282  -0.00144036  0.48928829  1
  Ag  Ag3  1  0.32262374  0.33469785  0.66466443  1
  Ag  Ag4  1  0.16734950  0.83403133  0.67844508  1
  Ag  Ag5  1  0.48569023  0.67465069  0.16513416  1
  Ag  Ag6  1  0.50189743  0.00355168  0.16752820  1
  Ag  Ag7  1  0.32687720  0.83079537  0.83629050  1
  Ag  Ag8  1  0.16564808  0.67040365  0.83949442  1
  Ag  Ag9  1  0.32931090  0.50418369  0.16751616  1
  Ag  Ag10  1  0.66489660  -0.00263503  0.66491666  1
  Ag  Ag11  1  0.16472047  0.33480367  0.83182352  1
  Ag  Ag12  1  0.17951001  0.83078016  0.32588947  1
  Ag  Ag13  1  0.33015587  0.49977644  0.49477155  1
  Ag  Ag14  1  0.33641996  0.82887693  0.16973624  1
  Ag  Ag15  1  0.84610361  0.33572188  0.84111002  1
  Ag  Ag16  1  0.16835319  0.66828858  0.16189895  1
  Ag  Ag17  1  0.49673921  0.83886303  0.32080258  1
  Ag  Ag18  1  0.00807754  0.49929599  0.16470543  1
  Ag  Ag19  1  0.65495523  0.32491072  0.32830820  1
  Ag  Ag20  1  0.49370114  0.83844970  0.00359710  1
  Ag  Ag21  1  0.00407329  0.16714097  0.50721783  1
  Ag  Ag22  1  0.01127324  0.66933453  0.32604618  1
  Ag  Ag23  1  0.00568310  0.32575065  0.67987634  1
  Ag  Ag24  1  0.49481891  0.31870953  0.16796790  1
  Ag  Ag25  1  0.49840655  0.16110395  0.66752043  1
  Ag  Ag26  1  0.83591890  0.32839748  0.16235441  1
  Ag  Ag27  1  0.00313898  0.32525817  -0.00267164  1
  Ag  Ag28  1  0.33479719  0.33660298  0.32767811  1
  Ag  Ag29  1  0.84161386  0.67236781  0.84088638  1
  Ag  Ag30  1  0.66929678  0.67209455  0.00249431  1
  Ag  Ag31  1  0.00293719  0.00437638  -0.00280032  1
  Ag  Ag32  1  0.65868046  0.00121327  0.32995376  1
  Ag  Ag33  1  0.16624312  0.50349679  -0.00363421  1
  Ag  Ag34  1  0.33471513  0.83149607  0.48678652  1
  Ag  Ag35  1  0.83176435  0.83133539  -0.00206149  1
  Ag  Ag36  1  0.65756880  0.83775618  0.50373702  1
  Ag  Ag37  1  0.16691069  -0.00497221  0.83609131  1
  Ag  Ag38  1  0.49658336  -0.00153370  0.83752808  1
  Ag  Ag39  1  -0.00030523  0.00552201  0.67533991  1
  Ag  Ag40  1  0.65524033  0.16560027  0.16751408  1
  Ag  Ag41  1  0.34310761  0.16820146  0.16658994  1
  Ag  Ag42  1  0.49959757  0.15719191  0.32339654  1
  Ag  Ag43  1  0.16862596  0.48927038  0.67811784  1
  Ag  Ag44  1  0.66378150  0.83618820  0.83593227  1
  Ag  Ag45  1  0.16166475  0.16678577  -0.00039125  1
  Ag  Ag46  1  0.16988722  0.83294922  -0.00221593  1
  Ag  Ag47  1  0.82910351  -0.00045470  0.16384502  1
  Ag  Ag48  1  0.00350349  0.16832697  0.83822398  1
  Ag  Ag49  1  0.32690586  0.50350483  0.83540599  1
  Ag  Ag50  1  0.17043593  0.33230095  0.50942190  1
  Ag  Ag51  1  0.83684698  0.67148047  0.16129951  1
  Ag  Ag52  1  0.00091562  0.16931046  0.15935842  1
  Ag  Ag53  1  0.33022079  0.67265779  0.32786491  1
  Sb  Sb54  1  0.83706047  0.16170236  0.00173857  1
  Sb  Sb55  1  0.84418780  0.50357754  0.67182088  1
  Sb  Sb56  1  0.33142743  -0.00196589  0.00057600  1
  Sb  Sb57  1  0.83579621  -0.00385817  0.83718009  1
  Sb  Sb58  1  0.16845920  -0.00412122  0.16016763  1
  Sb  Sb59  1  0.17015401  0.00152600  0.50513899  1
  Sb  Sb60  1  0.49545453  0.32567344  0.83978354  1
  Sb  Sb61  1  0.32916264  0.16565209  0.83830768  1
  Sb  Sb62  1  0.33811435  -0.00294044  0.33159465  1
  Sb  Sb63  1  0.66448908  0.49672772  0.16622928  1
  Sb  Sb64  1  0.49435148  0.67658211  0.84107072  1
  Sb  Sb65  1  0.66757687  0.67755784  0.67363075  1
  Sb  Sb66  1  0.00521284  0.33389436  0.32786029  1
  Sb  Sb67  1  0.00397769  0.83812910  0.83472040  1
  Sb  Sb68  1  0.66649031  0.16081058  0.49496087  1
  Sb  Sb69  1  0.33219103  0.16639344  0.49638871  1
  Sb  Sb70  1  0.65690739  0.50406271  0.49959483  1
  Sb  Sb71  1  0.49327953  0.32625451  0.49323952  1
  Sb  Sb72  1  0.16787312  0.16713534  0.67365951  1
  Sb  Sb73  1  0.48903044  0.49044374  0.66811546  1
  Sb  Sb74  1  0.33190473  0.66529327  0.66506223  1
  Sb  Sb75  1  0.83955085  0.33225207  0.49861016  1
  Sb  Sb76  1  0.65979133  0.83803788  0.16318647  1
  Sb  Sb77  1  0.49291678  0.50223734  0.00282741  1
  Sb  Sb78  1  0.32694111  0.33355622  0.00182332  1
  Sb  Sb79  1  0.84089180  0.50346178  0.00120263  1
  Sb  Sb80  1  0.16821480  0.66503251  0.49846201  1
  Sb  Sb81  1  0.16802127  0.33662651  0.16311094  1
  Sb  Sb82  1  0.00117730  0.66901399  0.00300900  1
  Sb  Sb83  1  0.66852302  0.32612378  0.66297118  1
  Sb  Sb84  1  0.66644108  -0.00406625  0.00193091  1
  Sb  Sb85  1  0.82961389  -0.00161726  0.49793374  1
  Sb  Sb86  1  0.00448708  0.83278332  0.16490526  1
  Sb  Sb87  1  0.33185616  0.66931149  0.00673160  1
  Sb  Sb88  1  0.49665511  0.67731597  0.49291100  1
  Sb  Sb89  1  -0.00304738  -0.00205020  0.32907138  1
  Sb  Sb90  1  0.33376682  0.00203694  0.66887730  1
  Sb  Sb91  1  0.83504953  0.50022934  0.32955469  1
  Sb  Sb92  1  0.00931438  0.49444660  0.49620039  1
  Sb  Sb93  1  0.16988653  0.50402974  0.32889880  1
  Sb  Sb94  1  0.66068235  0.50588586  0.83389878  1
  Sb  Sb95  1  0.17142344  0.16322612  0.32578044  1
  Sb  Sb96  1  0.49504425  0.49971730  0.32985927  1
  Sb  Sb97  1  0.00443861  0.83796337  0.50139816  1
  Sb  Sb98  1  0.67130148  0.33392212  0.00518209  1
  Sb  Sb99  1  0.83465242  0.16093236  0.66951743  1
  Sb  Sb100  1  0.83350547  0.67113752  0.49855189  1
  Sb  Sb101  1  0.00920646  0.49412763  0.84078964  1
  Sb  Sb102  1  0.66209081  0.67129358  0.32431615  1
  Sb  Sb103  1  0.82866447  0.16640805  0.32742367  1
  Sb  Sb104  1  0.66837782  0.16112767  0.83894473  1
  Sb  Sb105  1  0.49613835  0.83887219  0.66994906  1
  Sb  Sb106  1  0.82850404  0.83373436  0.32720640  1
  Sb  Sb107  1  0.00447383  0.66766079  0.66645297  1
  Te  Te108  1  0.16205057  0.16490034  0.16052380  1
  Te  Te109  1  0.16440029  0.16955965  0.49627046  1
  Te  Te110  1  0.16511712  0.16507838  0.83963436  1
  Te  Te111  1  0.16859420  0.50307356  0.16338756  1
  Te  Te112  1  0.17252663  0.49597926  0.50305854  1
  Te  Te113  1  0.16940454  0.49923066  0.83536762  1
  Te  Te114  1  0.17136616  0.83082765  0.16571476  1
  Te  Te115  1  0.17217137  0.83355277  0.49792147  1
  Te  Te116  1  0.16578938  0.83339616  0.83678746  1
  Te  Te117  1  0.49965663  0.16383005  0.16802452  1
  Te  Te118  1  0.50009584  0.15963057  0.50270338  1
  Te  Te119  1  0.49975564  0.16066707  0.83207694  1
  Te  Te120  1  0.49412215  0.51039306  0.16554890  1
  Te  Te121  1  0.48983695  0.50012691  0.50056177  1
  Te  Te122  1  0.49043129  0.49935487  0.83450657  1
  Te  Te123  1  0.49930615  0.83424826  0.16352949  1
  Te  Te124  1  0.49723771  0.83923693  0.50391970  1
  Te  Te125  1  0.50040299  0.83790264  0.83733677  1
  Te  Te126  1  0.84039775  0.16757924  0.16508095  1
  Te  Te127  1  0.84243966  0.16668106  0.49948144  1
  Te  Te128  1  0.83732107  0.17415620  0.83444017  1
  Te  Te129  1  0.83542604  0.49897799  0.16589531  1
  Te  Te130  1  0.83134909  0.50143260  0.50180001  1
  Te  Te131  1  0.83006508  0.49991020  0.83383203  1
  Te  Te132  1  0.83278793  0.83361056  0.16195168  1
  Te  Te133  1  0.83074075  0.83351561  0.50305156  1
  Te  Te134  1  0.83359776  0.83221477  0.83616120  1
  Te  Te135  1  0.16373778  -0.00166615  -0.00366898  1
  Te  Te136  1  0.16500135  -0.00812634  0.33440911  1
  Te  Te137  1  0.16240819  -0.00172682  0.67113963  1
  Te  Te138  1  0.16322051  0.32972537  -0.00314334  1
  Te  Te139  1  0.17273717  0.33199371  0.33538543  1
  Te  Te140  1  0.16542437  0.32960380  0.66946929  1
  Te  Te141  1  0.16577953  0.66904897  -0.00006753  1
  Te  Te142  1  0.16984626  0.67009309  0.33191983  1
  Te  Te143  1  0.16623831  0.67318724  0.67063596  1
  Te  Te144  1  0.50111210  -0.00139053  -0.00036096  1
  Te  Te145  1  0.50112306  -0.00109052  0.33098283  1
  Te  Te146  1  0.50121882  0.00146251  0.67490820  1
  Te  Te147  1  0.50191178  0.33389753  0.00727751  1
  Te  Te148  1  0.49676574  0.33350355  0.32859341  1
  Te  Te149  1  0.50054840  0.32439051  0.66668836  1
  Te  Te150  1  0.50583629  0.67126777  0.00521274  1
  Te  Te151  1  0.49562377  0.67231878  0.32642590  1
  Te  Te152  1  0.50137526  0.66137750  0.66728482  1
  Te  Te153  1  0.83679515  -0.00529883  0.00349764  1
  Te  Te154  1  0.82565267  -0.00097110  0.32621057  1
  Te  Te155  1  0.83455750  -0.00560376  0.66656705  1
  Te  Te156  1  0.83794955  0.33427100  0.00099108  1
  Te  Te157  1  0.83328131  0.33354780  0.32773951  1
  Te  Te158  1  0.83829884  0.33375487  0.66799315  1
  Te  Te159  1  0.83518968  0.66958122  -0.00043512  1
  Te  Te160  1  0.83320591  0.66758307  0.32687555  1
  Te  Te161  1  0.83577143  0.67373133  0.67185354  1
  Te  Te162  1  -0.00066263  0.16533414  -0.00154466  1
  Te  Te163  1  0.00161401  0.16553368  0.32770777  1
  Te  Te164  1  0.00031959  0.16622577  0.66972183  1
  Te  Te165  1  0.00702405  0.49532422  0.00662130  1
  Te  Te166  1  0.00188882  0.50586541  0.32686758  1
  Te  Te167  1  0.00937230  0.49601810  0.66378075  1
  Te  Te168  1  0.00202607  0.83895314  0.00070830  1
  Te  Te169  1  -0.00056539  0.82909694  0.33442877  1
  Te  Te170  1  0.00191158  0.83665195  0.66518449  1
  Te  Te171  1  0.33573947  0.16744816  0.00529035  1
  Te  Te172  1  0.33759095  0.17174979  0.32967561  1
  Te  Te173  1  0.33605949  0.17205601  0.66574941  1
  Te  Te174  1  0.32624481  0.50009634  0.00090159  1
  Te  Te175  1  0.33244414  0.49778199  0.33105656  1
  Te  Te176  1  0.32636067  0.49693346  0.66778474  1
  Te  Te177  1  0.33319752  0.83264892  -0.00243079  1
  Te  Te178  1  0.33659738  0.83386821  0.33048128  1
  Te  Te179  1  0.32864128  0.83292535  0.67480098  1
  Te  Te180  1  0.65917899  0.16701146  0.00585627  1
  Te  Te181  1  0.66209620  0.16489566  0.33021979  1
  Te  Te182  1  0.66442678  0.15936633  0.66615762  1
  Te  Te183  1  0.66639521  0.50755350  -0.00078317  1
  Te  Te184  1  0.66603239  0.49389593  0.33527073  1
  Te  Te185  1  0.66665384  0.49931764  0.66509266  1
  Te  Te186  1  0.66871315  0.83210137  -0.00237920  1
  Te  Te187  1  0.66117699  0.83667951  0.33702475  1
  Te  Te188  1  0.66562471  0.83835105  0.66849564  1
  Te  Te189  1  -0.00258540  0.00257166  0.16422978  1
  Te  Te190  1  -0.00037689  0.00552077  0.50088091  1
  Te  Te191  1  0.00096860  0.00431554  0.83378451  1
  Te  Te192  1  0.00006155  0.33413087  0.16508500  1
  Te  Te193  1  0.00594986  0.32884252  0.49820863  1
  Te  Te194  1  0.00312157  0.33316861  0.83572488  1
  Te  Te195  1  0.00145480  0.66609063  0.16723824  1
  Te  Te196  1  -0.00099870  0.66458165  0.49123163  1
  Te  Te197  1  0.00125739  0.66331601  0.83287339  1
  Te  Te198  1  0.33767536  0.00252120  0.16673700  1
  Te  Te199  1  0.33889490  -0.00575313  0.50175718  1
  Te  Te200  1  0.33149618  -0.00317008  0.83334327  1
  Te  Te201  1  0.33449392  0.33258371  0.16714478  1
  Te  Te202  1  0.33055321  0.33402557  0.50229599  1
  Te  Te203  1  0.33028664  0.33496902  0.83055373  1
  Te  Te204  1  0.32923077  0.66793641  0.16861487  1
  Te  Te205  1  0.33370135  0.66830373  0.49343820  1
  Te  Te206  1  0.32827646  0.66718289  0.83220200  1
  Te  Te207  1  0.66623846  0.00276964  0.16800338  1
  Te  Te208  1  0.66309488  -0.00303163  0.50066934  1
  Te  Te209  1  0.66736851  -0.00348316  0.83010819  1
  Te  Te210  1  0.66873838  0.33094048  0.16979359  1
  Te  Te211  1  0.66694895  0.33417082  0.49312259  1
  Te  Te212  1  0.66825245  0.33441844  0.83286013  1
  Te  Te213  1  0.67676529  0.66433580  0.16326261  1
  Te  Te214  1  0.66519919  0.67338062  0.49904003  1
  Te  Te215  1  0.66660039  0.67347005  0.83951837  1
