# generated using pymatgen
data_AgSbTe2
_symmetry_space_group_name_H-M   'P 1'
_cell_length_a   18.33932992
_cell_length_b   18.33622854
_cell_length_c   18.32924804
_cell_angle_alpha   89.99597010
_cell_angle_beta   89.99839186
_cell_angle_gamma   90.00404931
_symmetry_Int_Tables_number   1
_chemical_formula_structural   AgSbTe2
_chemical_formula_sum   'Ag54 Sb54 Te108'
_cell_volume   6163.65217498
_cell_formula_units_Z   54
loop_
 _symmetry_equiv_pos_site_id
 _symmetry_equiv_pos_as_xyz
  1  'x, y, z'
loop_
 _atom_site_type_symbol
 _atom_site_label
 _atom_site_symmetry_multiplicity
 _atom_site_fract_x
 _atom_site_fract_y
 _atom_site_fract_z
 _atom_site_occupancy
  Ag  Ag0  1  0.67056619  0.50032472  0.16400533  1
  Ag  Ag1  1  -0.00165771  0.01266477  0.65415826  1
  Ag  Ag2  1  0.50351533  0.50845762  -0.00823919  1
  Ag  Ag3  1  0.49926758  -0.00774995  0.83342852  1
  Ag  Ag4  1  -0.00175648  0.00470388  0.34325802  1
  Ag  Ag5  1  0.66537982  0.83021098  0.83386472  1
  Ag  Ag6  1  0.49072276  0.33500676  0.50088920  1
  Ag  Ag7  1  0.33215727  -0.00272904  0.00083648  1
  Ag  Ag8  1  0.16248155  0.66949808  0.50499829  1
  Ag  Ag9  1  0.16207322  0.83632316  0.33658774  1
  Ag  Ag10  1  0.50426254  0.82552627  -0.00067863  1
  Ag  Ag11  1  0.84252344  -0.00084933  0.17239276  1
  Ag  Ag12  1  0.83439247  0.50280473  0.66900140  1
  Ag  Ag13  1  0.49893432  0.66446420  0.51021720  1
  Ag  Ag14  1  0.84483431  -0.00472994  0.49896940  1
  Ag  Ag15  1  0.49569185  0.50367954  0.67008797  1
  Ag  Ag16  1  0.83144942  0.82862903  0.00083672  1
  Ag  Ag17  1  0.83464573  0.66788472  0.15563360  1
  Ag  Ag18  1  0.83907524  0.67249105  0.51212939  1
  Ag  Ag19  1  -0.01219123  0.66883141  -0.00665686  1
  Ag  Ag20  1  0.15701634  0.00580379  0.49692181  1
  Ag  Ag21  1  0.83492730  0.33218219  0.16933163  1
  Ag  Ag22  1  0.33517823  0.50116248  0.82837774  1
  Ag  Ag23  1  0.00426747  0.15745300  0.50591307  1
  Ag  Ag24  1  0.32359936  0.17070540  0.49790305  1
  Ag  Ag25  1  -0.00007694  0.84326405  0.49777070  1
  Ag  Ag26  1  0.32010721  0.33875683  0.66304914  1
  Ag  Ag27  1  0.67025444  0.34216983  0.66147996  1
  Ag  Ag28  1  0.00837843  0.32335611  0.66053211  1
  Ag  Ag29  1  0.49665067  0.16475651  0.33542891  1
  Ag  Ag30  1  0.15842256  0.00398148  0.17493684  1
  Ag  Ag31  1  0.16493601  0.16631144  -0.00177332  1
  Ag  Ag32  1  0.16987095  0.32340930  0.50417309  1
  Ag  Ag33  1  0.00359902  0.15803989  0.17057851  1
  Ag  Ag34  1  0.49953218  0.66839866  0.83052906  1
  Ag  Ag35  1  0.34130591  0.66972364  -0.00520156  1
  Ag  Ag36  1  0.16591938  0.33107957  0.81700774  1
  Ag  Ag37  1  0.84540146  0.16921398  0.66496116  1
  Ag  Ag38  1  0.66587044  0.32941281  0.33989922  1
  Ag  Ag39  1  0.15920014  0.17721982  0.66268060  1
  Ag  Ag40  1  0.32373414  0.16598520  0.17338438  1
  Ag  Ag41  1  0.82913043  0.50997712  -0.00043827  1
  Ag  Ag42  1  -0.00689026  0.66602009  0.66504196  1
  Ag  Ag43  1  0.33766418  0.65925976  0.66672147  1
  Ag  Ag44  1  0.33169579  0.32932996  0.34582245  1
  Ag  Ag45  1  0.16929190  0.49050221  0.66550655  1
  Ag  Ag46  1  0.00372715  0.16646079  0.81820275  1
  Ag  Ag47  1  0.83585495  0.82438673  0.66389946  1
  Ag  Ag48  1  0.66933883  0.66784628  -0.00623745  1
  Ag  Ag49  1  0.00253292  0.32308927  0.34299067  1
  Ag  Ag50  1  -0.00270297  0.84179943  0.17528618  1
  Ag  Ag51  1  0.67099270  0.66168955  0.66938504  1
  Ag  Ag52  1  0.67401273  0.00261937  0.33308086  1
  Ag  Ag53  1  0.49866529  0.83724475  0.33246263  1
  Sb  Sb54  1  0.50644357  0.82522510  0.66743916  1
  Sb  Sb55  1  -0.00575643  0.50011586  0.16504619  1
  Sb  Sb56  1  -0.00011374  0.49852315  0.50430234  1
  Sb  Sb57  1  0.17203685  0.66160965  0.82537529  1
  Sb  Sb58  1  0.32801036  0.83605500  0.50015062  1
  Sb  Sb59  1  0.16483998  0.83600715  0.00466618  1
  Sb  Sb60  1  0.49733086  0.17329011  0.66160429  1
  Sb  Sb61  1  0.66988621  0.16288295  0.83055986  1
  Sb  Sb62  1  0.32894046  0.83727978  0.16640821  1
  Sb  Sb63  1  0.84060420  0.16433866  -0.00048504  1
  Sb  Sb64  1  0.50532970  0.66678961  0.16188904  1
  Sb  Sb65  1  0.83731591  0.33394867  0.83091870  1
  Sb  Sb66  1  -0.00422280  0.83617230  0.83023113  1
  Sb  Sb67  1  0.16659234  0.49877354  -0.00594983  1
  Sb  Sb68  1  -0.00186051  0.66959888  0.33859811  1
  Sb  Sb69  1  0.66221502  0.50528221  0.83267930  1
  Sb  Sb70  1  0.67048916  0.16887003  0.16896523  1
  Sb  Sb71  1  0.83139109  -0.00247044  0.83112769  1
  Sb  Sb72  1  0.82857730  0.66691928  0.83296135  1
  Sb  Sb73  1  0.16790524  0.00504280  0.83164738  1
  Sb  Sb74  1  0.33345051  0.49332051  0.50764439  1
  Sb  Sb75  1  0.49976721  -0.00111538  0.16632293  1
  Sb  Sb76  1  0.15802747  0.83260532  0.66045728  1
  Sb  Sb77  1  0.16637979  0.16227034  0.33932405  1
  Sb  Sb78  1  0.67205615  0.83156776  0.50200828  1
  Sb  Sb79  1  0.16038046  0.67100478  0.16888422  1
  Sb  Sb80  1  0.66719940  0.49990501  0.50142620  1
  Sb  Sb81  1  0.32833235  0.17027364  0.83057775  1
  Sb  Sb82  1  0.50411474  0.33337691  0.17402611  1
  Sb  Sb83  1  0.33931536  0.82851367  0.83391816  1
  Sb  Sb84  1  0.00277717  -0.00375084  0.00232197  1
  Sb  Sb85  1  0.83297954  0.49825077  0.33419653  1
  Sb  Sb86  1  0.66736423  0.34255164  -0.00042809  1
  Sb  Sb87  1  -0.00016079  0.33538133  -0.00171676  1
  Sb  Sb88  1  0.66437109  -0.00703430  0.00451111  1
  Sb  Sb89  1  0.33445159  0.66275750  0.33716609  1
  Sb  Sb90  1  0.49375154  0.16562501  0.00392406  1
  Sb  Sb91  1  0.32866287  0.00135438  0.66870312  1
  Sb  Sb92  1  0.67344237  0.82982650  0.16484553  1
  Sb  Sb93  1  0.83572349  0.16518915  0.33801460  1
  Sb  Sb94  1  0.50097117  0.49877416  0.33710968  1
  Sb  Sb95  1  0.16180362  0.32571059  0.17323168  1
  Sb  Sb96  1  0.67018863  0.16790333  0.49882549  1
  Sb  Sb97  1  0.83715057  0.33244392  0.50090664  1
  Sb  Sb98  1  0.16630426  0.50140593  0.34177600  1
  Sb  Sb99  1  0.33296989  0.33293595  -0.00300213  1
  Sb  Sb100  1  0.83505395  0.83581679  0.33377199  1
  Sb  Sb101  1  0.33806895  0.49602406  0.15961417  1
  Sb  Sb102  1  0.49891834  0.00008563  0.50188960  1
  Sb  Sb103  1  0.00293365  0.49810492  0.82905875  1
  Sb  Sb104  1  0.32994016  0.00539226  0.33057454  1
  Sb  Sb105  1  0.67328941  -0.00197952  0.66226094  1
  Sb  Sb106  1  0.66697074  0.66740891  0.33514529  1
  Sb  Sb107  1  0.49613582  0.33698987  0.82455276  1
  Te  Te108  1  0.16565437  0.16357507  0.16512891  1
  Te  Te109  1  0.16460991  0.16580183  0.50088266  1
  Te  Te110  1  0.16373057  0.17022713  0.83330914  1
  Te  Te111  1  0.16793725  0.50015687  0.16551687  1
  Te  Te112  1  0.16717276  0.50866598  0.50671858  1
  Te  Te113  1  0.17174911  0.49351658  0.82698942  1
  Te  Te114  1  0.16053885  0.83904419  0.17227592  1
  Te  Te115  1  0.16196372  0.83318637  0.49593097  1
  Te  Te116  1  0.16702346  0.83530625  0.83495143  1
  Te  Te117  1  0.49715075  0.16663064  0.17268769  1
  Te  Te118  1  0.49981593  0.16913870  0.49589646  1
  Te  Te119  1  0.50006672  0.16362784  0.83421816  1
  Te  Te120  1  0.50593854  0.49947345  0.16076686  1
  Te  Te121  1  0.50093904  0.50171893  0.50463058  1
  Te  Te122  1  0.49644696  0.50264724  0.83173612  1
  Te  Te123  1  0.49939003  0.83316665  0.16590752  1
  Te  Te124  1  0.49960111  0.83057209  0.49747017  1
  Te  Te125  1  0.50393636  0.83079625  0.83552795  1
  Te  Te126  1  0.83754926  0.16590120  0.16643005  1
  Te  Te127  1  0.83837573  0.16328118  0.50450969  1
  Te  Te128  1  0.83996021  0.16568572  0.82844054  1
  Te  Te129  1  0.83103645  0.50287837  0.16560815  1
  Te  Te130  1  0.83305603  0.50841395  0.50516704  1
  Te  Te131  1  0.83330260  0.49874912  0.83475028  1
  Te  Te132  1  0.83729688  0.83176430  0.16594629  1
  Te  Te133  1  0.83758553  0.83356558  0.50100500  1
  Te  Te134  1  0.82839055  0.83437655  0.83679292  1
  Te  Te135  1  0.17095879  0.00311651  0.00075934  1
  Te  Te136  1  0.16404123  -0.00323397  0.33382229  1
  Te  Te137  1  0.16209666  0.00051450  0.66340235  1
  Te  Te138  1  0.16670342  0.32924809  0.00157799  1
  Te  Te139  1  0.16594882  0.33574592  0.34006695  1
  Te  Te140  1  0.16364914  0.33396256  0.66118470  1
  Te  Te141  1  0.17069458  0.66671749  -0.00076006  1
  Te  Te142  1  0.16693780  0.67201178  0.33959045  1
  Te  Te143  1  0.16912769  0.66685839  0.66349951  1
  Te  Te144  1  0.49661429  -0.00231680  -0.00214699  1
  Te  Te145  1  0.49960716  0.00005476  0.33416105  1
  Te  Te146  1  0.49998566  -0.00028977  0.67090459  1
  Te  Te147  1  0.50013152  0.33806303  -0.00106181  1
  Te  Te148  1  0.50071416  0.33268558  0.33886558  1
  Te  Te149  1  0.50678702  0.33801876  0.66124843  1
  Te  Te150  1  0.50031290  0.66728890  0.00073312  1
  Te  Te151  1  0.50008153  0.66921620  0.33715927  1
  Te  Te152  1  0.49908592  0.66458921  0.66833154  1
  Te  Te153  1  0.83282746  -0.00482092  0.00419100  1
  Te  Te154  1  0.83578125  0.00019277  0.33357476  1
  Te  Te155  1  0.83633244  0.00199195  0.66388314  1
  Te  Te156  1  0.83295657  0.33621039  0.00499031  1
  Te  Te157  1  0.83173259  0.33211505  0.33174003  1
  Te  Te158  1  0.83106446  0.33634899  0.66594557  1
  Te  Te159  1  0.83108566  0.66738491  -0.00236834  1
  Te  Te160  1  0.83202984  0.66692096  0.33412617  1
  Te  Te161  1  0.83083025  0.66507065  0.66930355  1
  Te  Te162  1  0.00455200  0.16733033  0.00873259  1
  Te  Te163  1  -0.00003168  0.16522756  0.33030292  1
  Te  Te164  1  0.00112893  0.16806223  0.66244544  1
  Te  Te165  1  -0.00409535  0.50714179  -0.00246120  1
  Te  Te166  1  0.00074640  0.48828193  0.33299051  1
  Te  Te167  1  -0.00313412  0.50752622  0.66868166  1
  Te  Te168  1  -0.00308207  0.82828740  -0.00077781  1
  Te  Te169  1  0.00082609  0.83600282  0.33516557  1
  Te  Te170  1  -0.00616182  0.82452645  0.66478731  1
  Te  Te171  1  0.32934820  0.16380117  0.00176417  1
  Te  Te172  1  0.33488319  0.16973709  0.33426811  1
  Te  Te173  1  0.32930855  0.17011235  0.66264483  1
  Te  Te174  1  0.33622646  0.50392821  -0.00541979  1
  Te  Te175  1  0.33402576  0.49028110  0.32872007  1
  Te  Te176  1  0.33420273  0.49934803  0.66802486  1
  Te  Te177  1  0.33627931  0.83214638  0.00042626  1
  Te  Te178  1  0.33736879  0.83276175  0.33255545  1
  Te  Te179  1  0.33290234  0.82831354  0.66668018  1
  Te  Te180  1  0.66635824  0.16734001  -0.00054302  1
  Te  Te181  1  0.66166127  0.16816400  0.33269573  1
  Te  Te182  1  0.66795494  0.16851063  0.66676991  1
  Te  Te183  1  0.66748733  0.50565373  0.00067947  1
  Te  Te184  1  0.66595013  0.49441547  0.32653687  1
  Te  Te185  1  0.66815051  0.50152002  0.66688275  1
  Te  Te186  1  0.66595732  0.82859426  -0.00132894  1
  Te  Te187  1  0.66044332  0.83634786  0.33310623  1
  Te  Te188  1  0.67400722  0.83025457  0.67005491  1
  Te  Te189  1  -0.00024604  -0.00198246  0.16343312  1
  Te  Te190  1  0.00066846  -0.00087814  0.49878611  1
  Te  Te191  1  -0.00002227  0.00491989  0.83003584  1
  Te  Te192  1  -0.00508296  0.33283101  0.16650755  1
  Te  Te193  1  0.00160927  0.33233205  0.50103821  1
  Te  Te194  1  0.00469295  0.32844700  0.82986978  1
  Te  Te195  1  -0.00499984  0.66921842  0.16824611  1
  Te  Te196  1  -0.00090563  0.66637932  0.50181765  1
  Te  Te197  1  0.00430318  0.66782259  0.83366770  1
  Te  Te198  1  0.33112224  0.00484979  0.16249719  1
  Te  Te199  1  0.33001895  0.00685009  0.50066306  1
  Te  Te200  1  0.33725078  0.00073794  0.83744235  1
  Te  Te201  1  0.33342859  0.32731867  0.16634368  1
  Te  Te202  1  0.33207263  0.33068947  0.50280623  1
  Te  Te203  1  0.32883426  0.33694335  0.82833472  1
  Te  Te204  1  0.33117640  0.66574282  0.16361806  1
  Te  Te205  1  0.33459297  0.66796889  0.50257472  1
  Te  Te206  1  0.33807608  0.66348986  0.83259905  1
  Te  Te207  1  0.67135906  0.00063250  0.17254138  1
  Te  Te208  1  0.66869801  -0.00015479  0.49313907  1
  Te  Te209  1  0.66128902  -0.00516040  0.83361307  1
  Te  Te210  1  0.67201174  0.33657331  0.16774372  1
  Te  Te211  1  0.66709234  0.33360303  0.49927475  1
  Te  Te212  1  0.66569530  0.33153798  0.82627826  1
  Te  Te213  1  0.67283638  0.66259319  0.16578314  1
  Te  Te214  1  0.66540634  0.66628693  0.50353696  1
  Te  Te215  1  0.66060386  0.67005821  0.83219704  1
