# generated using pymatgen
data_AgSbTe2
_symmetry_space_group_name_H-M   'P 1'
_cell_length_a   18.32875501
_cell_length_b   18.33384938
_cell_length_c   18.34131083
_cell_angle_alpha   90.00068219
_cell_angle_beta   90.00264289
_cell_angle_gamma   89.99804280
_symmetry_Int_Tables_number   1
_chemical_formula_structural   AgSbTe2
_chemical_formula_sum   'Ag54 Sb54 Te108'
_cell_volume   6163.35233870
_cell_formula_units_Z   54
loop_
 _symmetry_equiv_pos_site_id
 _symmetry_equiv_pos_as_xyz
  1  'x, y, z'
loop_
 _atom_site_type_symbol
 _atom_site_label
 _atom_site_symmetry_multiplicity
 _atom_site_fract_x
 _atom_site_fract_y
 _atom_site_fract_z
 _atom_site_occupancy
  Ag  Ag0  1  0.66111594  0.16623199  0.17536025  1
  Ag  Ag1  1  0.66669499  0.16229352  0.82255770  1
  Ag  Ag2  1  0.49430371  0.49518905  0.34042747  1
  Ag  Ag3  1  0.33328801  0.66759192  -0.01135187  1
  Ag  Ag4  1  0.50150674  0.49709094  0.66197521  1
  Ag  Ag5  1  0.16314493  0.32820387  0.50163359  1
  Ag  Ag6  1  0.49663825  0.33277294  0.18010861  1
  Ag  Ag7  1  0.66585655  -0.00100168  0.34615007  1
  Ag  Ag8  1  0.00521007  0.82486053  0.17685959  1
  Ag  Ag9  1  0.16334255  0.83388945  0.34131589  1
  Ag  Ag10  1  -0.00026409  0.34312902  -0.00170750  1
  Ag  Ag11  1  -0.00096182  -0.00267629  0.66290650  1
  Ag  Ag12  1  0.33177739  0.82795045  0.83284262  1
  Ag  Ag13  1  0.34632336  0.34120165  0.65578258  1
  Ag  Ag14  1  0.50032375  0.33246814  0.82151034  1
  Ag  Ag15  1  0.00230086  0.66751958  0.33737597  1
  Ag  Ag16  1  0.33357878  0.50227853  0.17781797  1
  Ag  Ag17  1  0.33243518  0.49672138  0.49687171  1
  Ag  Ag18  1  -0.00067309  0.83020395  0.49781787  1
  Ag  Ag19  1  0.00220534  0.50506314  0.17893219  1
  Ag  Ag20  1  0.50289714  0.00169812  0.82448892  1
  Ag  Ag21  1  0.33654827  0.34173492  0.34067038  1
  Ag  Ag22  1  0.16736446  0.67291060  0.82838698  1
  Ag  Ag23  1  0.16440119  0.83310033  0.66266671  1
  Ag  Ag24  1  0.83425123  0.82858132  -0.00109233  1
  Ag  Ag25  1  0.83077298  0.49649675  0.66420853  1
  Ag  Ag26  1  0.34090477  0.17732497  0.17049588  1
  Ag  Ag27  1  0.32907779  0.82608471  0.16756314  1
  Ag  Ag28  1  0.66575526  -0.00340512  -0.00812058  1
  Ag  Ag29  1  0.67059908  0.83878455  0.50112718  1
  Ag  Ag30  1  0.51002233  0.00457568  0.50358727  1
  Ag  Ag31  1  -0.00019762  0.66596270  0.66595018  1
  Ag  Ag32  1  0.49847289  0.33396885  0.50171632  1
  Ag  Ag33  1  0.66885776  0.67130766  -0.01067564  1
  Ag  Ag34  1  -0.00062711  0.66595243  -0.00792047  1
  Ag  Ag35  1  0.66654996  0.66566059  0.66821381  1
  Ag  Ag36  1  -0.00002586  -0.00792219  0.34429738  1
  Ag  Ag37  1  0.66420402  0.67078269  0.34019581  1
  Ag  Ag38  1  0.83074971  0.17337929  0.66636017  1
  Ag  Ag39  1  0.66702620  0.00731174  0.66458108  1
  Ag  Ag40  1  -0.00518965  0.16732869  0.82812539  1
  Ag  Ag41  1  0.49882988  0.66665612  0.82886475  1
  Ag  Ag42  1  -0.00480356  0.33735599  0.66290379  1
  Ag  Ag43  1  0.84019901  0.33464606  0.50514769  1
  Ag  Ag44  1  0.33484351  0.66034104  0.33397789  1
  Ag  Ag45  1  0.16315602  -0.00068730  0.50411431  1
  Ag  Ag46  1  0.00487804  0.49696557  0.49903728  1
  Ag  Ag47  1  0.66494481  0.32843105  0.66359032  1
  Ag  Ag48  1  0.16816777  -0.00636837  0.82574094  1
  Ag  Ag49  1  0.83539910  0.66776462  0.83108572  1
  Ag  Ag50  1  0.66418775  0.16050448  0.50426310  1
  Ag  Ag51  1  0.33549280  0.66253630  0.67021452  1
  Ag  Ag52  1  0.00654068  0.34177890  0.34552425  1
  Ag  Ag53  1  0.50170812  0.17452867  0.33434425  1
  Sb  Sb54  1  0.16678221  0.66751295  0.16546527  1
  Sb  Sb55  1  0.33114197  0.82864449  0.50080959  1
  Sb  Sb56  1  0.49672805  0.66154245  0.16571221  1
  Sb  Sb57  1  0.16956670  0.33411937  0.17499560  1
  Sb  Sb58  1  0.83130962  -0.00387415  0.83028795  1
  Sb  Sb59  1  0.66640891  0.83612373  0.17055418  1
  Sb  Sb60  1  0.83121120  0.16479319  -0.00684758  1
  Sb  Sb61  1  0.50238708  0.16689367  0.00323810  1
  Sb  Sb62  1  0.16668565  -0.00332376  0.16927487  1
  Sb  Sb63  1  -0.00363585  -0.00594767  -0.00445656  1
  Sb  Sb64  1  0.82778519  0.16802799  0.34036580  1
  Sb  Sb65  1  0.16965737  0.16352620  0.33610030  1
  Sb  Sb66  1  0.34007611  0.17420628  0.49726158  1
  Sb  Sb67  1  0.16630157  0.50211899  0.00090749  1
  Sb  Sb68  1  0.33513630  -0.00047346  0.33526003  1
  Sb  Sb69  1  0.16904064  0.33325865  0.82372195  1
  Sb  Sb70  1  0.66519867  0.50114053  0.82952565  1
  Sb  Sb71  1  0.66327178  0.83442161  0.82794531  1
  Sb  Sb72  1  0.50350109  0.83207203  -0.00101869  1
  Sb  Sb73  1  0.83902045  0.83201895  0.33202695  1
  Sb  Sb74  1  0.49648616  0.83120802  0.33568997  1
  Sb  Sb75  1  0.00401325  0.83267180  0.82822123  1
  Sb  Sb76  1  0.33456176  -0.00074311  0.66535727  1
  Sb  Sb77  1  0.50614600  0.17309582  0.66094737  1
  Sb  Sb78  1  0.83481385  0.66163459  0.50640536  1
  Sb  Sb79  1  0.66485096  0.49750503  0.17060788  1
  Sb  Sb80  1  0.49894861  0.50158612  -0.00107270  1
  Sb  Sb81  1  0.83415720  0.50057564  0.34022544  1
  Sb  Sb82  1  -0.00587533  0.16770714  0.50469330  1
  Sb  Sb83  1  0.50114137  0.00474967  0.17089060  1
  Sb  Sb84  1  0.17027391  0.50657369  0.33722950  1
  Sb  Sb85  1  0.83596861  0.50391932  -0.00646312  1
  Sb  Sb86  1  0.83325709  0.00336074  0.50229941  1
  Sb  Sb87  1  0.33743580  0.16390201  0.83393282  1
  Sb  Sb88  1  0.16817266  0.50510208  0.66259103  1
  Sb  Sb89  1  0.33841544  -0.00631708  -0.00151276  1
  Sb  Sb90  1  0.16435735  0.66955096  0.50367314  1
  Sb  Sb91  1  0.83243023  0.00001405  0.16671108  1
  Sb  Sb92  1  -0.00081303  0.16864274  0.16637840  1
  Sb  Sb93  1  0.33556001  0.50662163  0.82785067  1
  Sb  Sb94  1  0.83647562  0.66618231  0.16209088  1
  Sb  Sb95  1  0.66102464  0.33239724  0.34187829  1
  Sb  Sb96  1  0.00011364  0.49984177  0.82547003  1
  Sb  Sb97  1  0.49751360  0.82968831  0.66636416  1
  Sb  Sb98  1  0.66947155  0.33309283  -0.00581745  1
  Sb  Sb99  1  0.83060916  0.33543554  0.82501994  1
  Sb  Sb100  1  0.66437329  0.49979018  0.50269604  1
  Sb  Sb101  1  0.83117755  0.33351283  0.17289620  1
  Sb  Sb102  1  0.16387902  0.83119962  -0.00290250  1
  Sb  Sb103  1  0.16608058  0.16661134  -0.00153647  1
  Sb  Sb104  1  0.83584194  0.83088533  0.66826584  1
  Sb  Sb105  1  0.49943970  0.66457119  0.50366641  1
  Sb  Sb106  1  0.16112756  0.16183787  0.66568677  1
  Sb  Sb107  1  0.33074527  0.34061658  0.00176159  1
  Te  Te108  1  0.17393177  0.16523123  0.16639649  1
  Te  Te109  1  0.16877899  0.16405706  0.50025415  1
  Te  Te110  1  0.16489175  0.16149722  0.83357822  1
  Te  Te111  1  0.16322563  0.49941766  0.16831728  1
  Te  Te112  1  0.16534821  0.49111899  0.50011289  1
  Te  Te113  1  0.16759715  0.50708762  0.83305567  1
  Te  Te114  1  0.16589808  0.83382623  0.17018920  1
  Te  Te115  1  0.16468393  0.83658155  0.50164745  1
  Te  Te116  1  0.16955189  0.83307909  0.83123853  1
  Te  Te117  1  0.50008394  0.17030367  0.17027993  1
  Te  Te118  1  0.50420585  0.16504635  0.49524924  1
  Te  Te119  1  0.50363371  0.16496155  0.83436319  1
  Te  Te120  1  0.49727837  0.49407802  0.17033420  1
  Te  Te121  1  0.49789684  0.49898467  0.50081008  1
  Te  Te122  1  0.49954552  0.49824726  0.82810723  1
  Te  Te123  1  0.49281768  0.83368661  0.16719778  1
  Te  Te124  1  0.50391347  0.84105426  0.49992162  1
  Te  Te125  1  0.49397717  0.83317712  0.83287362  1
  Te  Te126  1  0.82524441  0.16780570  0.16532343  1
  Te  Te127  1  0.82522047  0.17431217  0.50666032  1
  Te  Te128  1  0.83216884  0.16642299  0.82670416  1
  Te  Te129  1  0.84068615  0.49817306  0.16688746  1
  Te  Te130  1  0.83963588  0.49421084  0.50628428  1
  Te  Te131  1  0.83304822  0.50739718  0.82504276  1
  Te  Te132  1  0.83884582  0.83333259  0.16048576  1
  Te  Te133  1  0.83543296  0.83177233  0.50027827  1
  Te  Te134  1  0.83291033  0.82702457  0.83750671  1
  Te  Te135  1  0.16722349  -0.00049998  -0.00843515  1
  Te  Te136  1  0.16246572  -0.00433829  0.33673030  1
  Te  Te137  1  0.16717101  -0.00406442  0.66595033  1
  Te  Te138  1  0.15886396  0.33390094  -0.00339074  1
  Te  Te139  1  0.16692266  0.33097861  0.33947807  1
  Te  Te140  1  0.15970410  0.33209490  0.66228738  1
  Te  Te141  1  0.16532140  0.66773063  -0.00802428  1
  Te  Te142  1  0.16377631  0.67335070  0.33452675  1
  Te  Te143  1  0.16401932  0.67102896  0.66855805  1
  Te  Te144  1  0.50642155  -0.00077707  -0.00577366  1
  Te  Te145  1  0.50420470  0.00170652  0.33814732  1
  Te  Te146  1  0.50161453  -0.00109499  0.66506260  1
  Te  Te147  1  0.50038080  0.33522054  -0.00561700  1
  Te  Te148  1  0.49952450  0.33455449  0.33620875  1
  Te  Te149  1  0.50301516  0.33582465  0.66399592  1
  Te  Te150  1  0.50028463  0.66592584  -0.00493190  1
  Te  Te151  1  0.49956670  0.66299188  0.33423764  1
  Te  Te152  1  0.49969679  0.66345946  0.66782001  1
  Te  Te153  1  0.82650238  -0.00519557  -0.00148821  1
  Te  Te154  1  0.83223928  0.00003652  0.33379115  1
  Te  Te155  1  0.83351348  0.00227914  0.66757649  1
  Te  Te156  1  0.83950247  0.33428112  -0.00076235  1
  Te  Te157  1  0.84011172  0.33411050  0.34077517  1
  Te  Te158  1  0.83324925  0.33488402  0.66536091  1
  Te  Te159  1  0.83409073  0.66813945  -0.00479324  1
  Te  Te160  1  0.83180717  0.66577663  0.33334689  1
  Te  Te161  1  0.83360857  0.66516182  0.67030048  1
  Te  Te162  1  -0.00158963  0.16623126  -0.00400684  1
  Te  Te163  1  -0.00211613  0.16400857  0.33035255  1
  Te  Te164  1  -0.00465436  0.16354500  0.66918557  1
  Te  Te165  1  -0.00018468  0.50432588  0.00120069  1
  Te  Te166  1  0.00039477  0.50123126  0.33754749  1
  Te  Te167  1  0.00048615  0.50253215  0.66152600  1
  Te  Te168  1  -0.00309996  0.82822453  0.00246980  1
  Te  Te169  1  0.00082816  0.83279422  0.33572919  1
  Te  Te170  1  0.00137686  0.83391271  0.66308855  1
  Te  Te171  1  0.33349854  0.16736702  0.00801985  1
  Te  Te172  1  0.33783969  0.16771611  0.32904574  1
  Te  Te173  1  0.33276879  0.17595223  0.66845290  1
  Te  Te174  1  0.33291078  0.50875274  0.00998251  1
  Te  Te175  1  0.33323128  0.49975682  0.33513533  1
  Te  Te176  1  0.33469232  0.50085394  0.66282585  1
  Te  Te177  1  0.33306573  0.82662355  0.00161986  1
  Te  Te178  1  0.32889301  0.83071653  0.33226596  1
  Te  Te179  1  0.32858531  0.82880848  0.66879618  1
  Te  Te180  1  0.66826185  0.16361079  -0.00356423  1
  Te  Te181  1  0.66343527  0.16538369  0.33480797  1
  Te  Te182  1  0.66729985  0.16707550  0.66514887  1
  Te  Te183  1  0.66775659  0.50888298  0.00124404  1
  Te  Te184  1  0.66262917  0.50544097  0.33451715  1
  Te  Te185  1  0.66569144  0.50448364  0.66606067  1
  Te  Te186  1  0.66980614  0.83142199  0.00171342  1
  Te  Te187  1  0.66669011  0.83363952  0.33637313  1
  Te  Te188  1  0.66760177  0.82960353  0.66185472  1
  Te  Te189  1  0.00044564  -0.00194837  0.16778157  1
  Te  Te190  1  0.00009070  0.00105909  0.50214055  1
  Te  Te191  1  0.00200049  0.00135250  0.82914006  1
  Te  Te192  1  0.00048513  0.33517244  0.16501111  1
  Te  Te193  1  0.00158747  0.32982130  0.50221194  1
  Te  Te194  1  0.00061690  0.33111955  0.82966504  1
  Te  Te195  1  0.00103733  0.66604795  0.17143959  1
  Te  Te196  1  0.00016653  0.66853173  0.50107331  1
  Te  Te197  1  0.00102755  0.66690241  0.83073256  1
  Te  Te198  1  0.33351839  -0.00644914  0.16611215  1
  Te  Te199  1  0.32942912  -0.00060858  0.50029357  1
  Te  Te200  1  0.33536310  -0.00416939  0.83290961  1
  Te  Te201  1  0.33572364  0.33692444  0.16658694  1
  Te  Te202  1  0.33695292  0.33474293  0.49935892  1
  Te  Te203  1  0.33759669  0.33362318  0.83294221  1
  Te  Te204  1  0.33220815  0.66491975  0.17398278  1
  Te  Te205  1  0.33189596  0.66151023  0.49956106  1
  Te  Te206  1  0.33597402  0.66756660  0.83048478  1
  Te  Te207  1  0.66526148  0.00448720  0.16571809  1
  Te  Te208  1  0.66906030  -0.00084237  0.50326036  1
  Te  Te209  1  0.66458330  0.00011373  0.82870581  1
  Te  Te210  1  0.66208912  0.32869471  0.16395764  1
  Te  Te211  1  0.66018671  0.33400609  0.50436749  1
  Te  Te212  1  0.66290515  0.32908637  0.82945479  1
  Te  Te213  1  0.66599561  0.66744433  0.16998283  1
  Te  Te214  1  0.66714872  0.66932922  0.50051746  1
  Te  Te215  1  0.66143988  0.66843159  0.83102999  1
