# generated using pymatgen
data_AgSbTe2
_symmetry_space_group_name_H-M   'P 1'
_cell_length_a   18.33839320
_cell_length_b   18.33929086
_cell_length_c   18.34169696
_cell_angle_alpha   89.99950570
_cell_angle_beta   90.00152994
_cell_angle_gamma   90.00048835
_symmetry_Int_Tables_number   1
_chemical_formula_structural   AgSbTe2
_chemical_formula_sum   'Ag54 Sb54 Te108'
_cell_volume   6168.55345416
_cell_formula_units_Z   54
loop_
 _symmetry_equiv_pos_site_id
 _symmetry_equiv_pos_as_xyz
  1  'x, y, z'
loop_
 _atom_site_type_symbol
 _atom_site_label
 _atom_site_symmetry_multiplicity
 _atom_site_fract_x
 _atom_site_fract_y
 _atom_site_fract_z
 _atom_site_occupancy
  Ag  Ag0  1  0.16644757  0.16536474  0.32287389  1
  Ag  Ag1  1  0.66760469  0.17517836  0.16541142  1
  Ag  Ag2  1  0.00207609  0.01101388  0.00760933  1
  Ag  Ag3  1  0.33674492  0.65757433  0.33361196  1
  Ag  Ag4  1  0.66678993  0.82433600  0.16586309  1
  Ag  Ag5  1  0.83541815  0.17422955  0.00445111  1
  Ag  Ag6  1  0.50108387  0.33816531  0.16245793  1
  Ag  Ag7  1  0.82077796  0.33815187  0.84543219  1
  Ag  Ag8  1  -0.00635984  0.49942970  0.83695661  1
  Ag  Ag9  1  0.15922455  0.16864481  0.01160044  1
  Ag  Ag10  1  0.16149264  0.01630812  0.17042701  1
  Ag  Ag11  1  0.50411024  0.17076505  0.66928825  1
  Ag  Ag12  1  0.33624218  0.49788185  0.17440573  1
  Ag  Ag13  1  0.49949595  0.50239080  0.32836871  1
  Ag  Ag14  1  0.16715596  0.32986176  0.16980541  1
  Ag  Ag15  1  0.00748796  0.17273454  0.16349738  1
  Ag  Ag16  1  0.50314243  0.82518938  -0.00019675  1
  Ag  Ag17  1  0.82915420  0.50075611  0.33460085  1
  Ag  Ag18  1  0.66579250  0.34168931  0.67969746  1
  Ag  Ag19  1  0.49880834  0.82736816  0.67144957  1
  Ag  Ag20  1  0.66196617  0.66225610  0.33412662  1
  Ag  Ag21  1  0.50129192  0.49904679  0.00991238  1
  Ag  Ag22  1  0.50147075  0.00620421  0.83431160  1
  Ag  Ag23  1  0.33788414  0.66122777  0.66145892  1
  Ag  Ag24  1  0.67103870  0.33297663  -0.00619012  1
  Ag  Ag25  1  0.66735365  0.49528567  0.82707392  1
  Ag  Ag26  1  0.31941542  0.18054263  0.16790553  1
  Ag  Ag27  1  0.17060772  0.50273836  0.66580542  1
  Ag  Ag28  1  0.50470186  0.66160754  0.49554534  1
  Ag  Ag29  1  0.16583170  0.66040929  0.83338918  1
  Ag  Ag30  1  0.16603697  0.83561405  0.33126247  1
  Ag  Ag31  1  -0.00667626  0.33257199  0.00509610  1
  Ag  Ag32  1  0.83513188  0.33804385  0.16240605  1
  Ag  Ag33  1  0.16238222  0.33735946  0.49146594  1
  Ag  Ag34  1  0.50054032  0.65525252  0.17193098  1
  Ag  Ag35  1  0.50992417  0.33712964  0.83950317  1
  Ag  Ag36  1  0.16643777  0.66211876  0.16857330  1
  Ag  Ag37  1  0.33513279  0.50162442  0.49117633  1
  Ag  Ag38  1  0.83219992  0.65578623  0.83527399  1
  Ag  Ag39  1  -0.00634122  0.49860620  0.49275122  1
  Ag  Ag40  1  0.00163236  0.83421267  0.16739715  1
  Ag  Ag41  1  0.83125528  0.34088199  0.49729651  1
  Ag  Ag42  1  0.66326870  0.18121855  0.83545232  1
  Ag  Ag43  1  0.67292865  0.49784814  0.50197873  1
  Ag  Ag44  1  0.00386624  0.49539440  0.16714503  1
  Ag  Ag45  1  0.00671010  0.00033823  0.32430220  1
  Ag  Ag46  1  0.33581454  0.50061113  0.83285920  1
  Ag  Ag47  1  0.66661643  0.17954970  0.50011798  1
  Ag  Ag48  1  0.83158521  0.65723761  0.16896701  1
  Ag  Ag49  1  0.82520431  0.65650685  0.49117802  1
  Ag  Ag50  1  0.17001047  0.82128633  0.66094486  1
  Ag  Ag51  1  0.66039489  0.65873056  0.66038887  1
  Ag  Ag52  1  0.33137255  0.34078578  0.32878658  1
  Ag  Ag53  1  0.16557876  0.00625256  0.48715041  1
  Sb  Sb54  1  0.17302772  0.17187326  0.66421426  1
  Sb  Sb55  1  0.83231547  0.49997019  0.66451989  1
  Sb  Sb56  1  0.16905325  0.49543715  0.00231143  1
  Sb  Sb57  1  0.49594926  0.00230849  0.16294946  1
  Sb  Sb58  1  -0.00090410  0.66142668  0.00410767  1
  Sb  Sb59  1  0.16664480  0.33999145  0.83716999  1
  Sb  Sb60  1  0.17016791  -0.00391498  0.83674218  1
  Sb  Sb61  1  0.32672156  0.00071027  0.33151396  1
  Sb  Sb62  1  0.66855113  0.00724354  0.00221809  1
  Sb  Sb63  1  0.66533685  0.82465041  0.49631995  1
  Sb  Sb64  1  0.16971323  0.49788324  0.33265336  1
  Sb  Sb65  1  0.33170874  0.82636193  0.16805518  1
  Sb  Sb66  1  0.66598133  0.49914669  0.16929721  1
  Sb  Sb67  1  0.33498972  0.82577251  0.83244823  1
  Sb  Sb68  1  0.00176534  0.82695823  0.83941967  1
  Sb  Sb69  1  0.33405185  0.66293018  0.00255674  1
  Sb  Sb70  1  0.33904334  0.34173461  0.66267958  1
  Sb  Sb71  1  0.83041962  0.83569756  0.00418052  1
  Sb  Sb72  1  0.66569128  0.65773761  0.00167526  1
  Sb  Sb73  1  0.50359652  0.34209742  0.49904112  1
  Sb  Sb74  1  0.33410076  -0.00629240  0.66632749  1
  Sb  Sb75  1  0.83656101  0.17649796  0.32670908  1
  Sb  Sb76  1  0.00216106  0.66169238  0.66652776  1
  Sb  Sb77  1  0.49935846  0.50129103  0.66511551  1
  Sb  Sb78  1  0.49618149  -0.00295894  0.50365998  1
  Sb  Sb79  1  0.33104653  0.00244274  0.00218112  1
  Sb  Sb80  1  0.00396433  0.82770961  0.49420359  1
  Sb  Sb81  1  -0.00243325  0.17476558  0.49287027  1
  Sb  Sb82  1  0.83775602  0.00464409  0.49789073  1
  Sb  Sb83  1  0.82930907  0.00513718  0.83652614  1
  Sb  Sb84  1  0.33654893  0.17509336  0.49512490  1
  Sb  Sb85  1  0.33152563  0.82485884  0.49964472  1
  Sb  Sb86  1  0.50046167  0.65905531  0.83300804  1
  Sb  Sb87  1  0.66423416  0.34090533  0.33018139  1
  Sb  Sb88  1  0.00515013  0.33422304  0.32386319  1
  Sb  Sb89  1  0.67124872  -0.00415688  0.33092420  1
  Sb  Sb90  1  0.82579389  0.17175272  0.67039157  1
  Sb  Sb91  1  0.84193538  0.00582082  0.16649657  1
  Sb  Sb92  1  0.66422699  0.00094380  0.66693920  1
  Sb  Sb93  1  0.83762220  0.82386594  0.32978106  1
  Sb  Sb94  1  0.16868482  0.83549337  0.00612922  1
  Sb  Sb95  1  0.49786418  0.17399423  0.33365064  1
  Sb  Sb96  1  0.49632840  0.82302769  0.33118066  1
  Sb  Sb97  1  0.33822942  0.17552767  0.83778204  1
  Sb  Sb98  1  0.50205317  0.17246975  -0.00105231  1
  Sb  Sb99  1  0.16776208  0.65941040  0.49814491  1
  Sb  Sb100  1  0.00229875  0.66481695  0.33021377  1
  Sb  Sb101  1  0.00468094  -0.00117705  0.66598930  1
  Sb  Sb102  1  0.83070213  0.82536582  0.66631569  1
  Sb  Sb103  1  0.82790946  0.49339608  0.00248856  1
  Sb  Sb104  1  0.66441389  0.82887819  0.83666155  1
  Sb  Sb105  1  -0.00432427  0.33639133  0.66976624  1
  Sb  Sb106  1  -0.00530111  0.17431321  0.84294946  1
  Sb  Sb107  1  0.33475951  0.33551593  0.00850312  1
  Te  Te108  1  0.16408475  0.17086243  0.16732964  1
  Te  Te109  1  0.16712771  0.17101075  0.49830341  1
  Te  Te110  1  0.16784361  0.16558345  0.83436355  1
  Te  Te111  1  0.16545232  0.50152308  0.16596560  1
  Te  Te112  1  0.16656070  0.49675123  0.49959956  1
  Te  Te113  1  0.16876366  0.50241375  0.83510076  1
  Te  Te114  1  0.16463085  0.82183472  0.16815980  1
  Te  Te115  1  0.16529377  0.83558093  0.49944146  1
  Te  Te116  1  0.16709576  0.82690847  0.83041962  1
  Te  Te117  1  0.50678222  0.17005039  0.16695277  1
  Te  Te118  1  0.50547900  0.16522189  0.50326394  1
  Te  Te119  1  0.50269749  0.17080195  0.83213711  1
  Te  Te120  1  0.50146203  0.49878051  0.16839590  1
  Te  Te121  1  0.49795485  0.50396916  0.49696793  1
  Te  Te122  1  0.50180308  0.49696501  0.83232454  1
  Te  Te123  1  0.50165737  0.83486948  0.16451973  1
  Te  Te124  1  0.49922189  0.82833523  0.50557644  1
  Te  Te125  1  0.50027591  0.83318012  0.83409865  1
  Te  Te126  1  0.82917145  0.17170527  0.16422604  1
  Te  Te127  1  0.82787905  0.17201102  0.49910148  1
  Te  Te128  1  0.82718593  0.17293548  0.83758294  1
  Te  Te129  1  0.83208251  0.49847013  0.16716997  1
  Te  Te130  1  0.83387526  0.50077551  0.50187391  1
  Te  Te131  1  0.83401724  0.49785143  0.83333390  1
  Te  Te132  1  0.83389778  0.82803402  0.16651027  1
  Te  Te133  1  0.83460855  0.83014790  0.49930127  1
  Te  Te134  1  0.83379628  0.82963007  0.83482235  1
  Te  Te135  1  0.16210014  0.00316106  0.00440403  1
  Te  Te136  1  0.16558928  0.00042841  0.33032341  1
  Te  Te137  1  0.16848118  -0.00240229  0.66627692  1
  Te  Te138  1  0.16358256  0.32891021  0.00461979  1
  Te  Te139  1  0.16951642  0.33152887  0.33144118  1
  Te  Te140  1  0.16758322  0.33804249  0.66399090  1
  Te  Te141  1  0.16654967  0.66801489  -0.00195573  1
  Te  Te142  1  0.16961742  0.66950936  0.33121722  1
  Te  Te143  1  0.16787668  0.66378818  0.66556374  1
  Te  Te144  1  0.50005636  -0.00083985  -0.00514939  1
  Te  Te145  1  0.50031085  -0.00233529  0.33468775  1
  Te  Te146  1  0.49919205  -0.00552458  0.67158017  1
  Te  Te147  1  0.50202688  0.33568137  0.00166015  1
  Te  Te148  1  0.49425491  0.33915815  0.32893954  1
  Te  Te149  1  0.50538568  0.32997878  0.66716323  1
  Te  Te150  1  0.50038782  0.66504784  0.00481092  1
  Te  Te151  1  0.49939669  0.66318736  0.33238732  1
  Te  Te152  1  0.49971171  0.66791171  0.66828997  1
  Te  Te153  1  0.84045884  0.00781658  -0.00063421  1
  Te  Te154  1  0.84211751  -0.00151695  0.33457527  1
  Te  Te155  1  0.83500480  -0.00221834  0.66698156  1
  Te  Te156  1  0.83230308  0.33239025  0.00211108  1
  Te  Te157  1  0.83363440  0.34002624  0.33537643  1
  Te  Te158  1  0.82636545  0.33297740  0.66118580  1
  Te  Te159  1  0.83272019  0.66798307  0.00061813  1
  Te  Te160  1  0.83258200  0.66092004  0.33065920  1
  Te  Te161  1  0.82736157  0.66651932  0.67145990  1
  Te  Te162  1  -0.00138028  0.17059483  0.00333720  1
  Te  Te163  1  0.00350748  0.16194471  0.32810345  1
  Te  Te164  1  0.00139721  0.16653937  0.66729945  1
  Te  Te165  1  0.00104848  0.49529817  0.00225598  1
  Te  Te166  1  -0.00645793  0.49939907  0.33188901  1
  Te  Te167  1  0.00996820  0.49880336  0.67080525  1
  Te  Te168  1  -0.00050342  0.83662668  0.00705494  1
  Te  Te169  1  0.00527255  0.83683786  0.32782242  1
  Te  Te170  1  0.00732547  0.83213234  0.66775020  1
  Te  Te171  1  0.32813928  0.16774010  0.00614365  1
  Te  Te172  1  0.32980744  0.16990921  0.32825395  1
  Te  Te173  1  0.34141810  0.16617394  0.66669638  1
  Te  Te174  1  0.34028816  0.50021627  -0.00325948  1
  Te  Te175  1  0.33293070  0.50097130  0.33137910  1
  Te  Te176  1  0.33100002  0.50366933  0.66755493  1
  Te  Te177  1  0.34214883  0.83405728  0.00012908  1
  Te  Te178  1  0.32728569  0.82884941  0.33345033  1
  Te  Te179  1  0.33199825  0.82475047  0.66629550  1
  Te  Te180  1  0.66826478  0.17150495  0.00069320  1
  Te  Te181  1  0.66700477  0.16439965  0.33352078  1
  Te  Te182  1  0.66255708  0.16721608  0.66600377  1
  Te  Te183  1  0.66097614  0.49364618  -0.00856722  1
  Te  Te184  1  0.66593879  0.50443399  0.33796704  1
  Te  Te185  1  0.66609680  0.50051398  0.66433785  1
  Te  Te186  1  0.66240508  0.83545103  0.00487897  1
  Te  Te187  1  0.66608218  0.82665833  0.32712134  1
  Te  Te188  1  0.66234357  0.82930050  0.66665795  1
  Te  Te189  1  0.00205441  0.00071881  0.16626441  1
  Te  Te190  1  0.00600577  0.00142806  0.49781193  1
  Te  Te191  1  -0.00064454  -0.00033049  0.83837328  1
  Te  Te192  1  -0.00096962  0.33365090  0.16537312  1
  Te  Te193  1  -0.00076554  0.33882007  0.50192388  1
  Te  Te194  1  -0.00206852  0.33963214  0.83807571  1
  Te  Te195  1  -0.00060889  0.66167127  0.16704331  1
  Te  Te196  1  -0.00737632  0.65990569  0.49887545  1
  Te  Te197  1  -0.00063500  0.66034716  0.83481627  1
  Te  Te198  1  0.32650305  0.00309483  0.16707610  1
  Te  Te199  1  0.32612641  0.00206225  0.49951975  1
  Te  Te200  1  0.33992797  0.00154399  0.83385010  1
  Te  Te201  1  0.33335452  0.33730313  0.16823206  1
  Te  Te202  1  0.33061776  0.33955301  0.49530129  1
  Te  Te203  1  0.33590087  0.34032115  0.83200752  1
  Te  Te204  1  0.33539839  0.66165954  0.16886076  1
  Te  Te205  1  0.33457792  0.66090582  0.49991748  1
  Te  Te206  1  0.32979418  0.66067114  0.83051608  1
  Te  Te207  1  0.66730818  -0.00093519  0.16749038  1
  Te  Te208  1  0.66749668  0.00280359  0.49888691  1
  Te  Te209  1  0.66149016  0.00084989  0.83439592  1
  Te  Te210  1  0.66705580  0.33322833  0.16707350  1
  Te  Te211  1  0.66792987  0.33682969  0.49591370  1
  Te  Te212  1  0.66592792  0.33541923  0.83408291  1
  Te  Te213  1  0.66599139  0.66569265  0.16641970  1
  Te  Te214  1  0.66638209  0.66409690  0.49941363  1
  Te  Te215  1  0.66959454  0.66204865  0.83196505  1
