# generated using pymatgen
data_AgSbTe2
_symmetry_space_group_name_H-M   'P 1'
_cell_length_a   18.32164262
_cell_length_b   18.32170600
_cell_length_c   18.32199035
_cell_angle_alpha   89.99695900
_cell_angle_beta   89.99873464
_cell_angle_gamma   89.99869113
_symmetry_Int_Tables_number   1
_chemical_formula_structural   AgSbTe2
_chemical_formula_sum   'Ag54 Sb54 Te108'
_cell_volume   6150.39440832
_cell_formula_units_Z   54
loop_
 _symmetry_equiv_pos_site_id
 _symmetry_equiv_pos_as_xyz
  1  'x, y, z'
loop_
 _atom_site_type_symbol
 _atom_site_label
 _atom_site_symmetry_multiplicity
 _atom_site_fract_x
 _atom_site_fract_y
 _atom_site_fract_z
 _atom_site_occupancy
  Ag  Ag0  1  0.84123798  0.50328363  0.66598950  1
  Ag  Ag1  1  0.66637402  0.83394694  0.16386302  1
  Ag  Ag2  1  0.16640540  0.66254111  0.17038523  1
  Ag  Ag3  1  0.17204828  0.01263189  0.16763223  1
  Ag  Ag4  1  0.32946707  0.33588981  0.00221403  1
  Ag  Ag5  1  0.84602708  0.32910065  0.16742221  1
  Ag  Ag6  1  0.32269551  0.16411813  0.17686166  1
  Ag  Ag7  1  0.49331744  -0.00201313  0.16947248  1
  Ag  Ag8  1  0.00660890  0.49504627  0.17622193  1
  Ag  Ag9  1  0.00276914  0.83377977  0.16778107  1
  Ag  Ag10  1  0.66854983  -0.00118157  -0.00398456  1
  Ag  Ag11  1  0.33338890  0.50523272  0.82391629  1
  Ag  Ag12  1  0.01057629  0.17204564  0.16956227  1
  Ag  Ag13  1  0.33086095  0.17038418  0.49353963  1
  Ag  Ag14  1  0.16443474  0.49271756  0.33183092  1
  Ag  Ag15  1  0.65904731  0.50106010  0.82895990  1
  Ag  Ag16  1  0.66023420  -0.00152283  0.67275841  1
  Ag  Ag17  1  0.82914340  0.00109861  0.83508999  1
  Ag  Ag18  1  0.00558285  0.34120797  0.65727177  1
  Ag  Ag19  1  0.16960710  0.49384833  0.00791316  1
  Ag  Ag20  1  0.17063895  0.01088730  0.50149889  1
  Ag  Ag21  1  0.66231005  0.66740264  0.33999135  1
  Ag  Ag22  1  0.33357501  0.82984496  0.83315599  1
  Ag  Ag23  1  0.50118831  0.83424600  0.00662261  1
  Ag  Ag24  1  0.49698684  0.66554395  0.82431160  1
  Ag  Ag25  1  0.49994894  0.66215549  0.50265867  1
  Ag  Ag26  1  0.17014473  0.33299198  0.49537924  1
  Ag  Ag27  1  0.00443415  0.33827683  0.33228971  1
  Ag  Ag28  1  0.00946747  0.49998377  0.49845365  1
  Ag  Ag29  1  0.48715704  0.16237039  0.33855171  1
  Ag  Ag30  1  0.16650367  0.49837495  0.65969278  1
  Ag  Ag31  1  0.33175679  0.00633209  0.33550302  1
  Ag  Ag32  1  0.16994318  0.00217498  0.82870387  1
  Ag  Ag33  1  0.33055475  0.66897303  0.33147643  1
  Ag  Ag34  1  0.84201106  0.16718883  0.32728437  1
  Ag  Ag35  1  0.16394825  0.32882691  0.17601896  1
  Ag  Ag36  1  0.48828234  0.33725168  0.50037438  1
  Ag  Ag37  1  0.00841110  0.65818904  0.33551733  1
  Ag  Ag38  1  0.17196042  0.16388982  0.66206867  1
  Ag  Ag39  1  0.82652531  0.83965597  0.00152040  1
  Ag  Ag40  1  0.16798727  0.83389116  0.66694518  1
  Ag  Ag41  1  0.49569148  0.50013421  0.66503115  1
  Ag  Ag42  1  0.16719025  0.16965543  0.01282176  1
  Ag  Ag43  1  0.49123308  0.16814529  0.66069218  1
  Ag  Ag44  1  0.49732197  0.83383793  0.32828495  1
  Ag  Ag45  1  0.83145661  0.66367549  0.50059068  1
  Ag  Ag46  1  0.66395737  0.66586987  0.66275683  1
  Ag  Ag47  1  0.83736464  0.16260417  0.00671065  1
  Ag  Ag48  1  0.33227439  0.66471849  0.00360443  1
  Ag  Ag49  1  0.16940097  0.17149844  0.32852043  1
  Ag  Ag50  1  0.33053316  0.00386362  0.66315198  1
  Ag  Ag51  1  0.00118507  0.65822191  0.65852148  1
  Ag  Ag52  1  0.66588282  0.16142131  0.83177637  1
  Ag  Ag53  1  0.32653288  0.49508974  0.50434839  1
  Sb  Sb54  1  0.83806152  -0.00095308  0.50409985  1
  Sb  Sb55  1  0.16965006  0.65868775  0.49639473  1
  Sb  Sb56  1  0.83061416  0.83592854  0.32822688  1
  Sb  Sb57  1  0.00019795  0.16644484  0.83615429  1
  Sb  Sb58  1  0.16793338  0.33043963  0.83223831  1
  Sb  Sb59  1  0.00803246  0.00131756  0.33124720  1
  Sb  Sb60  1  0.49442205  0.67039281  0.17021783  1
  Sb  Sb61  1  0.84146566  0.49947473  0.33798841  1
  Sb  Sb62  1  0.66151842  0.83427351  0.83612498  1
  Sb  Sb63  1  0.17304658  0.66749193  0.83416820  1
  Sb  Sb64  1  0.00583441  0.50117379  0.82799930  1
  Sb  Sb65  1  0.33414477  -0.00036176  0.00075155  1
  Sb  Sb66  1  0.66469267  0.50243949  0.50455033  1
  Sb  Sb67  1  0.49732919  0.33712750  0.82760483  1
  Sb  Sb68  1  0.66809530  0.33661339  0.66670187  1
  Sb  Sb69  1  0.67291262  0.50650016  0.16359367  1
  Sb  Sb70  1  0.83512200  0.16974359  0.66640119  1
  Sb  Sb71  1  0.33116951  0.83288788  0.50214724  1
  Sb  Sb72  1  0.83955502  0.33699607  0.49709560  1
  Sb  Sb73  1  0.33335348  0.66505399  0.66470549  1
  Sb  Sb74  1  0.66243696  0.32889559  0.00075137  1
  Sb  Sb75  1  0.32837344  0.33142581  0.66549971  1
  Sb  Sb76  1  0.82745680  0.66931993  0.82893665  1
  Sb  Sb77  1  0.65967125  -0.00193187  0.33226360  1
  Sb  Sb78  1  0.49827077  -0.00330807  0.83497347  1
  Sb  Sb79  1  0.01089657  0.17402802  0.49403515  1
  Sb  Sb80  1  0.32621784  0.49680281  0.16939121  1
  Sb  Sb81  1  0.49555539  0.83264872  0.66575635  1
  Sb  Sb82  1  0.16885231  0.83600048  -0.00028738  1
  Sb  Sb83  1  0.49125845  0.50513502  -0.00539159  1
  Sb  Sb84  1  0.84097530  0.66569165  0.17134888  1
  Sb  Sb85  1  0.66074947  0.67159006  -0.00154139  1
  Sb  Sb86  1  0.32539476  0.33065018  0.33355931  1
  Sb  Sb87  1  0.49727507  0.16240411  0.00039770  1
  Sb  Sb88  1  0.00453166  0.83320525  0.83611482  1
  Sb  Sb89  1  0.67085393  0.33713060  0.33257132  1
  Sb  Sb90  1  0.83482660  0.00321014  0.16311222  1
  Sb  Sb91  1  0.00643052  0.66604151  0.00358192  1
  Sb  Sb92  1  0.66673231  0.16125871  0.16448084  1
  Sb  Sb93  1  0.49088631  0.50090075  0.34013983  1
  Sb  Sb94  1  0.66430180  0.83136419  0.49718003  1
  Sb  Sb95  1  -0.00182343  0.00032491  0.00230920  1
  Sb  Sb96  1  0.33166296  0.83749089  0.16537442  1
  Sb  Sb97  1  0.83355864  0.33030701  0.83650788  1
  Sb  Sb98  1  0.00824083  0.00119626  0.66588657  1
  Sb  Sb99  1  0.17092157  0.83409398  0.33505284  1
  Sb  Sb100  1  0.65876680  0.16595845  0.50290182  1
  Sb  Sb101  1  0.00304976  0.82484186  0.49535218  1
  Sb  Sb102  1  0.83831844  0.49858320  -0.00383273  1
  Sb  Sb103  1  0.00693612  0.33269673  0.00660615  1
  Sb  Sb104  1  0.83728061  0.82966317  0.67173158  1
  Sb  Sb105  1  0.49258891  -0.00067617  0.49740484  1
  Sb  Sb106  1  0.33484418  0.16588217  0.83174374  1
  Sb  Sb107  1  0.49258564  0.32636596  0.17340670  1
  Te  Te108  1  0.16626995  0.16854035  0.16861388  1
  Te  Te109  1  0.17009398  0.17003190  0.50203541  1
  Te  Te110  1  0.16707721  0.16166794  0.82516194  1
  Te  Te111  1  0.16590571  0.49993305  0.16879161  1
  Te  Te112  1  0.16811805  0.49851562  0.49938828  1
  Te  Te113  1  0.17282170  0.49967644  0.83367580  1
  Te  Te114  1  0.16353405  0.82719586  0.16607800  1
  Te  Te115  1  0.16637335  0.84147806  0.50630328  1
  Te  Te116  1  0.17134490  0.83786336  0.83146201  1
  Te  Te117  1  0.49845003  0.16142042  0.17058346  1
  Te  Te118  1  0.49378344  0.16589333  0.50091225  1
  Te  Te119  1  0.50434381  0.16800636  0.82872063  1
  Te  Te120  1  0.50240677  0.49682918  0.16614414  1
  Te  Te121  1  0.49802482  0.50022693  0.50421885  1
  Te  Te122  1  0.49714036  0.50345820  0.82886816  1
  Te  Te123  1  0.49869096  0.83569545  0.16766241  1
  Te  Te124  1  0.49865585  0.82666562  0.49300336  1
  Te  Te125  1  0.49441694  0.82843148  0.83406304  1
  Te  Te126  1  0.83170097  0.16818878  0.16671062  1
  Te  Te127  1  0.83373497  0.16719242  0.49503665  1
  Te  Te128  1  0.83028691  0.16264425  0.83593077  1
  Te  Te129  1  0.84145643  0.49510126  0.16505864  1
  Te  Te130  1  0.83491491  0.50363705  0.50533694  1
  Te  Te131  1  0.83067779  0.50005667  0.82782569  1
  Te  Te132  1  0.83477096  0.83380977  0.16143209  1
  Te  Te133  1  0.83457140  0.82726774  0.50002965  1
  Te  Te134  1  0.83383811  0.83884788  0.84005554  1
  Te  Te135  1  0.16662336  0.00463789  0.00277973  1
  Te  Te136  1  0.17206519  0.00083097  0.33051026  1
  Te  Te137  1  0.16885623  0.00262759  0.66803013  1
  Te  Te138  1  0.16919426  0.33156203  -0.00151582  1
  Te  Te139  1  0.16461665  0.33281178  0.33488437  1
  Te  Te140  1  0.16476581  0.33637536  0.66605772  1
  Te  Te141  1  0.17202880  0.66539169  0.00184551  1
  Te  Te142  1  0.16739888  0.66858316  0.33182988  1
  Te  Te143  1  0.16518588  0.66510580  0.66618132  1
  Te  Te144  1  0.50382260  -0.00432452  0.00380413  1
  Te  Te145  1  0.49552790  0.00119863  0.33097279  1
  Te  Te146  1  0.49890950  0.00134174  0.66578265  1
  Te  Te147  1  0.49322742  0.33312882  0.00284246  1
  Te  Te148  1  0.50216668  0.32964472  0.33965883  1
  Te  Te149  1  0.50073407  0.33245907  0.66042883  1
  Te  Te150  1  0.49389282  0.67210056  0.00055936  1
  Te  Te151  1  0.49846510  0.66584986  0.33528901  1
  Te  Te152  1  0.50034839  0.66611682  0.66476237  1
  Te  Te153  1  0.83050143  0.00191591  -0.00224779  1
  Te  Te154  1  0.83156175  0.00594853  0.33597829  1
  Te  Te155  1  0.83113598  -0.00064441  0.67187355  1
  Te  Te156  1  0.83289574  0.32888242  0.00483020  1
  Te  Te157  1  0.83812780  0.32911627  0.32975370  1
  Te  Te158  1  0.83842720  0.33950399  0.66602143  1
  Te  Te159  1  0.83336079  0.66902983  -0.00037807  1
  Te  Te160  1  0.83174550  0.66749882  0.33873102  1
  Te  Te161  1  0.83138134  0.66399166  0.66341238  1
  Te  Te162  1  0.00122993  0.16718240  0.00467808  1
  Te  Te163  1  0.00304266  0.16748475  0.32958309  1
  Te  Te164  1  0.00405946  0.16952653  0.66626973  1
  Te  Te165  1  0.00760853  0.50019073  0.00014746  1
  Te  Te166  1  0.00280630  0.50014305  0.33493864  1
  Te  Te167  1  0.00406846  0.50137630  0.66643587  1
  Te  Te168  1  -0.00320494  0.83129187  0.00595531  1
  Te  Te169  1  -0.00112525  0.82859565  0.32773399  1
  Te  Te170  1  0.00598978  0.82956969  0.66627977  1
  Te  Te171  1  0.32927107  0.16834697  -0.00128624  1
  Te  Te172  1  0.33082292  0.16715790  0.33455067  1
  Te  Te173  1  0.33375533  0.16549415  0.66660123  1
  Te  Te174  1  0.32860320  0.50274791  0.00241460  1
  Te  Te175  1  0.32603659  0.50465597  0.33790919  1
  Te  Te176  1  0.33348924  0.49875153  0.66507194  1
  Te  Te177  1  0.33617957  0.83013439  -0.00394475  1
  Te  Te178  1  0.33803383  0.83108583  0.33357851  1
  Te  Te179  1  0.32930053  0.83752073  0.66989916  1
  Te  Te180  1  0.66732656  0.16151938  -0.00366557  1
  Te  Te181  1  0.66452401  0.16725520  0.33410588  1
  Te  Te182  1  0.66692545  0.16488362  0.67061153  1
  Te  Te183  1  0.66700431  0.49988473  -0.00709630  1
  Te  Te184  1  0.66727662  0.50711740  0.33148461  1
  Te  Te185  1  0.66092456  0.50305788  0.66971087  1
  Te  Te186  1  0.66484653  0.83680157  0.00260361  1
  Te  Te187  1  0.66276381  0.82973032  0.32837569  1
  Te  Te188  1  0.66711306  0.83174941  0.66738486  1
  Te  Te189  1  0.00514188  -0.00083641  0.16762909  1
  Te  Te190  1  0.00732749  -0.00131349  0.49911058  1
  Te  Te191  1  0.00157282  -0.00074436  0.83348300  1
  Te  Te192  1  0.00355890  0.33306999  0.16826868  1
  Te  Te193  1  0.00397113  0.33976206  0.49655364  1
  Te  Te194  1  -0.00110128  0.33336336  0.82375464  1
  Te  Te195  1  0.00479716  0.66400638  0.17010133  1
  Te  Te196  1  0.00115813  0.66088650  0.49845634  1
  Te  Te197  1  -0.00145842  0.66780728  0.82660067  1
  Te  Te198  1  0.33308359  0.00295047  0.16808983  1
  Te  Te199  1  0.32903045  0.00144336  0.50006553  1
  Te  Te200  1  0.33045415  -0.00178231  0.83040975  1
  Te  Te201  1  0.32749093  0.32619774  0.16343810  1
  Te  Te202  1  0.33111332  0.33347254  0.49985336  1
  Te  Te203  1  0.33422737  0.34105623  0.84092973  1
  Te  Te204  1  0.32855974  0.66705178  0.16837112  1
  Te  Te205  1  0.33697368  0.66346812  0.49589414  1
  Te  Te206  1  0.33680986  0.66597933  0.83235482  1
  Te  Te207  1  0.66502678  -0.00591748  0.16477180  1
  Te  Te208  1  0.66826572  -0.00104651  0.50788312  1
  Te  Te209  1  0.66545382  0.00027626  0.83296295  1
  Te  Te210  1  0.67007105  0.33601293  0.16607672  1
  Te  Te211  1  0.66158296  0.33375630  0.49943906  1
  Te  Te212  1  0.66588592  0.33438927  0.83438273  1
  Te  Te213  1  0.66820929  0.67261900  0.16857894  1
  Te  Te214  1  0.66523579  0.66640214  0.50071272  1
  Te  Te215  1  0.66034778  0.66418552  0.83045265  1
