# generated using pymatgen
data_AgSbTe2
_symmetry_space_group_name_H-M   'P 1'
_cell_length_a   18.33064995
_cell_length_b   18.33323576
_cell_length_c   18.33767209
_cell_angle_alpha   89.99946233
_cell_angle_beta   89.99965334
_cell_angle_gamma   89.99881727
_symmetry_Int_Tables_number   1
_chemical_formula_structural   AgSbTe2
_chemical_formula_sum   'Ag54 Sb54 Te108'
_cell_volume   6162.56040863
_cell_formula_units_Z   54
loop_
 _symmetry_equiv_pos_site_id
 _symmetry_equiv_pos_as_xyz
  1  'x, y, z'
loop_
 _atom_site_type_symbol
 _atom_site_label
 _atom_site_symmetry_multiplicity
 _atom_site_fract_x
 _atom_site_fract_y
 _atom_site_fract_z
 _atom_site_occupancy
  Ag  Ag0  1  0.67121370  0.83830859  0.48729734  1
  Ag  Ag1  1  -0.00324720  0.16181485  0.49303978  1
  Ag  Ag2  1  0.66850660  0.83345332  0.84415361  1
  Ag  Ag3  1  0.33060460  0.66571086  0.33346518  1
  Ag  Ag4  1  0.66711706  0.66667730  0.66280983  1
  Ag  Ag5  1  -0.00746549  0.16493226  0.17760193  1
  Ag  Ag6  1  0.83735121  0.50224968  0.32888552  1
  Ag  Ag7  1  0.15321398  0.16501538  0.00875079  1
  Ag  Ag8  1  0.33405959  0.33012442  0.33302488  1
  Ag  Ag9  1  0.33104500  0.00469539  0.65795745  1
  Ag  Ag10  1  0.83269616  0.83285531  0.33430799  1
  Ag  Ag11  1  0.68005825  0.15738750  0.49223689  1
  Ag  Ag12  1  -0.00155299  0.50016321  0.49134843  1
  Ag  Ag13  1  0.33367697  0.50130003  0.17129864  1
  Ag  Ag14  1  0.83399421  0.16641143  0.00349811  1
  Ag  Ag15  1  -0.00260458  0.00597123  0.65507016  1
  Ag  Ag16  1  0.66942257  0.82872071  0.16966874  1
  Ag  Ag17  1  0.83151888  0.50208240  0.00809097  1
  Ag  Ag18  1  0.33096802  0.16155002  0.49726342  1
  Ag  Ag19  1  0.16600789  0.50046223  0.66403093  1
  Ag  Ag20  1  0.66805091  -0.00539007  0.00029000  1
  Ag  Ag21  1  -0.00725905  0.32195939  0.33632616  1
  Ag  Ag22  1  0.82994656  0.67105901  0.83697767  1
  Ag  Ag23  1  0.83782349  0.16383826  0.33502391  1
  Ag  Ag24  1  0.67056744  0.50952917  0.16814304  1
  Ag  Ag25  1  0.16047801  0.66545007  0.49576336  1
  Ag  Ag26  1  0.15179791  0.16419900  0.33134306  1
  Ag  Ag27  1  0.51262820  0.83275972  0.33026935  1
  Ag  Ag28  1  0.49813317  0.50019693  0.66820190  1
  Ag  Ag29  1  -0.00767998  0.83215202  0.17492754  1
  Ag  Ag30  1  0.82904529  0.00148456  0.82953587  1
  Ag  Ag31  1  0.33733447  0.49609181  0.83382910  1
  Ag  Ag32  1  -0.00038927  0.00813308  0.33593494  1
  Ag  Ag33  1  0.67296644  0.33100709  0.32867542  1
  Ag  Ag34  1  0.67144647  0.67516472  0.32941991  1
  Ag  Ag35  1  0.67363195  0.16508806  0.17145587  1
  Ag  Ag36  1  0.83779549  0.16349544  0.65906707  1
  Ag  Ag37  1  0.16185703  0.00375302  0.17029027  1
  Ag  Ag38  1  0.66765683  0.32948655  0.00971200  1
  Ag  Ag39  1  0.50866138  0.00044441  0.50118723  1
  Ag  Ag40  1  -0.01030488  0.66606585  0.01268358  1
  Ag  Ag41  1  0.83408593  0.00207176  0.50017454  1
  Ag  Ag42  1  -0.00870281  0.50321904  0.17531199  1
  Ag  Ag43  1  0.50540196  0.00236190  0.82895936  1
  Ag  Ag44  1  -0.00299066  0.16490941  0.83134758  1
  Ag  Ag45  1  0.50904096  0.66794431  0.16950048  1
  Ag  Ag46  1  -0.00739058  0.66819558  0.33113448  1
  Ag  Ag47  1  0.32886476  0.00628648  0.33756537  1
  Ag  Ag48  1  0.33079668  0.16647251  0.82911794  1
  Ag  Ag49  1  0.67154046  0.67136785  0.00819763  1
  Ag  Ag50  1  0.50872838  0.83364871  0.00818993  1
  Ag  Ag51  1  -0.00743693  0.84348630  0.49019645  1
  Ag  Ag52  1  -0.00129313  0.32384727  0.65544581  1
  Ag  Ag53  1  0.50052021  0.32653440  0.83274675  1
  Sb  Sb54  1  0.82777884  0.83380123  0.00700690  1
  Sb  Sb55  1  0.50510809  0.16066639  0.33505011  1
  Sb  Sb56  1  0.15814775  0.83797288  0.33369311  1
  Sb  Sb57  1  0.15850686  0.49713451  0.33511672  1
  Sb  Sb58  1  0.66934712  -0.00323324  0.66608538  1
  Sb  Sb59  1  -0.00757330  0.33220051  0.00491177  1
  Sb  Sb60  1  0.34320516  0.83724360  0.83307722  1
  Sb  Sb61  1  0.33804927  0.00232653  0.00215811  1
  Sb  Sb62  1  0.50742908  0.16223442  -0.00109161  1
  Sb  Sb63  1  0.83524989  0.00226432  0.17052916  1
  Sb  Sb64  1  0.83484949  0.32445587  0.49658328  1
  Sb  Sb65  1  0.50066786  0.67215137  0.49385188  1
  Sb  Sb66  1  0.50690004  0.66891288  0.83752185  1
  Sb  Sb67  1  0.50088502  -0.00507316  0.17060307  1
  Sb  Sb68  1  0.67241447  0.50207750  0.49180878  1
  Sb  Sb69  1  0.16395321  0.00298104  0.83675787  1
  Sb  Sb70  1  0.83160564  0.83856583  0.66143505  1
  Sb  Sb71  1  -0.00945910  0.83802119  0.83488737  1
  Sb  Sb72  1  -0.00558171  0.66784654  0.66160465  1
  Sb  Sb73  1  0.50435005  0.83274773  0.66330219  1
  Sb  Sb74  1  0.16138544  -0.00097686  0.49510122  1
  Sb  Sb75  1  0.67009703  0.33519827  0.66341835  1
  Sb  Sb76  1  0.16514733  0.32906831  0.16901372  1
  Sb  Sb77  1  0.32968891  0.49646983  0.49650352  1
  Sb  Sb78  1  0.83556786  0.67268953  0.49785335  1
  Sb  Sb79  1  0.00045111  0.49581738  0.83328191  1
  Sb  Sb80  1  0.16916904  0.33096186  0.83286955  1
  Sb  Sb81  1  0.66472634  0.50309852  0.83844822  1
  Sb  Sb82  1  0.16397122  0.66985465  0.17288588  1
  Sb  Sb83  1  0.50020587  0.32856141  0.50178299  1
  Sb  Sb84  1  0.16466639  0.83270916  0.66345443  1
  Sb  Sb85  1  0.16090644  0.49576893  0.00033217  1
  Sb  Sb86  1  0.16257064  0.33363330  0.49792610  1
  Sb  Sb87  1  0.33964063  0.33240863  0.00167477  1
  Sb  Sb88  1  0.33599649  0.83013312  0.17163510  1
  Sb  Sb89  1  0.16098923  0.66394839  0.82967316  1
  Sb  Sb90  1  -0.00793083  0.00030275  0.00446475  1
  Sb  Sb91  1  0.50401068  0.50394940  0.33525824  1
  Sb  Sb92  1  0.33431409  0.83926671  0.49561417  1
  Sb  Sb93  1  0.82930205  0.32975503  0.83505658  1
  Sb  Sb94  1  0.50810540  0.50406691  -0.00096541  1
  Sb  Sb95  1  0.33531847  0.66429441  0.00518446  1
  Sb  Sb96  1  0.67090372  0.16158896  0.83486309  1
  Sb  Sb97  1  0.50392579  0.16721378  0.66697189  1
  Sb  Sb98  1  0.83177744  0.33258086  0.16987798  1
  Sb  Sb99  1  0.33287043  0.16934756  0.17034991  1
  Sb  Sb100  1  0.16620941  0.83769078  0.00363843  1
  Sb  Sb101  1  0.82858202  0.66454208  0.16524776  1
  Sb  Sb102  1  0.33747353  0.66720596  0.66211012  1
  Sb  Sb103  1  0.67144165  -0.00108579  0.33179426  1
  Sb  Sb104  1  0.50376696  0.33840534  0.16520772  1
  Sb  Sb105  1  0.32973876  0.32931725  0.66336073  1
  Sb  Sb106  1  0.15947193  0.16888117  0.66232994  1
  Sb  Sb107  1  0.83493660  0.49794549  0.66429557  1
  Te  Te108  1  0.16686724  0.16371607  0.16871112  1
  Te  Te109  1  0.16679590  0.16596390  0.49509156  1
  Te  Te110  1  0.16776953  0.16590851  0.83513992  1
  Te  Te111  1  0.16912635  0.50050652  0.16533947  1
  Te  Te112  1  0.16207140  0.50303746  0.50198570  1
  Te  Te113  1  0.17299989  0.49889723  0.83057147  1
  Te  Te114  1  0.15993483  0.84100758  0.16599967  1
  Te  Te115  1  0.16003060  0.82625775  0.50031630  1
  Te  Te116  1  0.16753515  0.83289388  0.83366080  1
  Te  Te117  1  0.50745205  0.16631125  0.16608127  1
  Te  Te118  1  0.49407947  0.16064163  0.50174739  1
  Te  Te119  1  0.49695714  0.16379651  0.83269403  1
  Te  Te120  1  0.50175615  0.50568059  0.16673738  1
  Te  Te121  1  0.50065923  0.49953986  0.50670166  1
  Te  Te122  1  0.49656042  0.50174146  0.83165628  1
  Te  Te123  1  0.50273250  0.82971975  0.16882032  1
  Te  Te124  1  0.50447231  0.83913283  0.49523900  1
  Te  Te125  1  0.50724943  0.83822351  0.83420693  1
  Te  Te126  1  0.83313642  0.16656985  0.16680124  1
  Te  Te127  1  0.83622497  0.16235122  0.49773774  1
  Te  Te128  1  0.83513057  0.16349790  0.83674976  1
  Te  Te129  1  0.83268728  0.49908137  0.16749440  1
  Te  Te130  1  0.83911444  0.50142413  0.49551904  1
  Te  Te131  1  0.83325333  0.50280381  0.83525312  1
  Te  Te132  1  0.83339676  0.83592269  0.17320127  1
  Te  Te133  1  0.83296290  0.83860130  0.49605739  1
  Te  Te134  1  0.82746272  0.83591876  0.83160194  1
  Te  Te135  1  0.16685662  0.00590309  0.00557197  1
  Te  Te136  1  0.16647362  0.00356452  0.33093293  1
  Te  Te137  1  0.16792281  0.00061295  0.66859361  1
  Te  Te138  1  0.16669087  0.32484898  0.00065920  1
  Te  Te139  1  0.16854533  0.32672419  0.33301758  1
  Te  Te140  1  0.15948893  0.33961121  0.66616326  1
  Te  Te141  1  0.16183017  0.66673825  -0.00125419  1
  Te  Te142  1  0.16908363  0.66602202  0.33667627  1
  Te  Te143  1  0.16729749  0.66157801  0.66173637  1
  Te  Te144  1  0.50508753  -0.00491040  -0.00256432  1
  Te  Te145  1  0.49538303  -0.00596409  0.33727699  1
  Te  Te146  1  0.49667853  -0.00001329  0.66577265  1
  Te  Te147  1  0.50740853  0.33378191  -0.00628990  1
  Te  Te148  1  0.50072957  0.33440160  0.33398033  1
  Te  Te149  1  0.49989461  0.33806028  0.67119743  1
  Te  Te150  1  0.50394575  0.67167718  0.00491101  1
  Te  Te151  1  0.50417469  0.67049170  0.33046963  1
  Te  Te152  1  0.50426209  0.66262147  0.66603366  1
  Te  Te153  1  0.82855700  0.00268507  -0.00560509  1
  Te  Te154  1  0.83710119  0.00195208  0.33673563  1
  Te  Te155  1  0.83581723  0.00402112  0.66618055  1
  Te  Te156  1  0.82601982  0.33335382  -0.00105769  1
  Te  Te157  1  0.83336281  0.33381871  0.33455741  1
  Te  Te158  1  0.83933757  0.32836546  0.66806387  1
  Te  Te159  1  0.83258802  0.66827022  -0.00214716  1
  Te  Te160  1  0.83255746  0.66675130  0.33466633  1
  Te  Te161  1  0.82667850  0.66625961  0.67216349  1
  Te  Te162  1  -0.00391575  0.16723876  -0.00205321  1
  Te  Te163  1  -0.00293532  0.16565648  0.33324969  1
  Te  Te164  1  -0.00049327  0.16548854  0.66701156  1
  Te  Te165  1  -0.00564738  0.50190338  0.00253137  1
  Te  Te166  1  -0.00106263  0.50631486  0.33216545  1
  Te  Te167  1  0.00208722  0.49913694  0.66570342  1
  Te  Te168  1  -0.00060221  0.82797933  0.00390605  1
  Te  Te169  1  -0.00198077  0.82757446  0.33276214  1
  Te  Te170  1  -0.00048756  0.83972328  0.66329721  1
  Te  Te171  1  0.33263051  0.16780091  -0.00226646  1
  Te  Te172  1  0.33884103  0.16595548  0.33427292  1
  Te  Te173  1  0.33218302  0.16458192  0.66790256  1
  Te  Te174  1  0.33165752  0.49873793  -0.00095345  1
  Te  Te175  1  0.33293600  0.50019060  0.33186988  1
  Te  Te176  1  0.33268625  0.49893882  0.66701382  1
  Te  Te177  1  0.34072259  0.83256710  0.00082100  1
  Te  Te178  1  0.33511965  0.82916031  0.33372464  1
  Te  Te179  1  0.33389679  0.84104182  0.66607217  1
  Te  Te180  1  0.67180816  0.16732342  0.00142240  1
  Te  Te181  1  0.66973649  0.16619124  0.33296036  1
  Te  Te182  1  0.67363934  0.16756422  0.65961985  1
  Te  Te183  1  0.67178364  0.50291763  0.00544458  1
  Te  Te184  1  0.67138091  0.49743875  0.32909403  1
  Te  Te185  1  0.66577136  0.50371490  0.66433529  1
  Te  Te186  1  0.66682414  0.83250071  0.00394631  1
  Te  Te187  1  0.67008410  0.83561867  0.33043927  1
  Te  Te188  1  0.66683234  0.82699259  0.66556769  1
  Te  Te189  1  0.00092025  0.00359376  0.16958513  1
  Te  Te190  1  -0.00041472  0.00102593  0.49745143  1
  Te  Te191  1  -0.00426957  0.00379050  0.83363653  1
  Te  Te192  1  0.00059554  0.33318893  0.17274396  1
  Te  Te193  1  -0.00052026  0.33293077  0.49672647  1
  Te  Te194  1  0.00017089  0.32716325  0.83469995  1
  Te  Te195  1  0.00099822  0.66518197  0.16893427  1
  Te  Te196  1  0.00065044  0.66410872  0.49817636  1
  Te  Te197  1  -0.00662038  0.66740666  0.83299382  1
  Te  Te198  1  0.33019962  -0.00007240  0.17225284  1
  Te  Te199  1  0.32964533  0.00215896  0.49819445  1
  Te  Te200  1  0.33680938  0.00371690  0.83391589  1
  Te  Te201  1  0.33572895  0.33939226  0.17166193  1
  Te  Te202  1  0.33274598  0.32636951  0.49403350  1
  Te  Te203  1  0.33844102  0.33193794  0.83263593  1
  Te  Te204  1  0.33364803  0.66232936  0.17205113  1
  Te  Te205  1  0.33044826  0.66687133  0.49486387  1
  Te  Te206  1  0.33247702  0.66308374  0.83241639  1
  Te  Te207  1  0.66564312  0.00033328  0.16173892  1
  Te  Te208  1  0.66739384  -0.00053754  0.49999805  1
  Te  Te209  1  0.66673659  -0.00272058  0.83249296  1
  Te  Te210  1  0.66548604  0.32993567  0.16789970  1
  Te  Te211  1  0.66488390  0.32916600  0.49412252  1
  Te  Te212  1  0.66129572  0.33342959  0.83242637  1
  Te  Te213  1  0.66705515  0.66828775  0.16823538  1
  Te  Te214  1  0.66726497  0.67097108  0.49508934  1
  Te  Te215  1  0.66972882  0.67021851  0.83745071  1
