# generated using pymatgen
data_AgSbTe2
_symmetry_space_group_name_H-M   'P 1'
_cell_length_a   18.30826864
_cell_length_b   18.31034700
_cell_length_c   18.30803174
_cell_angle_alpha   89.99851020
_cell_angle_beta   90.00094080
_cell_angle_gamma   90.00202729
_symmetry_Int_Tables_number   1
_chemical_formula_structural   AgSbTe2
_chemical_formula_sum   'Ag54 Sb54 Te108'
_cell_volume   6137.41523776
_cell_formula_units_Z   54
loop_
 _symmetry_equiv_pos_site_id
 _symmetry_equiv_pos_as_xyz
  1  'x, y, z'
loop_
 _atom_site_type_symbol
 _atom_site_label
 _atom_site_symmetry_multiplicity
 _atom_site_fract_x
 _atom_site_fract_y
 _atom_site_fract_z
 _atom_site_occupancy
  Ag  Ag0  1  0.84173499  0.16477431  0.00486154  1
  Ag  Ag1  1  0.16990241  0.32598224  0.17045301  1
  Ag  Ag2  1  0.33190506  0.83186318  0.16879021  1
  Ag  Ag3  1  0.33198914  0.49605985  0.17218984  1
  Ag  Ag4  1  0.32661150  0.66828056  0.00623460  1
  Ag  Ag5  1  0.67466031  0.83635516  0.83561839  1
  Ag  Ag6  1  0.67543256  -0.00144326  0.33298153  1
  Ag  Ag7  1  0.16480464  0.17436360  0.66488678  1
  Ag  Ag8  1  0.16821205  0.65780838  0.49847255  1
  Ag  Ag9  1  0.66179180  0.49807247  0.49441004  1
  Ag  Ag10  1  0.83661755  0.67080905  0.49736217  1
  Ag  Ag11  1  0.49549076  0.16805810  0.33360583  1
  Ag  Ag12  1  0.49591079  0.65949792  0.16773759  1
  Ag  Ag13  1  0.33284717  0.82828768  0.49680099  1
  Ag  Ag14  1  0.00675020  0.66752457  0.00647151  1
  Ag  Ag15  1  0.49398553  0.33416313  0.49633069  1
  Ag  Ag16  1  0.17307436  0.33763890  0.49815693  1
  Ag  Ag17  1  0.00073289  0.00325732  0.66523810  1
  Ag  Ag18  1  0.17004816  0.17278723  0.32398295  1
  Ag  Ag19  1  0.32987072  0.33353567  0.33143021  1
  Ag  Ag20  1  0.67142565  0.66842294  0.33343981  1
  Ag  Ag21  1  -0.00237126  0.67134248  0.33005715  1
  Ag  Ag22  1  -0.00350286  0.84116747  0.83406755  1
  Ag  Ag23  1  0.16790343  0.49402096  0.65756642  1
  Ag  Ag24  1  0.66213024  0.49932658  0.17243915  1
  Ag  Ag25  1  0.83678774  0.50327702  0.66380852  1
  Ag  Ag26  1  0.16876866  0.49318401  0.33560708  1
  Ag  Ag27  1  0.83415724  0.83764476  0.33754670  1
  Ag  Ag28  1  -0.00548354  -0.00179248  0.33306793  1
  Ag  Ag29  1  0.48997263  0.33675852  0.17177221  1
  Ag  Ag30  1  0.83731138  0.00419305  0.16930276  1
  Ag  Ag31  1  0.32533859  -0.00343782  0.66197247  1
  Ag  Ag32  1  0.83834293  0.49827604  0.00300173  1
  Ag  Ag33  1  0.16909152  0.33136669  0.83077826  1
  Ag  Ag34  1  0.32218478  0.17272389  0.16831684  1
  Ag  Ag35  1  0.83609203  -0.00217052  0.83313598  1
  Ag  Ag36  1  0.49465381  0.83292961  0.00133319  1
  Ag  Ag37  1  0.16927121  0.83033404  0.00204211  1
  Ag  Ag38  1  0.49370669  0.33347047  0.83034125  1
  Ag  Ag39  1  0.49173021  0.49789407  0.66060989  1
  Ag  Ag40  1  0.66492638  0.16499874  0.49711244  1
  Ag  Ag41  1  0.83703081  0.32831391  0.16622281  1
  Ag  Ag42  1  0.83542032  0.83424621  0.66058880  1
  Ag  Ag43  1  0.32990167  0.50138294  0.49817200  1
  Ag  Ag44  1  0.16137539  0.16841124  0.01152020  1
  Ag  Ag45  1  0.67083381  -0.00039720  0.00750451  1
  Ag  Ag46  1  0.00209513  0.16224307  0.83866717  1
  Ag  Ag47  1  0.82977851  -0.00523623  0.49528600  1
  Ag  Ag48  1  0.16331075  0.01256427  0.16751228  1
  Ag  Ag49  1  0.00577247  0.32964424  0.66662212  1
  Ag  Ag50  1  0.33105263  0.66587044  0.65995510  1
  Ag  Ag51  1  0.50356416  0.00622544  0.49920571  1
  Ag  Ag52  1  0.00981910  0.16549601  0.16354372  1
  Ag  Ag53  1  0.16546842  0.49932810  0.00500074  1
  Sb  Sb54  1  0.00289496  0.66747183  0.66505673  1
  Sb  Sb55  1  0.16544080  0.66174591  0.83287858  1
  Sb  Sb56  1  0.00393838  0.33290895  -0.00202360  1
  Sb  Sb57  1  0.66742551  0.32965577  0.00282184  1
  Sb  Sb58  1  0.33179097  0.00354907  0.33541678  1
  Sb  Sb59  1  0.33023177  0.83378029  0.83440950  1
  Sb  Sb60  1  0.00409023  0.49480454  0.16606299  1
  Sb  Sb61  1  -0.00328813  0.00009647  0.00181433  1
  Sb  Sb62  1  0.49843761  0.66351504  0.49504104  1
  Sb  Sb63  1  0.66715357  0.50292284  0.83394123  1
  Sb  Sb64  1  0.00510206  0.50057251  0.49976239  1
  Sb  Sb65  1  0.33393145  0.16971851  0.49504004  1
  Sb  Sb66  1  0.83628775  0.50317688  0.33368173  1
  Sb  Sb67  1  0.16651840  0.00190063  0.49718505  1
  Sb  Sb68  1  0.50130799  0.83058480  0.66857566  1
  Sb  Sb69  1  0.49746771  0.16418709  0.00576488  1
  Sb  Sb70  1  0.00127526  0.49831567  0.83310618  1
  Sb  Sb71  1  0.66510411  0.66476951  0.66040436  1
  Sb  Sb72  1  0.84104894  0.16415535  0.66847369  1
  Sb  Sb73  1  0.83513016  0.67182312  0.82937252  1
  Sb  Sb74  1  -0.00054950  0.16536240  0.49778542  1
  Sb  Sb75  1  0.16390457  0.83272678  0.66972972  1
  Sb  Sb76  1  0.83357764  0.33460280  0.49652530  1
  Sb  Sb77  1  0.33163643  0.66256121  0.33252092  1
  Sb  Sb78  1  0.49947752  0.00199497  0.17157821  1
  Sb  Sb79  1  0.16022157  0.00523403  0.83673158  1
  Sb  Sb80  1  0.50434995  0.00349278  0.82886606  1
  Sb  Sb81  1  0.00459051  0.83876424  0.16362772  1
  Sb  Sb82  1  0.49776316  0.50248088  0.00261331  1
  Sb  Sb83  1  0.83196695  0.66700584  0.17063010  1
  Sb  Sb84  1  0.17047427  0.66305827  0.16816193  1
  Sb  Sb85  1  0.67182542  -0.00111067  0.66143694  1
  Sb  Sb86  1  0.50248738  0.83648499  0.33103115  1
  Sb  Sb87  1  0.32585026  0.16815874  0.83826789  1
  Sb  Sb88  1  0.66782351  0.16903280  0.17142433  1
  Sb  Sb89  1  0.66878681  0.33479869  0.66497027  1
  Sb  Sb90  1  0.00106712  0.83349505  0.50173206  1
  Sb  Sb91  1  0.83612248  0.16086052  0.32886080  1
  Sb  Sb92  1  0.83609749  0.83515689  0.00077870  1
  Sb  Sb93  1  0.66682376  0.83318782  0.50061252  1
  Sb  Sb94  1  0.83687100  0.32963738  0.83638857  1
  Sb  Sb95  1  0.00731201  0.33124899  0.33484963  1
  Sb  Sb96  1  0.49894789  0.66411079  0.83664607  1
  Sb  Sb97  1  0.33141866  0.49808352  0.83137324  1
  Sb  Sb98  1  0.33341487  -0.00435297  0.00026700  1
  Sb  Sb99  1  0.49506476  0.49488741  0.33471261  1
  Sb  Sb100  1  0.16387176  0.83363037  0.33030914  1
  Sb  Sb101  1  0.66383407  0.83208678  0.16498185  1
  Sb  Sb102  1  0.67173320  0.16289078  0.83066519  1
  Sb  Sb103  1  0.66695766  0.66932991  0.00644662  1
  Sb  Sb104  1  0.66234082  0.33284008  0.33280721  1
  Sb  Sb105  1  0.32675573  0.33556786  0.65949359  1
  Sb  Sb106  1  0.32909014  0.33973018  0.00904319  1
  Sb  Sb107  1  0.49259063  0.17132014  0.66105923  1
  Te  Te108  1  0.16614962  0.16834031  0.16774413  1
  Te  Te109  1  0.16697292  0.17077407  0.50351549  1
  Te  Te110  1  0.16154854  0.17152697  0.82963428  1
  Te  Te111  1  0.16960049  0.49694847  0.16476555  1
  Te  Te112  1  0.16898397  0.49920990  0.49875188  1
  Te  Te113  1  0.16557515  0.49262061  0.83787418  1
  Te  Te114  1  0.17181952  0.83251288  0.16250577  1
  Te  Te115  1  0.17247618  0.83063575  0.50075837  1
  Te  Te116  1  0.16168943  0.83393492  0.83928699  1
  Te  Te117  1  0.49906439  0.17143775  0.17141224  1
  Te  Te118  1  0.50071300  0.16853630  0.49692334  1
  Te  Te119  1  0.50090254  0.17328920  0.83443729  1
  Te  Te120  1  0.49756016  0.49758629  0.16762573  1
  Te  Te121  1  0.49964770  0.49835920  0.50075434  1
  Te  Te122  1  0.50144676  0.49376217  0.82926082  1
  Te  Te123  1  0.49524597  0.83418261  0.16316420  1
  Te  Te124  1  0.49419817  0.83490791  0.50109546  1
  Te  Te125  1  0.50215455  0.83403634  0.83846279  1
  Te  Te126  1  0.83235789  0.16564792  0.16304023  1
  Te  Te127  1  0.82745502  0.16507506  0.50011683  1
  Te  Te128  1  0.83905828  0.16185614  0.83893169  1
  Te  Te129  1  0.83376780  0.49867233  0.16501388  1
  Te  Te130  1  0.83018123  0.49972436  0.50217598  1
  Te  Te131  1  0.83288351  0.49948804  0.83293859  1
  Te  Te132  1  0.83295365  0.83878105  0.17067769  1
  Te  Te133  1  0.83314653  0.83344743  0.50016909  1
  Te  Te134  1  0.83518402  0.83732087  0.83365917  1
  Te  Te135  1  0.16707147  0.00194570  0.00493576  1
  Te  Te136  1  0.16225872  0.00199587  0.32933328  1
  Te  Te137  1  0.16344317  0.00064586  0.66624669  1
  Te  Te138  1  0.16684668  0.33367184  0.00156463  1
  Te  Te139  1  0.16765737  0.33332854  0.33305018  1
  Te  Te140  1  0.16677771  0.33466273  0.66476239  1
  Te  Te141  1  0.16696529  0.66450888  -0.00040628  1
  Te  Te142  1  0.16285566  0.66583501  0.33770062  1
  Te  Te143  1  0.17023164  0.66310590  0.66363334  1
  Te  Te144  1  0.50519102  -0.00395432  -0.00149909  1
  Te  Te145  1  0.50268406  0.00457462  0.33912106  1
  Te  Te146  1  0.49858831  0.00048312  0.66051463  1
  Te  Te147  1  0.49860573  0.33308092  0.00378613  1
  Te  Te148  1  0.49629166  0.32883871  0.33319776  1
  Te  Te149  1  0.49890102  0.33777844  0.66258446  1
  Te  Te150  1  0.49813704  0.67069808  0.00450703  1
  Te  Te151  1  0.50518332  0.66792974  0.32675886  1
  Te  Te152  1  0.49429155  0.66103230  0.66716713  1
  Te  Te153  1  0.83087520  0.00084605  0.00232894  1
  Te  Te154  1  0.83454222  -0.00053571  0.33376102  1
  Te  Te155  1  0.83739157  -0.00145888  0.66490645  1
  Te  Te156  1  0.83489860  0.33485527  0.00429475  1
  Te  Te157  1  0.83510542  0.33292043  0.32662742  1
  Te  Te158  1  0.83943225  0.33662175  0.66685882  1
  Te  Te159  1  0.83609008  0.66210098  0.00050542  1
  Te  Te160  1  0.83509840  0.66996295  0.33683410  1
  Te  Te161  1  0.83433423  0.66561147  0.66079676  1
  Te  Te162  1  0.00110856  0.16670727  0.00114923  1
  Te  Te163  1  0.00537533  0.16255913  0.32990197  1
  Te  Te164  1  0.00407190  0.16461801  0.66601976  1
  Te  Te165  1  0.00007807  0.50502722  -0.00043511  1
  Te  Te166  1  0.00733206  0.50530475  0.33257335  1
  Te  Te167  1  0.00135412  0.49901510  0.66746269  1
  Te  Te168  1  0.00442838  0.82986798  -0.00307249  1
  Te  Te169  1  -0.00382769  0.83446947  0.33295752  1
  Te  Te170  1  -0.00428343  0.83585863  0.67119104  1
  Te  Te171  1  0.32791006  0.16429309  0.00696028  1
  Te  Te172  1  0.33141257  0.16892476  0.32893727  1
  Te  Te173  1  0.32611623  0.16252749  0.66773980  1
  Te  Te174  1  0.33003699  0.50669975  0.00294330  1
  Te  Te175  1  0.32899623  0.49699592  0.33312498  1
  Te  Te176  1  0.33052340  0.50147300  0.66497082  1
  Te  Te177  1  0.33121132  0.82994930  0.00102574  1
  Te  Te178  1  0.33336308  0.83411947  0.33301459  1
  Te  Te179  1  0.33329364  0.83122099  0.66462604  1
  Te  Te180  1  0.66918804  0.16013465  -0.00097348  1
  Te  Te181  1  0.66463833  0.16371620  0.33822428  1
  Te  Te182  1  0.66550555  0.16688188  0.65968877  1
  Te  Te183  1  0.66980418  0.50005581  0.00409630  1
  Te  Te184  1  0.66788077  0.50079116  0.33314742  1
  Te  Te185  1  0.67048222  0.50111606  0.66387512  1
  Te  Te186  1  0.66455775  0.83698713  -0.00227087  1
  Te  Te187  1  0.67069816  0.83439601  0.33356138  1
  Te  Te188  1  0.67235803  0.83179210  0.67252829  1
  Te  Te189  1  -0.00085125  0.00353212  0.16841523  1
  Te  Te190  1  -0.00435372  -0.00136049  0.49914256  1
  Te  Te191  1  -0.00352389  0.00159654  0.83173038  1
  Te  Te192  1  0.00105463  0.32728369  0.16696127  1
  Te  Te193  1  0.00444966  0.33256477  0.50564647  1
  Te  Te194  1  0.00372801  0.32830668  0.82839491  1
  Te  Te195  1  0.00042346  0.66770372  0.16811352  1
  Te  Te196  1  -0.00086316  0.66772396  0.49627449  1
  Te  Te197  1  0.00027894  0.67204291  0.83797720  1
  Te  Te198  1  0.33110738  -0.00286989  0.16640742  1
  Te  Te199  1  0.33453649  -0.00138850  0.50299726  1
  Te  Te200  1  0.33438861  0.00047496  0.82395389  1
  Te  Te201  1  0.33099981  0.33470714  0.16973692  1
  Te  Te202  1  0.33355942  0.33655785  0.49436049  1
  Te  Te203  1  0.33318767  0.33286425  0.83378447  1
  Te  Te204  1  0.33566697  0.66680797  0.16602318  1
  Te  Te205  1  0.33154281  0.66367331  0.49966156  1
  Te  Te206  1  0.33358231  0.66651681  0.83372915  1
  Te  Te207  1  0.66828003  0.00054521  0.16978893  1
  Te  Te208  1  0.66780172  -0.00029785  0.49550077  1
  Te  Te209  1  0.67174764  -0.00285912  0.83371775  1
  Te  Te210  1  0.66790860  0.33941936  0.16692595  1
  Te  Te211  1  0.66326499  0.33676867  0.49943152  1
  Te  Te212  1  0.66194087  0.33293022  0.83346465  1
  Te  Te213  1  0.66264681  0.66202431  0.17207155  1
  Te  Te214  1  0.66888366  0.66356245  0.49361883  1
  Te  Te215  1  0.66648814  0.67425148  0.83378333  1
