# generated using pymatgen
data_AgSbTe2
_symmetry_space_group_name_H-M   'P 1'
_cell_length_a   18.35052158
_cell_length_b   18.35739521
_cell_length_c   18.34965490
_cell_angle_alpha   90.00214359
_cell_angle_beta   89.99848617
_cell_angle_gamma   89.99709569
_symmetry_Int_Tables_number   1
_chemical_formula_structural   AgSbTe2
_chemical_formula_sum   'Ag54 Sb54 Te108'
_cell_volume   6181.40744102
_cell_formula_units_Z   54
loop_
 _symmetry_equiv_pos_site_id
 _symmetry_equiv_pos_as_xyz
  1  'x, y, z'
loop_
 _atom_site_type_symbol
 _atom_site_label
 _atom_site_symmetry_multiplicity
 _atom_site_fract_x
 _atom_site_fract_y
 _atom_site_fract_z
 _atom_site_occupancy
  Ag  Ag0  1  0.49807807  0.34283912  0.84192793  1
  Ag  Ag1  1  0.49473993  0.66373855  0.83876126  1
  Ag  Ag2  1  0.33247140  -0.00485157  0.68362852  1
  Ag  Ag3  1  0.49637130  0.66271679  0.16984941  1
  Ag  Ag4  1  0.81983119  0.50011300  0.31911736  1
  Ag  Ag5  1  0.66020508  0.17908135  0.16634158  1
  Ag  Ag6  1  0.66725207  0.34119284  0.00446087  1
  Ag  Ag7  1  0.66425532  -0.00035190  0.00329648  1
  Ag  Ag8  1  0.65932967  0.82623170  0.49788493  1
  Ag  Ag9  1  0.00126456  0.50293790  0.15896490  1
  Ag  Ag10  1  0.16768293  0.50140344  0.68157595  1
  Ag  Ag11  1  0.66645208  0.66215249  0.00130379  1
  Ag  Ag12  1  0.16612536  0.17565766  -0.00098545  1
  Ag  Ag13  1  0.66410327  0.34472522  0.32442229  1
  Ag  Ag14  1  0.00161758  0.66328560  -0.00184928  1
  Ag  Ag15  1  0.16886423  0.34682394  0.83554705  1
  Ag  Ag16  1  0.50049958  -0.00309203  0.16907852  1
  Ag  Ag17  1  0.33796096  0.34318947  0.32592989  1
  Ag  Ag18  1  0.33873452  0.50488025  0.16293662  1
  Ag  Ag19  1  0.16990229  0.33509038  0.49668072  1
  Ag  Ag20  1  0.00681267  0.82129542  0.16338962  1
  Ag  Ag21  1  0.66536544  0.50745606  0.48484173  1
  Ag  Ag22  1  0.17147300  0.66144508  0.83720638  1
  Ag  Ag23  1  0.83220238  0.16884287  -0.00145649  1
  Ag  Ag24  1  0.33561936  -0.00871328  -0.00030554  1
  Ag  Ag25  1  0.66417089  0.00027222  0.32312093  1
  Ag  Ag26  1  0.01173167  0.50430628  0.84083739  1
  Ag  Ag27  1  -0.00143896  0.66754360  0.67903452  1
  Ag  Ag28  1  -0.00205424  0.33707591  0.33027338  1
  Ag  Ag29  1  0.66161263  0.65817990  0.33023312  1
  Ag  Ag30  1  0.50404046  0.50158526  0.32835832  1
  Ag  Ag31  1  0.83505082  0.50287220  0.00132707  1
  Ag  Ag32  1  0.33353902  0.82486793  0.84179940  1
  Ag  Ag33  1  0.00841846  -0.00794971  0.67395528  1
  Ag  Ag34  1  0.83780346  0.66518167  0.83868609  1
  Ag  Ag35  1  0.50233748  0.66879819  0.49627987  1
  Ag  Ag36  1  0.66512633  0.16786300  0.48847948  1
  Ag  Ag37  1  0.34204986  0.66253698  0.31814333  1
  Ag  Ag38  1  0.49993081  0.34363210  0.16453593  1
  Ag  Ag39  1  0.33151066  0.66681624  0.00167591  1
  Ag  Ag40  1  0.83157978  0.34621883  0.83901418  1
  Ag  Ag41  1  0.18026154  0.66368746  0.15639662  1
  Ag  Ag42  1  0.83050286  0.82086595  -0.00102509  1
  Ag  Ag43  1  0.49790202  0.83026828  0.66282924  1
  Ag  Ag44  1  0.66302325  0.66656496  0.67007672  1
  Ag  Ag45  1  0.32453986  0.50875427  0.84431208  1
  Ag  Ag46  1  0.16496103  -0.00052877  0.83568143  1
  Ag  Ag47  1  0.34270090  0.16963691  0.16450398  1
  Ag  Ag48  1  0.33319511  0.82069832  0.16232737  1
  Ag  Ag49  1  0.33971681  0.83176513  0.50560182  1
  Ag  Ag50  1  0.65774550  0.49955689  0.16849630  1
  Ag  Ag51  1  0.83947347  -0.00769043  0.83838539  1
  Ag  Ag52  1  0.16382519  0.50143757  -0.00145318  1
  Ag  Ag53  1  0.50264405  -0.01308646  0.48998001  1
  Sb  Sb54  1  0.66703742  0.16747317  0.83992543  1
  Sb  Sb55  1  0.16725760  0.17002816  0.67319006  1
  Sb  Sb56  1  0.83517673  0.50151599  0.67219868  1
  Sb  Sb57  1  0.00252727  0.33766970  0.66836160  1
  Sb  Sb58  1  0.16846911  0.16998065  0.32640089  1
  Sb  Sb59  1  0.00010991  0.83084616  0.49799490  1
  Sb  Sb60  1  0.66273098  0.82862308  0.83362399  1
  Sb  Sb61  1  0.49919443  0.33676323  0.49631317  1
  Sb  Sb62  1  0.82494151  -0.00046298  0.50485887  1
  Sb  Sb63  1  0.00013305  -0.00644929  -0.00280895  1
  Sb  Sb64  1  0.83151982  0.16510019  0.67255381  1
  Sb  Sb65  1  0.33278095  0.16752657  0.84054935  1
  Sb  Sb66  1  0.82847033  0.82604255  0.32604712  1
  Sb  Sb67  1  0.50031517  0.82403675  0.33740010  1
  Sb  Sb68  1  -0.00267409  0.66033717  0.32528431  1
  Sb  Sb69  1  0.17467315  -0.00440139  0.15976814  1
  Sb  Sb70  1  0.82491213  0.33797548  0.16092162  1
  Sb  Sb71  1  0.33621963  0.50424544  0.49762390  1
  Sb  Sb72  1  0.50008253  0.16082397  0.66662132  1
  Sb  Sb73  1  -0.00242009  0.16805200  0.50114779  1
  Sb  Sb74  1  0.16916629  0.50002897  0.32832501  1
  Sb  Sb75  1  0.82775572  0.17303418  0.32667576  1
  Sb  Sb76  1  0.34195153  -0.00466709  0.32545017  1
  Sb  Sb77  1  0.33675040  0.33865069  0.00201481  1
  Sb  Sb78  1  0.17087672  0.83246301  0.33176408  1
  Sb  Sb79  1  0.33314142  0.33203193  0.66677719  1
  Sb  Sb80  1  0.82358484  0.66505566  0.50450478  1
  Sb  Sb81  1  0.49968245  0.82929173  -0.00113751  1
  Sb  Sb82  1  0.50175818  0.50326660  0.00563813  1
  Sb  Sb83  1  0.17164041  0.82831213  0.66964338  1
  Sb  Sb84  1  0.17239518  0.33921610  0.16397509  1
  Sb  Sb85  1  0.66445127  0.50300944  0.83984357  1
  Sb  Sb86  1  0.66561603  0.33960853  0.66762995  1
  Sb  Sb87  1  0.82971168  0.83160141  0.67276004  1
  Sb  Sb88  1  -0.00389235  0.34243473  0.00218171  1
  Sb  Sb89  1  0.17344805  0.66260216  0.50426557  1
  Sb  Sb90  1  0.49854572  0.50653687  0.66555690  1
  Sb  Sb91  1  -0.00021382  0.16995709  0.83594346  1
  Sb  Sb92  1  0.16768135  0.82553678  -0.00135844  1
  Sb  Sb93  1  0.17506328  0.00346968  0.50551598  1
  Sb  Sb94  1  0.66122319  0.82695653  0.16739756  1
  Sb  Sb95  1  -0.00728260  0.00229384  0.33352638  1
  Sb  Sb96  1  0.82837680  0.66352875  0.15830545  1
  Sb  Sb97  1  0.33794876  0.16412264  0.49337963  1
  Sb  Sb98  1  0.50045713  0.16669709  0.00335958  1
  Sb  Sb99  1  0.33659844  0.67011780  0.67344364  1
  Sb  Sb100  1  0.66257103  -0.00581857  0.66963710  1
  Sb  Sb101  1  0.50252439  0.17164411  0.32964954  1
  Sb  Sb102  1  0.82680135  -0.00157899  0.15971937  1
  Sb  Sb103  1  0.49853373  -0.00412037  0.83750583  1
  Sb  Sb104  1  -0.00149433  0.17248347  0.16337534  1
  Sb  Sb105  1  -0.00145038  0.50145372  0.49969924  1
  Sb  Sb106  1  0.00376768  0.82533661  0.83848361  1
  Sb  Sb107  1  0.83324300  0.33533259  0.50028486  1
  Te  Te108  1  0.16719133  0.16537742  0.15858374  1
  Te  Te109  1  0.16586452  0.17420569  0.50042040  1
  Te  Te110  1  0.16587951  0.15914657  0.84001018  1
  Te  Te111  1  0.16633553  0.50439592  0.16266372  1
  Te  Te112  1  0.16646814  0.49367829  0.49933658  1
  Te  Te113  1  0.16746135  0.50265669  0.83734429  1
  Te  Te114  1  0.16802566  0.82731691  0.16610969  1
  Te  Te115  1  0.17313336  0.83563023  0.50021695  1
  Te  Te116  1  0.17310472  0.83898728  0.83149350  1
  Te  Te117  1  0.50272186  0.16239899  0.16669286  1
  Te  Te118  1  0.50600056  0.16728146  0.50046901  1
  Te  Te119  1  0.49948012  0.17796929  0.83215079  1
  Te  Te120  1  0.49877470  0.50184084  0.16804274  1
  Te  Te121  1  0.50389111  0.50423292  0.49741681  1
  Te  Te122  1  0.49713693  0.50121718  0.83121007  1
  Te  Te123  1  0.49366811  0.83379337  0.16658508  1
  Te  Te124  1  0.50000434  0.83025372  0.50017872  1
  Te  Te125  1  0.49394416  0.82933396  0.82788208  1
  Te  Te126  1  0.82970475  0.16607760  0.15890753  1
  Te  Te127  1  0.82666159  0.16700978  0.50032370  1
  Te  Te128  1  0.83332132  0.16435384  0.83939286  1
  Te  Te129  1  0.83866881  0.49833226  0.16381671  1
  Te  Te130  1  0.82806669  0.49910031  0.50039001  1
  Te  Te131  1  0.83074749  0.50398480  0.83837689  1
  Te  Te132  1  0.83918260  0.83409447  0.16037357  1
  Te  Te133  1  0.83024873  0.83412735  0.49907878  1
  Te  Te134  1  0.83312822  0.83081292  0.83910029  1
  Te  Te135  1  0.16892541  -0.00111027  -0.00314762  1
  Te  Te136  1  0.16251879  0.00255961  0.33503810  1
  Te  Te137  1  0.16866232  0.00214806  0.66969372  1
  Te  Te138  1  0.16688153  0.33550324  -0.00394470  1
  Te  Te139  1  0.17169646  0.33271811  0.33368040  1
  Te  Te140  1  0.16616502  0.33698324  0.67314856  1
  Te  Te141  1  0.16845622  0.66451318  -0.00118616  1
  Te  Te142  1  0.16645600  0.66793440  0.33532820  1
  Te  Te143  1  0.16405478  0.66153299  0.66972761  1
  Te  Te144  1  0.50062636  -0.00067857  0.00386088  1
  Te  Te145  1  0.50374576  0.00286480  0.33192925  1
  Te  Te146  1  0.49406042  -0.00587117  0.66798650  1
  Te  Te147  1  0.50554176  0.33221138  0.00161950  1
  Te  Te148  1  0.50149048  0.33900516  0.33159995  1
  Te  Te149  1  0.49962529  0.33207035  0.67133407  1
  Te  Te150  1  0.50159390  0.66828382  -0.00088070  1
  Te  Te151  1  0.50132074  0.66393889  0.33143078  1
  Te  Te152  1  0.50258765  0.66999441  0.66827668  1
  Te  Te153  1  0.83365135  0.00360004  -0.00389188  1
  Te  Te154  1  0.82638660  0.00087142  0.33421523  1
  Te  Te155  1  0.83611738  -0.00070555  0.67476667  1
  Te  Te156  1  0.83087913  0.33478214  -0.00391907  1
  Te  Te157  1  0.82822221  0.34001466  0.33471525  1
  Te  Te158  1  0.83482041  0.33250210  0.67617664  1
  Te  Te159  1  0.82907847  0.66508842  -0.00203748  1
  Te  Te160  1  0.82872331  0.65936941  0.33654887  1
  Te  Te161  1  0.83300644  0.66683700  0.67406463  1
  Te  Te162  1  0.00001925  0.16533457  0.00042906  1
  Te  Te163  1  -0.00211143  0.17508590  0.33357902  1
  Te  Te164  1  -0.00056748  0.15831710  0.66694921  1
  Te  Te165  1  -0.00012307  0.50239417  -0.00117767  1
  Te  Te166  1  0.00130087  0.49524573  0.33244179  1
  Te  Te167  1  0.00316698  0.50529095  0.66795983  1
  Te  Te168  1  -0.00433977  0.82655518  0.00406460  1
  Te  Te169  1  -0.00223675  0.83398205  0.32579361  1
  Te  Te170  1  -0.00079373  0.83139619  0.66601236  1
  Te  Te171  1  0.33012171  0.16591330  0.00503347  1
  Te  Te172  1  0.33271983  0.17104198  0.32644060  1
  Te  Te173  1  0.33244681  0.15781958  0.66255982  1
  Te  Te174  1  0.33207609  0.50206826  0.00116811  1
  Te  Te175  1  0.33499652  0.50208797  0.33111722  1
  Te  Te176  1  0.32813272  0.49717687  0.66685836  1
  Te  Te177  1  0.33384234  0.83131933  0.00014698  1
  Te  Te178  1  0.33293550  0.82702972  0.32434257  1
  Te  Te179  1  0.33542539  0.83617622  0.66464215  1
  Te  Te180  1  0.66821614  0.16314789  0.00431533  1
  Te  Te181  1  0.66809856  0.15993933  0.32914821  1
  Te  Te182  1  0.66649376  0.16757996  0.66363608  1
  Te  Te183  1  0.66936835  0.49962879  0.00537224  1
  Te  Te184  1  0.66500660  0.50072547  0.32958221  1
  Te  Te185  1  0.66691531  0.50764288  0.66212045  1
  Te  Te186  1  0.67070040  0.83481572  0.00029321  1
  Te  Te187  1  0.66897371  0.83992513  0.33736093  1
  Te  Te188  1  0.66265981  0.82739218  0.66361867  1
  Te  Te189  1  0.00233899  0.00122932  0.16908516  1
  Te  Te190  1  0.00008306  -0.00071693  0.50342671  1
  Te  Te191  1  -0.00031112  -0.00182103  0.83186039  1
  Te  Te192  1  0.00223293  0.33773485  0.17165829  1
  Te  Te193  1  0.00342734  0.33293133  0.49770142  1
  Te  Te194  1  0.00188689  0.34062824  0.83274735  1
  Te  Te195  1  -0.00309921  0.66411680  0.16201906  1
  Te  Te196  1  0.00186693  0.66819555  0.50195441  1
  Te  Te197  1  0.00179274  0.66623595  0.83601541  1
  Te  Te198  1  0.33811424  0.00593958  0.16115841  1
  Te  Te199  1  0.34029451  -0.00363548  0.49311175  1
  Te  Te200  1  0.33303795  0.00186131  0.83901484  1
  Te  Te201  1  0.33821725  0.33258315  0.16758337  1
  Te  Te202  1  0.33027234  0.33285722  0.49732059  1
  Te  Te203  1  0.33341117  0.33566043  0.83386258  1
  Te  Te204  1  0.33498448  0.66355453  0.16358092  1
  Te  Te205  1  0.33821699  0.67158679  0.50205121  1
  Te  Te206  1  0.33249992  0.66565729  0.83416232  1
  Te  Te207  1  0.66217562  -0.00758406  0.16385957  1
  Te  Te208  1  0.66148585  -0.00024570  0.50561410  1
  Te  Te209  1  0.66896062  -0.00040105  0.83963551  1
  Te  Te210  1  0.66365353  0.33579173  0.16552595  1
  Te  Te211  1  0.66646271  0.33046217  0.49938618  1
  Te  Te212  1  0.66679419  0.33466812  0.83523274  1
  Te  Te213  1  0.66219687  0.66377805  0.16607515  1
  Te  Te214  1  0.66342803  0.66704179  0.49586846  1
  Te  Te215  1  0.66251531  0.66684892  0.83784946  1
