# generated using pymatgen
data_AgSbTe2
_symmetry_space_group_name_H-M   'P 1'
_cell_length_a   18.32559146
_cell_length_b   18.32445186
_cell_length_c   18.32495148
_cell_angle_alpha   89.99933550
_cell_angle_beta   89.99605605
_cell_angle_gamma   89.99645790
_symmetry_Int_Tables_number   1
_chemical_formula_structural   AgSbTe2
_chemical_formula_sum   'Ag54 Sb54 Te108'
_cell_volume   6153.63630072
_cell_formula_units_Z   54
loop_
 _symmetry_equiv_pos_site_id
 _symmetry_equiv_pos_as_xyz
  1  'x, y, z'
loop_
 _atom_site_type_symbol
 _atom_site_label
 _atom_site_symmetry_multiplicity
 _atom_site_fract_x
 _atom_site_fract_y
 _atom_site_fract_z
 _atom_site_occupancy
  Ag  Ag0  1  0.49448395  0.83929722  0.66763720  1
  Ag  Ag1  1  0.32966423  0.49557536  0.50603008  1
  Ag  Ag2  1  0.50043037  0.00161644  0.84017478  1
  Ag  Ag3  1  0.65582784  0.16091026  0.83466353  1
  Ag  Ag4  1  -0.00470497  0.15791682  0.16619740  1
  Ag  Ag5  1  0.66410324  0.67864957  0.32854791  1
  Ag  Ag6  1  0.16847800  0.50084294  -0.00264267  1
  Ag  Ag7  1  -0.00049233  0.50079195  0.16651767  1
  Ag  Ag8  1  0.16705840  0.83632589  0.32903094  1
  Ag  Ag9  1  0.16616024  -0.00449272  0.50224863  1
  Ag  Ag10  1  0.00298535  0.83411159  0.50264611  1
  Ag  Ag11  1  0.01036660  0.32888409  0.00407032  1
  Ag  Ag12  1  0.16464165  0.83445614  0.67161516  1
  Ag  Ag13  1  0.49963665  0.49998758  0.32894196  1
  Ag  Ag14  1  0.00213807  -0.00255572  0.00005954  1
  Ag  Ag15  1  0.00912765  0.83819155  0.83038929  1
  Ag  Ag16  1  0.17141209  0.83407148  -0.00363404  1
  Ag  Ag17  1  0.82480371  -0.00178895  0.16626682  1
  Ag  Ag18  1  0.33841154  0.16604060  0.83238761  1
  Ag  Ag19  1  0.32943051  0.83741623  0.83913946  1
  Ag  Ag20  1  0.33711910  0.83723079  0.15958688  1
  Ag  Ag21  1  0.50545537  0.68080096  0.17073416  1
  Ag  Ag22  1  0.66384253  0.15824779  0.16717721  1
  Ag  Ag23  1  0.16921813  0.50227264  0.67054541  1
  Ag  Ag24  1  0.49182187  0.83848253  0.00978464  1
  Ag  Ag25  1  0.00634584  0.50408346  0.49901857  1
  Ag  Ag26  1  0.33207703  0.32987760  -0.00403610  1
  Ag  Ag27  1  0.49670100  0.33276441  0.49866984  1
  Ag  Ag28  1  0.66425625  0.83371446  0.49551994  1
  Ag  Ag29  1  0.49275142  0.31966186  0.83556038  1
  Ag  Ag30  1  0.66161903  0.50005079  0.16699743  1
  Ag  Ag31  1  0.00337444  -0.00377812  0.67227670  1
  Ag  Ag32  1  0.82369719  0.15696015  0.32800952  1
  Ag  Ag33  1  0.33796645  -0.00386744  0.00042254  1
  Ag  Ag34  1  0.50343649  0.15669149  0.32981278  1
  Ag  Ag35  1  0.34423891  -0.00306287  0.32452196  1
  Ag  Ag36  1  0.65593730  -0.00011215  0.00919271  1
  Ag  Ag37  1  0.83313152  0.16242665  0.66653061  1
  Ag  Ag38  1  0.82845361  0.68029066  0.16939632  1
  Ag  Ag39  1  0.00451249  0.83658223  0.16613867  1
  Ag  Ag40  1  0.49600896  0.32778210  0.16595734  1
  Ag  Ag41  1  0.66836279  0.67006373  0.66499004  1
  Ag  Ag42  1  0.49798962  0.16093346  0.67552382  1
  Ag  Ag43  1  0.50544871  -0.00112650  0.16350639  1
  Ag  Ag44  1  0.33204023  0.49254363  0.83192108  1
  Ag  Ag45  1  0.17106812  0.33358794  0.16322500  1
  Ag  Ag46  1  0.82952867  -0.00066927  0.83876132  1
  Ag  Ag47  1  0.33441325  0.33133548  0.67693329  1
  Ag  Ag48  1  0.16821940  0.67246203  0.83123504  1
  Ag  Ag49  1  0.66068982  -0.00384347  0.32700897  1
  Ag  Ag50  1  0.00147607  0.67920369  0.66668580  1
  Ag  Ag51  1  0.16977823  0.15895047  0.66812864  1
  Ag  Ag52  1  0.50220518  0.83883224  0.32782214  1
  Ag  Ag53  1  0.82392707  0.83846193  0.33009643  1
  Sb  Sb54  1  0.33199567  0.83341264  0.50065119  1
  Sb  Sb55  1  0.83998074  0.49845526  0.66723743  1
  Sb  Sb56  1  -0.00212063  -0.00398826  0.32967136  1
  Sb  Sb57  1  0.33973259  0.67377532  0.33174425  1
  Sb  Sb58  1  0.17064900  0.33194840  0.49770370  1
  Sb  Sb59  1  0.33394823  0.50115386  0.16470238  1
  Sb  Sb60  1  0.82950820  0.32271059  0.83367212  1
  Sb  Sb61  1  0.83372457  0.66976995  0.49541231  1
  Sb  Sb62  1  0.33250165  0.67167374  -0.00013269  1
  Sb  Sb63  1  0.33740213  0.32757768  0.33041565  1
  Sb  Sb64  1  0.82920217  0.50210061  0.32992326  1
  Sb  Sb65  1  0.83751467  0.83831926  0.66329097  1
  Sb  Sb66  1  0.49553298  0.00158286  0.49726273  1
  Sb  Sb67  1  0.00866719  0.50446944  0.83538421  1
  Sb  Sb68  1  0.65733458  0.33312221  0.66727109  1
  Sb  Sb69  1  0.16979135  0.15914870  0.33388708  1
  Sb  Sb70  1  -0.00448552  0.67138766  0.33457436  1
  Sb  Sb71  1  0.83530133  0.83844113  0.00833328  1
  Sb  Sb72  1  0.66214764  0.32867819  0.33056022  1
  Sb  Sb73  1  0.83389163  0.16195546  0.00281596  1
  Sb  Sb74  1  0.49365701  0.50245681  0.00559464  1
  Sb  Sb75  1  0.00853646  0.32997183  0.67216784  1
  Sb  Sb76  1  0.66009278  0.32666710  0.00325703  1
  Sb  Sb77  1  0.83311019  0.32725968  0.16576067  1
  Sb  Sb78  1  0.83045317  0.33225717  0.50009401  1
  Sb  Sb79  1  0.66423791  0.67491379  0.00487656  1
  Sb  Sb80  1  0.16608185  0.66863652  0.16276023  1
  Sb  Sb81  1  0.83771658  0.67654662  0.83628752  1
  Sb  Sb82  1  0.17399916  0.33629589  0.83900890  1
  Sb  Sb83  1  0.66314083  0.83750681  0.17252048  1
  Sb  Sb84  1  0.33710503  0.16137941  0.16180502  1
  Sb  Sb85  1  0.17036176  -0.00593748  0.83089111  1
  Sb  Sb86  1  0.33090649  0.66574450  0.66774654  1
  Sb  Sb87  1  0.00198256  0.67284121  -0.00095210  1
  Sb  Sb88  1  0.16747929  0.16389912  -0.00355800  1
  Sb  Sb89  1  0.17096959  0.50642106  0.33305869  1
  Sb  Sb90  1  0.33564333  0.16843842  0.50560130  1
  Sb  Sb91  1  0.00109141  0.16330688  0.49735975  1
  Sb  Sb92  1  0.49600206  0.67307218  0.83506936  1
  Sb  Sb93  1  0.66361025  0.83976704  0.82880027  1
  Sb  Sb94  1  0.65833006  0.49604394  0.83734381  1
  Sb  Sb95  1  0.49365089  0.50079466  0.66297763  1
  Sb  Sb96  1  0.84059313  0.50017990  0.00261038  1
  Sb  Sb97  1  0.49997491  0.66653824  0.49607634  1
  Sb  Sb98  1  0.00122334  0.33350126  0.32639774  1
  Sb  Sb99  1  0.83684627  -0.00170544  0.49672782  1
  Sb  Sb100  1  0.00173557  0.15897473  0.83628294  1
  Sb  Sb101  1  0.66386158  0.50564344  0.49447266  1
  Sb  Sb102  1  0.16493170  0.67217888  0.50566564  1
  Sb  Sb103  1  0.33086926  0.00229058  0.67111078  1
  Sb  Sb104  1  0.66406652  0.16049269  0.49785109  1
  Sb  Sb105  1  0.66821541  -0.00253655  0.66538124  1
  Sb  Sb106  1  0.16759496  -0.00064212  0.16765542  1
  Sb  Sb107  1  0.49902958  0.15809440  -0.00151421  1
  Te  Te108  1  0.16264680  0.17174455  0.16777767  1
  Te  Te109  1  0.16679299  0.16264510  0.50578668  1
  Te  Te110  1  0.17019980  0.16856957  0.82648025  1
  Te  Te111  1  0.16410882  0.49945443  0.16462214  1
  Te  Te112  1  0.16607594  0.49973130  0.50127106  1
  Te  Te113  1  0.17164267  0.50329930  0.83339766  1
  Te  Te114  1  0.16535325  0.83309792  0.16518105  1
  Te  Te115  1  0.16446145  0.83549453  0.50372174  1
  Te  Te116  1  0.16747290  0.83328136  0.83327482  1
  Te  Te117  1  0.50175192  0.16417548  0.16867714  1
  Te  Te118  1  0.50076678  0.17256123  0.49794335  1
  Te  Te119  1  0.49934074  0.16362370  0.83352630  1
  Te  Te120  1  0.50061326  0.49474966  0.16904909  1
  Te  Te121  1  0.49857946  0.49549710  0.49506291  1
  Te  Te122  1  0.49301371  0.50145643  0.83453041  1
  Te  Te123  1  0.49919596  0.83831271  0.16830414  1
  Te  Te124  1  0.50029001  0.83368368  0.50448284  1
  Te  Te125  1  0.49714534  0.83628993  0.82668333  1
  Te  Te126  1  0.83243561  0.16196717  0.16927532  1
  Te  Te127  1  0.83271513  0.16697197  0.50145040  1
  Te  Te128  1  0.83162264  0.15916781  0.82840812  1
  Te  Te129  1  0.83675729  0.49808630  0.16778531  1
  Te  Te130  1  0.84173172  0.49968761  0.49865685  1
  Te  Te131  1  0.83049687  0.50004013  0.83400447  1
  Te  Te132  1  0.83779269  0.83760036  0.17071721  1
  Te  Te133  1  0.83788596  0.83307248  0.49241468  1
  Te  Te134  1  0.83746150  0.84024419  0.83460250  1
  Te  Te135  1  0.16616043  -0.00463793  0.00012960  1
  Te  Te136  1  0.16785823  -0.00470590  0.33766525  1
  Te  Te137  1  0.16499754  -0.00208073  0.66534871  1
  Te  Te138  1  0.16847040  0.33160816  0.00358958  1
  Te  Te139  1  0.16894665  0.33321409  0.32567434  1
  Te  Te140  1  0.17315478  0.33667171  0.66479965  1
  Te  Te141  1  0.16597387  0.66711779  -0.00556276  1
  Te  Te142  1  0.16736596  0.67582652  0.33266494  1
  Te  Te143  1  0.16382909  0.66836191  0.67053626  1
  Te  Te144  1  0.49821760  -0.00374302  0.00058181  1
  Te  Te145  1  0.50059082  -0.00094854  0.33524335  1
  Te  Te146  1  0.49957902  0.00023518  0.66635512  1
  Te  Te147  1  0.49551472  0.33558521  0.00040607  1
  Te  Te148  1  0.49934461  0.33433258  0.32916335  1
  Te  Te149  1  0.49421870  0.33329769  0.66937006  1
  Te  Te150  1  0.50044686  0.67482082  0.00706091  1
  Te  Te151  1  0.50501032  0.66963889  0.33035307  1
  Te  Te152  1  0.50465117  0.67012771  0.66623345  1
  Te  Te153  1  0.83795487  -0.00011171  0.00143696  1
  Te  Te154  1  0.83229046  -0.00069530  0.33028048  1
  Te  Te155  1  0.83649217  0.00416087  0.66742461  1
  Te  Te156  1  0.83989435  0.33277559  -0.00180876  1
  Te  Te157  1  0.83270308  0.32442551  0.33481122  1
  Te  Te158  1  0.83362840  0.32487572  0.66729695  1
  Te  Te159  1  0.83260625  0.66753372  0.00906842  1
  Te  Te160  1  0.82610817  0.67002426  0.32762724  1
  Te  Te161  1  0.83454577  0.66610346  0.66784590  1
  Te  Te162  1  0.00071230  0.16380829  0.00523445  1
  Te  Te163  1  -0.00069825  0.16600014  0.32799167  1
  Te  Te164  1  0.00270060  0.16260452  0.66647068  1
  Te  Te165  1  0.00690463  0.49984112  0.00362264  1
  Te  Te166  1  0.00081088  0.50168333  0.33228601  1
  Te  Te167  1  0.00642472  0.49865722  0.66602792  1
  Te  Te168  1  0.00209788  0.83674133  0.00174608  1
  Te  Te169  1  0.00481305  0.83274337  0.33369468  1
  Te  Te170  1  -0.00023500  0.83588307  0.66543437  1
  Te  Te171  1  0.33223897  0.16599539  -0.00596896  1
  Te  Te172  1  0.33887490  0.15933141  0.33300113  1
  Te  Te173  1  0.33542424  0.16868112  0.67106621  1
  Te  Te174  1  0.32761449  0.49672736  -0.00292185  1
  Te  Te175  1  0.33808129  0.49992083  0.33444976  1
  Te  Te176  1  0.32956339  0.49870564  0.66836936  1
  Te  Te177  1  0.33209154  0.83530850  -0.00043538  1
  Te  Te178  1  0.33489425  0.83789709  0.33456146  1
  Te  Te179  1  0.33202287  0.83378440  0.66852035  1
  Te  Te180  1  0.66790630  0.16024675  0.00110011  1
  Te  Te181  1  0.66490828  0.16278268  0.33101027  1
  Te  Te182  1  0.66250352  0.16720681  0.66777802  1
  Te  Te183  1  0.66748502  0.50023809  0.00591918  1
  Te  Te184  1  0.66204606  0.50164871  0.32865520  1
  Te  Te185  1  0.66914104  0.50575226  0.66656727  1
  Te  Te186  1  0.66197460  0.84130184  -0.00326327  1
  Te  Te187  1  0.66467880  0.83513530  0.33407106  1
  Te  Te188  1  0.66797206  0.82990368  0.66145879  1
  Te  Te189  1  0.00168920  -0.00128468  0.16408256  1
  Te  Te190  1  0.00366502  -0.00347815  0.50361227  1
  Te  Te191  1  -0.00197133  -0.00290959  0.83448921  1
  Te  Te192  1  -0.00084800  0.33692267  0.16280271  1
  Te  Te193  1  0.00017764  0.33843854  0.50092113  1
  Te  Te194  1  -0.00131787  0.33351122  0.84179732  1
  Te  Te195  1  -0.00298121  0.66805415  0.16685853  1
  Te  Te196  1  -0.00061317  0.66673180  0.50525043  1
  Te  Te197  1  0.00277802  0.67242779  0.82801843  1
  Te  Te198  1  0.33394200  -0.00308767  0.16407114  1
  Te  Te199  1  0.32758294  0.00054207  0.49547739  1
  Te  Te200  1  0.33776790  -0.00162631  0.83595296  1
  Te  Te201  1  0.33423585  0.33233923  0.16205304  1
  Te  Te202  1  0.33719125  0.33705645  0.50013366  1
  Te  Te203  1  0.33511272  0.33225499  0.83550140  1
  Te  Te204  1  0.34045330  0.67445896  0.16689984  1
  Te  Te205  1  0.33223726  0.65483266  0.49939768  1
  Te  Te206  1  0.32927759  0.67075118  0.83307598  1
  Te  Te207  1  0.66610645  0.00131863  0.16667046  1
  Te  Te208  1  0.66739296  -0.00692335  0.49459399  1
  Te  Te209  1  0.66523518  0.00338142  0.83183170  1
  Te  Te210  1  0.66168250  0.33480758  0.16523283  1
  Te  Te211  1  0.65899129  0.33585883  0.50009241  1
  Te  Te212  1  0.65833122  0.32642928  0.83511163  1
  Te  Te213  1  0.66626764  0.66382274  0.16777511  1
  Te  Te214  1  0.66715430  0.67213321  0.50105361  1
  Te  Te215  1  0.66820552  0.66531423  0.83059901  1
