# generated using pymatgen
data_AgSbTe2
_symmetry_space_group_name_H-M   'P 1'
_cell_length_a   18.30270238
_cell_length_b   18.29635286
_cell_length_c   18.30189917
_cell_angle_alpha   90.00132962
_cell_angle_beta   89.99833557
_cell_angle_gamma   89.99873809
_symmetry_Int_Tables_number   1
_chemical_formula_structural   AgSbTe2
_chemical_formula_sum   'Ag54 Sb54 Te108'
_cell_volume   6128.80640404
_cell_formula_units_Z   54
loop_
 _symmetry_equiv_pos_site_id
 _symmetry_equiv_pos_as_xyz
  1  'x, y, z'
loop_
 _atom_site_type_symbol
 _atom_site_label
 _atom_site_symmetry_multiplicity
 _atom_site_fract_x
 _atom_site_fract_y
 _atom_site_fract_z
 _atom_site_occupancy
  Ag  Ag0  1  0.66753996  0.16454281  0.50180671  1
  Ag  Ag1  1  0.50403767  0.66476136  0.83165559  1
  Ag  Ag2  1  0.33162486  0.83179491  0.83351618  1
  Ag  Ag3  1  0.66860649  0.66739738  0.33450522  1
  Ag  Ag4  1  0.50596760  -0.00036586  0.16533396  1
  Ag  Ag5  1  0.16428789  0.48844773  0.33016880  1
  Ag  Ag6  1  -0.00285350  0.66752428  0.66090145  1
  Ag  Ag7  1  0.49759296  0.33356276  0.17158327  1
  Ag  Ag8  1  0.84084549  0.33492988  0.16606303  1
  Ag  Ag9  1  0.83552775  0.50421041  0.00301620  1
  Ag  Ag10  1  0.00048170  0.83182707  0.83742718  1
  Ag  Ag11  1  0.66542890  0.83691468  0.16407076  1
  Ag  Ag12  1  0.50413224  0.66169064  0.50098101  1
  Ag  Ag13  1  0.33897488  0.00416425  0.66501876  1
  Ag  Ag14  1  0.16626609  0.83292384  -0.00153749  1
  Ag  Ag15  1  0.66178732  0.50146038  0.83417534  1
  Ag  Ag16  1  0.33321867  0.32744460  0.66066135  1
  Ag  Ag17  1  0.66505240  0.16636330  0.82702753  1
  Ag  Ag18  1  0.33295851  0.00561478  0.33119733  1
  Ag  Ag19  1  0.17369320  0.16960087  0.65953150  1
  Ag  Ag20  1  0.33448720  0.16711949  0.17038963  1
  Ag  Ag21  1  -0.00252676  -0.00141149  0.00701508  1
  Ag  Ag22  1  0.83330821  0.83327160  -0.00317435  1
  Ag  Ag23  1  0.50087408  0.49813948  0.66510744  1
  Ag  Ag24  1  0.66432600  0.50166033  0.49891499  1
  Ag  Ag25  1  0.83045318  0.66832193  0.83028897  1
  Ag  Ag26  1  0.16193315  0.49728753  0.00409880  1
  Ag  Ag27  1  0.66916879  -0.00175274  0.32973101  1
  Ag  Ag28  1  -0.00241133  0.66356363  0.33748924  1
  Ag  Ag29  1  0.16771134  0.33505913  0.83498140  1
  Ag  Ag30  1  0.49444430  0.33644626  0.49899444  1
  Ag  Ag31  1  0.82935036  -0.00486056  0.49431886  1
  Ag  Ag32  1  -0.00309491  0.49527091  0.16625752  1
  Ag  Ag33  1  0.17187877  0.33484503  0.48971907  1
  Ag  Ag34  1  0.16296970  0.33588676  0.17644995  1
  Ag  Ag35  1  0.32346272  0.32893327  0.33600190  1
  Ag  Ag36  1  0.16249252  0.66134159  0.49824668  1
  Ag  Ag37  1  0.50488007  0.66661475  0.16747575  1
  Ag  Ag38  1  0.33456683  -0.00321398  0.00193210  1
  Ag  Ag39  1  0.00162494  0.16686588  0.49780071  1
  Ag  Ag40  1  0.33727188  0.50241241  0.83360575  1
  Ag  Ag41  1  0.01111938  0.33469153  0.32805967  1
  Ag  Ag42  1  0.00345558  0.33574088  0.00962927  1
  Ag  Ag43  1  0.66324964  0.00216002  0.66492792  1
  Ag  Ag44  1  -0.00185696  0.00241144  0.32956135  1
  Ag  Ag45  1  0.82723071  0.00092192  0.16879930  1
  Ag  Ag46  1  0.83266052  0.83189104  0.67017537  1
  Ag  Ag47  1  0.83375763  0.67029563  0.50239806  1
  Ag  Ag48  1  0.16679097  0.17655049  0.33801709  1
  Ag  Ag49  1  0.66861270  0.50296646  0.16685903  1
  Ag  Ag50  1  0.33371394  0.83459198  0.50457315  1
  Ag  Ag51  1  0.49518370  0.16882552  0.66475717  1
  Ag  Ag52  1  0.50100837  0.83540765  0.00174172  1
  Ag  Ag53  1  0.66777374  -0.00252960  0.00862771  1
  Sb  Sb54  1  0.83308969  0.16285121  0.00114243  1
  Sb  Sb55  1  0.83662003  0.50086753  0.32783825  1
  Sb  Sb56  1  0.16800316  0.00252610  0.83475545  1
  Sb  Sb57  1  0.83854694  0.16439337  0.33393446  1
  Sb  Sb58  1  0.33228614  0.16607954  0.49818153  1
  Sb  Sb59  1  0.33269238  0.66723641  0.66627461  1
  Sb  Sb60  1  0.49624822  0.33782668  0.83179541  1
  Sb  Sb61  1  0.33468626  0.49423268  0.16370858  1
  Sb  Sb62  1  0.83635535  0.33958269  0.83910372  1
  Sb  Sb63  1  -0.00235053  0.16399972  0.82973255  1
  Sb  Sb64  1  0.83004844  0.16096599  0.66419163  1
  Sb  Sb65  1  0.66492609  0.83302867  0.49633940  1
  Sb  Sb66  1  0.66032397  0.32913355  0.66515091  1
  Sb  Sb67  1  0.50128236  0.50352800  -0.00167905  1
  Sb  Sb68  1  0.66224468  0.16360278  0.17010709  1
  Sb  Sb69  1  0.00055434  0.50356875  0.83880344  1
  Sb  Sb70  1  0.33892705  0.84038639  0.16377518  1
  Sb  Sb71  1  0.50025674  0.83361645  0.32854407  1
  Sb  Sb72  1  0.82841555  0.50553318  0.66984403  1
  Sb  Sb73  1  0.49837941  0.49931760  0.33617572  1
  Sb  Sb74  1  0.33340139  0.66537540  0.33529978  1
  Sb  Sb75  1  0.16776638  0.83390454  0.33022735  1
  Sb  Sb76  1  0.33427958  0.67186191  -0.00040420  1
  Sb  Sb77  1  0.33634019  0.16617653  0.83261590  1
  Sb  Sb78  1  0.83253755  0.83421235  0.33209866  1
  Sb  Sb79  1  0.16695160  0.00465178  0.16674612  1
  Sb  Sb80  1  0.16525245  0.83570325  0.66964268  1
  Sb  Sb81  1  0.33702238  0.49939424  0.50326467  1
  Sb  Sb82  1  0.66980780  0.33143731  0.00249668  1
  Sb  Sb83  1  0.00102199  0.83314748  0.50196123  1
  Sb  Sb84  1  0.66670544  0.67062692  0.00498117  1
  Sb  Sb85  1  0.82859356  0.66715628  0.16770723  1
  Sb  Sb86  1  0.16586475  0.66447946  0.83013621  1
  Sb  Sb87  1  0.50234423  0.83362538  0.67011382  1
  Sb  Sb88  1  0.16806806  0.66025303  0.17049627  1
  Sb  Sb89  1  0.00769702  0.33646095  0.66382674  1
  Sb  Sb90  1  -0.00197526  0.66714391  0.00174308  1
  Sb  Sb91  1  -0.00180505  0.49992970  0.49403594  1
  Sb  Sb92  1  0.32823103  0.33061354  0.00187100  1
  Sb  Sb93  1  0.66868583  0.66970786  0.66271938  1
  Sb  Sb94  1  0.66630282  0.33280955  0.33245557  1
  Sb  Sb95  1  -0.00448963  0.83289646  0.16218933  1
  Sb  Sb96  1  0.50311882  0.00020216  0.49706994  1
  Sb  Sb97  1  0.17165439  0.49603645  0.66598270  1
  Sb  Sb98  1  0.00372893  0.17173372  0.17257381  1
  Sb  Sb99  1  0.50056199  0.16234081  -0.00161090  1
  Sb  Sb100  1  0.50113551  -0.00447507  0.83719107  1
  Sb  Sb101  1  0.83374196  0.33433736  0.49536947  1
  Sb  Sb102  1  0.16554224  0.00263400  0.49807121  1
  Sb  Sb103  1  -0.00089676  -0.00277996  0.66457334  1
  Sb  Sb104  1  0.16638955  0.16896913  0.00210691  1
  Sb  Sb105  1  0.83090780  -0.00696825  0.83571321  1
  Sb  Sb106  1  0.66681506  0.83057473  0.83823622  1
  Sb  Sb107  1  0.49526167  0.16694610  0.33757059  1
  Te  Te108  1  0.17128401  0.17280583  0.16972621  1
  Te  Te109  1  0.16497249  0.16904760  0.49940860  1
  Te  Te110  1  0.16550560  0.17312461  0.82877248  1
  Te  Te111  1  0.16671313  0.49673912  0.16539843  1
  Te  Te112  1  0.16671985  0.49894021  0.49729021  1
  Te  Te113  1  0.16923307  0.49673526  0.83544037  1
  Te  Te114  1  0.16703396  0.82990890  0.15836542  1
  Te  Te115  1  0.17137092  0.82977935  0.50044608  1
  Te  Te116  1  0.16860956  0.83272104  0.83794635  1
  Te  Te117  1  0.49575819  0.16698297  0.16629130  1
  Te  Te118  1  0.50511236  0.17032888  0.50496234  1
  Te  Te119  1  0.50555957  0.16878923  0.82690348  1
  Te  Te120  1  0.50359955  0.50041987  0.16669969  1
  Te  Te121  1  0.50319808  0.49953088  0.50206990  1
  Te  Te122  1  0.50061579  0.50366489  0.83164854  1
  Te  Te123  1  0.50434839  0.83415956  0.16230456  1
  Te  Te124  1  0.49488541  0.82840052  0.50094602  1
  Te  Te125  1  0.49624219  0.82717636  0.83819957  1
  Te  Te126  1  0.83192014  0.16561730  0.16684101  1
  Te  Te127  1  0.83115160  0.16463056  0.50055627  1
  Te  Te128  1  0.82685560  0.16890391  0.83220282  1
  Te  Te129  1  0.83081689  0.49993984  0.16255679  1
  Te  Te130  1  0.82620307  0.50421394  0.50075618  1
  Te  Te131  1  0.82970436  0.50619020  0.83868599  1
  Te  Te132  1  0.82824127  0.83672779  0.16109975  1
  Te  Te133  1  0.83353350  0.83244904  0.50321658  1
  Te  Te134  1  0.83402755  0.82822186  0.83548631  1
  Te  Te135  1  0.16533116  -0.00317844  0.00060777  1
  Te  Te136  1  0.16658095  0.00201443  0.33255573  1
  Te  Te137  1  0.17081707  0.00610020  0.66635799  1
  Te  Te138  1  0.16318856  0.33558861  -0.00030482  1
  Te  Te139  1  0.16756566  0.33266440  0.33312160  1
  Te  Te140  1  0.17171317  0.33011491  0.66615453  1
  Te  Te141  1  0.16646748  0.66533325  0.00018382  1
  Te  Te142  1  0.16440371  0.66617658  0.33847442  1
  Te  Te143  1  0.16177608  0.66640881  0.65944825  1
  Te  Te144  1  0.50023115  -0.00314641  0.00400894  1
  Te  Te145  1  0.49878898  0.00060484  0.32827442  1
  Te  Te146  1  0.49955815  0.00237829  0.66657725  1
  Te  Te147  1  0.49939814  0.33303571  0.00647958  1
  Te  Te148  1  0.49662882  0.33291508  0.33310948  1
  Te  Te149  1  0.49509493  0.33395324  0.66478494  1
  Te  Te150  1  0.50068771  0.67184778  -0.00002678  1
  Te  Te151  1  0.50300838  0.66628196  0.33476437  1
  Te  Te152  1  0.50054260  0.66370605  0.66576195  1
  Te  Te153  1  0.83369134  -0.00349324  0.00241098  1
  Te  Te154  1  0.83323936  -0.00076262  0.33283829  1
  Te  Te155  1  0.83078270  -0.00585473  0.66355830  1
  Te  Te156  1  0.83849883  0.33655280  0.00552123  1
  Te  Te157  1  0.83882752  0.33316738  0.32620281  1
  Te  Te158  1  0.83605574  0.33382798  0.66716069  1
  Te  Te159  1  0.83286816  0.66779790  -0.00346157  1
  Te  Te160  1  0.83291593  0.66743340  0.33856981  1
  Te  Te161  1  0.83525474  0.67029122  0.66550362  1
  Te  Te162  1  0.00033163  0.16249490  -0.00202229  1
  Te  Te163  1  0.00470434  0.16338512  0.33746578  1
  Te  Te164  1  0.00330738  0.16668749  0.66027184  1
  Te  Te165  1  -0.00003783  0.49880531  0.00445770  1
  Te  Te166  1  0.00290360  0.50037872  0.32910449  1
  Te  Te167  1  -0.00131525  0.50650007  0.66770381  1
  Te  Te168  1  -0.00132228  0.83495519  -0.00255531  1
  Te  Te169  1  0.00031580  0.83629870  0.33148757  1
  Te  Te170  1  -0.00298985  0.82979060  0.67217638  1
  Te  Te171  1  0.33279665  0.15735539  0.00282171  1
  Te  Te172  1  0.32964603  0.16603570  0.33258219  1
  Te  Te173  1  0.33447022  0.16549178  0.66604915  1
  Te  Te174  1  0.32951808  0.49948647  -0.00600921  1
  Te  Te175  1  0.32598553  0.49566384  0.33282790  1
  Te  Te176  1  0.33890804  0.49726163  0.67194803  1
  Te  Te177  1  0.33349376  0.83764822  -0.00267702  1
  Te  Te178  1  0.33284822  0.83910350  0.33676688  1
  Te  Te179  1  0.33339067  0.83797052  0.66927079  1
  Te  Te180  1  0.66679419  0.15941362  -0.00417485  1
  Te  Te181  1  0.66602519  0.16155862  0.33937203  1
  Te  Te182  1  0.66468583  0.16292584  0.66424979  1
  Te  Te183  1  0.66947168  0.49916334  0.00112385  1
  Te  Te184  1  0.66695777  0.50133283  0.33258173  1
  Te  Te185  1  0.66151106  0.49914102  0.66629463  1
  Te  Te186  1  0.66718890  0.83707759  0.00368619  1
  Te  Te187  1  0.66653905  0.83456184  0.32641986  1
  Te  Te188  1  0.67122741  0.84081241  0.66755946  1
  Te  Te189  1  -0.00295174  0.00077404  0.16748745  1
  Te  Te190  1  -0.00503144  0.00171045  0.49655751  1
  Te  Te191  1  -0.00064445  -0.00484030  0.83685557  1
  Te  Te192  1  0.00079056  0.33368909  0.16708423  1
  Te  Te193  1  0.00207858  0.33063395  0.49547699  1
  Te  Te194  1  0.00488928  0.33314270  0.83658690  1
  Te  Te195  1  -0.00034176  0.66126715  0.17523656  1
  Te  Te196  1  -0.00248139  0.66685602  0.49753553  1
  Te  Te197  1  -0.00240617  0.67100144  0.83067772  1
  Te  Te198  1  0.33331151  0.00392284  0.16857126  1
  Te  Te199  1  0.33447423  -0.00392046  0.49950816  1
  Te  Te200  1  0.33443052  -0.00359029  0.83320845  1
  Te  Te201  1  0.33517595  0.32944760  0.16869941  1
  Te  Te202  1  0.33456018  0.33266095  0.49969146  1
  Te  Te203  1  0.32954793  0.33506431  0.83208308  1
  Te  Te204  1  0.34250938  0.66788664  0.16791146  1
  Te  Te205  1  0.33653233  0.67003012  0.49959833  1
  Te  Te206  1  0.33583129  0.66706190  0.83258638  1
  Te  Te207  1  0.66681690  0.00123688  0.16808757  1
  Te  Te208  1  0.66904639  0.00012390  0.49746866  1
  Te  Te209  1  0.66631099  0.00308300  0.83029853  1
  Te  Te210  1  0.66351255  0.33583077  0.16738694  1
  Te  Te211  1  0.66420273  0.33498058  0.49866342  1
  Te  Te212  1  0.66698664  0.33688234  0.83384938  1
  Te  Te213  1  0.66371736  0.66381097  0.17143041  1
  Te  Te214  1  0.66563881  0.66591247  0.49594846  1
  Te  Te215  1  0.66586030  0.66219926  0.83220116  1
