# generated using pymatgen
data_AgSbTe2
_symmetry_space_group_name_H-M   'P 1'
_cell_length_a   18.32051772
_cell_length_b   18.32388146
_cell_length_c   18.31665177
_cell_angle_alpha   90.00024623
_cell_angle_beta   90.00096739
_cell_angle_gamma   90.00416106
_symmetry_Int_Tables_number   1
_chemical_formula_structural   AgSbTe2
_chemical_formula_sum   'Ag54 Sb54 Te108'
_cell_volume   6148.95483953
_cell_formula_units_Z   54
loop_
 _symmetry_equiv_pos_site_id
 _symmetry_equiv_pos_as_xyz
  1  'x, y, z'
loop_
 _atom_site_type_symbol
 _atom_site_label
 _atom_site_symmetry_multiplicity
 _atom_site_fract_x
 _atom_site_fract_y
 _atom_site_fract_z
 _atom_site_occupancy
  Ag  Ag0  1  0.66675961  -0.00125741  0.00566951  1
  Ag  Ag1  1  0.84146308  0.66309852  0.82592788  1
  Ag  Ag2  1  0.34677678  -0.00329630  0.65820480  1
  Ag  Ag3  1  0.33820923  0.50172364  0.49625754  1
  Ag  Ag4  1  0.16123988  0.50493513  0.66488974  1
  Ag  Ag5  1  0.82506863  0.66837232  0.50798429  1
  Ag  Ag6  1  0.82250802  -0.00474294  0.49881259  1
  Ag  Ag7  1  0.49955366  0.83656639  0.34052183  1
  Ag  Ag8  1  0.50434754  -0.00877017  0.49741607  1
  Ag  Ag9  1  0.00293942  -0.00381171  0.33212478  1
  Ag  Ag10  1  0.66504573  0.83288348  0.82310883  1
  Ag  Ag11  1  0.50413748  0.67143675  0.82467494  1
  Ag  Ag12  1  0.17006196  0.17321891  0.33231660  1
  Ag  Ag13  1  0.00048030  0.33238111  -0.00531991  1
  Ag  Ag14  1  0.82296188  0.00242102  0.17161564  1
  Ag  Ag15  1  0.33932950  0.83164503  0.16996589  1
  Ag  Ag16  1  0.83568220  0.33505950  0.83026129  1
  Ag  Ag17  1  0.33962511  -0.00345284  0.33653070  1
  Ag  Ag18  1  0.67280900  0.15503685  0.16884273  1
  Ag  Ag19  1  0.49684537  0.15815606  0.33241972  1
  Ag  Ag20  1  0.33081430  0.66873201  0.00352609  1
  Ag  Ag21  1  0.16273482  0.66600035  0.83008632  1
  Ag  Ag22  1  0.33764553  0.34101442  0.33471001  1
  Ag  Ag23  1  -0.00588526  0.16768489  0.16570639  1
  Ag  Ag24  1  0.83459169  0.16571930  -0.00482758  1
  Ag  Ag25  1  0.83170403  0.16966690  0.67247538  1
  Ag  Ag26  1  0.50556423  0.33463010  0.82959188  1
  Ag  Ag27  1  -0.00817223  0.66653985  0.66992437  1
  Ag  Ag28  1  0.16723316  0.66728130  0.16614998  1
  Ag  Ag29  1  0.50574498  0.67241893  0.50286187  1
  Ag  Ag30  1  0.50190046  0.83505332  0.66263707  1
  Ag  Ag31  1  0.15509930  0.34277443  0.82819415  1
  Ag  Ag32  1  0.00029316  0.50344856  0.83256743  1
  Ag  Ag33  1  0.17133430  0.49882366  0.33870434  1
  Ag  Ag34  1  0.66265248  0.50662114  0.49955177  1
  Ag  Ag35  1  0.66228048  0.82951203  0.50615271  1
  Ag  Ag36  1  -0.00253332  0.50050361  0.16644446  1
  Ag  Ag37  1  -0.00172735  0.82405841  0.83101911  1
  Ag  Ag38  1  0.17106409  0.82379173  0.67034666  1
  Ag  Ag39  1  0.67043901  0.50209414  0.17559519  1
  Ag  Ag40  1  0.33193716  0.66445243  0.33245733  1
  Ag  Ag41  1  0.50424177  -0.00761452  0.82369088  1
  Ag  Ag42  1  0.16694353  0.82979468  -0.00778197  1
  Ag  Ag43  1  0.16763242  0.33934225  0.50160205  1
  Ag  Ag44  1  0.00664628  0.66721079  0.33682692  1
  Ag  Ag45  1  0.66075146  0.83889965  0.16821253  1
  Ag  Ag46  1  -0.00422590  0.17398207  0.83638515  1
  Ag  Ag47  1  0.50563469  -0.00401761  0.17712583  1
  Ag  Ag48  1  0.83445389  0.50642428  0.66781406  1
  Ag  Ag49  1  0.49479204  0.50186676  0.33703537  1
  Ag  Ag50  1  0.66433930  -0.01208544  0.66608213  1
  Ag  Ag51  1  0.66808516  0.33622199  0.66516928  1
  Ag  Ag52  1  0.66020867  0.33753242  0.33755833  1
  Ag  Ag53  1  0.67158247  0.66943885  0.66416444  1
  Sb  Sb54  1  -0.00161055  0.16498788  0.49771312  1
  Sb  Sb55  1  0.83138690  0.16430125  0.33235282  1
  Sb  Sb56  1  0.16488968  0.33908047  0.16822545  1
  Sb  Sb57  1  0.16496769  0.50592966  -0.00144194  1
  Sb  Sb58  1  0.67027402  0.16291074  0.83422102  1
  Sb  Sb59  1  -0.00511530  0.83050118  0.50419587  1
  Sb  Sb60  1  0.66973448  0.50439698  0.82868275  1
  Sb  Sb61  1  0.33633418  0.83108735  0.83390202  1
  Sb  Sb62  1  0.16874972  -0.00403499  0.83115745  1
  Sb  Sb63  1  0.50644659  0.16076435  0.66303602  1
  Sb  Sb64  1  0.83269757  0.32943363  0.16309056  1
  Sb  Sb65  1  0.15949578  0.16373492  0.00394664  1
  Sb  Sb66  1  0.82864587  -0.00087792  0.82996201  1
  Sb  Sb67  1  -0.00532158  -0.00591442  0.66407506  1
  Sb  Sb68  1  0.49853518  0.67113623  0.17202413  1
  Sb  Sb69  1  0.16879327  0.66291211  0.50174729  1
  Sb  Sb70  1  0.50273659  0.33031236  0.16926170  1
  Sb  Sb71  1  0.00343478  0.66466736  -0.00472889  1
  Sb  Sb72  1  0.50605915  0.16433491  0.00325469  1
  Sb  Sb73  1  0.83456761  0.83702251  -0.00197733  1
  Sb  Sb74  1  -0.00072175  0.50195106  0.50182528  1
  Sb  Sb75  1  0.33450772  0.16839750  0.49749212  1
  Sb  Sb76  1  0.33949456  -0.00697038  0.00231154  1
  Sb  Sb77  1  0.33624330  0.33159392  0.66253661  1
  Sb  Sb78  1  0.49840726  0.83320217  -0.00132441  1
  Sb  Sb79  1  0.34022191  0.82892170  0.49646305  1
  Sb  Sb80  1  0.66262595  0.66358616  0.34057342  1
  Sb  Sb81  1  0.17196576  0.82980548  0.33580380  1
  Sb  Sb82  1  0.82722915  0.83362294  0.33409749  1
  Sb  Sb83  1  0.33464112  0.67059210  0.66374917  1
  Sb  Sb84  1  0.33062801  0.16621186  0.83240321  1
  Sb  Sb85  1  0.83321961  0.50191772  0.33892813  1
  Sb  Sb86  1  -0.00600846  0.00298306  0.00308301  1
  Sb  Sb87  1  0.16027148  0.16912097  0.66389206  1
  Sb  Sb88  1  0.00075024  0.33489283  0.33049916  1
  Sb  Sb89  1  0.83481266  0.66898568  0.16651220  1
  Sb  Sb90  1  0.83481381  0.49624002  -0.00576088  1
  Sb  Sb91  1  0.49919971  0.33538145  0.50013566  1
  Sb  Sb92  1  0.66641641  0.16511704  0.49649681  1
  Sb  Sb93  1  0.17023330  0.00073742  0.49867306  1
  Sb  Sb94  1  0.67040077  0.33015307  -0.00158181  1
  Sb  Sb95  1  0.32975574  0.50235406  0.82588094  1
  Sb  Sb96  1  0.50193156  0.50152413  0.00398563  1
  Sb  Sb97  1  0.33459513  0.16030480  0.17125913  1
  Sb  Sb98  1  0.83417203  0.33540982  0.50582248  1
  Sb  Sb99  1  0.00009578  0.83240569  0.16460743  1
  Sb  Sb100  1  0.33168435  0.50706592  0.17561677  1
  Sb  Sb101  1  0.66260635  0.67224492  -0.00503646  1
  Sb  Sb102  1  0.50153715  0.50549367  0.66225292  1
  Sb  Sb103  1  0.32850519  0.33972434  0.00291077  1
  Sb  Sb104  1  -0.00445097  0.34055651  0.67339711  1
  Sb  Sb105  1  0.82762330  0.83008551  0.66724150  1
  Sb  Sb106  1  0.66188672  0.00126116  0.33432165  1
  Sb  Sb107  1  0.16736697  -0.00512792  0.16925671  1
  Te  Te108  1  0.16207138  0.16666320  0.17177823  1
  Te  Te109  1  0.16613030  0.17298216  0.49398245  1
  Te  Te110  1  0.16024745  0.16831920  0.83406323  1
  Te  Te111  1  0.16305144  0.50618246  0.16894468  1
  Te  Te112  1  0.16564428  0.49884101  0.49948888  1
  Te  Te113  1  0.16370867  0.50173600  0.83167624  1
  Te  Te114  1  0.16754953  0.82724849  0.16783031  1
  Te  Te115  1  0.16740679  0.83256333  0.50890006  1
  Te  Te116  1  0.16806039  0.83094603  0.83064016  1
  Te  Te117  1  0.50381200  0.16199430  0.17089848  1
  Te  Te118  1  0.50035616  0.16083775  0.49314610  1
  Te  Te119  1  0.49979106  0.16821304  0.83378055  1
  Te  Te120  1  0.50424807  0.50000640  0.17332936  1
  Te  Te121  1  0.50202250  0.50087828  0.49699496  1
  Te  Te122  1  0.49958215  0.50091379  0.83311636  1
  Te  Te123  1  0.50049244  0.83530039  0.16515493  1
  Te  Te124  1  0.50214770  0.83232383  0.50017496  1
  Te  Te125  1  0.50241877  0.83240119  0.83236870  1
  Te  Te126  1  0.83391607  0.16364328  0.16595951  1
  Te  Te127  1  0.83352737  0.16246921  0.50556802  1
  Te  Te128  1  0.83544281  0.16604487  0.83360921  1
  Te  Te129  1  0.83560302  0.50010540  0.16640720  1
  Te  Te130  1  0.82869014  0.50330653  0.50665708  1
  Te  Te131  1  0.83608226  0.50073485  0.82843362  1
  Te  Te132  1  0.82901779  0.83887892  0.16618766  1
  Te  Te133  1  0.82542373  0.83333959  0.50009492  1
  Te  Te134  1  0.83239444  0.82919744  0.83411557  1
  Te  Te135  1  0.16840663  -0.00725666  0.00023722  1
  Te  Te136  1  0.16760727  0.00168307  0.33425519  1
  Te  Te137  1  0.16734421  -0.00078144  0.66527742  1
  Te  Te138  1  0.16298263  0.33273818  -0.00653967  1
  Te  Te139  1  0.16763894  0.33590090  0.33344913  1
  Te  Te140  1  0.16784421  0.33642231  0.66778032  1
  Te  Te141  1  0.16894031  0.67054820  -0.00090794  1
  Te  Te142  1  0.16721802  0.66429630  0.33486533  1
  Te  Te143  1  0.16877297  0.66506797  0.66805364  1
  Te  Te144  1  0.50668846  0.00062215  -0.00205241  1
  Te  Te145  1  0.49990676  -0.00162604  0.33537370  1
  Te  Te146  1  0.50346262  -0.00120018  0.66496107  1
  Te  Te147  1  0.49802415  0.33319840  -0.00877542  1
  Te  Te148  1  0.49944266  0.33722991  0.33445185  1
  Te  Te149  1  0.50389890  0.33157248  0.66939364  1
  Te  Te150  1  0.49387329  0.66567058  -0.00771715  1
  Te  Te151  1  0.49711009  0.66617642  0.33640461  1
  Te  Te152  1  0.50088239  0.67060193  0.66527974  1
  Te  Te153  1  0.82777031  0.00414586  0.00423179  1
  Te  Te154  1  0.83855189  -0.00022292  0.33492530  1
  Te  Te155  1  0.82819851  0.00175335  0.66150361  1
  Te  Te156  1  0.83755290  0.32826062  -0.00686790  1
  Te  Te157  1  0.82705741  0.33322287  0.33557936  1
  Te  Te158  1  0.82987929  0.33372477  0.67000428  1
  Te  Te159  1  0.83255217  0.66646910  -0.00731088  1
  Te  Te160  1  0.84289193  0.66721255  0.33539396  1
  Te  Te161  1  0.83232644  0.66662111  0.66771142  1
  Te  Te162  1  -0.00430423  0.16913233  0.00083459  1
  Te  Te163  1  0.00239634  0.16567601  0.32997746  1
  Te  Te164  1  -0.00609538  0.16338694  0.67060103  1
  Te  Te165  1  0.00009182  0.49500722  0.00076415  1
  Te  Te166  1  0.00314030  0.50303138  0.33059397  1
  Te  Te167  1  0.00067877  0.50559584  0.66919627  1
  Te  Te168  1  0.00538355  0.83473319  -0.00591546  1
  Te  Te169  1  0.00176109  0.83195326  0.33385924  1
  Te  Te170  1  0.00509841  0.82820658  0.67109208  1
  Te  Te171  1  0.33109774  0.16835039  0.00236639  1
  Te  Te172  1  0.33393771  0.16414324  0.33218867  1
  Te  Te173  1  0.33146317  0.15808430  0.66577226  1
  Te  Te174  1  0.33380664  0.50742937  0.00206200  1
  Te  Te175  1  0.33287677  0.50092310  0.33582001  1
  Te  Te176  1  0.32826129  0.49852836  0.65801344  1
  Te  Te177  1  0.32802835  0.82895252  0.00552179  1
  Te  Te178  1  0.33697561  0.83346728  0.33104031  1
  Te  Te179  1  0.33602042  0.83777938  0.66612152  1
  Te  Te180  1  0.67253038  0.16285753  0.00608161  1
  Te  Te181  1  0.66395025  0.17424676  0.32934008  1
  Te  Te182  1  0.67177936  0.17328320  0.66669843  1
  Te  Te183  1  0.66742173  0.49968953  0.01002958  1
  Te  Te184  1  0.66665467  0.49858964  0.33571954  1
  Te  Te185  1  0.66750606  0.50187422  0.66438439  1
  Te  Te186  1  0.66697456  0.83905926  0.00416449  1
  Te  Te187  1  0.66026515  0.83093829  0.33124788  1
  Te  Te188  1  0.66365466  0.83077093  0.66634428  1
  Te  Te189  1  -0.00062270  0.00175083  0.17071299  1
  Te  Te190  1  -0.00207348  -0.00180543  0.49339484  1
  Te  Te191  1  -0.00074157  -0.00134783  0.83377242  1
  Te  Te192  1  -0.00056743  0.33388910  0.16186945  1
  Te  Te193  1  0.00620455  0.33302097  0.50058169  1
  Te  Te194  1  -0.00186024  0.33413054  0.83312098  1
  Te  Te195  1  0.00205030  0.66453320  0.16749295  1
  Te  Te196  1  -0.00633223  0.66682122  0.50107788  1
  Te  Te197  1  0.00115754  0.66523271  0.83255637  1
  Te  Te198  1  0.33792326  -0.00631880  0.17092232  1
  Te  Te199  1  0.33749557  -0.00003516  0.49811206  1
  Te  Te200  1  0.34077393  0.00017640  0.83251029  1
  Te  Te201  1  0.33378412  0.33313195  0.17211916  1
  Te  Te202  1  0.33005416  0.33757031  0.49511052  1
  Te  Te203  1  0.33530346  0.33359946  0.83331917  1
  Te  Te204  1  0.33161044  0.67077769  0.16991998  1
  Te  Te205  1  0.33871422  0.66210854  0.49500076  1
  Te  Te206  1  0.32893919  0.66600645  0.83516787  1
  Te  Te207  1  0.66606208  -0.00077680  0.17092494  1
  Te  Te208  1  0.66523983  -0.00120223  0.50101428  1
  Te  Te209  1  0.66438193  -0.00354811  0.82736828  1
  Te  Te210  1  0.66726412  0.33877156  0.16756496  1
  Te  Te211  1  0.66726416  0.33610636  0.50168785  1
  Te  Te212  1  0.66866640  0.33407718  0.83129012  1
  Te  Te213  1  0.66797234  0.66632942  0.16456753  1
  Te  Te214  1  0.66662564  0.66721938  0.50127483  1
  Te  Te215  1  0.66368250  0.67011436  0.83035179  1
