# generated using pymatgen
data_AgSbTe2
_symmetry_space_group_name_H-M   'P 1'
_cell_length_a   18.32751791
_cell_length_b   18.33929110
_cell_length_c   18.33891092
_cell_angle_alpha   90.00313698
_cell_angle_beta   90.00027025
_cell_angle_gamma   90.00180870
_symmetry_Int_Tables_number   1
_chemical_formula_structural   AgSbTe2
_chemical_formula_sum   'Ag54 Sb54 Te108'
_cell_volume   6163.95893624
_cell_formula_units_Z   54
loop_
 _symmetry_equiv_pos_site_id
 _symmetry_equiv_pos_as_xyz
  1  'x, y, z'
loop_
 _atom_site_type_symbol
 _atom_site_label
 _atom_site_symmetry_multiplicity
 _atom_site_fract_x
 _atom_site_fract_y
 _atom_site_fract_z
 _atom_site_occupancy
  Ag  Ag0  1  0.17801903  -0.00953317  0.16779262  1
  Ag  Ag1  1  -0.00220016  0.50204878  0.16692647  1
  Ag  Ag2  1  0.33226354  0.67804639  0.33159667  1
  Ag  Ag3  1  0.66732823  -0.00437607  0.00070959  1
  Ag  Ag4  1  0.66504305  0.49954750  0.83708515  1
  Ag  Ag5  1  0.83419466  -0.00574556  0.16116235  1
  Ag  Ag6  1  0.33206467  0.83175140  0.48856747  1
  Ag  Ag7  1  0.33791797  -0.00049038  0.66160045  1
  Ag  Ag8  1  0.17200062  0.33609174  0.50021041  1
  Ag  Ag9  1  0.49720838  0.15823888  -0.00194555  1
  Ag  Ag10  1  0.66141472  0.50213746  0.49186270  1
  Ag  Ag11  1  0.17149198  0.33637274  0.83364163  1
  Ag  Ag12  1  0.49688185  0.33242670  0.16731179  1
  Ag  Ag13  1  0.33225209  0.67558486  0.00518659  1
  Ag  Ag14  1  0.33485661  0.51142095  0.49834699  1
  Ag  Ag15  1  0.66381818  0.16416649  0.83748113  1
  Ag  Ag16  1  0.82949908  -0.00088893  0.84545469  1
  Ag  Ag17  1  0.66185263  0.67541068  -0.00164296  1
  Ag  Ag18  1  0.66522966  0.33250713  0.33251492  1
  Ag  Ag19  1  0.82322779  0.15679016  0.00204909  1
  Ag  Ag20  1  0.17689256  0.67258470  0.49774116  1
  Ag  Ag21  1  0.82835816  0.33481503  0.49412572  1
  Ag  Ag22  1  0.17786459  -0.01179245  0.49393630  1
  Ag  Ag23  1  0.33107186  0.49754438  0.83667445  1
  Ag  Ag24  1  0.49892676  0.16092909  0.67411159  1
  Ag  Ag25  1  0.33701788  0.33264227  0.32963617  1
  Ag  Ag26  1  0.48875695  0.83630389  0.32975935  1
  Ag  Ag27  1  0.66173880  -0.00351656  0.66777700  1
  Ag  Ag28  1  0.17427247  0.67131762  0.16260478  1
  Ag  Ag29  1  0.17070923  0.83373050  0.66677852  1
  Ag  Ag30  1  0.17089232  0.66891547  0.84401413  1
  Ag  Ag31  1  0.17411763  0.51157451  0.00026035  1
  Ag  Ag32  1  0.83331444  0.67496271  0.16639585  1
  Ag  Ag33  1  0.33397865  0.32735917  0.00375167  1
  Ag  Ag34  1  0.49274114  0.83834958  0.00608639  1
  Ag  Ag35  1  0.33804288  -0.00562891  0.00475907  1
  Ag  Ag36  1  0.00179896  0.83735005  0.83535872  1
  Ag  Ag37  1  0.66472202  -0.00069927  0.33067537  1
  Ag  Ag38  1  0.66595730  0.67270367  0.67107368  1
  Ag  Ag39  1  0.32782216  0.83706219  0.17371517  1
  Ag  Ag40  1  0.17706247  0.83365399  0.32940729  1
  Ag  Ag41  1  0.33726405  -0.00976151  0.33107548  1
  Ag  Ag42  1  0.83015698  0.83822291  0.00355961  1
  Ag  Ag43  1  0.33377882  0.15288422  0.16172594  1
  Ag  Ag44  1  0.00276730  0.16017409  0.83623311  1
  Ag  Ag45  1  0.66951222  0.50207151  0.16855655  1
  Ag  Ag46  1  0.82872791  0.16110661  0.32582438  1
  Ag  Ag47  1  0.49549412  -0.00508845  0.49722058  1
  Ag  Ag48  1  0.33529122  0.16591395  0.84229327  1
  Ag  Ag49  1  0.49430868  0.67387140  0.49850361  1
  Ag  Ag50  1  0.83271443  0.83484290  0.66784119  1
  Ag  Ag51  1  0.83033762  0.83496066  0.32484033  1
  Ag  Ag52  1  0.17781463  0.83030362  0.00649651  1
  Ag  Ag53  1  0.82714682  0.50012093  0.32970583  1
  Sb  Sb54  1  0.16702684  0.16137894  0.33312812  1
  Sb  Sb55  1  0.00366279  0.83072496  0.16226011  1
  Sb  Sb56  1  0.33358570  0.32711431  0.66654593  1
  Sb  Sb57  1  0.49812512  0.83774505  0.66540890  1
  Sb  Sb58  1  0.49788761  0.33217978  0.49451921  1
  Sb  Sb59  1  0.00026952  -0.00229844  0.66835922  1
  Sb  Sb60  1  0.00110649  -0.00207061  0.33229939  1
  Sb  Sb61  1  0.66166145  0.16566560  0.16336263  1
  Sb  Sb62  1  0.17398959  0.16137681  -0.00115748  1
  Sb  Sb63  1  0.33537283  0.67320005  0.66461764  1
  Sb  Sb64  1  0.32849602  0.83528713  0.83715946  1
  Sb  Sb65  1  0.83289369  0.50260229  0.00582284  1
  Sb  Sb66  1  0.66271189  0.66864684  0.33085850  1
  Sb  Sb67  1  0.49538535  0.50178983  0.00083700  1
  Sb  Sb68  1  -0.00092755  0.16607905  0.50299469  1
  Sb  Sb69  1  -0.00150601  0.67029347  0.66774152  1
  Sb  Sb70  1  0.49913244  0.49833637  0.66477479  1
  Sb  Sb71  1  -0.00161547  -0.00100320  -0.00095699  1
  Sb  Sb72  1  0.67047408  0.83625909  0.83515573  1
  Sb  Sb73  1  0.50098440  0.50461299  0.33294737  1
  Sb  Sb74  1  0.17478979  0.33556358  0.16597287  1
  Sb  Sb75  1  0.00529419  0.66929415  0.00169484  1
  Sb  Sb76  1  0.82969663  0.00012022  0.49548899  1
  Sb  Sb77  1  0.00141879  0.33204564  0.66748610  1
  Sb  Sb78  1  0.16928097  0.50643291  0.66906676  1
  Sb  Sb79  1  0.50292009  0.00107677  0.83420309  1
  Sb  Sb80  1  0.00866538  0.83360716  0.50111421  1
  Sb  Sb81  1  0.00602793  0.66834520  0.33039867  1
  Sb  Sb82  1  0.83478768  0.32706496  0.83153056  1
  Sb  Sb83  1  0.66089964  0.33212234  0.00420807  1
  Sb  Sb84  1  0.50094658  0.16114145  0.33051374  1
  Sb  Sb85  1  0.82817959  0.50603567  0.66275404  1
  Sb  Sb86  1  0.66522502  0.16745879  0.50070906  1
  Sb  Sb87  1  0.49426490  0.33054992  0.83865514  1
  Sb  Sb88  1  0.49816184  -0.00008925  0.16736387  1
  Sb  Sb89  1  0.00241920  0.50076365  0.49425107  1
  Sb  Sb90  1  0.49690545  0.66721866  0.83147787  1
  Sb  Sb91  1  0.33399341  0.50419688  0.16609811  1
  Sb  Sb92  1  0.00170950  0.16849883  0.16141648  1
  Sb  Sb93  1  0.00730981  0.33182758  -0.00076579  1
  Sb  Sb94  1  0.83424483  0.67279839  0.83960294  1
  Sb  Sb95  1  0.83092943  0.66589549  0.49440546  1
  Sb  Sb96  1  0.66567669  0.83238684  0.16521081  1
  Sb  Sb97  1  0.82694836  0.15915231  0.66932542  1
  Sb  Sb98  1  0.66642696  0.33231651  0.66312270  1
  Sb  Sb99  1  0.82761603  0.33228056  0.17076488  1
  Sb  Sb100  1  0.16885552  0.50485655  0.33036388  1
  Sb  Sb101  1  0.16692762  -0.00405344  0.83631917  1
  Sb  Sb102  1  0.33369493  0.16090968  0.49667503  1
  Sb  Sb103  1  0.17280706  0.15950663  0.66890045  1
  Sb  Sb104  1  -0.00062370  0.33421157  0.33243638  1
  Sb  Sb105  1  0.66115578  0.83039085  0.49847006  1
  Sb  Sb106  1  0.49836891  0.66608174  0.16847964  1
  Sb  Sb107  1  0.00370788  0.50192418  0.84034813  1
  Te  Te108  1  0.17048863  0.16261269  0.16691394  1
  Te  Te109  1  0.16524152  0.17447081  0.50123697  1
  Te  Te110  1  0.16830837  0.16881993  0.83312807  1
  Te  Te111  1  0.16570907  0.50389561  0.16281326  1
  Te  Te112  1  0.17012263  0.49902975  0.50006161  1
  Te  Te113  1  0.16792582  0.50124323  0.83617022  1
  Te  Te114  1  0.16541145  0.83205923  0.16714299  1
  Te  Te115  1  0.16962167  0.83241639  0.49640748  1
  Te  Te116  1  0.16305233  0.83140886  0.83437041  1
  Te  Te117  1  0.49481014  0.17049327  0.16285952  1
  Te  Te118  1  0.50035324  0.16016866  0.50267874  1
  Te  Te119  1  0.49880741  0.16692592  0.83688053  1
  Te  Te120  1  0.50778360  0.49584780  0.16723089  1
  Te  Te121  1  0.49840031  0.50205406  0.49973326  1
  Te  Te122  1  0.50060349  0.49845218  0.83248856  1
  Te  Te123  1  0.49360258  0.83225741  0.16762483  1
  Te  Te124  1  0.49501065  0.83405093  0.49875877  1
  Te  Te125  1  0.50028285  0.83237726  0.84270412  1
  Te  Te126  1  0.83374300  0.16437922  0.16532580  1
  Te  Te127  1  0.83375430  0.17225966  0.49704282  1
  Te  Te128  1  0.82815728  0.16306495  0.83546835  1
  Te  Te129  1  0.82951688  0.49830626  0.16965535  1
  Te  Te130  1  0.83157894  0.49799351  0.49497724  1
  Te  Te131  1  0.83144952  0.49891809  0.83316847  1
  Te  Te132  1  0.83540279  0.83386246  0.16479085  1
  Te  Te133  1  0.83594736  0.83279450  0.50335386  1
  Te  Te134  1  0.83662061  0.83699744  0.83406259  1
  Te  Te135  1  0.17027277  -0.00589714  0.00422732  1
  Te  Te136  1  0.16898029  -0.00353256  0.33124125  1
  Te  Te137  1  0.17084118  -0.00604587  0.66552028  1
  Te  Te138  1  0.17429979  0.33198244  -0.00254625  1
  Te  Te139  1  0.16932376  0.33335951  0.33547602  1
  Te  Te140  1  0.16703470  0.33380424  0.66680299  1
  Te  Te141  1  0.16926196  0.66986408  0.00210816  1
  Te  Te142  1  0.17214919  0.67039641  0.33123281  1
  Te  Te143  1  0.16635699  0.67366959  0.66233846  1
  Te  Te144  1  0.50170427  -0.00058164  0.00121991  1
  Te  Te145  1  0.50096564  -0.00331487  0.33434613  1
  Te  Te146  1  0.50052360  0.00031894  0.66497817  1
  Te  Te147  1  0.49329233  0.33032325  0.00517452  1
  Te  Te148  1  0.50151041  0.33154840  0.33069024  1
  Te  Te149  1  0.50126970  0.32308952  0.66543502  1
  Te  Te150  1  0.49980105  0.67074819  -0.00007742  1
  Te  Te151  1  0.49468860  0.67282735  0.33680342  1
  Te  Te152  1  0.50640185  0.66783244  0.66133857  1
  Te  Te153  1  0.83295637  0.00033466  0.00109373  1
  Te  Te154  1  0.83109455  0.00007905  0.33332974  1
  Te  Te155  1  0.82826175  -0.00517271  0.66304217  1
  Te  Te156  1  0.83357766  0.32992508  -0.00069533  1
  Te  Te157  1  0.83139330  0.33524671  0.33541340  1
  Te  Te158  1  0.83346024  0.33259101  0.65781758  1
  Te  Te159  1  0.82771149  0.66802797  0.00484859  1
  Te  Te160  1  0.83248427  0.66767808  0.32902641  1
  Te  Te161  1  0.82746986  0.67372487  0.66669253  1
  Te  Te162  1  -0.00602748  0.16712102  -0.00504912  1
  Te  Te163  1  -0.00986199  0.16688351  0.33221132  1
  Te  Te164  1  -0.00121688  0.16518910  0.67669899  1
  Te  Te165  1  0.00580359  0.49925556  0.00543944  1
  Te  Te166  1  -0.00824871  0.50116713  0.32728591  1
  Te  Te167  1  -0.00211072  0.50081160  0.66775454  1
  Te  Te168  1  -0.00809339  0.83276150  -0.00470756  1
  Te  Te169  1  -0.01097554  0.83295050  0.33329311  1
  Te  Te170  1  -0.00162500  0.83353189  0.67214728  1
  Te  Te171  1  0.33460983  0.16610286  0.00135442  1
  Te  Te172  1  0.33298602  0.17201304  0.32703245  1
  Te  Te173  1  0.33794946  0.15946227  0.67123042  1
  Te  Te174  1  0.33183571  0.50242906  -0.00151855  1
  Te  Te175  1  0.33407089  0.49419942  0.33702545  1
  Te  Te176  1  0.33381754  0.49915969  0.66778610  1
  Te  Te177  1  0.33339661  0.83380934  -0.00153707  1
  Te  Te178  1  0.33275349  0.83388534  0.33364903  1
  Te  Te179  1  0.33095705  0.84033067  0.66840916  1
  Te  Te180  1  0.66374273  0.16572254  -0.00203193  1
  Te  Te181  1  0.66887309  0.16605677  0.33252551  1
  Te  Te182  1  0.66201447  0.16150896  0.67122947  1
  Te  Te183  1  0.66496897  0.49993153  -0.00168195  1
  Te  Te184  1  0.66698298  0.50163223  0.33319990  1
  Te  Te185  1  0.66557146  0.50324753  0.67056961  1
  Te  Te186  1  0.66953734  0.83511165  0.00081128  1
  Te  Te187  1  0.67160251  0.83728630  0.33199867  1
  Te  Te188  1  0.66681427  0.83548518  0.66655874  1
  Te  Te189  1  -0.00458139  0.00207604  0.16666754  1
  Te  Te190  1  0.01366513  0.00153898  0.50063669  1
  Te  Te191  1  -0.00635213  0.00025970  0.83288321  1
  Te  Te192  1  0.00169797  0.33953386  0.16602223  1
  Te  Te193  1  0.00498980  0.33376171  0.50025504  1
  Te  Te194  1  0.00717880  0.33047088  0.83307669  1
  Te  Te195  1  -0.00551744  0.66195159  0.16641364  1
  Te  Te196  1  0.01067133  0.66579523  0.49992318  1
  Te  Te197  1  0.00717717  0.67014051  0.83387600  1
  Te  Te198  1  0.33480382  -0.00296038  0.16719240  1
  Te  Te199  1  0.33425258  0.00026267  0.49576649  1
  Te  Te200  1  0.33231028  0.00462447  0.83836513  1
  Te  Te201  1  0.33646173  0.33792879  0.16660024  1
  Te  Te202  1  0.33282350  0.33200200  0.49839137  1
  Te  Te203  1  0.33017014  0.33475637  0.83364388  1
  Te  Te204  1  0.33269136  0.66939727  0.16637620  1
  Te  Te205  1  0.33404711  0.66811294  0.50280097  1
  Te  Te206  1  0.33013019  0.66217869  0.83316286  1
  Te  Te207  1  0.67289961  0.00003863  0.16692780  1
  Te  Te208  1  0.66209464  -0.00090117  0.49775849  1
  Te  Te209  1  0.66946649  0.00236245  0.83566124  1
  Te  Te210  1  0.66138628  0.33590525  0.17200205  1
  Te  Te211  1  0.66679801  0.33853061  0.49502758  1
  Te  Te212  1  0.66681462  0.33449326  0.83218370  1
  Te  Te213  1  0.66829361  0.66390754  0.16274845  1
  Te  Te214  1  0.66528397  0.66192004  0.50113388  1
  Te  Te215  1  0.66733249  0.66373331  0.83571788  1
