# generated using pymatgen
data_AgSbTe2
_symmetry_space_group_name_H-M   'P 1'
_cell_length_a   18.35187277
_cell_length_b   18.34191016
_cell_length_c   18.34433659
_cell_angle_alpha   90.00051136
_cell_angle_beta   90.00069713
_cell_angle_gamma   90.00139407
_symmetry_Int_Tables_number   1
_chemical_formula_structural   AgSbTe2
_chemical_formula_sum   'Ag54 Sb54 Te108'
_cell_volume   6174.85781614
_cell_formula_units_Z   54
loop_
 _symmetry_equiv_pos_site_id
 _symmetry_equiv_pos_as_xyz
  1  'x, y, z'
loop_
 _atom_site_type_symbol
 _atom_site_label
 _atom_site_symmetry_multiplicity
 _atom_site_fract_x
 _atom_site_fract_y
 _atom_site_fract_z
 _atom_site_occupancy
  Ag  Ag0  1  0.17337234  0.66830357  0.50268851  1
  Ag  Ag1  1  0.50099572  0.34481723  0.51279907  1
  Ag  Ag2  1  0.82367902  0.50338100  0.33371892  1
  Ag  Ag3  1  0.49719901  0.18209185  -0.00591480  1
  Ag  Ag4  1  0.34148384  0.66126957  -0.00763416  1
  Ag  Ag5  1  -0.00251621  -0.00005265  -0.00403046  1
  Ag  Ag6  1  0.83083896  0.82215327  -0.00716445  1
  Ag  Ag7  1  0.16193652  0.16797029  0.33098041  1
  Ag  Ag8  1  0.17623487  0.49807462  -0.00655676  1
  Ag  Ag9  1  -0.00894259  0.49915940  0.83656303  1
  Ag  Ag10  1  0.34433680  0.50075288  0.83549796  1
  Ag  Ag11  1  0.50050835  0.82661944  0.66753320  1
  Ag  Ag12  1  0.65669664  0.34645570  -0.00609518  1
  Ag  Ag13  1  -0.00587898  0.00453733  0.33931307  1
  Ag  Ag14  1  0.66811029  0.66362789  0.66944806  1
  Ag  Ag15  1  0.50702098  0.65805370  0.83552527  1
  Ag  Ag16  1  0.49815697  0.34017849  0.83266387  1
  Ag  Ag17  1  -0.00159952  0.83068176  0.50783184  1
  Ag  Ag18  1  0.66372854  0.66323981  -0.00877916  1
  Ag  Ag19  1  0.34586063  0.33167113  0.67607163  1
  Ag  Ag20  1  0.67068856  -0.00525207  0.33323676  1
  Ag  Ag21  1  0.33541959  0.82317841  0.83103802  1
  Ag  Ag22  1  0.66228277  0.34518276  0.67692855  1
  Ag  Ag23  1  0.82783643  0.66898054  0.51155447  1
  Ag  Ag24  1  0.82683558  0.66329114  0.83348609  1
  Ag  Ag25  1  0.16667978  0.16713270  0.67198845  1
  Ag  Ag26  1  0.50527768  0.50355629  0.33139971  1
  Ag  Ag27  1  -0.00047559  0.32940269  0.33393806  1
  Ag  Ag28  1  0.50318796  0.49701870  -0.00445223  1
  Ag  Ag29  1  0.83671353  0.82736956  0.66862157  1
  Ag  Ag30  1  0.34423432  0.34292872  -0.00808132  1
  Ag  Ag31  1  0.50702104  0.66268638  0.50400034  1
  Ag  Ag32  1  0.34694702  0.66560319  0.33660375  1
  Ag  Ag33  1  0.50398636  0.66189159  0.15622480  1
  Ag  Ag34  1  -0.00938750  0.67176774  0.67302814  1
  Ag  Ag35  1  0.33862800  0.00030285  -0.00318495  1
  Ag  Ag36  1  0.16354176  0.83060355  0.66591534  1
  Ag  Ag37  1  0.17123096  0.33552778  0.83452570  1
  Ag  Ag38  1  0.83562188  -0.01127197  0.50044244  1
  Ag  Ag39  1  0.50143262  0.34116783  0.14751396  1
  Ag  Ag40  1  0.66698278  -0.00442163  -0.00007905  1
  Ag  Ag41  1  -0.00022213  -0.00976713  0.66799910  1
  Ag  Ag42  1  0.66353503  0.66325632  0.33710872  1
  Ag  Ag43  1  0.33126847  0.82800502  0.51194477  1
  Ag  Ag44  1  0.82649954  0.50433613  -0.00851297  1
  Ag  Ag45  1  0.00245803  0.16694825  0.15487678  1
  Ag  Ag46  1  0.49749434  0.17888941  0.67466807  1
  Ag  Ag47  1  0.66364332  0.50468123  0.50654218  1
  Ag  Ag48  1  -0.01210356  0.66530370  -0.00719295  1
  Ag  Ag49  1  0.82728354  0.34576903  0.83423556  1
  Ag  Ag50  1  0.66506074  0.50056213  0.83430873  1
  Ag  Ag51  1  0.66680513  0.82961306  0.16216093  1
  Ag  Ag52  1  0.00274845  0.17339861  0.83591573  1
  Ag  Ag53  1  0.16818832  0.17144635  -0.00672612  1
  Sb  Sb54  1  0.16706764  0.49812429  0.32960857  1
  Sb  Sb55  1  0.66754569  0.33991316  0.33153577  1
  Sb  Sb56  1  0.33294093  0.33974563  0.33284670  1
  Sb  Sb57  1  0.16674242  0.50191381  0.67344297  1
  Sb  Sb58  1  0.32969595  0.17329335  0.83520689  1
  Sb  Sb59  1  0.66384412  0.50592016  0.15992389  1
  Sb  Sb60  1  0.66854236  0.82496421  0.49961754  1
  Sb  Sb61  1  0.33394684  -0.00556647  0.33162889  1
  Sb  Sb62  1  0.50027274  0.00090080  0.83445674  1
  Sb  Sb63  1  0.49687971  0.17469193  0.33081481  1
  Sb  Sb64  1  0.66848888  0.17613246  0.83462004  1
  Sb  Sb65  1  0.16461371  0.83539617  0.34159293  1
  Sb  Sb66  1  0.16930948  0.33184955  0.15841103  1
  Sb  Sb67  1  0.16701197  0.66090324  0.83041857  1
  Sb  Sb68  1  0.66963863  -0.00392960  0.66801779  1
  Sb  Sb69  1  0.00197173  0.16134313  0.50414383  1
  Sb  Sb70  1  0.83319145  -0.00094735  0.16869886  1
  Sb  Sb71  1  -0.00614141  0.50720396  0.50474661  1
  Sb  Sb72  1  -0.00526429  0.83638338  0.16574453  1
  Sb  Sb73  1  0.82914328  0.33555897  0.15988787  1
  Sb  Sb74  1  0.16988906  0.33813250  0.50597843  1
  Sb  Sb75  1  -0.00191790  0.49707695  0.15946125  1
  Sb  Sb76  1  0.16166451  -0.00501119  0.50232700  1
  Sb  Sb77  1  0.33314353  0.16299480  0.50184264  1
  Sb  Sb78  1  0.50379068  0.82624682  -0.00548949  1
  Sb  Sb79  1  0.66864852  0.16359526  0.16322144  1
  Sb  Sb80  1  0.83424093  0.16227691  0.66951438  1
  Sb  Sb81  1  0.17196197  0.66630869  0.16592584  1
  Sb  Sb82  1  0.33820322  0.50045292  0.15647378  1
  Sb  Sb83  1  0.34089155  0.82855878  0.16168613  1
  Sb  Sb84  1  0.50562027  -0.00471580  0.50104677  1
  Sb  Sb85  1  -0.00290565  0.33438873  0.66861427  1
  Sb  Sb86  1  0.50227420  -0.00157789  0.16339335  1
  Sb  Sb87  1  0.82913593  0.34002345  0.50495087  1
  Sb  Sb88  1  0.50221714  0.50049037  0.67262932  1
  Sb  Sb89  1  -0.00469648  0.66682102  0.33486616  1
  Sb  Sb90  1  0.34141005  0.50547097  0.50657948  1
  Sb  Sb91  1  0.83805516  0.16923831  0.33419640  1
  Sb  Sb92  1  0.83459438  0.16757227  -0.00319909  1
  Sb  Sb93  1  0.00335554  0.82960024  0.82845342  1
  Sb  Sb94  1  0.66364593  0.82480218  0.83572821  1
  Sb  Sb95  1  0.16422364  0.00184682  0.16505003  1
  Sb  Sb96  1  -0.00058122  0.33473957  -0.00217566  1
  Sb  Sb97  1  0.83109546  0.82922335  0.33633600  1
  Sb  Sb98  1  0.82626162  0.66674749  0.16062135  1
  Sb  Sb99  1  0.32952443  -0.00026574  0.67242002  1
  Sb  Sb100  1  0.83079106  0.50819662  0.67271551  1
  Sb  Sb101  1  0.83502497  -0.00564658  0.83236221  1
  Sb  Sb102  1  0.33759765  0.66555961  0.66940845  1
  Sb  Sb103  1  0.33119921  0.16724843  0.16067067  1
  Sb  Sb104  1  0.50167207  0.82256411  0.33880282  1
  Sb  Sb105  1  0.16454655  0.83181396  -0.00755400  1
  Sb  Sb106  1  0.16562892  0.00566249  0.83384112  1
  Sb  Sb107  1  0.66527864  0.17159898  0.50027050  1
  Te  Te108  1  0.16148310  0.16786414  0.16611284  1
  Te  Te109  1  0.16781817  0.16811068  0.50657065  1
  Te  Te110  1  0.16427264  0.17108222  0.83375489  1
  Te  Te111  1  0.16671273  0.49903406  0.15567335  1
  Te  Te112  1  0.16628070  0.50665774  0.49949618  1
  Te  Te113  1  0.16502008  0.49526105  0.83678744  1
  Te  Te114  1  0.16678862  0.83341622  0.16768279  1
  Te  Te115  1  0.16533106  0.82880551  0.50598081  1
  Te  Te116  1  0.17267764  0.83324937  0.82615167  1
  Te  Te117  1  0.50025691  0.17209260  0.16128149  1
  Te  Te118  1  0.49933581  0.16724186  0.50227656  1
  Te  Te119  1  0.50078802  0.16861155  0.83447648  1
  Te  Te120  1  0.49993963  0.50106233  0.16935861  1
  Te  Te121  1  0.50287611  0.50294915  0.49715728  1
  Te  Te122  1  0.50297879  0.50056332  0.83588817  1
  Te  Te123  1  0.50608705  0.82732616  0.16778664  1
  Te  Te124  1  0.49699451  0.82864405  0.50558851  1
  Te  Te125  1  0.49630315  0.83168716  0.82776238  1
  Te  Te126  1  0.84336021  0.16820440  0.16620861  1
  Te  Te127  1  0.83314514  0.16345395  0.50151304  1
  Te  Te128  1  0.84112264  0.17088018  0.83244914  1
  Te  Te129  1  0.83324941  0.49943353  0.17346983  1
  Te  Te130  1  0.82789266  0.50467543  0.49505494  1
  Te  Te131  1  0.83099785  0.50226995  0.83469517  1
  Te  Te132  1  0.82783634  0.83356713  0.15738880  1
  Te  Te133  1  0.83443292  0.82962544  0.50217254  1
  Te  Te134  1  0.83437131  0.82760402  0.83183571  1
  Te  Te135  1  0.16005262  0.00298459  0.00003839  1
  Te  Te136  1  0.16462481  0.00661289  0.33431526  1
  Te  Te137  1  0.16165565  0.00238618  0.66713087  1
  Te  Te138  1  0.16623218  0.33275236  -0.00440714  1
  Te  Te139  1  0.16436142  0.32926863  0.33424603  1
  Te  Te140  1  0.16480832  0.32946659  0.67023603  1
  Te  Te141  1  0.17320947  0.66362828  0.00041851  1
  Te  Te142  1  0.16517059  0.66638096  0.33829037  1
  Te  Te143  1  0.16638187  0.66926911  0.66316867  1
  Te  Te144  1  0.50071003  -0.00182919  0.00071136  1
  Te  Te145  1  0.50427799  0.00282656  0.33205235  1
  Te  Te146  1  0.49966620  -0.00003462  0.66608521  1
  Te  Te147  1  0.50045294  0.33713611  -0.00756362  1
  Te  Te148  1  0.49943659  0.33879088  0.34076651  1
  Te  Te149  1  0.50254590  0.33569047  0.66949375  1
  Te  Te150  1  0.50203060  0.66587635  -0.00258842  1
  Te  Te151  1  0.50334842  0.66342691  0.33934051  1
  Te  Te152  1  0.50179876  0.66749327  0.66893591  1
  Te  Te153  1  0.83417537  -0.00037015  -0.00021675  1
  Te  Te154  1  0.83332434  -0.00065151  0.33763100  1
  Te  Te155  1  0.83787837  -0.00590091  0.66381509  1
  Te  Te156  1  0.82923311  0.33759627  -0.00449233  1
  Te  Te157  1  0.83638512  0.33779321  0.33405902  1
  Te  Te158  1  0.82702067  0.33080693  0.67175267  1
  Te  Te159  1  0.83030175  0.66450888  -0.00173239  1
  Te  Te160  1  0.82930348  0.66359043  0.33169626  1
  Te  Te161  1  0.83187816  0.66963696  0.66984863  1
  Te  Te162  1  0.00130307  0.16684490  -0.00331718  1
  Te  Te163  1  0.00216674  0.16411010  0.33807665  1
  Te  Te164  1  0.00250446  0.16593597  0.67161697  1
  Te  Te165  1  -0.00675330  0.50226093  -0.00364571  1
  Te  Te166  1  0.00080373  0.49690527  0.33280172  1
  Te  Te167  1  -0.00015487  0.50630350  0.67314152  1
  Te  Te168  1  -0.00305152  0.83309544  -0.00081773  1
  Te  Te169  1  -0.00130061  0.84023046  0.33454585  1
  Te  Te170  1  -0.00013444  0.83162537  0.66700397  1
  Te  Te171  1  0.33184720  0.16177169  -0.00022595  1
  Te  Te172  1  0.32632320  0.16458586  0.33281649  1
  Te  Te173  1  0.33436707  0.16826646  0.66715071  1
  Te  Te174  1  0.33660316  0.50094138  -0.00505266  1
  Te  Te175  1  0.33444458  0.50612195  0.33553873  1
  Te  Te176  1  0.33098184  0.49181548  0.67402169  1
  Te  Te177  1  0.33308004  0.83149009  -0.00489216  1
  Te  Te178  1  0.33266600  0.82801544  0.33398251  1
  Te  Te179  1  0.33375126  0.83405732  0.66934851  1
  Te  Te180  1  0.66311199  0.15866907  0.00079220  1
  Te  Te181  1  0.66722499  0.16039773  0.33177629  1
  Te  Te182  1  0.66095080  0.16565906  0.66660634  1
  Te  Te183  1  0.66546203  0.50298664  -0.00133695  1
  Te  Te184  1  0.66478094  0.50216647  0.33262391  1
  Te  Te185  1  0.66766312  0.50184583  0.66671669  1
  Te  Te186  1  0.66956682  0.83324769  0.00001700  1
  Te  Te187  1  0.66720980  0.83456389  0.33006087  1
  Te  Te188  1  0.66574142  0.82971399  0.66723445  1
  Te  Te189  1  -0.00090788  0.00452004  0.16513938  1
  Te  Te190  1  -0.00350670  -0.00504275  0.50177962  1
  Te  Te191  1  -0.00059822  0.00324345  0.83365209  1
  Te  Te192  1  -0.00054382  0.32903410  0.17190124  1
  Te  Te193  1  -0.00079448  0.33573646  0.49643870  1
  Te  Te194  1  0.00050198  0.33583154  0.83274080  1
  Te  Te195  1  0.00219912  0.66722636  0.16026014  1
  Te  Te196  1  -0.00699572  0.67098699  0.50016792  1
  Te  Te197  1  0.00100288  0.66452576  0.83398738  1
  Te  Te198  1  0.33360097  -0.00275806  0.15864998  1
  Te  Te199  1  0.33440347  -0.01031223  0.49838347  1
  Te  Te200  1  0.33291369  -0.00778058  0.83906707  1
  Te  Te201  1  0.34093026  0.33342616  0.16338380  1
  Te  Te202  1  0.33829998  0.33260110  0.50292018  1
  Te  Te203  1  0.33446474  0.33412898  0.83529456  1
  Te  Te204  1  0.34011166  0.66633118  0.17044937  1
  Te  Te205  1  0.33462721  0.66918788  0.50248528  1
  Te  Te206  1  0.33296973  0.66214148  0.83400195  1
  Te  Te207  1  0.66720797  -0.00472620  0.16541755  1
  Te  Te208  1  0.67285758  0.00022943  0.49867062  1
  Te  Te209  1  0.66869245  0.00203970  0.83861630  1
  Te  Te210  1  0.66131617  0.33098402  0.16215752  1
  Te  Te211  1  0.66227730  0.33892749  0.50018284  1
  Te  Te212  1  0.66611432  0.33656882  0.83440058  1
  Te  Te213  1  0.66198072  0.67011140  0.17079835  1
  Te  Te214  1  0.66728911  0.66481288  0.50033494  1
  Te  Te215  1  0.66631371  0.66398160  0.83175597  1
