# generated using pymatgen
data_AgSbTe2
_symmetry_space_group_name_H-M   'P 1'
_cell_length_a   18.34403716
_cell_length_b   18.35227427
_cell_length_c   18.34939334
_cell_angle_alpha   89.99781844
_cell_angle_beta   89.99991623
_cell_angle_gamma   89.99805609
_symmetry_Int_Tables_number   1
_chemical_formula_structural   AgSbTe2
_chemical_formula_sum   'Ag54 Sb54 Te108'
_cell_volume   6177.41135626
_cell_formula_units_Z   54
loop_
 _symmetry_equiv_pos_site_id
 _symmetry_equiv_pos_as_xyz
  1  'x, y, z'
loop_
 _atom_site_type_symbol
 _atom_site_label
 _atom_site_symmetry_multiplicity
 _atom_site_fract_x
 _atom_site_fract_y
 _atom_site_fract_z
 _atom_site_occupancy
  Ag  Ag0  1  0.66966242  0.00184608  0.65465917  1
  Ag  Ag1  1  0.32573543  0.50686547  0.16381129  1
  Ag  Ag2  1  0.00586051  0.67003929  0.00778409  1
  Ag  Ag3  1  0.33673835  0.33503947  0.00273552  1
  Ag  Ag4  1  0.50606416  -0.00796833  0.16923502  1
  Ag  Ag5  1  0.32852020  0.50043584  0.84830708  1
  Ag  Ag6  1  0.66183942  0.32671366  0.00249432  1
  Ag  Ag7  1  0.82794515  0.16576315  0.00260254  1
  Ag  Ag8  1  0.50114303  0.33381686  0.16345962  1
  Ag  Ag9  1  0.16064235  0.82875060  0.66241456  1
  Ag  Ag10  1  0.00971560  0.83093605  0.17255883  1
  Ag  Ag11  1  0.50176662  0.67012986  0.48745074  1
  Ag  Ag12  1  0.00905568  0.51324936  0.16835506  1
  Ag  Ag13  1  0.49974888  0.67323983  0.16920074  1
  Ag  Ag14  1  0.16636722  -0.01221812  0.16456794  1
  Ag  Ag15  1  0.16344919  0.82802378  0.01188474  1
  Ag  Ag16  1  0.67216794  0.83739603  0.48590611  1
  Ag  Ag17  1  0.82917803  0.83628336  0.33145348  1
  Ag  Ag18  1  0.66704504  0.15875910  0.16751144  1
  Ag  Ag19  1  0.15949510  0.67421426  0.16701725  1
  Ag  Ag20  1  0.16520617  0.67097874  0.48678365  1
  Ag  Ag21  1  0.16252177  0.51549365  0.31947963  1
  Ag  Ag22  1  0.66993398  0.66612058  0.00851531  1
  Ag  Ag23  1  0.83622711  0.83917112  0.66019160  1
  Ag  Ag24  1  0.83135517  0.33175661  0.83434374  1
  Ag  Ag25  1  -0.00180455  0.83691237  0.48979446  1
  Ag  Ag26  1  0.83714594  0.66609537  0.83482025  1
  Ag  Ag27  1  0.83450703  0.15876845  0.33083976  1
  Ag  Ag28  1  0.51448484  0.83172113  0.32942021  1
  Ag  Ag29  1  0.50857871  -0.00113772  0.48750260  1
  Ag  Ag30  1  0.16475833  0.16190312  0.00700076  1
  Ag  Ag31  1  0.32582578  0.00578109  0.00567738  1
  Ag  Ag32  1  0.51073997  0.17132436  0.00664979  1
  Ag  Ag33  1  0.15984778  0.83181812  0.32571853  1
  Ag  Ag34  1  0.67132499  0.16585115  0.85038696  1
  Ag  Ag35  1  0.15992492  0.16229304  0.66531513  1
  Ag  Ag36  1  -0.00438250  0.15987210  0.49489983  1
  Ag  Ag37  1  0.83194830  0.16199309  0.66563418  1
  Ag  Ag38  1  0.48911297  0.49356905  0.00602512  1
  Ag  Ag39  1  0.66978536  0.67735312  0.32736906  1
  Ag  Ag40  1  0.00145983  0.67315626  0.32805689  1
  Ag  Ag41  1  0.16335431  0.51065767  0.66916066  1
  Ag  Ag42  1  0.00130303  0.32672810  0.33157696  1
  Ag  Ag43  1  0.15704322  0.16203107  0.32630019  1
  Ag  Ag44  1  0.82810313  -0.00088838  0.16780643  1
  Ag  Ag45  1  0.66662966  0.83884967  0.17278928  1
  Ag  Ag46  1  0.32185323  0.83127820  0.16653142  1
  Ag  Ag47  1  0.17103115  0.50983950  0.00553321  1
  Ag  Ag48  1  0.00704467  -0.00270876  0.00654143  1
  Ag  Ag49  1  0.16180351  0.66434022  0.84865501  1
  Ag  Ag50  1  0.83748044  0.50530177  0.66985769  1
  Ag  Ag51  1  0.67133082  0.15526156  0.49475778  1
  Ag  Ag52  1  0.50264478  0.32619842  0.49183964  1
  Ag  Ag53  1  0.66632605  -0.00878725  0.33322153  1
  Sb  Sb54  1  0.49899568  0.50121154  0.66918594  1
  Sb  Sb55  1  0.32905562  0.66877028  0.32822216  1
  Sb  Sb56  1  0.33331845  0.16497329  0.49867735  1
  Sb  Sb57  1  0.00400146  0.50239956  0.83901520  1
  Sb  Sb58  1  0.49465780  0.50622443  0.32530229  1
  Sb  Sb59  1  0.82831450  -0.00034994  0.49291264  1
  Sb  Sb60  1  0.49562957  0.83335018  0.01120687  1
  Sb  Sb61  1  0.83581548  0.49903816  -0.00185139  1
  Sb  Sb62  1  0.33141454  0.50107824  0.49527812  1
  Sb  Sb63  1  0.66970317  0.33062256  0.32932525  1
  Sb  Sb64  1  -0.00110727  0.33275363  0.66007872  1
  Sb  Sb65  1  0.83555387  0.67119335  0.50141173  1
  Sb  Sb66  1  0.83092344  0.00030165  0.83781616  1
  Sb  Sb67  1  0.82949411  0.32847994  0.50230353  1
  Sb  Sb68  1  0.16693163  -0.00389556  0.84115348  1
  Sb  Sb69  1  0.83718076  0.83610613  0.00559288  1
  Sb  Sb70  1  0.00214017  0.66798800  0.66443534  1
  Sb  Sb71  1  0.33575101  0.16409987  0.16346268  1
  Sb  Sb72  1  0.50259506  0.83423937  0.65266809  1
  Sb  Sb73  1  0.16236497  0.33705446  0.83610126  1
  Sb  Sb74  1  -0.00016475  0.83100557  0.83693061  1
  Sb  Sb75  1  0.66701242  0.00039024  0.00887031  1
  Sb  Sb76  1  0.50096032  0.66607646  0.84359143  1
  Sb  Sb77  1  0.16906350  0.33439625  0.49758027  1
  Sb  Sb78  1  0.66830234  0.83699646  0.83505648  1
  Sb  Sb79  1  -0.00383797  -0.00124544  0.66870609  1
  Sb  Sb80  1  -0.00542734  -0.00577096  0.32742418  1
  Sb  Sb81  1  0.33419147  0.17154976  0.83869410  1
  Sb  Sb82  1  0.33186067  0.33468173  0.67160966  1
  Sb  Sb83  1  0.32821425  0.82721119  0.84389363  1
  Sb  Sb84  1  0.50304345  0.00042354  0.84199982  1
  Sb  Sb85  1  0.50458484  0.16308707  0.32784390  1
  Sb  Sb86  1  0.66828285  0.32605029  0.67015596  1
  Sb  Sb87  1  0.66738329  0.50307227  0.16504830  1
  Sb  Sb88  1  0.66671874  0.50388864  0.49981580  1
  Sb  Sb89  1  0.00010171  0.33317319  0.00636669  1
  Sb  Sb90  1  0.33208543  0.83278877  0.49213507  1
  Sb  Sb91  1  0.00306944  0.50342425  0.49463951  1
  Sb  Sb92  1  0.32947631  0.66276329  0.00529210  1
  Sb  Sb93  1  0.33708671  -0.00136218  0.32525269  1
  Sb  Sb94  1  0.83913403  0.50309035  0.33517357  1
  Sb  Sb95  1  -0.00258255  0.16164155  0.17016949  1
  Sb  Sb96  1  0.83614516  0.67255148  0.16397513  1
  Sb  Sb97  1  0.32874366  0.66745194  0.66762724  1
  Sb  Sb98  1  -0.00463423  0.16775346  0.83277002  1
  Sb  Sb99  1  0.82976648  0.32677860  0.16313933  1
  Sb  Sb100  1  0.50500291  0.16520718  0.66711029  1
  Sb  Sb101  1  0.17002555  0.33570995  0.16575156  1
  Sb  Sb102  1  0.67025828  0.67285008  0.66485335  1
  Sb  Sb103  1  0.66625373  0.49711033  0.83628003  1
  Sb  Sb104  1  0.33449054  -0.00104059  0.67150988  1
  Sb  Sb105  1  0.33068254  0.33267327  0.32570552  1
  Sb  Sb106  1  0.17003062  -0.00441810  0.49317467  1
  Sb  Sb107  1  0.50424368  0.33284927  0.84076799  1
  Te  Te108  1  0.16681384  0.16853865  0.16642127  1
  Te  Te109  1  0.16512644  0.16569861  0.50253487  1
  Te  Te110  1  0.16502118  0.16679573  0.83002036  1
  Te  Te111  1  0.16685214  0.49687866  0.16484820  1
  Te  Te112  1  0.16695371  0.50427029  0.50767292  1
  Te  Te113  1  0.16845357  0.50331326  0.83150280  1
  Te  Te114  1  0.16526252  0.83185709  0.16647726  1
  Te  Te115  1  0.16564625  0.83151478  0.50183985  1
  Te  Te116  1  0.16596026  0.82630233  0.82370384  1
  Te  Te117  1  0.50217636  0.16744523  0.16512811  1
  Te  Te118  1  0.50293418  0.16454574  0.49842037  1
  Te  Te119  1  0.50682277  0.16723305  0.83856973  1
  Te  Te120  1  0.50053796  0.50080649  0.16344896  1
  Te  Te121  1  0.49937361  0.50716798  0.49934434  1
  Te  Te122  1  0.49361564  0.49997564  0.83870202  1
  Te  Te123  1  0.50725523  0.83312969  0.16991211  1
  Te  Te124  1  0.50014864  0.83203186  0.49116258  1
  Te  Te125  1  0.49786713  0.83245861  0.82968846  1
  Te  Te126  1  0.83086342  0.16203051  0.16706779  1
  Te  Te127  1  0.83333280  0.16560400  0.50028900  1
  Te  Te128  1  0.83005385  0.16684941  0.83320492  1
  Te  Te129  1  0.83978843  0.49837952  0.16754159  1
  Te  Te130  1  0.83495851  0.49928848  0.50910946  1
  Te  Te131  1  0.83362214  0.50195682  0.83000023  1
  Te  Te132  1  0.82685899  0.83793156  0.16935866  1
  Te  Te133  1  0.83448902  0.83397150  0.49985582  1
  Te  Te134  1  0.83269001  0.82829789  0.82789171  1
  Te  Te135  1  0.16615256  0.00016172  0.00141219  1
  Te  Te136  1  0.16888360  -0.00020967  0.32863287  1
  Te  Te137  1  0.16633527  0.00091261  0.66702452  1
  Te  Te138  1  0.16837334  0.32776580  -0.00109089  1
  Te  Te139  1  0.16246592  0.32487570  0.33489720  1
  Te  Te140  1  0.16608340  0.32912967  0.66688310  1
  Te  Te141  1  0.16604440  0.66726736  0.00518034  1
  Te  Te142  1  0.16523881  0.67039340  0.32915304  1
  Te  Te143  1  0.16515457  0.66835440  0.66367661  1
  Te  Te144  1  0.49784151  0.00348284  0.00753727  1
  Te  Te145  1  0.50304296  -0.00216815  0.32948853  1
  Te  Te146  1  0.50389174  0.00024169  0.66677287  1
  Te  Te147  1  0.50138162  0.33276347  0.00162056  1
  Te  Te148  1  0.49978330  0.33460063  0.33077540  1
  Te  Te149  1  0.49993469  0.33432298  0.65952305  1
  Te  Te150  1  0.50612392  0.66504570  0.00546774  1
  Te  Te151  1  0.50133133  0.66888844  0.33021142  1
  Te  Te152  1  0.50058854  0.66655134  0.66447792  1
  Te  Te153  1  0.83514686  0.00392494  0.00510162  1
  Te  Te154  1  0.82850732  -0.00057786  0.32810829  1
  Te  Te155  1  0.83109073  0.00088659  0.66956840  1
  Te  Te156  1  0.83154450  0.32936080  -0.00414056  1
  Te  Te157  1  0.83869784  0.33228526  0.33373356  1
  Te  Te158  1  0.83344976  0.32723528  0.67182103  1
  Te  Te159  1  0.83202674  0.66671542  -0.00427822  1
  Te  Te160  1  0.83408126  0.67007159  0.33448167  1
  Te  Te161  1  0.83528219  0.66719706  0.67089192  1
  Te  Te162  1  0.00222691  0.16637464  0.00047899  1
  Te  Te163  1  -0.00349506  0.16312929  0.33451620  1
  Te  Te164  1  -0.00261360  0.16558563  0.66219708  1
  Te  Te165  1  0.00464931  0.50270035  0.00593056  1
  Te  Te166  1  0.00392429  0.50569433  0.32987800  1
  Te  Te167  1  0.00030176  0.49981905  0.66601793  1
  Te  Te168  1  0.00213635  0.83179207  0.00288079  1
  Te  Te169  1  -0.00032643  0.83385616  0.33285265  1
  Te  Te170  1  -0.00238746  0.83427372  0.66322064  1
  Te  Te171  1  0.32688238  0.16960737  -0.00051243  1
  Te  Te172  1  0.32193296  0.16651576  0.33329248  1
  Te  Te173  1  0.32691396  0.16669956  0.66936619  1
  Te  Te174  1  0.33067447  0.49949437  0.00504223  1
  Te  Te175  1  0.32324892  0.49805521  0.32602671  1
  Te  Te176  1  0.32816907  0.49933764  0.66727492  1
  Te  Te177  1  0.32832938  0.83866782  0.00623937  1
  Te  Te178  1  0.32205111  0.83463757  0.32601163  1
  Te  Te179  1  0.32800572  0.83517047  0.66848130  1
  Te  Te180  1  0.66812968  0.16410716  0.00613398  1
  Te  Te181  1  0.67007337  0.16747433  0.33294756  1
  Te  Te182  1  0.66917228  0.16253113  0.65406977  1
  Te  Te183  1  0.66710903  0.50146580  -0.00059257  1
  Te  Te184  1  0.66829364  0.50479254  0.33388732  1
  Te  Te185  1  0.67271341  0.49997241  0.66808704  1
  Te  Te186  1  0.66614069  0.82901747  0.00224878  1
  Te  Te187  1  0.66948773  0.83281264  0.33219190  1
  Te  Te188  1  0.67016876  0.83941609  0.66664073  1
  Te  Te189  1  0.00532704  -0.00414476  0.16370241  1
  Te  Te190  1  0.00274871  -0.00110350  0.50217329  1
  Te  Te191  1  -0.00085740  -0.00024221  0.84451594  1
  Te  Te192  1  -0.00146552  0.33444607  0.17245256  1
  Te  Te193  1  0.00045059  0.32772249  0.49279745  1
  Te  Te194  1  -0.00868238  0.33503304  0.83361077  1
  Te  Te195  1  -0.00080111  0.67054381  0.16700531  1
  Te  Te196  1  0.00434222  0.67119622  0.49529101  1
  Te  Te197  1  0.00153227  0.66628884  0.83957053  1
  Te  Te198  1  0.32990370  -0.00234566  0.16295273  1
  Te  Te199  1  0.34549327  -0.00039850  0.50230162  1
  Te  Te200  1  0.33531580  0.00038188  0.84276943  1
  Te  Te201  1  0.34041235  0.33625699  0.16108998  1
  Te  Te202  1  0.34251926  0.33330622  0.49975825  1
  Te  Te203  1  0.33354288  0.33930003  0.83943312  1
  Te  Te204  1  0.33831321  0.66795849  0.16589156  1
  Te  Te205  1  0.33400467  0.66678325  0.49958316  1
  Te  Te206  1  0.32836124  0.66000205  0.83480250  1
  Te  Te207  1  0.66641120  0.00060930  0.16924577  1
  Te  Te208  1  0.66560363  -0.00258493  0.49539543  1
  Te  Te209  1  0.66620800  0.00640529  0.82714897  1
  Te  Te210  1  0.66261399  0.33186309  0.16218065  1
  Te  Te211  1  0.66160124  0.33491204  0.49886109  1
  Te  Te212  1  0.67109470  0.32757786  0.83811468  1
  Te  Te213  1  0.66945670  0.66669253  0.16775417  1
  Te  Te214  1  0.66464248  0.67140008  0.49727631  1
  Te  Te215  1  0.66914506  0.66672649  0.83524428  1
