# generated using pymatgen
data_AgSbTe2
_symmetry_space_group_name_H-M   'P 1'
_cell_length_a   18.31521122
_cell_length_b   18.31043075
_cell_length_c   18.31480227
_cell_angle_alpha   90.00283053
_cell_angle_beta   90.00050684
_cell_angle_gamma   90.00133265
_symmetry_Int_Tables_number   1
_chemical_formula_structural   AgSbTe2
_chemical_formula_sum   'Ag54 Sb54 Te108'
_cell_volume   6142.04121471
_cell_formula_units_Z   54
loop_
 _symmetry_equiv_pos_site_id
 _symmetry_equiv_pos_as_xyz
  1  'x, y, z'
loop_
 _atom_site_type_symbol
 _atom_site_label
 _atom_site_symmetry_multiplicity
 _atom_site_fract_x
 _atom_site_fract_y
 _atom_site_fract_z
 _atom_site_occupancy
  Ag  Ag0  1  0.49963952  0.16196884  -0.00355461  1
  Ag  Ag1  1  0.66497425  0.34430817  0.66651300  1
  Ag  Ag2  1  0.50171024  0.50138030  -0.00537815  1
  Ag  Ag3  1  0.66534382  0.16566823  0.16566093  1
  Ag  Ag4  1  0.82130243  0.50290477  0.67246736  1
  Ag  Ag5  1  0.32875605  0.16306726  0.83238746  1
  Ag  Ag6  1  -0.00039629  0.00251360  -0.00304117  1
  Ag  Ag7  1  -0.00115063  0.83859402  0.83182408  1
  Ag  Ag8  1  0.66542489  0.16453650  0.83064357  1
  Ag  Ag9  1  0.50947886  0.49761405  0.67011115  1
  Ag  Ag10  1  0.16197110  0.17347399  0.67593351  1
  Ag  Ag11  1  0.50038196  0.67050958  0.16755449  1
  Ag  Ag12  1  0.83101105  0.82894221  -0.00120755  1
  Ag  Ag13  1  0.82781717  0.50932321  -0.00780972  1
  Ag  Ag14  1  0.33031400  0.33570027  0.66861563  1
  Ag  Ag15  1  0.17161021  0.82917616  0.33489849  1
  Ag  Ag16  1  0.16879726  0.16933187  -0.00641404  1
  Ag  Ag17  1  0.33835607  0.83082976  0.50259400  1
  Ag  Ag18  1  0.66683264  0.00095322  0.67215199  1
  Ag  Ag19  1  0.50143056  -0.00063663  0.49652135  1
  Ag  Ag20  1  0.50264885  0.83558569  0.33530039  1
  Ag  Ag21  1  0.66567059  0.32944043  0.33904216  1
  Ag  Ag22  1  0.66899128  0.50277342  0.82748447  1
  Ag  Ag23  1  0.82571120  0.16027353  0.33023905  1
  Ag  Ag24  1  0.33284593  0.66485124  0.66834533  1
  Ag  Ag25  1  0.00025053  0.66486738  0.66873969  1
  Ag  Ag26  1  0.16988980  0.66717851  0.50322577  1
  Ag  Ag27  1  0.00173296  0.16246295  0.51249752  1
  Ag  Ag28  1  0.66308803  0.67079013  0.33747254  1
  Ag  Ag29  1  0.33734172  -0.00090470  -0.00245239  1
  Ag  Ag30  1  0.66408456  0.00259516  -0.00626131  1
  Ag  Ag31  1  0.66828851  0.83202732  0.82833904  1
  Ag  Ag32  1  0.50261146  0.00009669  0.16850711  1
  Ag  Ag33  1  0.50338275  0.16875629  0.67220069  1
  Ag  Ag34  1  0.16509756  0.33426932  0.16055583  1
  Ag  Ag35  1  0.33827757  0.67191564  0.33220901  1
  Ag  Ag36  1  0.33389682  0.67035560  -0.00170887  1
  Ag  Ag37  1  -0.00191942  0.16374437  0.16382104  1
  Ag  Ag38  1  0.00537702  0.16064838  0.83029993  1
  Ag  Ag39  1  0.16573958  0.33073752  0.83085142  1
  Ag  Ag40  1  -0.00290744  0.00735864  0.67010757  1
  Ag  Ag41  1  0.83055048  0.66696623  0.83496780  1
  Ag  Ag42  1  0.50540443  0.15805017  0.33126206  1
  Ag  Ag43  1  -0.00090756  0.00150151  0.33290972  1
  Ag  Ag44  1  0.66307291  0.82966125  0.50286748  1
  Ag  Ag45  1  0.16895840  0.66380806  0.16742050  1
  Ag  Ag46  1  0.66572472  0.65694226  0.66547609  1
  Ag  Ag47  1  0.00711562  0.32715035  0.66890329  1
  Ag  Ag48  1  0.16692848  0.49626303  0.67251302  1
  Ag  Ag49  1  0.16795742  0.49737625  -0.00608743  1
  Ag  Ag50  1  0.83047773  0.66764563  0.16161627  1
  Ag  Ag51  1  0.82911264  0.83426624  0.32942682  1
  Ag  Ag52  1  0.33345857  0.83340941  0.83115723  1
  Ag  Ag53  1  0.66564526  0.50883937  0.51435366  1
  Sb  Sb54  1  0.82919259  -0.00036156  0.50001362  1
  Sb  Sb55  1  0.50247829  0.00208869  0.83453646  1
  Sb  Sb56  1  0.33877612  0.50863822  0.50616137  1
  Sb  Sb57  1  0.33144001  0.16033842  0.50859793  1
  Sb  Sb58  1  0.00077962  0.67068030  -0.00429390  1
  Sb  Sb59  1  0.33077822  0.33242662  -0.00745816  1
  Sb  Sb60  1  0.66633268  -0.00181984  0.33462945  1
  Sb  Sb61  1  0.82937892  -0.00276783  0.16636323  1
  Sb  Sb62  1  0.00245591  0.32698107  -0.00588672  1
  Sb  Sb63  1  0.33428297  -0.00588600  0.32974918  1
  Sb  Sb64  1  -0.00106540  0.67405670  0.33696395  1
  Sb  Sb65  1  0.50383672  0.66628970  0.83499071  1
  Sb  Sb66  1  0.49911086  0.67265808  0.49762960  1
  Sb  Sb67  1  0.66666366  0.32937455  -0.00460423  1
  Sb  Sb68  1  0.50259241  0.83631592  0.00291282  1
  Sb  Sb69  1  -0.00355078  0.49882868  0.50607896  1
  Sb  Sb70  1  0.33569127  0.16575055  0.15882425  1
  Sb  Sb71  1  0.16595977  0.33747142  0.50586159  1
  Sb  Sb72  1  0.16917447  -0.00460812  0.50123595  1
  Sb  Sb73  1  0.83228818  0.16347237  0.00151921  1
  Sb  Sb74  1  0.33714446  0.33526756  0.33844451  1
  Sb  Sb75  1  0.16720752  0.16306788  0.33164770  1
  Sb  Sb76  1  0.83094532  0.82792441  0.67053142  1
  Sb  Sb77  1  0.33325197  0.50303571  0.16316473  1
  Sb  Sb78  1  0.33671778  0.50121900  0.83119559  1
  Sb  Sb79  1  0.83153186  0.33186712  0.50190869  1
  Sb  Sb80  1  0.33529893  -0.00113687  0.67248466  1
  Sb  Sb81  1  0.66827566  0.16426526  0.50297167  1
  Sb  Sb82  1  -0.00186553  0.83721283  0.50368590  1
  Sb  Sb83  1  0.50315927  0.83406807  0.66247616  1
  Sb  Sb84  1  0.66511786  0.66960771  -0.00188995  1
  Sb  Sb85  1  -0.00374681  0.32270122  0.33742049  1
  Sb  Sb86  1  0.82962366  0.50346236  0.33407695  1
  Sb  Sb87  1  0.16471228  0.66264473  0.83192161  1
  Sb  Sb88  1  0.16554589  0.83351388  0.00068140  1
  Sb  Sb89  1  0.66629400  0.83568555  0.16658642  1
  Sb  Sb90  1  0.33388983  0.83027588  0.16638948  1
  Sb  Sb91  1  0.49694121  0.33078796  0.83024094  1
  Sb  Sb92  1  0.66638408  0.49857788  0.16231305  1
  Sb  Sb93  1  0.16440668  0.00626105  0.83342711  1
  Sb  Sb94  1  0.16712234  0.50645803  0.33420615  1
  Sb  Sb95  1  0.50218634  0.32795244  0.50408264  1
  Sb  Sb96  1  0.83333790  -0.00621460  0.83446513  1
  Sb  Sb97  1  0.83184382  0.66830188  0.50285725  1
  Sb  Sb98  1  0.16638219  0.83140288  0.66498289  1
  Sb  Sb99  1  -0.00126650  0.83716722  0.16333449  1
  Sb  Sb100  1  0.16831215  -0.00031276  0.16452006  1
  Sb  Sb101  1  0.83341558  0.17049749  0.66637876  1
  Sb  Sb102  1  0.50329823  0.50389960  0.33516652  1
  Sb  Sb103  1  0.83541188  0.33759210  0.83135012  1
  Sb  Sb104  1  0.00087759  0.49751264  0.16362828  1
  Sb  Sb105  1  0.49836170  0.33135645  0.16568367  1
  Sb  Sb106  1  -0.00328362  0.50067948  0.83063841  1
  Sb  Sb107  1  0.83549658  0.33494412  0.16589295  1
  Te  Te108  1  0.16563138  0.16790263  0.16319271  1
  Te  Te109  1  0.16294604  0.16726129  0.50154459  1
  Te  Te110  1  0.16601739  0.16878246  0.83398103  1
  Te  Te111  1  0.16653975  0.50141267  0.16269151  1
  Te  Te112  1  0.16658608  0.50689622  0.50400801  1
  Te  Te113  1  0.16645087  0.49465552  0.83396368  1
  Te  Te114  1  0.16629631  0.82723657  0.17242336  1
  Te  Te115  1  0.16819167  0.82818331  0.49646751  1
  Te  Te116  1  0.16791220  0.83160067  0.83366274  1
  Te  Te117  1  0.50253264  0.16614516  0.16390833  1
  Te  Te118  1  0.49949498  0.16015296  0.50101146  1
  Te  Te119  1  0.50425924  0.16693503  0.83394057  1
  Te  Te120  1  0.50026094  0.50428971  0.16165413  1
  Te  Te121  1  0.50682565  0.49908274  0.50557027  1
  Te  Te122  1  0.50496607  0.49921735  0.83355819  1
  Te  Te123  1  0.50053255  0.83234676  0.17290580  1
  Te  Te124  1  0.50175756  0.83773728  0.49648358  1
  Te  Te125  1  0.50057065  0.83331789  0.83355545  1
  Te  Te126  1  0.83155649  0.16711856  0.16940500  1
  Te  Te127  1  0.84031723  0.16587912  0.49124465  1
  Te  Te128  1  0.82855259  0.16927835  0.83541907  1
  Te  Te129  1  0.83389738  0.50698138  0.16176341  1
  Te  Te130  1  0.82660277  0.50049236  0.50561446  1
  Te  Te131  1  0.83093386  0.50388777  0.83311362  1
  Te  Te132  1  0.83271120  0.82762485  0.16604332  1
  Te  Te133  1  0.82708894  0.83358004  0.49158129  1
  Te  Te134  1  0.83064028  0.82805846  0.83607379  1
  Te  Te135  1  0.16652412  0.00387299  0.00158620  1
  Te  Te136  1  0.16310389  -0.00652947  0.33257988  1
  Te  Te137  1  0.16237089  0.00637401  0.66528103  1
  Te  Te138  1  0.16698617  0.33303513  0.00017234  1
  Te  Te139  1  0.16811528  0.33554325  0.33032975  1
  Te  Te140  1  0.16693541  0.33206945  0.66693177  1
  Te  Te141  1  0.16933115  0.66489797  0.00255327  1
  Te  Te142  1  0.16713234  0.67000930  0.33121900  1
  Te  Te143  1  0.16948714  0.66617103  0.66597923  1
  Te  Te144  1  0.50179621  0.00255710  0.00357814  1
  Te  Te145  1  0.49984839  -0.00074616  0.33061865  1
  Te  Te146  1  0.50211899  0.00435417  0.66381571  1
  Te  Te147  1  0.49829535  0.33489997  0.00074155  1
  Te  Te148  1  0.50459457  0.32983415  0.33342896  1
  Te  Te149  1  0.50268043  0.33141381  0.66685942  1
  Te  Te150  1  0.49615567  0.66584051  0.00464090  1
  Te  Te151  1  0.50111584  0.66880919  0.33038776  1
  Te  Te152  1  0.50055500  0.66361493  0.66624416  1
  Te  Te153  1  0.83262223  -0.00516352  0.00169290  1
  Te  Te154  1  0.83683463  -0.00054537  0.33240998  1
  Te  Te155  1  0.83401679  -0.00041547  0.66609843  1
  Te  Te156  1  0.83471201  0.34629715  0.00023304  1
  Te  Te157  1  0.82667119  0.33061171  0.33235550  1
  Te  Te158  1  0.82875018  0.34066654  0.66657460  1
  Te  Te159  1  0.83351069  0.66769330  -0.00014958  1
  Te  Te160  1  0.83040116  0.67046540  0.33063353  1
  Te  Te161  1  0.83076943  0.66293252  0.66886000  1
  Te  Te162  1  -0.00019047  0.16251935  -0.00187940  1
  Te  Te163  1  0.00141098  0.16125518  0.32711203  1
  Te  Te164  1  -0.00332311  0.16684922  0.66991353  1
  Te  Te165  1  0.00515406  0.49932746  -0.00211617  1
  Te  Te166  1  -0.00186297  0.49693247  0.33561515  1
  Te  Te167  1  0.00764595  0.50286363  0.66667233  1
  Te  Te168  1  -0.00263994  0.83900018  -0.00574205  1
  Te  Te169  1  -0.00436269  0.83978482  0.33471405  1
  Te  Te170  1  -0.00153551  0.83321490  0.67132508  1
  Te  Te171  1  0.33435977  0.16559074  -0.00630719  1
  Te  Te172  1  0.33965702  0.16753007  0.33558327  1
  Te  Te173  1  0.33605623  0.16603653  0.67171333  1
  Te  Te174  1  0.33357921  0.50357330  -0.00335049  1
  Te  Te175  1  0.33502508  0.50823870  0.33595022  1
  Te  Te176  1  0.32866533  0.50233314  0.66816290  1
  Te  Te177  1  0.33343796  0.83221955  -0.00511590  1
  Te  Te178  1  0.33443031  0.82958011  0.33491646  1
  Te  Te179  1  0.33402538  0.83033916  0.66890953  1
  Te  Te180  1  0.66512967  0.16446991  -0.00210304  1
  Te  Te181  1  0.66526278  0.16541456  0.33535783  1
  Te  Te182  1  0.66633731  0.16144777  0.66798848  1
  Te  Te183  1  0.66441553  0.49875366  -0.00533751  1
  Te  Te184  1  0.66702190  0.50195749  0.33333429  1
  Te  Te185  1  0.66541414  0.50048563  0.66983253  1
  Te  Te186  1  0.66990541  0.83783820  -0.00361361  1
  Te  Te187  1  0.66585416  0.83168973  0.33302510  1
  Te  Te188  1  0.66690015  0.83766820  0.66877455  1
  Te  Te189  1  -0.00027468  0.00443281  0.16437641  1
  Te  Te190  1  0.00102616  0.00342308  0.50293904  1
  Te  Te191  1  -0.00122168  0.00000346  0.83273432  1
  Te  Te192  1  0.00467049  0.32692236  0.16835751  1
  Te  Te193  1  -0.00078174  0.32672002  0.50716953  1
  Te  Te194  1  0.00418442  0.32783938  0.82742906  1
  Te  Te195  1  0.00128692  0.66664150  0.16735441  1
  Te  Te196  1  0.00535009  0.66815385  0.50651510  1
  Te  Te197  1  -0.00466601  0.67068018  0.82861580  1
  Te  Te198  1  0.33966308  -0.00103657  0.15883286  1
  Te  Te199  1  0.33884207  -0.00850074  0.50003646  1
  Te  Te200  1  0.33338067  -0.00136956  0.83898240  1
  Te  Te201  1  0.32541915  0.33393251  0.16956810  1
  Te  Te202  1  0.33381583  0.33378188  0.50835835  1
  Te  Te203  1  0.32718250  0.32775024  0.82643731  1
  Te  Te204  1  0.33308932  0.66660400  0.16557490  1
  Te  Te205  1  0.33187959  0.67246726  0.50234311  1
  Te  Te206  1  0.33362940  0.66958036  0.83322818  1
  Te  Te207  1  0.66299993  0.00502933  0.16249325  1
  Te  Te208  1  0.66241383  -0.00481857  0.50464200  1
  Te  Te209  1  0.66808644  0.00071108  0.83309139  1
  Te  Te210  1  0.66706761  0.32665671  0.16991912  1
  Te  Te211  1  0.66636552  0.33565967  0.50145627  1
  Te  Te212  1  0.66780559  0.33011822  0.82816991  1
  Te  Te213  1  0.66590516  0.66602081  0.16841532  1
  Te  Te214  1  0.66621774  0.66895966  0.50090419  1
  Te  Te215  1  0.66924836  0.66876597  0.83151735  1
