# generated using pymatgen
data_AgSbTe2
_symmetry_space_group_name_H-M   'P 1'
_cell_length_a   18.32225479
_cell_length_b   18.32358384
_cell_length_c   18.32915445
_cell_angle_alpha   90.00099713
_cell_angle_beta   90.00081668
_cell_angle_gamma   90.00036310
_symmetry_Int_Tables_number   1
_chemical_formula_structural   AgSbTe2
_chemical_formula_sum   'Ag54 Sb54 Te108'
_cell_volume   6153.63550810
_cell_formula_units_Z   54
loop_
 _symmetry_equiv_pos_site_id
 _symmetry_equiv_pos_as_xyz
  1  'x, y, z'
loop_
 _atom_site_type_symbol
 _atom_site_label
 _atom_site_symmetry_multiplicity
 _atom_site_fract_x
 _atom_site_fract_y
 _atom_site_fract_z
 _atom_site_occupancy
  Ag  Ag0  1  0.81772651  0.83193201  0.00541300  1
  Ag  Ag1  1  0.49989948  0.33131968  0.83850708  1
  Ag  Ag2  1  0.33556904  0.66793739  0.33562627  1
  Ag  Ag3  1  0.66950606  0.50573027  0.50119774  1
  Ag  Ag4  1  0.16803295  0.49736187  -0.00190162  1
  Ag  Ag5  1  0.65774801  0.84025071  0.84028004  1
  Ag  Ag6  1  0.84203597  0.50031975  0.33366508  1
  Ag  Ag7  1  0.01003661  0.50129669  0.82311820  1
  Ag  Ag8  1  0.50046432  0.33340032  0.16257100  1
  Ag  Ag9  1  0.00062544  0.50404428  0.50000707  1
  Ag  Ag10  1  0.66436879  -0.00991240  -0.00661821  1
  Ag  Ag11  1  0.33708862  0.82959501  0.16661942  1
  Ag  Ag12  1  -0.00140579  0.66524500  -0.00473052  1
  Ag  Ag13  1  -0.00000274  0.82720640  0.16895823  1
  Ag  Ag14  1  0.33024836  0.67390910  0.66921069  1
  Ag  Ag15  1  0.66158283  0.83676148  0.15394780  1
  Ag  Ag16  1  0.33834642  0.33580060  -0.00256121  1
  Ag  Ag17  1  0.83078522  0.16776557  0.66491261  1
  Ag  Ag18  1  0.66399629  0.16198257  0.15906663  1
  Ag  Ag19  1  0.83097517  0.16804237  0.33578277  1
  Ag  Ag20  1  0.16383171  0.49617853  0.32963699  1
  Ag  Ag21  1  0.65751458  0.15851422  0.83540152  1
  Ag  Ag22  1  0.32893113  0.50421180  0.16444666  1
  Ag  Ag23  1  0.65936847  -0.00549362  0.67553311  1
  Ag  Ag24  1  0.16928811  -0.00047681  0.16084243  1
  Ag  Ag25  1  0.50120712  0.83211337  0.32796265  1
  Ag  Ag26  1  0.16908752  0.16740765  -0.00341960  1
  Ag  Ag27  1  0.82792969  0.83051648  0.32958204  1
  Ag  Ag28  1  0.66416453  0.67189409  0.67231625  1
  Ag  Ag29  1  0.17026266  0.16432572  0.67137328  1
  Ag  Ag30  1  0.33061805  0.50100011  0.83590880  1
  Ag  Ag31  1  0.50400616  0.83181403  -0.00411859  1
  Ag  Ag32  1  0.49718438  -0.00363161  0.83376413  1
  Ag  Ag33  1  0.65932935  0.33295020  -0.00571881  1
  Ag  Ag34  1  0.66802825  0.33059334  0.67234493  1
  Ag  Ag35  1  0.16268205  0.50143307  0.66991303  1
  Ag  Ag36  1  0.17076101  0.17039419  0.33185783  1
  Ag  Ag37  1  0.33244074  0.16162625  0.50685232  1
  Ag  Ag38  1  0.33810472  0.15968562  0.82974498  1
  Ag  Ag39  1  0.00025115  0.82638401  0.49849074  1
  Ag  Ag40  1  0.66266966  0.82932264  0.50317204  1
  Ag  Ag41  1  0.33531766  0.83481081  0.51050661  1
  Ag  Ag42  1  0.00100426  0.34226209  0.66525491  1
  Ag  Ag43  1  0.17659390  0.00257816  0.83352157  1
  Ag  Ag44  1  0.49859522  0.16763695  0.33025455  1
  Ag  Ag45  1  0.17376803  0.83238913  0.66791056  1
  Ag  Ag46  1  0.33308432  -0.00785068  0.67223360  1
  Ag  Ag47  1  0.49970671  0.67511962  0.83376757  1
  Ag  Ag48  1  0.66742649  0.67638393  -0.00671233  1
  Ag  Ag49  1  0.49573239  0.50093757  0.33156085  1
  Ag  Ag50  1  0.00032697  0.34083289  0.33544385  1
  Ag  Ag51  1  0.33885375  0.83672281  0.82983336  1
  Ag  Ag52  1  0.01050449  0.50325565  0.17215575  1
  Ag  Ag53  1  0.00653878  0.66092351  0.67116612  1
  Sb  Sb54  1  0.82680677  0.33355379  0.83209908  1
  Sb  Sb55  1  0.16725434  0.66767621  0.16523707  1
  Sb  Sb56  1  0.17035528  0.83322700  -0.00304588  1
  Sb  Sb57  1  0.49753745  0.83248634  0.67172924  1
  Sb  Sb58  1  0.17327686  0.33204446  0.83347030  1
  Sb  Sb59  1  0.49977483  0.66971984  0.50369611  1
  Sb  Sb60  1  0.16703843  0.33362395  0.50098730  1
  Sb  Sb61  1  0.83372176  0.66919732  0.16698750  1
  Sb  Sb62  1  0.00464001  0.16872034  0.50033822  1
  Sb  Sb63  1  0.00220334  0.34070669  -0.00106835  1
  Sb  Sb64  1  0.66223285  0.16441476  0.50345083  1
  Sb  Sb65  1  0.16824611  -0.00005475  0.50338237  1
  Sb  Sb66  1  0.49897330  0.16683915  -0.00049812  1
  Sb  Sb67  1  0.33123652  0.50289198  0.49920377  1
  Sb  Sb68  1  0.49792239  0.16683974  0.66834546  1
  Sb  Sb69  1  -0.00132336  -0.00597298  -0.00018029  1
  Sb  Sb70  1  0.33375040  -0.00342595  0.33649265  1
  Sb  Sb71  1  0.82812635  0.33320844  0.16754632  1
  Sb  Sb72  1  0.00210081  -0.00023043  0.33254182  1
  Sb  Sb73  1  0.33664387  0.00144538  -0.00649569  1
  Sb  Sb74  1  0.83112182  0.83632918  0.66567801  1
  Sb  Sb75  1  0.33389732  0.66411643  -0.00410066  1
  Sb  Sb76  1  0.50066190  0.33310516  0.49925346  1
  Sb  Sb77  1  0.83074278  0.16260310  -0.00062342  1
  Sb  Sb78  1  0.66152706  0.66919037  0.33370728  1
  Sb  Sb79  1  0.66413592  0.50181455  0.16929571  1
  Sb  Sb80  1  0.66192022  0.50114891  0.82959948  1
  Sb  Sb81  1  0.66825863  0.33392805  0.33445617  1
  Sb  Sb82  1  0.33567555  0.16604342  0.16445505  1
  Sb  Sb83  1  -0.00126738  0.16851195  0.16886931  1
  Sb  Sb84  1  0.83278641  0.66673373  0.50020281  1
  Sb  Sb85  1  0.49917168  0.66678070  0.16314935  1
  Sb  Sb86  1  0.83722035  0.49734513  0.66320687  1
  Sb  Sb87  1  0.49627212  0.50077467  0.00138198  1
  Sb  Sb88  1  0.17135039  0.33305607  0.16634806  1
  Sb  Sb89  1  0.17339180  0.66688225  0.83176516  1
  Sb  Sb90  1  0.49953440  -0.00318184  0.50561279  1
  Sb  Sb91  1  0.16696939  0.66689125  0.50262070  1
  Sb  Sb92  1  0.82750423  0.66694628  0.83340944  1
  Sb  Sb93  1  0.83199123  -0.00117010  0.50050376  1
  Sb  Sb94  1  0.83395377  -0.00281937  0.16668833  1
  Sb  Sb95  1  0.00437355  0.66230272  0.33488957  1
  Sb  Sb96  1  0.66513680  -0.00229541  0.33210173  1
  Sb  Sb97  1  0.83344029  0.33390069  0.49981172  1
  Sb  Sb98  1  0.16920846  0.83223614  0.33524784  1
  Sb  Sb99  1  0.49689395  -0.00076846  0.16137150  1
  Sb  Sb100  1  0.00362748  0.17222734  0.83098248  1
  Sb  Sb101  1  0.49690180  0.50083977  0.66513850  1
  Sb  Sb102  1  0.00373532  -0.00201550  0.66823274  1
  Sb  Sb103  1  0.33183097  0.33665363  0.32898685  1
  Sb  Sb104  1  0.33248928  0.33371675  0.67324667  1
  Sb  Sb105  1  0.83777000  0.50509869  0.00482494  1
  Sb  Sb106  1  0.00184375  0.82687545  0.83330876  1
  Sb  Sb107  1  0.82773261  -0.00109979  0.83260124  1
  Te  Te108  1  0.16684278  0.16342974  0.16729105  1
  Te  Te109  1  0.17191427  0.16615062  0.49857558  1
  Te  Te110  1  0.16889534  0.16504894  0.83302237  1
  Te  Te111  1  0.16932842  0.49922987  0.16787134  1
  Te  Te112  1  0.16258133  0.49975199  0.50096942  1
  Te  Te113  1  0.16937823  0.49930940  0.83197897  1
  Te  Te114  1  0.16802275  0.83708061  0.16612294  1
  Te  Te115  1  0.16954731  0.83434068  0.50450612  1
  Te  Te116  1  0.17021025  0.83791807  0.82897566  1
  Te  Te117  1  0.50345301  0.16800337  0.16941856  1
  Te  Te118  1  0.49388287  0.16538876  0.49121211  1
  Te  Te119  1  0.49906439  0.16805157  0.83396499  1
  Te  Te120  1  0.49640349  0.49760817  0.17079067  1
  Te  Te121  1  0.50204831  0.50053689  0.49326475  1
  Te  Te122  1  0.49379906  0.49532225  0.83384099  1
  Te  Te123  1  0.49943706  0.83366837  0.16814422  1
  Te  Te124  1  0.49759439  0.83376790  0.48992547  1
  Te  Te125  1  0.49948109  0.83473630  0.83355061  1
  Te  Te126  1  0.82672782  0.16508982  0.17116560  1
  Te  Te127  1  0.83394174  0.16521682  0.49745778  1
  Te  Te128  1  0.82967890  0.16653802  0.82938782  1
  Te  Te129  1  0.83597716  0.50008892  0.17389692  1
  Te  Te130  1  0.83349463  0.50032325  0.49320120  1
  Te  Te131  1  0.84245387  0.50005495  0.83525043  1
  Te  Te132  1  0.83406634  0.83480373  0.16858569  1
  Te  Te133  1  0.83342895  0.83338084  0.49536178  1
  Te  Te134  1  0.83009110  0.83357796  0.83781825  1
  Te  Te135  1  0.16624766  0.00373873  -0.00242512  1
  Te  Te136  1  0.16741135  0.00651359  0.32946821  1
  Te  Te137  1  0.16963098  0.00200703  0.66955773  1
  Te  Te138  1  0.16976977  0.33394380  0.00009201  1
  Te  Te139  1  0.16246164  0.33311811  0.33259639  1
  Te  Te140  1  0.16218960  0.33378363  0.66725691  1
  Te  Te141  1  0.16108887  0.65934610  -0.00165515  1
  Te  Te142  1  0.17445017  0.66055061  0.33257757  1
  Te  Te143  1  0.16683975  0.66673750  0.66821485  1
  Te  Te144  1  0.50472917  -0.00449270  -0.00514972  1
  Te  Te145  1  0.49943810  0.00053495  0.33204009  1
  Te  Te146  1  0.49877392  0.00066311  0.67267207  1
  Te  Te147  1  0.49927876  0.33367431  0.00110903  1
  Te  Te148  1  0.50019354  0.33329922  0.33021783  1
  Te  Te149  1  0.50562145  0.33412626  0.67070261  1
  Te  Te150  1  0.50327389  0.66907697  -0.00496975  1
  Te  Te151  1  0.49530494  0.66695548  0.33276080  1
  Te  Te152  1  0.50087503  0.66544873  0.67270671  1
  Te  Te153  1  0.82748598  -0.00643364  -0.00018304  1
  Te  Te154  1  0.83363906  0.00121034  0.33349035  1
  Te  Te155  1  0.83184035  0.00734982  0.66688812  1
  Te  Te156  1  0.82702198  0.33231029  -0.00019592  1
  Te  Te157  1  0.83769796  0.33288564  0.33317195  1
  Te  Te158  1  0.83320794  0.32751800  0.66635549  1
  Te  Te159  1  0.83287707  0.67242000  -0.00027176  1
  Te  Te160  1  0.83289491  0.66858646  0.33319156  1
  Te  Te161  1  0.83145089  0.66659824  0.66757368  1
  Te  Te162  1  0.00427675  0.16776158  0.00018439  1
  Te  Te163  1  0.00062105  0.17097454  0.33442296  1
  Te  Te164  1  0.00224911  0.16900063  0.66476306  1
  Te  Te165  1  0.00329147  0.50379108  0.00664618  1
  Te  Te166  1  0.00187860  0.50120507  0.33374146  1
  Te  Te167  1  -0.00000713  0.50072189  0.66371383  1
  Te  Te168  1  0.00285895  0.82654641  0.00339163  1
  Te  Te169  1  -0.00011125  0.83114583  0.33208463  1
  Te  Te170  1  -0.00027243  0.82918001  0.66406996  1
  Te  Te171  1  0.32989061  0.17028092  -0.00385882  1
  Te  Te172  1  0.33232950  0.16702283  0.33242978  1
  Te  Te173  1  0.33069135  0.16821928  0.66938612  1
  Te  Te174  1  0.33007068  0.49897110  0.00050797  1
  Te  Te175  1  0.33260275  0.50211607  0.33402035  1
  Te  Te176  1  0.32815454  0.50211711  0.66768866  1
  Te  Te177  1  0.33719601  0.83220483  0.00033892  1
  Te  Te178  1  0.33432787  0.83039215  0.32923789  1
  Te  Te179  1  0.33344421  0.83311128  0.66880196  1
  Te  Te180  1  0.66730972  0.17156709  -0.00114146  1
  Te  Te181  1  0.66655914  0.16580791  0.33454753  1
  Te  Te182  1  0.66565350  0.16768415  0.66765247  1
  Te  Te183  1  0.66833295  0.49543709  -0.00027588  1
  Te  Te184  1  0.66427083  0.50174474  0.33719675  1
  Te  Te185  1  0.66851492  0.50207486  0.66307676  1
  Te  Te186  1  0.66260080  0.83286028  -0.00222249  1
  Te  Te187  1  0.66646848  0.83280326  0.33973175  1
  Te  Te188  1  0.66788402  0.83292096  0.66431029  1
  Te  Te189  1  0.00732102  -0.00432947  0.16512470  1
  Te  Te190  1  0.00042685  -0.01187034  0.50024874  1
  Te  Te191  1  0.00677484  0.00067968  0.83414800  1
  Te  Te192  1  -0.00067325  0.33806197  0.16909877  1
  Te  Te193  1  0.00037480  0.33736401  0.50077526  1
  Te  Te194  1  -0.00151279  0.34041825  0.82972948  1
  Te  Te195  1  0.00062257  0.66671133  0.16459506  1
  Te  Te196  1  0.00006626  0.66660670  0.50435047  1
  Te  Te197  1  -0.00096443  0.66173212  0.83160505  1
  Te  Te198  1  0.32938850  -0.00462461  0.16567832  1
  Te  Te199  1  0.33343641  -0.00200170  0.50778028  1
  Te  Te200  1  0.33506970  0.00002987  0.83210194  1
  Te  Te201  1  0.33875702  0.33628834  0.16160330  1
  Te  Te202  1  0.33478809  0.32591766  0.50113125  1
  Te  Te203  1  0.33897007  0.33588760  0.83697643  1
  Te  Te204  1  0.33328834  0.66643067  0.16808084  1
  Te  Te205  1  0.33444128  0.67193230  0.50474047  1
  Te  Te206  1  0.33884442  0.66633428  0.83066075  1
  Te  Te207  1  0.66565664  -0.00123429  0.16339418  1
  Te  Te208  1  0.66534494  -0.00576313  0.50887574  1
  Te  Te209  1  0.66472113  0.00012572  0.83286923  1
  Te  Te210  1  0.66087943  0.33243737  0.16574528  1
  Te  Te211  1  0.66585041  0.33736621  0.50706659  1
  Te  Te212  1  0.66171332  0.33412687  0.83226251  1
  Te  Te213  1  0.66598446  0.67306678  0.15951849  1
  Te  Te214  1  0.66531915  0.66722366  0.50489385  1
  Te  Te215  1  0.66152048  0.66716317  0.83285392  1
