# generated using pymatgen
data_AgSbTe2
_symmetry_space_group_name_H-M   'P 1'
_cell_length_a   18.33862952
_cell_length_b   18.33169779
_cell_length_c   18.33794243
_cell_angle_alpha   89.99876430
_cell_angle_beta   89.99851644
_cell_angle_gamma   90.00037201
_symmetry_Int_Tables_number   1
_chemical_formula_structural   AgSbTe2
_chemical_formula_sum   'Ag54 Sb54 Te108'
_cell_volume   6164.81673444
_cell_formula_units_Z   54
loop_
 _symmetry_equiv_pos_site_id
 _symmetry_equiv_pos_as_xyz
  1  'x, y, z'
loop_
 _atom_site_type_symbol
 _atom_site_label
 _atom_site_symmetry_multiplicity
 _atom_site_fract_x
 _atom_site_fract_y
 _atom_site_fract_z
 _atom_site_occupancy
  Ag  Ag0  1  0.82896519  0.33685026  0.15930163  1
  Ag  Ag1  1  0.00529620  0.32995717  0.33041237  1
  Ag  Ag2  1  0.34456083  0.01548954  0.00050536  1
  Ag  Ag3  1  0.51150412  0.65873437  0.83608655  1
  Ag  Ag4  1  0.00290364  0.17261507  0.83924453  1
  Ag  Ag5  1  0.66290014  0.16718535  0.49791648  1
  Ag  Ag6  1  0.67223289  0.66389624  0.00155001  1
  Ag  Ag7  1  0.82937445  0.33575269  0.84338698  1
  Ag  Ag8  1  0.00177062  0.33680792  0.67149523  1
  Ag  Ag9  1  0.82615590  0.82750121  0.00595319  1
  Ag  Ag10  1  0.50652358  0.00530799  0.49644716  1
  Ag  Ag11  1  0.83694701  0.33158804  0.49783069  1
  Ag  Ag12  1  0.50968666  0.83883536  0.00515823  1
  Ag  Ag13  1  0.16417040  0.82466167  0.66798889  1
  Ag  Ag14  1  0.16547581  0.17592397  0.67205045  1
  Ag  Ag15  1  -0.00336117  0.65758065  0.67656862  1
  Ag  Ag16  1  0.66459447  0.49810784  0.84138556  1
  Ag  Ag17  1  0.16190170  0.33082545  0.49367224  1
  Ag  Ag18  1  0.33160849  0.17023822  0.84766704  1
  Ag  Ag19  1  0.66471229  0.17664207  0.84417959  1
  Ag  Ag20  1  0.66643528  0.00884783  0.00044322  1
  Ag  Ag21  1  0.34031601  0.32738781  0.00413814  1
  Ag  Ag22  1  0.17480700  0.17562628  0.33181458  1
  Ag  Ag23  1  0.50767611  0.32967715  0.15906008  1
  Ag  Ag24  1  0.16630228  0.49218927  0.33092741  1
  Ag  Ag25  1  -0.00566242  0.49553626  0.16325637  1
  Ag  Ag26  1  0.66887493  0.82458804  0.16269634  1
  Ag  Ag27  1  0.18034888  0.17408850  -0.00049750  1
  Ag  Ag28  1  0.83075551  0.66668045  0.49776001  1
  Ag  Ag29  1  0.49591634  0.16871082  0.32222010  1
  Ag  Ag30  1  -0.00325224  0.01134894  0.00290844  1
  Ag  Ag31  1  0.82809373  0.66219496  0.15999875  1
  Ag  Ag32  1  0.50370374  0.49915383  0.67162901  1
  Ag  Ag33  1  -0.00153717  0.33132889  -0.00006380  1
  Ag  Ag34  1  -0.01037329  0.66195954  -0.00424106  1
  Ag  Ag35  1  0.67077446  0.49853184  0.15916707  1
  Ag  Ag36  1  0.33689772  0.16881994  0.49344085  1
  Ag  Ag37  1  0.16155199  0.66214295  0.83317491  1
  Ag  Ag38  1  0.33993987  0.17151328  0.16236657  1
  Ag  Ag39  1  0.50844980  0.33222741  0.84054408  1
  Ag  Ag40  1  0.67495975  0.66289768  0.68132072  1
  Ag  Ag41  1  0.66535829  0.33045448  0.00120371  1
  Ag  Ag42  1  0.50719319  0.83595119  0.32649613  1
  Ag  Ag43  1  0.33888511  0.66199747  0.33252632  1
  Ag  Ag44  1  0.82968687  0.66104596  0.84243469  1
  Ag  Ag45  1  0.49556591  0.16989064  0.00349145  1
  Ag  Ag46  1  0.83055703  0.00589839  0.49573847  1
  Ag  Ag47  1  0.82723128  0.82927460  0.32801591  1
  Ag  Ag48  1  -0.00199413  0.00845984  0.32812851  1
  Ag  Ag49  1  0.16265113  0.48997498  -0.00036364  1
  Ag  Ag50  1  0.16473340  0.49589539  0.67350189  1
  Ag  Ag51  1  0.32643053  0.32843059  0.32731680  1
  Ag  Ag52  1  0.66834901  0.66808857  0.32375213  1
  Ag  Ag53  1  0.66162111  0.17476543  0.16050136  1
  Sb  Sb54  1  0.66846458  0.33458701  0.32618841  1
  Sb  Sb55  1  0.83550978  0.50253536  0.00135148  1
  Sb  Sb56  1  0.33552895  0.83903324  0.49790974  1
  Sb  Sb57  1  0.66857982  0.83587453  0.49445368  1
  Sb  Sb58  1  0.83247586  0.00142979  0.83523692  1
  Sb  Sb59  1  0.83613400  0.50192534  0.32975987  1
  Sb  Sb60  1  0.16586310  0.00300992  0.16533446  1
  Sb  Sb61  1  0.66684990  0.82718370  0.84343806  1
  Sb  Sb62  1  -0.00368507  0.49687424  0.83933452  1
  Sb  Sb63  1  -0.00165473  0.83379977  0.49975557  1
  Sb  Sb64  1  -0.00782742  0.82836607  0.16475681  1
  Sb  Sb65  1  0.50001695  0.82784423  0.66878986  1
  Sb  Sb66  1  0.16561515  0.00926357  0.49903696  1
  Sb  Sb67  1  0.66715446  0.49710270  0.49973126  1
  Sb  Sb68  1  0.00022713  0.00332888  0.66803167  1
  Sb  Sb69  1  0.50205644  0.00913053  0.16689682  1
  Sb  Sb70  1  0.83583441  0.50078260  0.66869851  1
  Sb  Sb71  1  0.16558292  0.83407118  -0.00355608  1
  Sb  Sb72  1  0.67151179  0.33713566  0.67297985  1
  Sb  Sb73  1  0.83543064  0.82801955  0.66686382  1
  Sb  Sb74  1  0.83154535  0.00044683  0.16697138  1
  Sb  Sb75  1  0.16617740  0.83204672  0.33745577  1
  Sb  Sb76  1  0.32822617  0.33154554  0.66933636  1
  Sb  Sb77  1  0.50589583  0.67056121  0.50101578  1
  Sb  Sb78  1  0.83228861  0.16622456  0.33340340  1
  Sb  Sb79  1  0.16343489  0.33496517  0.83476268  1
  Sb  Sb80  1  -0.00081243  0.83109716  0.83518650  1
  Sb  Sb81  1  0.50037829  0.32731839  0.50010380  1
  Sb  Sb82  1  0.50190609  0.49342934  -0.00290259  1
  Sb  Sb83  1  0.33596313  0.66288142  0.00258352  1
  Sb  Sb84  1  0.33319774  0.00457897  0.66997220  1
  Sb  Sb85  1  0.33653830  0.49371642  0.83482113  1
  Sb  Sb86  1  0.33390689  0.83595463  0.83615046  1
  Sb  Sb87  1  0.34395780  0.83624960  0.16625494  1
  Sb  Sb88  1  0.16609971  0.00322989  0.83523760  1
  Sb  Sb89  1  0.33458373  0.49273245  0.16560795  1
  Sb  Sb90  1  0.83713486  0.17010683  0.66686857  1
  Sb  Sb91  1  0.00049547  0.16999605  0.50088252  1
  Sb  Sb92  1  0.33265171  0.00765028  0.32881156  1
  Sb  Sb93  1  -0.00420819  0.66312837  0.33102972  1
  Sb  Sb94  1  -0.00108744  0.17370716  0.16271784  1
  Sb  Sb95  1  0.82895680  0.16801176  0.00084279  1
  Sb  Sb96  1  0.16212634  0.65936648  0.50408383  1
  Sb  Sb97  1  0.66700679  -0.00194937  0.66995537  1
  Sb  Sb98  1  0.49751591  0.49750398  0.33544077  1
  Sb  Sb99  1  -0.00016067  0.49694150  0.49756316  1
  Sb  Sb100  1  0.16084028  0.66278832  0.16196608  1
  Sb  Sb101  1  0.66847058  -0.00144020  0.32818980  1
  Sb  Sb102  1  0.50180555  0.00379691  0.83617418  1
  Sb  Sb103  1  0.50785624  0.66181362  0.16216157  1
  Sb  Sb104  1  0.33079084  0.66501985  0.66432800  1
  Sb  Sb105  1  0.16463304  0.33304109  0.16737360  1
  Sb  Sb106  1  0.33169432  0.49355381  0.49887944  1
  Sb  Sb107  1  0.49719978  0.17225394  0.67134753  1
  Te  Te108  1  0.16942158  0.16683363  0.16546680  1
  Te  Te109  1  0.16729732  0.17164368  0.49672406  1
  Te  Te110  1  0.16683715  0.16763589  0.83626398  1
  Te  Te111  1  0.16362855  0.50020199  0.16595381  1
  Te  Te112  1  0.16646451  0.49219572  0.49593483  1
  Te  Te113  1  0.16742405  0.50291106  0.83452121  1
  Te  Te114  1  0.16845764  0.83212184  0.16837434  1
  Te  Te115  1  0.16710391  0.83349704  0.50641631  1
  Te  Te116  1  0.16697193  0.82708551  0.82754304  1
  Te  Te117  1  0.50111121  0.17018315  0.16490331  1
  Te  Te118  1  0.50075608  0.16464286  0.50468365  1
  Te  Te119  1  0.50190746  0.16959780  0.83558816  1
  Te  Te120  1  0.50544370  0.49208863  0.16815464  1
  Te  Te121  1  0.49900157  0.50061503  0.50881446  1
  Te  Te122  1  0.50274457  0.49903671  0.83148242  1
  Te  Te123  1  0.50800577  0.83115592  0.16620786  1
  Te  Te124  1  0.50066597  0.83995395  0.49517135  1
  Te  Te125  1  0.49915314  0.83161466  0.83810585  1
  Te  Te126  1  0.82601405  0.17315513  0.16869032  1
  Te  Te127  1  0.82975710  0.16713791  0.50009822  1
  Te  Te128  1  0.83142364  0.17025680  0.83184361  1
  Te  Te129  1  0.83210832  0.49939899  0.16716881  1
  Te  Te130  1  0.83286349  0.49893739  0.49911157  1
  Te  Te131  1  0.82621822  0.49913053  0.83245492  1
  Te  Te132  1  0.82812746  0.83211527  0.16698165  1
  Te  Te133  1  0.83293683  0.82883963  0.49541355  1
  Te  Te134  1  0.83395805  0.82911804  0.83747528  1
  Te  Te135  1  0.15708217  0.00298455  -0.00082382  1
  Te  Te136  1  0.15975190  0.00169350  0.33396500  1
  Te  Te137  1  0.16544077  0.00278814  0.66681589  1
  Te  Te138  1  0.16050266  0.33073856  0.00016464  1
  Te  Te139  1  0.16614774  0.33215142  0.33199313  1
  Te  Te140  1  0.16318573  0.33410097  0.66742727  1
  Te  Te141  1  0.16772208  0.66721158  -0.00558784  1
  Te  Te142  1  0.16741909  0.66462471  0.33470002  1
  Te  Te143  1  0.16359643  0.66157795  0.66876222  1
  Te  Te144  1  0.50339766  0.00146213  0.00033455  1
  Te  Te145  1  0.49977240  0.00169337  0.33621887  1
  Te  Te146  1  0.50045625  -0.00253373  0.65957971  1
  Te  Te147  1  0.50202341  0.33264346  -0.00081927  1
  Te  Te148  1  0.49724993  0.32916373  0.33289855  1
  Te  Te149  1  0.49979895  0.33938668  0.67051724  1
  Te  Te150  1  0.49965585  0.66717056  -0.00432516  1
  Te  Te151  1  0.50162903  0.66716408  0.33350089  1
  Te  Te152  1  0.50154974  0.66320625  0.67118471  1
  Te  Te153  1  0.83329511  -0.00821393  -0.00038888  1
  Te  Te154  1  0.83648430  -0.00346930  0.33604899  1
  Te  Te155  1  0.83408183  -0.00341518  0.65749462  1
  Te  Te156  1  0.83408906  0.33424943  0.00017588  1
  Te  Te157  1  0.83736251  0.33423171  0.33733362  1
  Te  Te158  1  0.84111208  0.33442300  0.66060301  1
  Te  Te159  1  0.83276513  0.66624601  0.00083950  1
  Te  Te160  1  0.83118593  0.66844289  0.33388283  1
  Te  Te161  1  0.83511507  0.66640099  0.66493206  1
  Te  Te162  1  -0.00412191  0.16897183  -0.00099711  1
  Te  Te163  1  0.00253131  0.16832396  0.33092743  1
  Te  Te164  1  0.00540545  0.17111085  0.67177411  1
  Te  Te165  1  0.00422910  0.50016127  0.00241934  1
  Te  Te166  1  0.00541108  0.49531215  0.32734291  1
  Te  Te167  1  0.00505935  0.49881774  0.66663820  1
  Te  Te168  1  -0.00227870  0.82896112  0.00056932  1
  Te  Te169  1  -0.00328301  0.83595376  0.33195761  1
  Te  Te170  1  0.00457571  0.83101810  0.66743648  1
  Te  Te171  1  0.33534080  0.17074258  0.00259004  1
  Te  Te172  1  0.33426678  0.16783066  0.33228582  1
  Te  Te173  1  0.32657638  0.16634252  0.66046341  1
  Te  Te174  1  0.32355105  0.49397446  0.00058107  1
  Te  Te175  1  0.32917561  0.49805853  0.33274802  1
  Te  Te176  1  0.32680635  0.49968444  0.66636314  1
  Te  Te177  1  0.33748374  0.83676152  0.00149664  1
  Te  Te178  1  0.33710266  0.83126693  0.33233900  1
  Te  Te179  1  0.32676162  0.83479704  0.66676130  1
  Te  Te180  1  0.66627189  0.16990279  0.00045648  1
  Te  Te181  1  0.66144818  0.16642092  0.33582419  1
  Te  Te182  1  0.66613369  0.16595808  0.66228989  1
  Te  Te183  1  0.66423656  0.49921069  0.00002298  1
  Te  Te184  1  0.66477972  0.50620769  0.33131883  1
  Te  Te185  1  0.66486255  0.50462131  0.66704465  1
  Te  Te186  1  0.66624999  0.82963082  0.00224969  1
  Te  Te187  1  0.66651065  0.83259262  0.32837900  1
  Te  Te188  1  0.66610474  0.82450506  0.66780618  1
  Te  Te189  1  -0.00139286  -0.00002175  0.16477377  1
  Te  Te190  1  -0.00540345  0.00187353  0.49711541  1
  Te  Te191  1  -0.00175475  0.00758065  0.83810613  1
  Te  Te192  1  -0.00590980  0.33564422  0.16519572  1
  Te  Te193  1  0.00006056  0.33277772  0.49825334  1
  Te  Te194  1  -0.00403016  0.33243496  0.83492065  1
  Te  Te195  1  -0.00660652  0.66082733  0.16194006  1
  Te  Te196  1  -0.00609242  0.66525781  0.50315786  1
  Te  Te197  1  -0.00213051  0.66523763  0.83452320  1
  Te  Te198  1  0.33322097  0.00588789  0.15974506  1
  Te  Te199  1  0.33551013  0.00658813  0.49867184  1
  Te  Te200  1  0.33386499  0.00786421  0.84094903  1
  Te  Te201  1  0.33737969  0.33087343  0.16618407  1
  Te  Te202  1  0.33122692  0.32765912  0.49648330  1
  Te  Te203  1  0.33841445  0.32834331  0.83670698  1
  Te  Te204  1  0.33382835  0.66672280  0.17216643  1
  Te  Te205  1  0.33266978  0.66812342  0.49300409  1
  Te  Te206  1  0.33244314  0.66675637  0.83279316  1
  Te  Te207  1  0.66740976  0.00323531  0.15995635  1
  Te  Te208  1  0.66900040  0.00356401  0.50156564  1
  Te  Te209  1  0.66751093  0.00893542  0.83805097  1
  Te  Te210  1  0.66837920  0.33479423  0.16539970  1
  Te  Te211  1  0.67019878  0.32937169  0.50073219  1
  Te  Te212  1  0.66917883  0.33575210  0.83412625  1
  Te  Te213  1  0.66854033  0.66461740  0.16397506  1
  Te  Te214  1  0.67096243  0.66635216  0.49483917  1
  Te  Te215  1  0.66880475  0.66493225  0.83742147  1
