# generated using pymatgen
data_AgSbTe2
_symmetry_space_group_name_H-M   'P 1'
_cell_length_a   18.33845972
_cell_length_b   18.34280465
_cell_length_c   18.33670856
_cell_angle_alpha   90.00017218
_cell_angle_beta   90.00158414
_cell_angle_gamma   89.99841046
_symmetry_Int_Tables_number   1
_chemical_formula_structural   AgSbTe2
_chemical_formula_sum   'Ag54 Sb54 Te108'
_cell_volume   6168.07972810
_cell_formula_units_Z   54
loop_
 _symmetry_equiv_pos_site_id
 _symmetry_equiv_pos_as_xyz
  1  'x, y, z'
loop_
 _atom_site_type_symbol
 _atom_site_label
 _atom_site_symmetry_multiplicity
 _atom_site_fract_x
 _atom_site_fract_y
 _atom_site_fract_z
 _atom_site_occupancy
  Ag  Ag0  1  0.65310162  0.49801199  0.17067494  1
  Ag  Ag1  1  0.49785445  -0.00698975  0.49497660  1
  Ag  Ag2  1  0.49497137  0.33872642  0.16737021  1
  Ag  Ag3  1  0.50101311  0.67128993  0.50167957  1
  Ag  Ag4  1  0.32952176  0.32599826  -0.00119893  1
  Ag  Ag5  1  0.17020480  0.32585512  0.84192464  1
  Ag  Ag6  1  0.66543898  0.33872599  0.33131940  1
  Ag  Ag7  1  0.34231689  0.66839277  0.66802118  1
  Ag  Ag8  1  0.49079745  -0.00079435  0.16968172  1
  Ag  Ag9  1  0.33568294  0.83742495  0.50205428  1
  Ag  Ag10  1  0.34077660  0.33883393  0.67733554  1
  Ag  Ag11  1  0.32792591  0.16446217  0.84254343  1
  Ag  Ag12  1  0.33269143  0.83732591  0.83806032  1
  Ag  Ag13  1  0.65936661  0.67306198  0.66200617  1
  Ag  Ag14  1  0.50012137  0.82964322  0.67142892  1
  Ag  Ag15  1  0.50107563  0.50953547  0.66276222  1
  Ag  Ag16  1  0.00923864  0.49764260  0.83701819  1
  Ag  Ag17  1  0.65818013  -0.00363518  0.00092212  1
  Ag  Ag18  1  0.17965961  0.33221103  0.15841747  1
  Ag  Ag19  1  0.66038153  0.49836242  0.48939476  1
  Ag  Ag20  1  0.81739544  0.83575716  0.67525554  1
  Ag  Ag21  1  -0.00215640  -0.00350792  0.67486923  1
  Ag  Ag22  1  0.33304287  -0.00069496  0.00388270  1
  Ag  Ag23  1  0.17839023  -0.00241233  0.49990828  1
  Ag  Ag24  1  0.65846403  0.16527019  0.17068908  1
  Ag  Ag25  1  0.82156027  0.66667094  0.16735352  1
  Ag  Ag26  1  0.66617622  -0.00864757  0.67023746  1
  Ag  Ag27  1  0.33921914  -0.00370019  0.31782309  1
  Ag  Ag28  1  0.00528103  0.50082952  0.16469723  1
  Ag  Ag29  1  0.82889792  0.83618677  -0.00654092  1
  Ag  Ag30  1  0.17094108  0.83649079  0.32357148  1
  Ag  Ag31  1  0.33428687  0.84412606  0.15906433  1
  Ag  Ag32  1  0.50199390  0.66051344  0.17285093  1
  Ag  Ag33  1  0.49419978  0.83560938  -0.00181479  1
  Ag  Ag34  1  0.66719031  0.83764444  0.83174714  1
  Ag  Ag35  1  0.17105371  0.49265535  0.00123824  1
  Ag  Ag36  1  0.17652335  0.84078358  0.00010493  1
  Ag  Ag37  1  -0.00007040  0.84294865  0.83362946  1
  Ag  Ag38  1  0.50274876  0.50347149  0.32830775  1
  Ag  Ag39  1  0.65953481  -0.00169728  0.33079286  1
  Ag  Ag40  1  0.00948759  0.15930418  0.83368330  1
  Ag  Ag41  1  0.32953065  0.49295414  0.84158325  1
  Ag  Ag42  1  -0.00369335  0.66280410  0.33001729  1
  Ag  Ag43  1  0.66355431  0.16578983  0.49400769  1
  Ag  Ag44  1  0.17689989  0.00139976  0.15686134  1
  Ag  Ag45  1  0.33740092  0.15772455  0.16131204  1
  Ag  Ag46  1  0.33600699  0.49679596  0.16023236  1
  Ag  Ag47  1  0.17223920  0.16404067  -0.00203243  1
  Ag  Ag48  1  -0.00092549  0.33919960  0.32951971  1
  Ag  Ag49  1  0.83923359  0.32916852  0.83286508  1
  Ag  Ag50  1  0.66004832  0.33504568  0.66490906  1
  Ag  Ag51  1  0.16769301  0.00159046  0.83730441  1
  Ag  Ag52  1  0.66342676  0.66443806  0.33257277  1
  Ag  Ag53  1  0.84102382  -0.00389030  0.83329448  1
  Sb  Sb54  1  0.66353603  0.50186345  0.83509258  1
  Sb  Sb55  1  0.83007442  0.16641664  0.33114818  1
  Sb  Sb56  1  0.83055022  0.16085086  0.67044110  1
  Sb  Sb57  1  0.00408243  0.17193829  0.16178141  1
  Sb  Sb58  1  0.00871950  0.33475910  0.00039964  1
  Sb  Sb59  1  0.82945953  -0.00607962  0.15917419  1
  Sb  Sb60  1  -0.00217515  0.16443874  0.50424527  1
  Sb  Sb61  1  0.34033707  0.50447828  0.50049060  1
  Sb  Sb62  1  0.50125862  0.16382743  0.66618025  1
  Sb  Sb63  1  0.17302387  0.66766262  0.16636834  1
  Sb  Sb64  1  0.83675544  0.50237767  -0.00030570  1
  Sb  Sb65  1  0.82320964  0.66852278  0.49663416  1
  Sb  Sb66  1  0.82879644  0.33331689  0.50488298  1
  Sb  Sb67  1  -0.00275960  0.67229497  0.66532404  1
  Sb  Sb68  1  0.49328990  0.33479955  0.83615847  1
  Sb  Sb69  1  0.50154280  0.33452031  0.49674887  1
  Sb  Sb70  1  0.65714997  0.83441616  0.50526602  1
  Sb  Sb71  1  0.82460981  0.50054719  0.32988003  1
  Sb  Sb72  1  -0.00440790  0.50124831  0.49759568  1
  Sb  Sb73  1  0.17156406  0.50277651  0.32582506  1
  Sb  Sb74  1  0.66453448  0.16106468  0.83486420  1
  Sb  Sb75  1  0.00830677  -0.00176392  -0.00562952  1
  Sb  Sb76  1  0.83324793  0.67369252  0.83680557  1
  Sb  Sb77  1  0.16782147  0.66997943  0.83414278  1
  Sb  Sb78  1  0.00011516  0.66762947  0.00444331  1
  Sb  Sb79  1  0.50184762  0.16598394  0.33011766  1
  Sb  Sb80  1  0.82500289  -0.00285844  0.50648642  1
  Sb  Sb81  1  0.49434849  0.50539059  0.00261774  1
  Sb  Sb82  1  0.49631157  0.83207671  0.33221156  1
  Sb  Sb83  1  0.83575502  0.16123699  -0.00230945  1
  Sb  Sb84  1  0.49242860  0.15993648  0.00311843  1
  Sb  Sb85  1  0.49867767  0.66929422  0.83030805  1
  Sb  Sb86  1  0.82592767  0.50500975  0.67069995  1
  Sb  Sb87  1  0.00775018  0.83462644  0.50477375  1
  Sb  Sb88  1  0.00640082  0.83078190  0.16099793  1
  Sb  Sb89  1  0.00412788  -0.00104707  0.33602594  1
  Sb  Sb90  1  0.16987245  0.16394141  0.67546868  1
  Sb  Sb91  1  0.16794286  0.16155077  0.32562495  1
  Sb  Sb92  1  0.65952972  0.32763757  0.00200657  1
  Sb  Sb93  1  0.83035778  0.33812139  0.16168017  1
  Sb  Sb94  1  -0.00039779  0.33059238  0.67093072  1
  Sb  Sb95  1  0.33441608  0.67149075  -0.00215752  1
  Sb  Sb96  1  0.16919516  0.32756116  0.49854386  1
  Sb  Sb97  1  0.33868969  0.67266994  0.33285770  1
  Sb  Sb98  1  0.33697845  -0.00224249  0.67179421  1
  Sb  Sb99  1  0.17386477  0.83595000  0.67293878  1
  Sb  Sb100  1  0.33686178  0.33016432  0.32588069  1
  Sb  Sb101  1  0.49715028  -0.00404667  0.83599348  1
  Sb  Sb102  1  0.83529170  0.83265578  0.33097890  1
  Sb  Sb103  1  0.33831132  0.16023817  0.49956747  1
  Sb  Sb104  1  0.65717488  0.83366542  0.16276128  1
  Sb  Sb105  1  0.17635002  0.49799090  0.67586008  1
  Sb  Sb106  1  0.66463002  0.67255501  0.00148666  1
  Sb  Sb107  1  0.17393649  0.67262145  0.49771186  1
  Te  Te108  1  0.16853695  0.16821074  0.16090749  1
  Te  Te109  1  0.16671766  0.15813058  0.49942993  1
  Te  Te110  1  0.16866845  0.16656847  0.83652269  1
  Te  Te111  1  0.16667063  0.49816494  0.16311711  1
  Te  Te112  1  0.16598336  0.49915047  0.49957184  1
  Te  Te113  1  0.16955406  0.50060349  0.83854108  1
  Te  Te114  1  0.17110566  0.83532519  0.16365211  1
  Te  Te115  1  0.17449250  0.83909566  0.49908926  1
  Te  Te116  1  0.16758326  0.83596562  0.83799074  1
  Te  Te117  1  0.49921745  0.16399583  0.16646991  1
  Te  Te118  1  0.50553665  0.15910550  0.49896128  1
  Te  Te119  1  0.49093352  0.16693440  0.83415211  1
  Te  Te120  1  0.49723014  0.50007780  0.16486837  1
  Te  Te121  1  0.50351147  0.50138668  0.50223550  1
  Te  Te122  1  0.49382682  0.50146136  0.82983986  1
  Te  Te123  1  0.49483738  0.83972129  0.16551235  1
  Te  Te124  1  0.49544143  0.83306602  0.50141150  1
  Te  Te125  1  0.49909842  0.83298743  0.83429346  1
  Te  Te126  1  0.82957909  0.16628472  0.16419657  1
  Te  Te127  1  0.82413237  0.16553549  0.50067567  1
  Te  Te128  1  0.83600701  0.16573994  0.83424730  1
  Te  Te129  1  0.84369304  0.50548843  0.16501959  1
  Te  Te130  1  0.82219733  0.50059447  0.50171417  1
  Te  Te131  1  0.83599176  0.49605396  0.83509915  1
  Te  Te132  1  0.83724728  0.82722362  0.16278539  1
  Te  Te133  1  0.83769454  0.83291802  0.50592662  1
  Te  Te134  1  0.83297422  0.83484406  0.83329184  1
  Te  Te135  1  0.16947248  0.00034116  -0.00155140  1
  Te  Te136  1  0.16708081  -0.00399113  0.33442937  1
  Te  Te137  1  0.16364916  -0.00052328  0.66917783  1
  Te  Te138  1  0.17052082  0.33384826  0.00065654  1
  Te  Te139  1  0.16532434  0.33333474  0.33002805  1
  Te  Te140  1  0.16938962  0.33256133  0.66840777  1
  Te  Te141  1  0.16616356  0.66946459  0.00044081  1
  Te  Te142  1  0.16333089  0.67279904  0.33400682  1
  Te  Te143  1  0.17115760  0.66576673  0.66366320  1
  Te  Te144  1  0.49837712  -0.00464668  0.00287960  1
  Te  Te145  1  0.49998297  -0.00116861  0.33193577  1
  Te  Te146  1  0.50500738  -0.00364372  0.66428319  1
  Te  Te147  1  0.49200592  0.33579482  0.00663069  1
  Te  Te148  1  0.50414549  0.33905801  0.32948097  1
  Te  Te149  1  0.50035442  0.33378134  0.66538075  1
  Te  Te150  1  0.50102136  0.67465495  0.01022294  1
  Te  Te151  1  0.50319044  0.66493118  0.33416244  1
  Te  Te152  1  0.50197241  0.66809413  0.66677857  1
  Te  Te153  1  0.82838791  -0.00465922  -0.00603539  1
  Te  Te154  1  0.82887322  -0.00175155  0.33334381  1
  Te  Te155  1  0.83015519  -0.00471298  0.67229500  1
  Te  Te156  1  0.83111587  0.33266950  -0.00724006  1
  Te  Te157  1  0.82997366  0.33380950  0.33307129  1
  Te  Te158  1  0.83053018  0.33531426  0.67281198  1
  Te  Te159  1  0.83275526  0.67261439  0.00654457  1
  Te  Te160  1  0.83112273  0.66707801  0.32840142  1
  Te  Te161  1  0.82808216  0.67323171  0.66566565  1
  Te  Te162  1  0.00616390  0.16753565  -0.00643863  1
  Te  Te163  1  -0.00114715  0.17303926  0.33439457  1
  Te  Te164  1  -0.00141587  0.16133602  0.67255904  1
  Te  Te165  1  0.00535614  0.50132185  -0.00046649  1
  Te  Te166  1  0.00144694  0.50054736  0.33215403  1
  Te  Te167  1  -0.00035775  0.50128403  0.66759909  1
  Te  Te168  1  -0.00138976  0.83250403  -0.00699527  1
  Te  Te169  1  0.00482249  0.82971124  0.33404699  1
  Te  Te170  1  0.00286655  0.83597308  0.67279694  1
  Te  Te171  1  0.33171540  0.16546673  0.00199413  1
  Te  Te172  1  0.33353038  0.15889292  0.32861759  1
  Te  Te173  1  0.33469731  0.17348555  0.66813041  1
  Te  Te174  1  0.33057735  0.50370129  -0.00017031  1
  Te  Te175  1  0.33974012  0.49974839  0.33182838  1
  Te  Te176  1  0.33956959  0.50020891  0.66611766  1
  Te  Te177  1  0.33348869  0.83410318  -0.00076243  1
  Te  Te178  1  0.32979990  0.83696429  0.33211085  1
  Te  Te179  1  0.33802838  0.83187153  0.67003679  1
  Te  Te180  1  0.66663131  0.15886567  0.00433882  1
  Te  Te181  1  0.66678315  0.16553285  0.33106837  1
  Te  Te182  1  0.66686257  0.17255697  0.66593426  1
  Te  Te183  1  0.66749573  0.49875294  0.00708386  1
  Te  Te184  1  0.66283599  0.50079066  0.33001353  1
  Te  Te185  1  0.66152195  0.49668737  0.67032601  1
  Te  Te186  1  0.66679410  0.83755882  -0.00413948  1
  Te  Te187  1  0.66929024  0.83331875  0.33381727  1
  Te  Te188  1  0.66174155  0.83324838  0.66767140  1
  Te  Te189  1  0.00275255  0.00188891  0.16864550  1
  Te  Te190  1  0.00184999  0.00169892  0.50619532  1
  Te  Te191  1  0.00154712  -0.00027600  0.83278316  1
  Te  Te192  1  -0.00231587  0.33725404  0.16991223  1
  Te  Te193  1  -0.00103342  0.33253218  0.49395484  1
  Te  Te194  1  0.00394204  0.33711996  0.83265899  1
  Te  Te195  1  0.00350751  0.66303445  0.17109491  1
  Te  Te196  1  -0.00080188  0.66629932  0.49306635  1
  Te  Te197  1  -0.00043542  0.65886702  0.83100636  1
  Te  Te198  1  0.33089957  -0.00029536  0.16388802  1
  Te  Te199  1  0.33629544  -0.00234331  0.50503925  1
  Te  Te200  1  0.33037263  -0.00048065  0.83526388  1
  Te  Te201  1  0.33472007  0.33648373  0.16647470  1
  Te  Te202  1  0.33303203  0.33042017  0.50469359  1
  Te  Te203  1  0.33105158  0.33426618  0.83646253  1
  Te  Te204  1  0.33987335  0.65838011  0.16788791  1
  Te  Te205  1  0.34012626  0.67190925  0.50333462  1
  Te  Te206  1  0.33278830  0.67007883  0.82753723  1
  Te  Te207  1  0.66711989  0.00104399  0.16816359  1
  Te  Te208  1  0.66246336  0.00120010  0.49847073  1
  Te  Te209  1  0.66498469  -0.00192043  0.83217209  1
  Te  Te210  1  0.66563229  0.33471068  0.16813454  1
  Te  Te211  1  0.66607720  0.33363689  0.49881796  1
  Te  Te212  1  0.66650428  0.33134955  0.83220727  1
  Te  Te213  1  0.66348548  0.66594371  0.16794967  1
  Te  Te214  1  0.66063465  0.66436522  0.49905713  1
  Te  Te215  1  0.66757472  0.67126541  0.82894054  1
