# generated using pymatgen
data_AgSbTe2
_symmetry_space_group_name_H-M   'P 1'
_cell_length_a   18.34187735
_cell_length_b   18.35220125
_cell_length_c   18.34523449
_cell_angle_alpha   90.00539969
_cell_angle_beta   90.00290881
_cell_angle_gamma   89.99862278
_symmetry_Int_Tables_number   1
_chemical_formula_structural   AgSbTe2
_chemical_formula_sum   'Ag54 Sb54 Te108'
_cell_volume   6175.25950425
_cell_formula_units_Z   54
loop_
 _symmetry_equiv_pos_site_id
 _symmetry_equiv_pos_as_xyz
  1  'x, y, z'
loop_
 _atom_site_type_symbol
 _atom_site_label
 _atom_site_symmetry_multiplicity
 _atom_site_fract_x
 _atom_site_fract_y
 _atom_site_fract_z
 _atom_site_occupancy
  Ag  Ag0  1  0.66783942  0.33253887  -0.00797397  1
  Ag  Ag1  1  0.33811959  0.33663183  0.67191008  1
  Ag  Ag2  1  -0.01409024  0.33671075  0.66753880  1
  Ag  Ag3  1  0.33743617  0.66852187  -0.00289619  1
  Ag  Ag4  1  0.50551711  -0.00860795  0.82474156  1
  Ag  Ag5  1  0.34716620  0.66585624  0.67501302  1
  Ag  Ag6  1  0.15626997  0.83045701  0.00411781  1
  Ag  Ag7  1  0.82793760  0.34025144  0.82897495  1
  Ag  Ag8  1  0.51211384  0.67266349  0.82829461  1
  Ag  Ag9  1  0.66809621  0.00712936  0.66539844  1
  Ag  Ag10  1  0.66917046  0.16723697  0.82369895  1
  Ag  Ag11  1  0.51487413  0.15729889  0.66540319  1
  Ag  Ag12  1  0.50654150  0.67424186  0.51303692  1
  Ag  Ag13  1  0.16732896  0.15893644  0.33004968  1
  Ag  Ag14  1  0.34339399  0.82870421  0.83317520  1
  Ag  Ag15  1  0.15689443  -0.00330520  0.16794353  1
  Ag  Ag16  1  0.82521741  -0.00113686  0.50828486  1
  Ag  Ag17  1  0.50662034  0.83482824  0.66919361  1
  Ag  Ag18  1  0.16490720  0.83758885  0.32228312  1
  Ag  Ag19  1  0.50786112  -0.00436978  0.50911902  1
  Ag  Ag20  1  -0.00529353  0.83309436  0.50453321  1
  Ag  Ag21  1  0.83058479  0.49664622  0.67131922  1
  Ag  Ag22  1  -0.01065460  0.50516275  0.82762392  1
  Ag  Ag23  1  0.00496011  0.83649419  0.15639663  1
  Ag  Ag24  1  0.16849337  0.67901251  0.16369760  1
  Ag  Ag25  1  0.66524848  0.66905044  0.67179214  1
  Ag  Ag26  1  0.66808856  0.83334630  0.50844107  1
  Ag  Ag27  1  0.33304032  0.50329301  0.16371431  1
  Ag  Ag28  1  -0.00576606  0.15259172  0.16417916  1
  Ag  Ag29  1  0.82974861  0.16147895  -0.00639799  1
  Ag  Ag30  1  -0.00398864  0.67247409  -0.00615915  1
  Ag  Ag31  1  0.16657627  0.32909610  0.16625522  1
  Ag  Ag32  1  0.66864316  0.32072204  0.67083678  1
  Ag  Ag33  1  0.66981209  0.50778174  0.51113176  1
  Ag  Ag34  1  0.50008778  0.67443489  0.16274141  1
  Ag  Ag35  1  -0.00671023  0.66553579  0.67244838  1
  Ag  Ag36  1  0.82404478  0.66297593  0.83133957  1
  Ag  Ag37  1  0.33253870  0.00006993  0.33211194  1
  Ag  Ag38  1  0.33620465  0.33564719  -0.00331770  1
  Ag  Ag39  1  0.66731808  0.33276167  0.34523859  1
  Ag  Ag40  1  0.66404784  0.15923200  0.51088959  1
  Ag  Ag41  1  0.83756944  0.00189006  0.16440848  1
  Ag  Ag42  1  0.50240257  -0.00345500  0.16694992  1
  Ag  Ag43  1  0.67056645  0.51061509  0.82776799  1
  Ag  Ag44  1  0.66332156  0.82310774  0.82612053  1
  Ag  Ag45  1  0.83645923  0.83831699  -0.00020467  1
  Ag  Ag46  1  0.34436229  0.16407669  0.50272548  1
  Ag  Ag47  1  0.66411769  0.66578961  0.34639870  1
  Ag  Ag48  1  -0.00394943  -0.00865974  0.00259663  1
  Ag  Ag49  1  -0.00907767  -0.00505708  0.66897422  1
  Ag  Ag50  1  -0.01045640  0.51071411  0.51011692  1
  Ag  Ag51  1  0.82726848  0.16907215  0.67127684  1
  Ag  Ag52  1  0.66576277  0.66643742  -0.01212515  1
  Ag  Ag53  1  0.67024771  0.16421649  0.16621335  1
  Sb  Sb54  1  0.15755489  0.50041973  0.66625130  1
  Sb  Sb55  1  0.50485825  0.33066334  0.50433232  1
  Sb  Sb56  1  0.16710484  0.83226336  0.66933641  1
  Sb  Sb57  1  0.16632452  0.33157762  0.49707779  1
  Sb  Sb58  1  0.66850093  0.83608774  0.16573256  1
  Sb  Sb59  1  0.66419843  0.49943786  0.16449453  1
  Sb  Sb60  1  0.00242398  0.50508131  0.16369189  1
  Sb  Sb61  1  0.16724884  0.50650462  0.00154701  1
  Sb  Sb62  1  0.50773204  0.16491959  -0.00487241  1
  Sb  Sb63  1  0.00325633  -0.00129245  0.33003103  1
  Sb  Sb64  1  0.33655581  0.83620269  0.50377774  1
  Sb  Sb65  1  -0.00556374  0.82997688  0.83346238  1
  Sb  Sb66  1  0.16628128  0.66811480  0.83861320  1
  Sb  Sb67  1  0.83328281  0.16488841  0.33437553  1
  Sb  Sb68  1  0.83015841  0.50042349  0.34459676  1
  Sb  Sb69  1  0.16318691  0.33289515  0.83656006  1
  Sb  Sb70  1  0.33877557  -0.00160333  0.66410202  1
  Sb  Sb71  1  0.33776809  0.50408701  0.83459823  1
  Sb  Sb72  1  0.83008985  0.32844289  0.50917487  1
  Sb  Sb73  1  0.49781562  0.83464476  0.33778823  1
  Sb  Sb74  1  0.34319244  0.16506582  0.82839889  1
  Sb  Sb75  1  0.49981584  0.16352845  0.33846422  1
  Sb  Sb76  1  0.83509212  0.83459407  0.33109019  1
  Sb  Sb77  1  -0.00477236  0.33159620  0.33677817  1
  Sb  Sb78  1  0.83193766  0.50115449  -0.00740486  1
  Sb  Sb79  1  0.33416549  0.16710308  0.16796382  1
  Sb  Sb80  1  0.66302204  -0.00000587  0.33864852  1
  Sb  Sb81  1  0.82679772  0.67341793  0.50854226  1
  Sb  Sb82  1  0.83108393  0.67216693  0.15718961  1
  Sb  Sb83  1  0.33784849  0.49888410  0.50242420  1
  Sb  Sb84  1  0.33601717  0.32845506  0.33300152  1
  Sb  Sb85  1  0.16092815  0.16341056  0.00779345  1
  Sb  Sb86  1  0.32913765  0.83043588  0.16105616  1
  Sb  Sb87  1  0.82668362  -0.00166175  0.83311068  1
  Sb  Sb88  1  0.16373249  0.16611177  0.66181983  1
  Sb  Sb89  1  0.50130587  0.50440933  -0.00050876  1
  Sb  Sb90  1  -0.00444428  0.16186350  0.49913630  1
  Sb  Sb91  1  0.50097102  0.50221948  0.33432165  1
  Sb  Sb92  1  -0.00271079  0.33498949  -0.00392240  1
  Sb  Sb93  1  0.82640948  0.83451233  0.67201984  1
  Sb  Sb94  1  0.16893984  -0.00262357  0.83769349  1
  Sb  Sb95  1  0.50956946  0.33552766  0.83057648  1
  Sb  Sb96  1  0.33754820  0.67206043  0.33084793  1
  Sb  Sb97  1  0.16618039  -0.00150791  0.49524119  1
  Sb  Sb98  1  0.33025816  -0.00225127  0.00374596  1
  Sb  Sb99  1  0.50319956  0.83246729  -0.00628051  1
  Sb  Sb100  1  0.49938011  0.33193435  0.16453022  1
  Sb  Sb101  1  0.51116953  0.50409072  0.66662864  1
  Sb  Sb102  1  0.16782199  0.66946397  0.49574862  1
  Sb  Sb103  1  0.83477169  0.32638810  0.15826929  1
  Sb  Sb104  1  -0.00819678  0.16810511  0.83579121  1
  Sb  Sb105  1  0.67087068  -0.00129256  -0.00410660  1
  Sb  Sb106  1  -0.00505326  0.66987972  0.33389494  1
  Sb  Sb107  1  0.16596895  0.50198539  0.33045908  1
  Te  Te108  1  0.16709708  0.16327123  0.17005750  1
  Te  Te109  1  0.16667366  0.16645060  0.49267922  1
  Te  Te110  1  0.16815069  0.16553042  0.83380369  1
  Te  Te111  1  0.17014574  0.49536811  0.16718836  1
  Te  Te112  1  0.16240481  0.50019401  0.49781584  1
  Te  Te113  1  0.15926188  0.49907851  0.83410393  1
  Te  Te114  1  0.16627287  0.83573107  0.16422992  1
  Te  Te115  1  0.16162858  0.83296997  0.49888599  1
  Te  Te116  1  0.17397735  0.83443795  0.83837273  1
  Te  Te117  1  0.50330069  0.16430648  0.16613728  1
  Te  Te118  1  0.50361147  0.16414063  0.50374305  1
  Te  Te119  1  0.50739202  0.16294834  0.82802607  1
  Te  Te120  1  0.49458415  0.50319820  0.16736817  1
  Te  Te121  1  0.50629370  0.50916331  0.49947903  1
  Te  Te122  1  0.50654856  0.50938995  0.83308149  1
  Te  Te123  1  0.49991248  0.83378082  0.16837240  1
  Te  Te124  1  0.50202223  0.83463454  0.50394110  1
  Te  Te125  1  0.50352022  0.83231742  0.83124979  1
  Te  Te126  1  0.83474494  0.16304638  0.16690706  1
  Te  Te127  1  0.82855619  0.15988788  0.50286228  1
  Te  Te128  1  0.82908436  0.16570141  0.83307026  1
  Te  Te129  1  0.83574223  0.49821434  0.16845975  1
  Te  Te130  1  0.83074118  0.50039052  0.50979716  1
  Te  Te131  1  0.83082626  0.50033720  0.83077062  1
  Te  Te132  1  0.83915264  0.83892307  0.16211981  1
  Te  Te133  1  0.83354260  0.83937518  0.49818705  1
  Te  Te134  1  0.82766422  0.82894122  0.83933668  1
  Te  Te135  1  0.16184700  -0.00441420  0.00494881  1
  Te  Te136  1  0.16916102  -0.00147366  0.32939622  1
  Te  Te137  1  0.15863585  -0.00034523  0.66751047  1
  Te  Te138  1  0.16890113  0.33234801  0.00450120  1
  Te  Te139  1  0.16650630  0.33170168  0.32836217  1
  Te  Te140  1  0.17471698  0.33314521  0.66678094  1
  Te  Te141  1  0.17020698  0.67070289  0.00478016  1
  Te  Te142  1  0.16715815  0.67109147  0.32622192  1
  Te  Te143  1  0.16427150  0.66678185  0.66520880  1
  Te  Te144  1  0.49910316  -0.00016939  0.00676807  1
  Te  Te145  1  0.49532121  -0.00018341  0.32750712  1
  Te  Te146  1  0.50029693  -0.00220756  0.66568753  1
  Te  Te147  1  0.49864702  0.33327750  -0.00199304  1
  Te  Te148  1  0.50852838  0.33240765  0.33313779  1
  Te  Te149  1  0.49878495  0.32787759  0.66769277  1
  Te  Te150  1  0.49855757  0.66823022  0.00213708  1
  Te  Te151  1  0.50468250  0.66818878  0.32506553  1
  Te  Te152  1  0.50276993  0.66721936  0.66816761  1
  Te  Te153  1  0.83548891  0.00079664  0.00048483  1
  Te  Te154  1  0.83259905  0.00003922  0.32844848  1
  Te  Te155  1  0.83129280  0.00052337  0.66708968  1
  Te  Te156  1  0.83026387  0.32839643  -0.00812783  1
  Te  Te157  1  0.82617128  0.33309321  0.33124165  1
  Te  Te158  1  0.82907719  0.33212860  0.66988487  1
  Te  Te159  1  0.83304090  0.66724966  -0.00581180  1
  Te  Te160  1  0.82472721  0.66639573  0.32956633  1
  Te  Te161  1  0.83434330  0.66746126  0.67047133  1
  Te  Te162  1  -0.00622848  0.16665086  0.00478769  1
  Te  Te163  1  0.00493479  0.16748508  0.32694253  1
  Te  Te164  1  -0.00425889  0.16860448  0.66690973  1
  Te  Te165  1  -0.00026839  0.50613376  -0.00420162  1
  Te  Te166  1  -0.00152174  0.50028559  0.34206817  1
  Te  Te167  1  -0.00393243  0.50098809  0.66733165  1
  Te  Te168  1  -0.00142738  0.83194591  -0.00280351  1
  Te  Te169  1  0.00464714  0.83242155  0.33690752  1
  Te  Te170  1  0.00025587  0.83327406  0.66640971  1
  Te  Te171  1  0.33329315  0.17161982  -0.00219298  1
  Te  Te172  1  0.33002715  0.16393097  0.33765622  1
  Te  Te173  1  0.33156602  0.16860465  0.66189255  1
  Te  Te174  1  0.33344941  0.49951159  0.00217634  1
  Te  Te175  1  0.33293200  0.49838411  0.32938857  1
  Te  Te176  1  0.33224499  0.50110116  0.66600757  1
  Te  Te177  1  0.33275421  0.82993591  -0.00501820  1
  Te  Te178  1  0.32666301  0.83828000  0.33539552  1
  Te  Te179  1  0.33610295  0.82890926  0.67060268  1
  Te  Te180  1  0.67049058  0.16581081  0.00681565  1
  Te  Te181  1  0.66637664  0.17022337  0.32665963  1
  Te  Te182  1  0.66980376  0.16483700  0.66518829  1
  Te  Te183  1  0.66765433  0.50009813  -0.00405873  1
  Te  Te184  1  0.66702661  0.49866992  0.33520333  1
  Te  Te185  1  0.67008739  0.50574104  0.66751182  1
  Te  Te186  1  0.67153309  0.82968604  -0.00109135  1
  Te  Te187  1  0.66670237  0.82827629  0.33745172  1
  Te  Te188  1  0.66608261  0.83005727  0.66587166  1
  Te  Te189  1  -0.00076133  -0.00365236  0.16601558  1
  Te  Te190  1  -0.00169175  -0.00295077  0.50361179  1
  Te  Te191  1  0.00055732  -0.00016278  0.83242029  1
  Te  Te192  1  0.00470420  0.33586031  0.16696758  1
  Te  Te193  1  -0.00083341  0.33362965  0.50605863  1
  Te  Te194  1  -0.00410400  0.33686063  0.82764042  1
  Te  Te195  1  0.00225558  0.67111278  0.16289407  1
  Te  Te196  1  -0.00093469  0.66888662  0.50191148  1
  Te  Te197  1  0.00064985  0.66551664  0.83292167  1
  Te  Te198  1  0.33735851  -0.00002885  0.16924865  1
  Te  Te199  1  0.33583303  0.00358457  0.49701638  1
  Te  Te200  1  0.34103758  -0.00372287  0.83368839  1
  Te  Te201  1  0.33148062  0.33587757  0.16469367  1
  Te  Te202  1  0.33493940  0.32989304  0.50303658  1
  Te  Te203  1  0.33380716  0.33549267  0.83406225  1
  Te  Te204  1  0.33362304  0.66536678  0.16526598  1
  Te  Te205  1  0.33884772  0.66639981  0.50209421  1
  Te  Te206  1  0.33280092  0.66707667  0.83460426  1
  Te  Te207  1  0.66724236  0.00140451  0.16815848  1
  Te  Te208  1  0.66514410  -0.00101684  0.50030581  1
  Te  Te209  1  0.66291160  0.00568575  0.82994235  1
  Te  Te210  1  0.66654667  0.33157768  0.15509683  1
  Te  Te211  1  0.66722417  0.33296408  0.50375427  1
  Te  Te212  1  0.66779475  0.32758093  0.83183847  1
  Te  Te213  1  0.66350200  0.66663405  0.16087176  1
  Te  Te214  1  0.66628118  0.66911818  0.50319433  1
  Te  Te215  1  0.66780828  0.66719656  0.83272191  1
