# generated using pymatgen
data_AgSbTe2
_symmetry_space_group_name_H-M   'P 1'
_cell_length_a   18.32819615
_cell_length_b   18.32797419
_cell_length_c   18.32867039
_cell_angle_alpha   90.00226652
_cell_angle_beta   90.00325407
_cell_angle_gamma   90.00307132
_symmetry_Int_Tables_number   1
_chemical_formula_structural   AgSbTe2
_chemical_formula_sum   'Ag54 Sb54 Te108'
_cell_volume   6156.94321500
_cell_formula_units_Z   54
loop_
 _symmetry_equiv_pos_site_id
 _symmetry_equiv_pos_as_xyz
  1  'x, y, z'
loop_
 _atom_site_type_symbol
 _atom_site_label
 _atom_site_symmetry_multiplicity
 _atom_site_fract_x
 _atom_site_fract_y
 _atom_site_fract_z
 _atom_site_occupancy
  Ag  Ag0  1  0.17141678  0.00340778  0.16297083  1
  Ag  Ag1  1  0.33307969  0.15954550  0.17856830  1
  Ag  Ag2  1  0.82747882  0.50384409  -0.00605333  1
  Ag  Ag3  1  0.50232882  0.49242897  0.67259328  1
  Ag  Ag4  1  0.50345497  0.50121874  0.00023737  1
  Ag  Ag5  1  0.66453686  0.17561798  0.83528929  1
  Ag  Ag6  1  0.33198294  0.00783723  0.33528958  1
  Ag  Ag7  1  0.17454001  0.15983334  0.66506252  1
  Ag  Ag8  1  0.01305799  0.00012558  0.33523322  1
  Ag  Ag9  1  0.49487856  0.32939251  0.50397972  1
  Ag  Ag10  1  0.33168269  0.83441150  0.83691001  1
  Ag  Ag11  1  0.49057358  0.17235724  0.65844658  1
  Ag  Ag12  1  0.33354096  0.84410480  0.49763447  1
  Ag  Ag13  1  0.33455119  0.84247234  0.16775204  1
  Ag  Ag14  1  0.49501433  0.00683100  0.49452117  1
  Ag  Ag15  1  0.65620581  0.33287584  0.33542980  1
  Ag  Ag16  1  0.48974940  0.16390671  0.33765745  1
  Ag  Ag17  1  0.83569265  0.66357561  0.50497485  1
  Ag  Ag18  1  0.01240999  0.83624140  0.49994686  1
  Ag  Ag19  1  0.83387768  0.65795944  0.83283995  1
  Ag  Ag20  1  0.65675210  0.17172028  0.16669666  1
  Ag  Ag21  1  0.82316392  0.33993255  0.82753605  1
  Ag  Ag22  1  0.16913955  0.83860833  -0.00006361  1
  Ag  Ag23  1  0.82664838  0.49741665  0.67398508  1
  Ag  Ag24  1  -0.00088209  0.67248100  0.00076648  1
  Ag  Ag25  1  0.82562560  0.33915975  0.50542727  1
  Ag  Ag26  1  0.66203203  0.49413949  0.83289077  1
  Ag  Ag27  1  0.49152215  0.66692273  0.16551826  1
  Ag  Ag28  1  0.34142216  0.49859839  0.83507195  1
  Ag  Ag29  1  0.33589980  0.49849299  0.16417072  1
  Ag  Ag30  1  0.49578475  0.84288556  0.33125105  1
  Ag  Ag31  1  0.16601970  0.67054513  0.49613876  1
  Ag  Ag32  1  0.66170999  0.82816832  0.49914715  1
  Ag  Ag33  1  0.33561495  0.32546670  0.65972031  1
  Ag  Ag34  1  0.33398859  0.16285963  0.49300626  1
  Ag  Ag35  1  0.17790448  0.33130845  0.49616129  1
  Ag  Ag36  1  0.16734146  0.15781015  0.00183544  1
  Ag  Ag37  1  0.17787196  0.16488018  0.33156497  1
  Ag  Ag38  1  0.01034516  0.50153466  0.16363769  1
  Ag  Ag39  1  0.17296255  0.32492933  0.17153185  1
  Ag  Ag40  1  0.50088539  0.33551123  0.82628876  1
  Ag  Ag41  1  0.17387696  0.66867939  0.16872043  1
  Ag  Ag42  1  0.49080649  0.83141676  0.00736239  1
  Ag  Ag43  1  0.00552378  0.16427377  0.83293399  1
  Ag  Ag44  1  0.48827949  -0.00245690  0.17242813  1
  Ag  Ag45  1  0.00748914  -0.00429865  0.00008467  1
  Ag  Ag46  1  0.33693286  0.32248300  0.33850661  1
  Ag  Ag47  1  0.32928286  0.00783549  0.65927210  1
  Ag  Ag48  1  0.17050435  0.84314400  0.66629841  1
  Ag  Ag49  1  0.16794016  0.00160703  0.83460035  1
  Ag  Ag50  1  0.66660028  0.49771918  0.50320385  1
  Ag  Ag51  1  0.01254871  0.00028160  0.66594181  1
  Ag  Ag52  1  0.84263625  0.82607825  -0.00170752  1
  Ag  Ag53  1  0.66010689  0.49577304  0.16146361  1
  Sb  Sb54  1  0.00865028  0.83173245  0.16660112  1
  Sb  Sb55  1  0.83817727  0.82953669  0.66865117  1
  Sb  Sb56  1  0.66472029  0.66202218  0.33343366  1
  Sb  Sb57  1  0.16954919  0.49290070  0.33094411  1
  Sb  Sb58  1  0.33329866  0.66923847  0.33084988  1
  Sb  Sb59  1  0.33354934  0.33426328  0.00130145  1
  Sb  Sb60  1  0.66685612  0.66324809  0.66555369  1
  Sb  Sb61  1  0.17597340  0.00007210  0.50213573  1
  Sb  Sb62  1  0.65726986  0.17144807  0.49954300  1
  Sb  Sb63  1  0.32964027  0.66919461  0.00310222  1
  Sb  Sb64  1  0.82888618  0.83343409  0.33184181  1
  Sb  Sb65  1  0.00891813  0.16102373  0.50303172  1
  Sb  Sb66  1  0.33750470  0.49548023  0.50020875  1
  Sb  Sb67  1  0.83765349  0.16872755  -0.00215130  1
  Sb  Sb68  1  -0.00423820  0.50384743  0.49662130  1
  Sb  Sb69  1  0.17402453  0.84215128  0.33334580  1
  Sb  Sb70  1  0.67027150  0.66411074  0.00102697  1
  Sb  Sb71  1  0.66248875  0.83131866  0.83120226  1
  Sb  Sb72  1  0.83739385  -0.00042164  0.16494282  1
  Sb  Sb73  1  0.16416420  0.67136197  0.83596754  1
  Sb  Sb74  1  0.49178861  0.00286623  0.83383681  1
  Sb  Sb75  1  0.66105665  0.00268977  0.66526391  1
  Sb  Sb76  1  0.00490516  0.32849083  0.66597206  1
  Sb  Sb77  1  0.49160269  0.83569984  0.66454124  1
  Sb  Sb78  1  0.00073974  0.67044192  0.66932753  1
  Sb  Sb79  1  0.65759997  0.00558188  0.33300581  1
  Sb  Sb80  1  0.49747431  0.66640690  0.49575745  1
  Sb  Sb81  1  0.65584943  0.83224579  0.16978500  1
  Sb  Sb82  1  0.00481631  0.32726837  0.33451350  1
  Sb  Sb83  1  0.66505458  0.33531145  0.00103000  1
  Sb  Sb84  1  0.83412624  0.66463181  0.16484746  1
  Sb  Sb85  1  0.49963553  0.49549360  0.33153615  1
  Sb  Sb86  1  0.65705021  0.33459537  0.66352475  1
  Sb  Sb87  1  0.33258799  0.16617464  0.83044295  1
  Sb  Sb88  1  0.83332328  0.17268845  0.66799413  1
  Sb  Sb89  1  0.83383948  0.33635825  0.16643555  1
  Sb  Sb90  1  0.00262195  0.67234463  0.33111129  1
  Sb  Sb91  1  0.00833870  0.16818123  0.16366622  1
  Sb  Sb92  1  0.83120118  0.16824944  0.33436457  1
  Sb  Sb93  1  0.83993740  0.00105473  0.83382246  1
  Sb  Sb94  1  0.17060193  0.32759636  0.83269431  1
  Sb  Sb95  1  0.83146583  0.49890242  0.33375986  1
  Sb  Sb96  1  0.17033893  0.49779926  0.66602449  1
  Sb  Sb97  1  0.83100365  -0.00038395  0.50065795  1
  Sb  Sb98  1  0.00595712  0.83823316  0.83354959  1
  Sb  Sb99  1  0.33218712  0.66720400  0.66556635  1
  Sb  Sb100  1  0.50209908  0.65959188  0.83945412  1
  Sb  Sb101  1  -0.00249309  0.49656975  0.83718331  1
  Sb  Sb102  1  0.66880349  -0.00027717  0.00082347  1
  Sb  Sb103  1  0.49479628  0.16618120  0.00278188  1
  Sb  Sb104  1  0.16785518  0.50183749  0.00281371  1
  Sb  Sb105  1  0.49415504  0.33260970  0.16929059  1
  Sb  Sb106  1  0.32694008  -0.00067946  0.00507623  1
  Sb  Sb107  1  0.00129370  0.33343373  0.00008601  1
  Te  Te108  1  0.16782648  0.16570771  0.16760400  1
  Te  Te109  1  0.17103548  0.17080911  0.50170894  1
  Te  Te110  1  0.16568292  0.16363447  0.83256070  1
  Te  Te111  1  0.17040679  0.50419685  0.16564099  1
  Te  Te112  1  0.16504775  0.49989834  0.49971588  1
  Te  Te113  1  0.17204961  0.50063795  0.83377165  1
  Te  Te114  1  0.17216720  0.83237590  0.16653746  1
  Te  Te115  1  0.16978849  0.83252157  0.49837806  1
  Te  Te116  1  0.17062207  0.83579867  0.83368935  1
  Te  Te117  1  0.49737435  0.16524114  0.16691767  1
  Te  Te118  1  0.49712897  0.16766085  0.49943801  1
  Te  Te119  1  0.50311908  0.17018546  0.83500995  1
  Te  Te120  1  0.49932166  0.49981613  0.16509656  1
  Te  Te121  1  0.50501055  0.49805634  0.50071488  1
  Te  Te122  1  0.50139438  0.49926354  0.83428228  1
  Te  Te123  1  0.49607790  0.83555394  0.16622864  1
  Te  Te124  1  0.49622176  0.83201798  0.49966486  1
  Te  Te125  1  0.49463579  0.83185024  0.83580613  1
  Te  Te126  1  0.82563948  0.16798755  0.16553864  1
  Te  Te127  1  0.83194434  0.17334968  0.50145148  1
  Te  Te128  1  0.82893639  0.17146075  0.83375244  1
  Te  Te129  1  0.82483115  0.50014683  0.16147057  1
  Te  Te130  1  0.83131800  0.49994657  0.50065177  1
  Te  Te131  1  0.83515731  0.49871786  0.83393349  1
  Te  Te132  1  0.83021219  0.83232268  0.15976765  1
  Te  Te133  1  0.82724268  0.83009594  0.50048081  1
  Te  Te134  1  0.83151599  0.83078494  0.83776319  1
  Te  Te135  1  0.16555916  -0.00146175  0.00021085  1
  Te  Te136  1  0.17034840  0.00415629  0.32992663  1
  Te  Te137  1  0.16892279  -0.00002312  0.66500797  1
  Te  Te138  1  0.16611363  0.32948484  0.00544007  1
  Te  Te139  1  0.17003118  0.32689920  0.33374928  1
  Te  Te140  1  0.17268990  0.32960150  0.66332004  1
  Te  Te141  1  0.16020664  0.67160406  0.00328346  1
  Te  Te142  1  0.16625026  0.66568479  0.33193880  1
  Te  Te143  1  0.16545197  0.67008659  0.66265307  1
  Te  Te144  1  0.50166439  -0.00369234  0.00333558  1
  Te  Te145  1  0.49691574  0.00292275  0.33286445  1
  Te  Te146  1  0.49378428  0.00406391  0.66473864  1
  Te  Te147  1  0.49964845  0.33802285  -0.00852649  1
  Te  Te148  1  0.49796726  0.32973947  0.33504624  1
  Te  Te149  1  0.49615150  0.33333073  0.66585275  1
  Te  Te150  1  0.50060803  0.66689823  0.00564761  1
  Te  Te151  1  0.50027976  0.67306794  0.32668440  1
  Te  Te152  1  0.49964856  0.65862702  0.66617727  1
  Te  Te153  1  0.84160517  -0.00451481  -0.00055049  1
  Te  Te154  1  0.83962106  -0.00018653  0.33301443  1
  Te  Te155  1  0.83844262  -0.00014455  0.66705012  1
  Te  Te156  1  0.83413244  0.33915986  -0.00477397  1
  Te  Te157  1  0.83259043  0.33266139  0.33866023  1
  Te  Te158  1  0.83701326  0.33769370  0.66701185  1
  Te  Te159  1  0.83755247  0.66549435  0.00024911  1
  Te  Te160  1  0.83423831  0.66741358  0.34294984  1
  Te  Te161  1  0.83404060  0.66157062  0.66607937  1
  Te  Te162  1  0.00475382  0.16193956  -0.00355182  1
  Te  Te163  1  0.00124519  0.15952873  0.33321288  1
  Te  Te164  1  0.00268999  0.16063003  0.67044717  1
  Te  Te165  1  -0.00166458  0.50231255  0.00458956  1
  Te  Te166  1  -0.00032670  0.49978543  0.32416099  1
  Te  Te167  1  -0.00411867  0.50044115  0.66655529  1
  Te  Te168  1  0.00293153  0.83416864  0.00014794  1
  Te  Te169  1  -0.00226906  0.83952155  0.33748727  1
  Te  Te170  1  0.00507305  0.83802509  0.66353033  1
  Te  Te171  1  0.32658034  0.16732387  0.00410979  1
  Te  Te172  1  0.33380266  0.16761476  0.33334689  1
  Te  Te173  1  0.33381271  0.16692600  0.66973762  1
  Te  Te174  1  0.33671867  0.50091424  -0.00045697  1
  Te  Te175  1  0.33425450  0.49470106  0.32767572  1
  Te  Te176  1  0.33745307  0.49646713  0.66890533  1
  Te  Te177  1  0.33171129  0.83355203  0.00063528  1
  Te  Te178  1  0.33787328  0.83458196  0.33267160  1
  Te  Te179  1  0.32929081  0.83347208  0.66426845  1
  Te  Te180  1  0.66734982  0.16617602  0.00010597  1
  Te  Te181  1  0.66404017  0.17176351  0.32976884  1
  Te  Te182  1  0.66291384  0.16598766  0.67244701  1
  Te  Te183  1  0.66503491  0.50015787  -0.00141366  1
  Te  Te184  1  0.66594645  0.49398072  0.33539964  1
  Te  Te185  1  0.66696158  0.49930822  0.66776736  1
  Te  Te186  1  0.66376505  0.83296145  -0.00048573  1
  Te  Te187  1  0.66053084  0.83395348  0.33846797  1
  Te  Te188  1  0.66569013  0.83437678  0.66097157  1
  Te  Te189  1  0.00491754  0.00002550  0.16556566  1
  Te  Te190  1  -0.00331741  -0.00474205  0.50061894  1
  Te  Te191  1  0.00489664  0.00344244  0.83297357  1
  Te  Te192  1  0.00541563  0.33957086  0.16796516  1
  Te  Te193  1  -0.00051251  0.33361330  0.49938279  1
  Te  Te194  1  -0.00043593  0.32657711  0.83320533  1
  Te  Te195  1  0.00193327  0.66306795  0.16406957  1
  Te  Te196  1  0.00155612  0.67191243  0.49981670  1
  Te  Te197  1  -0.00492352  0.66623576  0.83896523  1
  Te  Te198  1  0.33194864  0.00058633  0.16823859  1
  Te  Te199  1  0.33647485  0.00173441  0.49862875  1
  Te  Te200  1  0.32803673  -0.00400523  0.82743439  1
  Te  Te201  1  0.33084566  0.33549818  0.16761961  1
  Te  Te202  1  0.33468769  0.33462729  0.49951543  1
  Te  Te203  1  0.33670490  0.33715687  0.83075487  1
  Te  Te204  1  0.33321297  0.66267897  0.16703516  1
  Te  Te205  1  0.32761121  0.66768014  0.49809528  1
  Te  Te206  1  0.33321062  0.66637862  0.83319079  1
  Te  Te207  1  0.66577779  0.00440597  0.16716491  1
  Te  Te208  1  0.65951481  -0.00277600  0.50016146  1
  Te  Te209  1  0.66646619  0.00256267  0.83275199  1
  Te  Te210  1  0.66616030  0.33356929  0.17126054  1
  Te  Te211  1  0.66566019  0.33564040  0.49719512  1
  Te  Te212  1  0.66548373  0.33516152  0.83354893  1
  Te  Te213  1  0.66278799  0.66068949  0.16821263  1
  Te  Te214  1  0.66912249  0.66388520  0.49911780  1
  Te  Te215  1  0.67389165  0.66207224  0.83302098  1
