# generated using pymatgen
data_AgSbTe2
_symmetry_space_group_name_H-M   'P 1'
_cell_length_a   18.33329961
_cell_length_b   18.32848134
_cell_length_c   18.33907195
_cell_angle_alpha   89.99748825
_cell_angle_beta   90.00433023
_cell_angle_gamma   90.00082502
_symmetry_Int_Tables_number   1
_chemical_formula_structural   AgSbTe2
_chemical_formula_sum   'Ag54 Sb54 Te108'
_cell_volume   6162.32317104
_cell_formula_units_Z   54
loop_
 _symmetry_equiv_pos_site_id
 _symmetry_equiv_pos_as_xyz
  1  'x, y, z'
loop_
 _atom_site_type_symbol
 _atom_site_label
 _atom_site_symmetry_multiplicity
 _atom_site_fract_x
 _atom_site_fract_y
 _atom_site_fract_z
 _atom_site_occupancy
  Ag  Ag0  1  0.83619585  0.33709554  0.17431289  1
  Ag  Ag1  1  0.17684976  -0.00167784  0.16790622  1
  Ag  Ag2  1  0.32963299  0.83464481  0.16887287  1
  Ag  Ag3  1  0.33382592  0.83148480  0.48603149  1
  Ag  Ag4  1  0.00414181  0.83337502  0.83601854  1
  Ag  Ag5  1  0.66561831  0.00457282  0.00167235  1
  Ag  Ag6  1  0.33775508  0.15994571  0.16738628  1
  Ag  Ag7  1  0.32768702  0.50116727  0.16604840  1
  Ag  Ag8  1  -0.01029384  0.49782483  0.49089029  1
  Ag  Ag9  1  0.82669390  0.17703698  0.33257408  1
  Ag  Ag10  1  0.33638520  0.66749790  0.66658472  1
  Ag  Ag11  1  0.16724824  0.82669401  0.00724207  1
  Ag  Ag12  1  0.33724404  -0.00335374  0.32891878  1
  Ag  Ag13  1  0.32858242  0.66699298  0.00125352  1
  Ag  Ag14  1  0.84005641  0.49516178  0.33035994  1
  Ag  Ag15  1  0.83594807  0.83148152  0.32894899  1
  Ag  Ag16  1  0.33621882  0.16326710  0.83775722  1
  Ag  Ag17  1  0.49732501  0.00211872  0.17002072  1
  Ag  Ag18  1  0.50590303  0.49961660  0.00495825  1
  Ag  Ag19  1  0.16152499  0.33415307  0.83809402  1
  Ag  Ag20  1  0.16526010  0.50267406  0.01030750  1
  Ag  Ag21  1  0.83134031  0.33729543  0.49627986  1
  Ag  Ag22  1  0.15675784  0.33608144  0.49118595  1
  Ag  Ag23  1  0.83321934  0.33503390  0.82851703  1
  Ag  Ag24  1  0.51211304  0.34122486  0.49731275  1
  Ag  Ag25  1  0.48966654  0.84408811  0.33448137  1
  Ag  Ag26  1  0.83131299  0.65436387  0.49353218  1
  Ag  Ag27  1  0.82811237  0.17460204  0.65651660  1
  Ag  Ag28  1  0.50227111  0.49858715  0.65253533  1
  Ag  Ag29  1  0.67133992  0.33166115  0.66087002  1
  Ag  Ag30  1  0.00083884  0.82707190  0.49556837  1
  Ag  Ag31  1  -0.01085443  0.33611676  0.65712433  1
  Ag  Ag32  1  0.83044034  0.00133498  0.16808414  1
  Ag  Ag33  1  0.67043305  0.33539777  -0.00294969  1
  Ag  Ag34  1  0.66625673  0.16604565  0.17301849  1
  Ag  Ag35  1  0.50178261  0.65905150  0.49743944  1
  Ag  Ag36  1  0.50211367  -0.00187289  0.48873384  1
  Ag  Ag37  1  0.83851095  0.82337942  0.00947119  1
  Ag  Ag38  1  0.83400999  0.65741107  0.17255440  1
  Ag  Ag39  1  0.00131760  0.66485864  0.00101506  1
  Ag  Ag40  1  0.33011039  0.83541375  0.83933293  1
  Ag  Ag41  1  -0.00241607  0.33805987  0.33794157  1
  Ag  Ag42  1  0.50039666  0.49714190  0.33449262  1
  Ag  Ag43  1  0.66599863  0.17438229  0.49495759  1
  Ag  Ag44  1  0.50040956  -0.00009618  0.83641387  1
  Ag  Ag45  1  0.66746145  0.49425759  0.83124937  1
  Ag  Ag46  1  0.17305393  0.83075759  0.32795973  1
  Ag  Ag47  1  0.83241347  0.50090931  0.01125716  1
  Ag  Ag48  1  0.00157556  0.49804509  0.17260511  1
  Ag  Ag49  1  0.16286831  0.34428976  0.16840970  1
  Ag  Ag50  1  0.66449511  0.00903862  0.66829241  1
  Ag  Ag51  1  0.16197159  0.49710791  0.32877622  1
  Ag  Ag52  1  0.67018970  0.49356413  0.50066026  1
  Ag  Ag53  1  0.50436839  0.16356425  0.33296660  1
  Sb  Sb54  1  0.33492429  0.67017735  0.33055959  1
  Sb  Sb55  1  0.33803849  -0.00553972  0.00770876  1
  Sb  Sb56  1  0.50200705  0.33184496  0.83119390  1
  Sb  Sb57  1  -0.00486778  0.34132253  0.00231826  1
  Sb  Sb58  1  0.66522409  0.83458440  0.49789499  1
  Sb  Sb59  1  0.34087073  0.16390118  0.49590762  1
  Sb  Sb60  1  0.17343926  0.00088417  0.84189748  1
  Sb  Sb61  1  0.34032185  -0.00354636  0.66421113  1
  Sb  Sb62  1  0.66976028  0.49195135  0.16924773  1
  Sb  Sb63  1  0.83305203  0.83741253  0.66396005  1
  Sb  Sb64  1  0.16825032  0.16953200  0.33071762  1
  Sb  Sb65  1  -0.00493615  -0.01016452  0.00224225  1
  Sb  Sb66  1  0.17178729  0.00113870  0.49293459  1
  Sb  Sb67  1  0.16708902  0.66270340  0.83729048  1
  Sb  Sb68  1  0.50536548  0.16950534  0.66070664  1
  Sb  Sb69  1  0.66133525  0.00304877  0.33121650  1
  Sb  Sb70  1  0.00119365  0.00078130  0.33181282  1
  Sb  Sb71  1  0.66619560  0.83169090  0.83529575  1
  Sb  Sb72  1  0.33592838  0.33925983  0.00221966  1
  Sb  Sb73  1  0.83398168  0.66145045  0.83421855  1
  Sb  Sb74  1  0.16431472  0.17069791  0.66612972  1
  Sb  Sb75  1  0.50291941  0.33120613  0.17313777  1
  Sb  Sb76  1  0.83036030  0.17222453  0.00564406  1
  Sb  Sb77  1  0.33607096  0.50037486  0.83965561  1
  Sb  Sb78  1  0.00160931  0.66113713  0.66658996  1
  Sb  Sb79  1  0.50090629  0.16929575  0.00571693  1
  Sb  Sb80  1  0.66776945  0.84154451  0.16697790  1
  Sb  Sb81  1  0.66367421  0.17164499  0.83235540  1
  Sb  Sb82  1  -0.00702915  0.17283169  0.49819153  1
  Sb  Sb83  1  0.82809048  0.49406869  0.66021698  1
  Sb  Sb84  1  0.33634684  0.33681544  0.66592632  1
  Sb  Sb85  1  0.33623712  0.50429531  0.49350095  1
  Sb  Sb86  1  0.33014067  0.33280874  0.33227633  1
  Sb  Sb87  1  0.66382358  0.66181576  0.66322751  1
  Sb  Sb88  1  0.00143117  0.16642423  0.83266336  1
  Sb  Sb89  1  0.66872262  0.66384312  0.33400013  1
  Sb  Sb90  1  -0.00379363  0.50020014  0.83466179  1
  Sb  Sb91  1  -0.00184980  0.17348182  0.16887422  1
  Sb  Sb92  1  0.17152050  0.49707293  0.66402458  1
  Sb  Sb93  1  -0.00277985  0.66049629  0.32884459  1
  Sb  Sb94  1  0.00119538  0.82627392  0.16934737  1
  Sb  Sb95  1  -0.00786992  0.00395653  0.66437011  1
  Sb  Sb96  1  0.50349023  0.66733763  0.17194326  1
  Sb  Sb97  1  0.16832791  0.83379032  0.66566245  1
  Sb  Sb98  1  0.67333348  0.33263153  0.33666953  1
  Sb  Sb99  1  0.66750830  0.66202629  0.00082938  1
  Sb  Sb100  1  0.82811502  0.00384286  0.83864062  1
  Sb  Sb101  1  0.49721787  0.66842483  0.83066236  1
  Sb  Sb102  1  0.49835105  0.83098069  0.65946043  1
  Sb  Sb103  1  0.16688417  0.66299039  0.49752079  1
  Sb  Sb104  1  0.49825353  0.83035589  0.00544309  1
  Sb  Sb105  1  0.16946391  0.17027044  0.00371827  1
  Sb  Sb106  1  0.82673298  0.00273077  0.49247143  1
  Sb  Sb107  1  0.16489626  0.66408639  0.16564005  1
  Te  Te108  1  0.17188907  0.16200272  0.16736971  1
  Te  Te109  1  0.16745450  0.17355681  0.49891899  1
  Te  Te110  1  0.17219834  0.17173975  0.83458601  1
  Te  Te111  1  0.16599519  0.50163297  0.16728924  1
  Te  Te112  1  0.16703915  0.49569616  0.49548601  1
  Te  Te113  1  0.16650855  0.49352352  0.83526058  1
  Te  Te114  1  0.16669510  0.83171979  0.16683332  1
  Te  Te115  1  0.16835423  0.83373604  0.49671659  1
  Te  Te116  1  0.16772193  0.83413728  0.83706439  1
  Te  Te117  1  0.49867199  0.16497064  0.17112093  1
  Te  Te118  1  0.50385349  0.16531771  0.49489344  1
  Te  Te119  1  0.49572300  0.16318991  0.83390580  1
  Te  Te120  1  0.49997428  0.49994558  0.16883974  1
  Te  Te121  1  0.49735291  0.49994624  0.49619101  1
  Te  Te122  1  0.50356004  0.49993290  0.84194063  1
  Te  Te123  1  0.49806462  0.83558235  0.17306786  1
  Te  Te124  1  0.49761965  0.83485946  0.49465808  1
  Te  Te125  1  0.49643298  0.83713618  0.83423548  1
  Te  Te126  1  0.83135292  0.16836368  0.17099288  1
  Te  Te127  1  0.82789238  0.16847187  0.49613792  1
  Te  Te128  1  0.83312799  0.17307313  0.83323231  1
  Te  Te129  1  0.83100218  0.49786444  0.17037731  1
  Te  Te130  1  0.83244106  0.49799442  0.49835873  1
  Te  Te131  1  0.83042349  0.49530543  0.83694878  1
  Te  Te132  1  0.83429245  0.83712838  0.16649758  1
  Te  Te133  1  0.83567789  0.83487694  0.49683498  1
  Te  Te134  1  0.83625935  0.83329630  0.83544576  1
  Te  Te135  1  0.16579354  -0.00497204  0.00777569  1
  Te  Te136  1  0.17047086  -0.00293978  0.32795452  1
  Te  Te137  1  0.16458030  0.00246704  0.66758361  1
  Te  Te138  1  0.16598658  0.33766337  0.00364370  1
  Te  Te139  1  0.16313938  0.33547509  0.33022824  1
  Te  Te140  1  0.16565151  0.33355619  0.66761882  1
  Te  Te141  1  0.16662489  0.66618624  0.00013454  1
  Te  Te142  1  0.16639333  0.66912816  0.33323963  1
  Te  Te143  1  0.17467325  0.66567570  0.66716540  1
  Te  Te144  1  0.50436531  -0.00113513  0.00325367  1
  Te  Te145  1  0.49887165  0.00090695  0.33103740  1
  Te  Te146  1  0.50493941  0.00070751  0.66881971  1
  Te  Te147  1  0.50565450  0.33954246  0.00014210  1
  Te  Te148  1  0.49722926  0.33469732  0.33844352  1
  Te  Te149  1  0.50427431  0.33718643  0.66250782  1
  Te  Te150  1  0.49755013  0.66160401  0.00141267  1
  Te  Te151  1  0.50146644  0.66145099  0.33862689  1
  Te  Te152  1  0.49666440  0.66238417  0.66142378  1
  Te  Te153  1  0.82788605  -0.00042751  0.00447878  1
  Te  Te154  1  0.83397000  -0.00456746  0.32788916  1
  Te  Te155  1  0.82630210  0.00796284  0.66754295  1
  Te  Te156  1  0.83146896  0.33791252  0.00091594  1
  Te  Te157  1  0.83560023  0.33521035  0.33397634  1
  Te  Te158  1  0.83135100  0.33370288  0.66600087  1
  Te  Te159  1  0.83398416  0.66474182  -0.00078853  1
  Te  Te160  1  0.83382837  0.66830164  0.33430709  1
  Te  Te161  1  0.83373986  0.66745866  0.65954125  1
  Te  Te162  1  0.00031009  0.16419557  -0.00084837  1
  Te  Te163  1  -0.00661681  0.17262486  0.33370094  1
  Te  Te164  1  -0.00850633  0.17368286  0.66610225  1
  Te  Te165  1  -0.00012915  0.50458853  0.00029644  1
  Te  Te166  1  0.00020763  0.49848408  0.33320310  1
  Te  Te167  1  0.00244646  0.49513806  0.66440924  1
  Te  Te168  1  -0.00021656  0.82703934  0.00104316  1
  Te  Te169  1  -0.00120411  0.83322259  0.33607757  1
  Te  Te170  1  0.00058192  0.83283577  0.66554649  1
  Te  Te171  1  0.33447590  0.16595782  0.00201924  1
  Te  Te172  1  0.33666432  0.16158819  0.32875720  1
  Te  Te173  1  0.33355673  0.16610574  0.67098803  1
  Te  Te174  1  0.32936584  0.50471026  0.00379621  1
  Te  Te175  1  0.33093648  0.50084937  0.32654864  1
  Te  Te176  1  0.34036197  0.50519067  0.66920399  1
  Te  Te177  1  0.33239843  0.82937564  0.00223902  1
  Te  Te178  1  0.33231953  0.83402595  0.33009492  1
  Te  Te179  1  0.33272022  0.82898236  0.67407614  1
  Te  Te180  1  0.66594714  0.16710223  0.00298285  1
  Te  Te181  1  0.66597046  0.16701504  0.33394816  1
  Te  Te182  1  0.66944079  0.16993729  0.66578505  1
  Te  Te183  1  0.66883126  0.49752060  0.00241908  1
  Te  Te184  1  0.66242150  0.49884790  0.33858827  1
  Te  Te185  1  0.66258819  0.49616172  0.66441300  1
  Te  Te186  1  0.67096128  0.83609210  -0.00109052  1
  Te  Te187  1  0.67332267  0.83348358  0.33368528  1
  Te  Te188  1  0.66649153  0.84009265  0.66785217  1
  Te  Te189  1  -0.00486586  0.00250463  0.16671302  1
  Te  Te190  1  0.00180024  -0.00738568  0.50029319  1
  Te  Te191  1  0.00083554  -0.00634172  0.83240972  1
  Te  Te192  1  -0.00004058  0.33841084  0.16825798  1
  Te  Te193  1  -0.00234834  0.33520167  0.49858809  1
  Te  Te194  1  -0.00081944  0.33210296  0.83234608  1
  Te  Te195  1  -0.00891560  0.65972263  0.16107111  1
  Te  Te196  1  -0.00298350  0.66491084  0.50230884  1
  Te  Te197  1  0.00009619  0.67369188  0.83584580  1
  Te  Te198  1  0.33514331  -0.00149366  0.16806311  1
  Te  Te199  1  0.33953600  -0.00469569  0.49621206  1
  Te  Te200  1  0.33783904  -0.00071561  0.83294715  1
  Te  Te201  1  0.33032845  0.33624826  0.16674336  1
  Te  Te202  1  0.33119744  0.33209396  0.50076469  1
  Te  Te203  1  0.32979130  0.32926996  0.83391646  1
  Te  Te204  1  0.33644971  0.66723309  0.16234592  1
  Te  Te205  1  0.33557425  0.67184937  0.50141311  1
  Te  Te206  1  0.33312155  0.67121715  0.83628500  1
  Te  Te207  1  0.66601677  0.00582636  0.16374874  1
  Te  Te208  1  0.66149457  0.00207583  0.50429308  1
  Te  Te209  1  0.66177840  0.00053360  0.83530157  1
  Te  Te210  1  0.67005565  0.32655809  0.16120512  1
  Te  Te211  1  0.66889979  0.33345127  0.50023417  1
  Te  Te212  1  0.66888777  0.33606391  0.83486995  1
  Te  Te213  1  0.67549147  0.66879381  0.16595582  1
  Te  Te214  1  0.66721232  0.66244854  0.50100013  1
  Te  Te215  1  0.66570885  0.65683233  0.83163548  1
