# generated using pymatgen
data_AgSbTe2
_symmetry_space_group_name_H-M   'P 1'
_cell_length_a   18.38174243
_cell_length_b   18.38611913
_cell_length_c   18.38162772
_cell_angle_alpha   89.99857727
_cell_angle_beta   90.00228052
_cell_angle_gamma   90.00140784
_symmetry_Int_Tables_number   1
_chemical_formula_structural   AgSbTe2
_chemical_formula_sum   'Ag54 Sb54 Te108'
_cell_volume   6212.41860552
_cell_formula_units_Z   54
loop_
 _symmetry_equiv_pos_site_id
 _symmetry_equiv_pos_as_xyz
  1  'x, y, z'
loop_
 _atom_site_type_symbol
 _atom_site_label
 _atom_site_symmetry_multiplicity
 _atom_site_fract_x
 _atom_site_fract_y
 _atom_site_fract_z
 _atom_site_occupancy
  Ag  Ag0  1  0.00317061  0.15368710  0.84683323  1
  Ag  Ag1  1  0.00361039  0.67379193  0.01363324  1
  Ag  Ag2  1  0.47803832  0.67846478  0.17377507  1
  Ag  Ag3  1  0.32490107  0.83601721  0.48947549  1
  Ag  Ag4  1  0.83633224  0.83098299  0.67013579  1
  Ag  Ag5  1  0.16789551  0.49790495  0.01325594  1
  Ag  Ag6  1  0.68059654  0.83231523  0.84083643  1
  Ag  Ag7  1  0.66998610  0.33627735  0.33060267  1
  Ag  Ag8  1  -0.00289349  0.83594431  0.84461922  1
  Ag  Ag9  1  0.16012793  0.00347495  0.83231667  1
  Ag  Ag10  1  0.84174103  0.82925895  0.32804683  1
  Ag  Ag11  1  0.00879177  -0.00119297  0.33288225  1
  Ag  Ag12  1  -0.00290899  0.32694269  0.32968454  1
  Ag  Ag13  1  0.16497165  0.32512735  0.84727184  1
  Ag  Ag14  1  0.49648410  0.32516965  0.83608812  1
  Ag  Ag15  1  0.50529239  0.67574842  0.48354409  1
  Ag  Ag16  1  0.84630571  0.15947499  0.00576581  1
  Ag  Ag17  1  0.00015925  0.15160407  0.48449361  1
  Ag  Ag18  1  0.16705055  0.50096639  0.32315007  1
  Ag  Ag19  1  0.85526203  0.67994456  0.17081150  1
  Ag  Ag20  1  0.49424844  0.51983576  0.32955914  1
  Ag  Ag21  1  0.67816899  0.83125561  0.16775999  1
  Ag  Ag22  1  0.83455928  0.67516219  0.84498618  1
  Ag  Ag23  1  0.00320115  0.16284751  0.16651771  1
  Ag  Ag24  1  0.83756402  0.33639072  0.49323465  1
  Ag  Ag25  1  0.15843067  -0.00247896  0.49310387  1
  Ag  Ag26  1  0.32470135  0.66684903  0.01323426  1
  Ag  Ag27  1  0.00055882  -0.00361029  0.65619118  1
  Ag  Ag28  1  -0.00823283  0.82741988  0.16526201  1
  Ag  Ag29  1  0.32026204  0.16446307  0.16876646  1
  Ag  Ag30  1  0.16659953  0.65977498  0.16793842  1
  Ag  Ag31  1  -0.00044361  0.67751126  0.32554778  1
  Ag  Ag32  1  0.50008387  -0.00530053  0.16909261  1
  Ag  Ag33  1  0.00032076  0.83573607  0.48460664  1
  Ag  Ag34  1  0.66930224  0.15397287  0.16932191  1
  Ag  Ag35  1  0.83822571  -0.00903416  0.16765761  1
  Ag  Ag36  1  0.83953995  0.83441180  0.01254642  1
  Ag  Ag37  1  0.16418149  0.16692103  0.01035249  1
  Ag  Ag38  1  0.66041679  0.66943572  0.32982726  1
  Ag  Ag39  1  0.32365873  0.33575986  0.00716113  1
  Ag  Ag40  1  0.33271364  -0.00449756  0.33101135  1
  Ag  Ag41  1  0.16672962  0.34529856  0.16523667  1
  Ag  Ag42  1  0.15929387  0.83005045  0.00352306  1
  Ag  Ag43  1  0.67063474  0.67267459  0.64926547  1
  Ag  Ag44  1  0.15924852  0.16641038  0.32490721  1
  Ag  Ag45  1  0.31874644  0.51392910  0.16772063  1
  Ag  Ag46  1  0.83164517  0.67326230  0.48878148  1
  Ag  Ag47  1  0.00809426  0.51486823  0.17044248  1
  Ag  Ag48  1  0.49498920  0.83524593  0.32956618  1
  Ag  Ag49  1  0.34692604  0.67957578  0.32045821  1
  Ag  Ag50  1  0.49393934  -0.00168566  0.83475293  1
  Ag  Ag51  1  0.49490354  -0.00613191  0.48523017  1
  Ag  Ag52  1  0.33061533  0.82848701  0.17071228  1
  Ag  Ag53  1  0.49408382  0.15731490  0.32675340  1
  Sb  Sb54  1  0.83818003  0.50714653  0.33124558  1
  Sb  Sb55  1  0.67124900  0.66897858  0.01001921  1
  Sb  Sb56  1  0.16651415  0.83579052  0.32326192  1
  Sb  Sb57  1  0.83465720  0.50997140  0.66471915  1
  Sb  Sb58  1  0.33256241  0.50839503  0.48615030  1
  Sb  Sb59  1  0.16190796  0.32675066  0.49101597  1
  Sb  Sb60  1  0.66912217  0.16033422  0.84063483  1
  Sb  Sb61  1  0.00195926  0.50340783  0.84171194  1
  Sb  Sb62  1  0.33911000  0.66993028  0.65948655  1
  Sb  Sb63  1  0.32902795  -0.00270461  0.66049296  1
  Sb  Sb64  1  -0.00621369  0.67594698  0.66366284  1
  Sb  Sb65  1  0.83753778  0.15902292  0.66927362  1
  Sb  Sb66  1  -0.00030959  0.32450782  0.66121226  1
  Sb  Sb67  1  0.83871942  -0.00792224  0.84112663  1
  Sb  Sb68  1  0.49968383  0.50135988  0.66005528  1
  Sb  Sb69  1  0.16477674  -0.00115221  0.16968006  1
  Sb  Sb70  1  0.00598071  0.33259111  0.00820650  1
  Sb  Sb71  1  0.49234903  0.50091722  0.00893794  1
  Sb  Sb72  1  0.67160057  0.16455957  0.48980154  1
  Sb  Sb73  1  0.66394051  -0.00503854  0.33082810  1
  Sb  Sb74  1  0.66502524  0.50613405  0.83428809  1
  Sb  Sb75  1  0.00501678  -0.00542135  0.00743670  1
  Sb  Sb76  1  0.50747199  0.83416201  0.65989409  1
  Sb  Sb77  1  0.49511148  0.33126297  0.16710818  1
  Sb  Sb78  1  0.16029492  0.83359999  0.67163688  1
  Sb  Sb79  1  0.83680863  0.33368141  0.83191534  1
  Sb  Sb80  1  0.50414943  0.67219760  0.83942991  1
  Sb  Sb81  1  0.32674203  0.16441295  0.84131473  1
  Sb  Sb82  1  0.16555550  0.67552755  0.48763345  1
  Sb  Sb83  1  0.50326281  0.16325482  0.66128788  1
  Sb  Sb84  1  0.32946078  0.83537871  0.84005041  1
  Sb  Sb85  1  0.66680034  0.50642601  0.17074005  1
  Sb  Sb86  1  0.32941937  -0.00266511  0.01151339  1
  Sb  Sb87  1  0.84147772  0.50563928  0.00422314  1
  Sb  Sb88  1  0.83662964  -0.00408917  0.49313783  1
  Sb  Sb89  1  0.66853726  0.33788313  0.66274282  1
  Sb  Sb90  1  0.66340949  0.33073306  0.00796998  1
  Sb  Sb91  1  0.33280314  0.33262837  0.67608249  1
  Sb  Sb92  1  0.66708225  0.50403308  0.49443117  1
  Sb  Sb93  1  0.83747880  0.16053801  0.32594240  1
  Sb  Sb94  1  0.33158201  0.33207254  0.32704191  1
  Sb  Sb95  1  0.16483320  0.16430912  0.66672825  1
  Sb  Sb96  1  0.67270175  -0.00891363  0.66750684  1
  Sb  Sb97  1  0.16096953  0.66909329  0.84390107  1
  Sb  Sb98  1  0.67091228  0.83328872  0.49052040  1
  Sb  Sb99  1  0.33164989  0.49898375  0.84353664  1
  Sb  Sb100  1  0.83920540  0.33289352  0.17157612  1
  Sb  Sb101  1  0.50189658  0.33179758  0.49456094  1
  Sb  Sb102  1  0.32730820  0.15953856  0.48895947  1
  Sb  Sb103  1  0.66657797  -0.00232880  0.00400272  1
  Sb  Sb104  1  0.50018955  0.83282219  0.01021144  1
  Sb  Sb105  1  0.16513653  0.50067995  0.66913594  1
  Sb  Sb106  1  0.00189238  0.50628688  0.48966865  1
  Sb  Sb107  1  0.49559974  0.16577815  0.00725835  1
  Te  Te108  1  0.16447779  0.15765000  0.16955050  1
  Te  Te109  1  0.16000711  0.15931202  0.49904437  1
  Te  Te110  1  0.16210419  0.16691095  0.83177089  1
  Te  Te111  1  0.16435803  0.49924829  0.16842829  1
  Te  Te112  1  0.16836779  0.49793864  0.49841641  1
  Te  Te113  1  0.16681899  0.49500306  0.83727450  1
  Te  Te114  1  0.17221827  0.83634087  0.16058725  1
  Te  Te115  1  0.16323998  0.83883299  0.50583788  1
  Te  Te116  1  0.16211778  0.83639300  0.83997900  1
  Te  Te117  1  0.51063674  0.16581887  0.16913593  1
  Te  Te118  1  0.50014230  0.16198252  0.49375207  1
  Te  Te119  1  0.50051897  0.16481518  0.83305212  1
  Te  Te120  1  0.49863583  0.49843195  0.17284891  1
  Te  Te121  1  0.49883119  0.50199352  0.49189194  1
  Te  Te122  1  0.49994130  0.49837689  0.83210497  1
  Te  Te123  1  0.48991081  0.83386070  0.16829069  1
  Te  Te124  1  0.50480491  0.83396067  0.49660121  1
  Te  Te125  1  0.49812799  0.83603321  0.83263193  1
  Te  Te126  1  0.82927470  0.16888342  0.16245881  1
  Te  Te127  1  0.83885327  0.16747383  0.50119347  1
  Te  Te128  1  0.83827489  0.16680791  0.83967796  1
  Te  Te129  1  0.83950052  0.50408577  0.16575439  1
  Te  Te130  1  0.83432219  0.49878195  0.50056646  1
  Te  Te131  1  0.83296723  0.50713238  0.83289226  1
  Te  Te132  1  0.83357871  0.83296983  0.16846265  1
  Te  Te133  1  0.83681102  0.83196873  0.49329181  1
  Te  Te134  1  0.83699348  0.83286284  0.83393785  1
  Te  Te135  1  0.16971997  0.00694706  -0.00895422  1
  Te  Te136  1  0.16944635  0.00289602  0.33488080  1
  Te  Te137  1  0.16168603  -0.00122754  0.67066165  1
  Te  Te138  1  0.16643796  0.33002222  0.00508461  1
  Te  Te139  1  0.16489059  0.32777812  0.32907640  1
  Te  Te140  1  0.16739082  0.33348130  0.67196311  1
  Te  Te141  1  0.16532833  0.66931152  0.00125495  1
  Te  Te142  1  0.15718167  0.66280212  0.33172404  1
  Te  Te143  1  0.16858302  0.66507717  0.66665005  1
  Te  Te144  1  0.49747371  0.00032455  -0.00512645  1
  Te  Te145  1  0.50112178  -0.00322176  0.32915905  1
  Te  Te146  1  0.50079240  0.00053197  0.67494568  1
  Te  Te147  1  0.49590629  0.33327865  -0.00489882  1
  Te  Te148  1  0.50414854  0.32088739  0.33470391  1
  Te  Te149  1  0.50130954  0.33374836  0.67382777  1
  Te  Te150  1  0.49291757  0.66466545  0.00732949  1
  Te  Te151  1  0.50096087  0.67432774  0.33029904  1
  Te  Te152  1  0.50774863  0.66535330  0.66663563  1
  Te  Te153  1  0.83193917  -0.00009540  0.00688429  1
  Te  Te154  1  0.83186575  -0.00625015  0.32773684  1
  Te  Te155  1  0.83897639  -0.00775929  0.66497800  1
  Te  Te156  1  0.83209968  0.33283156  -0.00282697  1
  Te  Te157  1  0.83287399  0.33454597  0.33501717  1
  Te  Te158  1  0.83221174  0.33426118  0.66000757  1
  Te  Te159  1  0.83801625  0.67044807  0.00438683  1
  Te  Te160  1  0.84089563  0.66674291  0.33110353  1
  Te  Te161  1  0.82969155  0.67236440  0.66104852  1
  Te  Te162  1  0.00341396  0.16940036  0.00292476  1
  Te  Te163  1  -0.00194005  0.16527917  0.32873359  1
  Te  Te164  1  -0.00064973  0.15794858  0.66902596  1
  Te  Te165  1  0.00651907  0.50497719  0.00688778  1
  Te  Te166  1  0.00368759  0.49260061  0.32895049  1
  Te  Te167  1  0.00017261  0.49804875  0.66595671  1
  Te  Te168  1  -0.00076768  0.83390828  0.00474382  1
  Te  Te169  1  0.00303311  0.83763968  0.32738841  1
  Te  Te170  1  -0.00406044  0.83750261  0.67369522  1
  Te  Te171  1  0.32927935  0.16983841  0.00605032  1
  Te  Te172  1  0.33415346  0.16501360  0.32972446  1
  Te  Te173  1  0.33557382  0.16644621  0.66610188  1
  Te  Te174  1  0.32855308  0.49998220  0.00678881  1
  Te  Te175  1  0.33148414  0.49842265  0.32692186  1
  Te  Te176  1  0.33326829  0.50086014  0.66521250  1
  Te  Te177  1  0.33125658  0.82897867  0.00445827  1
  Te  Te178  1  0.32962883  0.83508255  0.33242220  1
  Te  Te179  1  0.33521316  0.83271585  0.66158279  1
  Te  Te180  1  0.66942502  0.16695045  0.00738479  1
  Te  Te181  1  0.66973427  0.16869043  0.32869839  1
  Te  Te182  1  0.66936072  0.16757518  0.66854438  1
  Te  Te183  1  0.66673956  0.49810691  -0.00020150  1
  Te  Te184  1  0.66024884  0.49932006  0.33312903  1
  Te  Te185  1  0.66647189  0.51081842  0.66637483  1
  Te  Te186  1  0.66943119  0.83261530  0.00250820  1
  Te  Te187  1  0.66588337  0.82956174  0.32814465  1
  Te  Te188  1  0.67304897  0.82892875  0.67209558  1
  Te  Te189  1  -0.00191867  0.00189533  0.17137844  1
  Te  Te190  1  -0.00211361  -0.00426742  0.49613894  1
  Te  Te191  1  -0.00074987  -0.00239462  0.83893281  1
  Te  Te192  1  0.00365186  0.32294250  0.17075604  1
  Te  Te193  1  -0.00277735  0.33630938  0.49452851  1
  Te  Te194  1  0.00347164  0.33445714  0.82988169  1
  Te  Te195  1  0.00951876  0.67094169  0.16720923  1
  Te  Te196  1  -0.00344805  0.67277158  0.49655328  1
  Te  Te197  1  -0.00577005  0.67051707  0.83125674  1
  Te  Te198  1  0.34006140  0.00556130  0.17037478  1
  Te  Te199  1  0.33499229  -0.00435711  0.49554234  1
  Te  Te200  1  0.33210473  -0.00009693  0.82938920  1
  Te  Te201  1  0.32907951  0.32313403  0.16498230  1
  Te  Te202  1  0.33241771  0.33324380  0.50544828  1
  Te  Te203  1  0.33171665  0.33195611  0.84249690  1
  Te  Te204  1  0.32431722  0.66758248  0.16828900  1
  Te  Te205  1  0.33791531  0.67487866  0.49320405  1
  Te  Te206  1  0.33378250  0.66643001  0.83113080  1
  Te  Te207  1  0.66094146  -0.00540064  0.16659494  1
  Te  Te208  1  0.65625571  0.00102897  0.50300538  1
  Te  Te209  1  0.66429615  -0.00567289  0.83370482  1
  Te  Te210  1  0.66628507  0.33714363  0.17190725  1
  Te  Te211  1  0.67146073  0.33305094  0.49514307  1
  Te  Te212  1  0.66548228  0.33334244  0.83190293  1
  Te  Te213  1  0.66655712  0.67046016  0.17148015  1
  Te  Te214  1  0.66769795  0.66826286  0.49245371  1
  Te  Te215  1  0.67098463  0.67268137  0.84191676  1
