# generated using pymatgen
data_AgSbTe2
_symmetry_space_group_name_H-M   'P 1'
_cell_length_a   18.34700314
_cell_length_b   18.34479873
_cell_length_c   18.34122492
_cell_angle_alpha   90.00294811
_cell_angle_beta   90.00322490
_cell_angle_gamma   89.99826362
_symmetry_Int_Tables_number   1
_chemical_formula_structural   AgSbTe2
_chemical_formula_sum   'Ag54 Sb54 Te108'
_cell_volume   6173.14419990
_cell_formula_units_Z   54
loop_
 _symmetry_equiv_pos_site_id
 _symmetry_equiv_pos_as_xyz
  1  'x, y, z'
loop_
 _atom_site_type_symbol
 _atom_site_label
 _atom_site_symmetry_multiplicity
 _atom_site_fract_x
 _atom_site_fract_y
 _atom_site_fract_z
 _atom_site_occupancy
  Ag  Ag0  1  0.16010831  0.33858693  0.49447076  1
  Ag  Ag1  1  0.67454840  0.83567621  0.83302291  1
  Ag  Ag2  1  0.67567687  0.33607338  0.33271977  1
  Ag  Ag3  1  0.33122501  0.33572241  0.33214984  1
  Ag  Ag4  1  0.67805543  0.67188667  0.65860886  1
  Ag  Ag5  1  0.66921285  0.50485330  0.49067884  1
  Ag  Ag6  1  0.33007805  0.82715115  0.17055130  1
  Ag  Ag7  1  -0.00717146  0.33383409  0.33507275  1
  Ag  Ag8  1  -0.00400909  0.67274372  0.00071338  1
  Ag  Ag9  1  0.15279270  0.83218611  0.65515208  1
  Ag  Ag10  1  -0.00461411  -0.00728861  -0.00289828  1
  Ag  Ag11  1  0.67105447  0.17316070  0.16869624  1
  Ag  Ag12  1  0.83228955  -0.00115940  0.50848935  1
  Ag  Ag13  1  0.83435204  0.67514659  0.82237970  1
  Ag  Ag14  1  0.15469059  0.82956813  0.00231869  1
  Ag  Ag15  1  0.67243224  0.49889537  0.17097384  1
  Ag  Ag16  1  0.15400967  0.17288661  -0.00098190  1
  Ag  Ag17  1  0.83124137  0.33252455  0.17094770  1
  Ag  Ag18  1  -0.00096016  -0.00416620  0.33565679  1
  Ag  Ag19  1  0.66996368  0.83136130  0.16666501  1
  Ag  Ag20  1  -0.00247688  0.50023641  0.16824678  1
  Ag  Ag21  1  0.33096173  0.33669723  0.00552154  1
  Ag  Ag22  1  0.83482201  0.00589218  0.82223201  1
  Ag  Ag23  1  0.50658178  0.49830051  0.00229843  1
  Ag  Ag24  1  0.83648395  0.83272733  -0.00920081  1
  Ag  Ag25  1  0.83573278  0.84280467  0.67171797  1
  Ag  Ag26  1  0.50943889  0.33197709  0.83310227  1
  Ag  Ag27  1  -0.00151483  0.83000439  0.50290917  1
  Ag  Ag28  1  0.51683128  0.66910936  0.49806593  1
  Ag  Ag29  1  0.32897573  0.50026417  0.16862413  1
  Ag  Ag30  1  0.16381934  0.82310855  0.33367573  1
  Ag  Ag31  1  0.83133590  0.31985827  0.83350892  1
  Ag  Ag32  1  0.51398506  0.16703934  0.66205506  1
  Ag  Ag33  1  0.51110008  -0.00255443  0.49921464  1
  Ag  Ag34  1  -0.00797243  0.67491082  0.65452656  1
  Ag  Ag35  1  0.32121687  0.66609657  0.33441151  1
  Ag  Ag36  1  0.67626006  0.16649587  0.83365752  1
  Ag  Ag37  1  0.83518069  0.66759739  0.50405143  1
  Ag  Ag38  1  0.83485476  0.33201048  0.49391604  1
  Ag  Ag39  1  -0.01305907  0.16586000  0.83611423  1
  Ag  Ag40  1  0.83042562  0.15471565  0.67705189  1
  Ag  Ag41  1  0.83697834  0.16679554  -0.01252083  1
  Ag  Ag42  1  0.32686398  -0.00354276  0.33397608  1
  Ag  Ag43  1  0.67155716  0.65926091  0.33815556  1
  Ag  Ag44  1  0.83077106  0.17089020  0.33453616  1
  Ag  Ag45  1  0.00028751  0.66845665  0.33780025  1
  Ag  Ag46  1  -0.00955513  -0.00737327  0.66148811  1
  Ag  Ag47  1  0.16478893  0.50488315  0.32982407  1
  Ag  Ag48  1  0.83633731  0.49849182  0.00209895  1
  Ag  Ag49  1  0.51100353  0.16775242  0.33877027  1
  Ag  Ag50  1  0.15491854  0.66534986  0.49571480  1
  Ag  Ag51  1  0.68048128  -0.00416082  0.66600855  1
  Ag  Ag52  1  0.15991766  0.50111713  0.00839727  1
  Ag  Ag53  1  0.33374612  0.33165785  0.66386141  1
  Sb  Sb54  1  0.33647030  0.83244289  0.83912861  1
  Sb  Sb55  1  0.67473437  0.00002018  -0.00503459  1
  Sb  Sb56  1  0.16411574  -0.00126783  0.16814004  1
  Sb  Sb57  1  0.51009147  0.66214980  0.82797149  1
  Sb  Sb58  1  0.50636431  0.83793074  0.66435643  1
  Sb  Sb59  1  0.67574096  0.82916646  0.49942130  1
  Sb  Sb60  1  0.15628984  -0.00129630  0.83392828  1
  Sb  Sb61  1  -0.00588659  0.50532088  0.49324116  1
  Sb  Sb62  1  0.67108767  0.49731595  0.83499638  1
  Sb  Sb63  1  0.16071086  -0.00162963  0.49811526  1
  Sb  Sb64  1  0.16306422  0.33334716  0.83250672  1
  Sb  Sb65  1  0.33177389  0.66378235  0.65782547  1
  Sb  Sb66  1  0.50142849  0.00124482  0.17287441  1
  Sb  Sb67  1  0.66765097  0.33208129  0.66295455  1
  Sb  Sb68  1  0.16309922  0.16930914  0.32987353  1
  Sb  Sb69  1  0.15698074  0.66838329  0.82942792  1
  Sb  Sb70  1  0.83286281  0.00498914  0.16698810  1
  Sb  Sb71  1  0.67447689  0.66531954  0.00141945  1
  Sb  Sb72  1  -0.00128683  0.33371563  0.00506972  1
  Sb  Sb73  1  0.32489310  0.00294344  0.00609599  1
  Sb  Sb74  1  0.33633924  0.16845937  0.83404310  1
  Sb  Sb75  1  0.50426082  0.33504242  0.16580151  1
  Sb  Sb76  1  0.16016332  0.16318536  0.67010738  1
  Sb  Sb77  1  0.33429318  0.49809731  0.84187839  1
  Sb  Sb78  1  0.33432849  0.16778888  0.49784536  1
  Sb  Sb79  1  0.50552421  0.17111569  -0.00093620  1
  Sb  Sb80  1  0.33229945  0.00254089  0.66016576  1
  Sb  Sb81  1  0.83811809  0.83439259  0.33407651  1
  Sb  Sb82  1  -0.00805668  0.83743019  0.82885743  1
  Sb  Sb83  1  0.51056167  0.00659602  0.82684152  1
  Sb  Sb84  1  0.32483973  0.66110179  0.00786803  1
  Sb  Sb85  1  -0.00362623  0.49679117  0.84057699  1
  Sb  Sb86  1  0.83675623  0.49596250  0.32826933  1
  Sb  Sb87  1  0.32572343  0.83209756  0.49387685  1
  Sb  Sb88  1  0.16301822  0.33606123  0.17051766  1
  Sb  Sb89  1  0.67024769  0.16972107  0.50007110  1
  Sb  Sb90  1  0.67048727  0.00078609  0.33821682  1
  Sb  Sb91  1  -0.00442720  0.16206917  0.50142480  1
  Sb  Sb92  1  0.50032256  0.49684899  0.32960133  1
  Sb  Sb93  1  -0.00193137  0.82910768  0.16727353  1
  Sb  Sb94  1  -0.00083220  0.33314701  0.66104052  1
  Sb  Sb95  1  0.83333476  0.66172404  0.16996370  1
  Sb  Sb96  1  0.50156754  0.49569494  0.66764810  1
  Sb  Sb97  1  0.33600522  0.49971266  0.49209826  1
  Sb  Sb98  1  0.49769974  0.83483321  0.33563564  1
  Sb  Sb99  1  -0.00714337  0.17099853  0.16446267  1
  Sb  Sb100  1  0.50230867  0.33353983  0.49970781  1
  Sb  Sb101  1  0.83324037  0.50202921  0.66854997  1
  Sb  Sb102  1  0.16471972  0.66514808  0.17434702  1
  Sb  Sb103  1  0.50132127  0.66462534  0.17229566  1
  Sb  Sb104  1  0.66983901  0.33345584  0.00465157  1
  Sb  Sb105  1  0.16536310  0.50348748  0.66122867  1
  Sb  Sb106  1  0.33741226  0.17076830  0.16898422  1
  Sb  Sb107  1  0.50373274  0.82803633  0.00110570  1
  Te  Te108  1  0.16797730  0.16771029  0.15740405  1
  Te  Te109  1  0.16471132  0.17455742  0.50032757  1
  Te  Te110  1  0.16570657  0.16616874  0.84009638  1
  Te  Te111  1  0.16768901  0.49984286  0.16837145  1
  Te  Te112  1  0.16749760  0.50029941  0.49427074  1
  Te  Te113  1  0.16589463  0.50064456  0.84108882  1
  Te  Te114  1  0.16907129  0.83219061  0.16726818  1
  Te  Te115  1  0.15991018  0.83203275  0.49675683  1
  Te  Te116  1  0.17021073  0.83270220  0.84379070  1
  Te  Te117  1  0.50874189  0.16735707  0.17088174  1
  Te  Te118  1  0.50112264  0.16450710  0.50069639  1
  Te  Te119  1  0.50437148  0.17256038  0.82968866  1
  Te  Te120  1  0.50091591  0.49951925  0.16089641  1
  Te  Te121  1  0.50618153  0.50536582  0.50000238  1
  Te  Te122  1  0.50205928  0.49311998  0.83933581  1
  Te  Te123  1  0.50283846  0.83326175  0.16654516  1
  Te  Te124  1  0.49666092  0.83302753  0.50101798  1
  Te  Te125  1  0.51015004  0.83378915  0.83326540  1
  Te  Te126  1  0.82932343  0.17118399  0.17478619  1
  Te  Te127  1  0.83383190  0.16970813  0.49448778  1
  Te  Te128  1  0.83104886  0.16482416  0.83223819  1
  Te  Te129  1  0.83229982  0.49581945  0.16258175  1
  Te  Te130  1  0.82878228  0.49848828  0.50165934  1
  Te  Te131  1  0.83260513  0.50205890  0.84228470  1
  Te  Te132  1  0.83027587  0.83387257  0.16302273  1
  Te  Te133  1  0.83890282  0.83390416  0.50114394  1
  Te  Te134  1  0.83122959  0.83252593  0.83264238  1
  Te  Te135  1  0.15944173  -0.00403934  0.00092076  1
  Te  Te136  1  0.16488746  0.00045505  0.33466988  1
  Te  Te137  1  0.16261701  -0.00677822  0.66601381  1
  Te  Te138  1  0.16805250  0.33529875  -0.00001016  1
  Te  Te139  1  0.17028403  0.33417336  0.33566267  1
  Te  Te140  1  0.16919895  0.33368282  0.66143093  1
  Te  Te141  1  0.16111321  0.66644296  -0.00258361  1
  Te  Te142  1  0.16330273  0.66533094  0.33668199  1
  Te  Te143  1  0.16355455  0.67166401  0.66142217  1
  Te  Te144  1  0.49574870  0.00032421  -0.00266727  1
  Te  Te145  1  0.49997260  0.00501423  0.33974875  1
  Te  Te146  1  0.49842584  0.00666226  0.65957734  1
  Te  Te147  1  0.49635947  0.33619270  -0.00373641  1
  Te  Te148  1  0.49558963  0.32873151  0.33400612  1
  Te  Te149  1  0.49783743  0.32815926  0.66821442  1
  Te  Te150  1  0.49755584  0.65928105  -0.00236464  1
  Te  Te151  1  0.50808976  0.66614129  0.33905507  1
  Te  Te152  1  0.50037960  0.66668184  0.65983585  1
  Te  Te153  1  0.83727914  0.00136689  0.00067158  1
  Te  Te154  1  0.83766576  0.00268591  0.33607413  1
  Te  Te155  1  0.83531721  -0.00065383  0.66414390  1
  Te  Te156  1  0.83408360  0.33041286  -0.00227411  1
  Te  Te157  1  0.83254571  0.33429846  0.33397176  1
  Te  Te158  1  0.83399151  0.33255737  0.66751629  1
  Te  Te159  1  0.83620308  0.66752701  0.00353477  1
  Te  Te160  1  0.83516770  0.66724975  0.33777674  1
  Te  Te161  1  0.83450594  0.66329093  0.66610593  1
  Te  Te162  1  -0.00337289  0.16724431  -0.00073541  1
  Te  Te163  1  -0.00295903  0.16906913  0.33282148  1
  Te  Te164  1  -0.00478544  0.16325138  0.67078106  1
  Te  Te165  1  -0.00067912  0.49892115  0.00607185  1
  Te  Te166  1  0.00367611  0.50041112  0.32989658  1
  Te  Te167  1  0.00213087  0.50859629  0.66814111  1
  Te  Te168  1  -0.00292821  0.83406102  0.00201710  1
  Te  Te169  1  0.00368195  0.83172686  0.33278971  1
  Te  Te170  1  -0.00317594  0.83300402  0.66795223  1
  Te  Te171  1  0.33367073  0.17247801  0.00176595  1
  Te  Te172  1  0.33234743  0.16883732  0.33127469  1
  Te  Te173  1  0.33021869  0.17145204  0.66669426  1
  Te  Te174  1  0.32719041  0.49733672  0.00696503  1
  Te  Te175  1  0.33337376  0.49978338  0.32857383  1
  Te  Te176  1  0.33318915  0.49287835  0.66873492  1
  Te  Te177  1  0.33364853  0.83337397  0.00802681  1
  Te  Te178  1  0.32999659  0.83183575  0.32945087  1
  Te  Te179  1  0.32950265  0.83375991  0.66940125  1
  Te  Te180  1  0.67299824  0.16635950  0.00098308  1
  Te  Te181  1  0.66823861  0.16712888  0.33269902  1
  Te  Te182  1  0.67046863  0.16648290  0.66698849  1
  Te  Te183  1  0.66852867  0.49967482  0.00525363  1
  Te  Te184  1  0.66534750  0.49858033  0.33087790  1
  Te  Te185  1  0.66525742  0.50694303  0.66510371  1
  Te  Te186  1  0.67161292  0.83257457  0.00067785  1
  Te  Te187  1  0.66654528  0.83184101  0.32823549  1
  Te  Te188  1  0.67095180  0.83320946  0.66679057  1
  Te  Te189  1  -0.00085572  0.00055493  0.17201690  1
  Te  Te190  1  -0.00411295  -0.00396763  0.49913131  1
  Te  Te191  1  -0.00587626  0.00385321  0.83709797  1
  Te  Te192  1  -0.00538438  0.33834917  0.17337778  1
  Te  Te193  1  -0.00210575  0.33524117  0.49556632  1
  Te  Te194  1  -0.00539247  0.32805403  0.83043573  1
  Te  Te195  1  -0.00076830  0.66116669  0.16438077  1
  Te  Te196  1  -0.00307685  0.66726379  0.49771019  1
  Te  Te197  1  -0.00681006  0.66491332  0.84099866  1
  Te  Te198  1  0.33401561  -0.00308027  0.17432585  1
  Te  Te199  1  0.33376050  -0.00007927  0.49309638  1
  Te  Te200  1  0.33511546  -0.00028075  0.83408193  1
  Te  Te201  1  0.33410418  0.33736061  0.16710564  1
  Te  Te202  1  0.33408067  0.33445338  0.49769846  1
  Te  Te203  1  0.33186319  0.33327281  0.83255762  1
  Te  Te204  1  0.33516014  0.66564385  0.17486374  1
  Te  Te205  1  0.32709059  0.66608980  0.49321049  1
  Te  Te206  1  0.33635568  0.66625638  0.83088491  1
  Te  Te207  1  0.66535658  -0.00407131  0.16616421  1
  Te  Te208  1  0.66960809  -0.00206393  0.50420300  1
  Te  Te209  1  0.67327765  0.00147102  0.82830119  1
  Te  Te210  1  0.66980419  0.33426942  0.17055372  1
  Te  Te211  1  0.66971241  0.33960077  0.49501924  1
  Te  Te212  1  0.66975908  0.33024653  0.83197927  1
  Te  Te213  1  0.66651532  0.66497970  0.17135171  1
  Te  Te214  1  0.67348855  0.66743727  0.49854580  1
  Te  Te215  1  0.67292897  0.66901436  0.83056167  1
