# generated using pymatgen
data_AgSbTe2
_symmetry_space_group_name_H-M   'P 1'
_cell_length_a   18.35042934
_cell_length_b   18.35050468
_cell_length_c   18.35236814
_cell_angle_alpha   90.00018091
_cell_angle_beta   89.99669700
_cell_angle_gamma   89.99908703
_symmetry_Int_Tables_number   1
_chemical_formula_structural   AgSbTe2
_chemical_formula_sum   'Ag54 Sb54 Te108'
_cell_volume   6179.96981843
_cell_formula_units_Z   54
loop_
 _symmetry_equiv_pos_site_id
 _symmetry_equiv_pos_as_xyz
  1  'x, y, z'
loop_
 _atom_site_type_symbol
 _atom_site_label
 _atom_site_symmetry_multiplicity
 _atom_site_fract_x
 _atom_site_fract_y
 _atom_site_fract_z
 _atom_site_occupancy
  Ag  Ag0  1  0.00437909  0.00241992  0.65769739  1
  Ag  Ag1  1  0.50414457  0.32563835  0.49866330  1
  Ag  Ag2  1  0.65949287  0.83854676  0.17136214  1
  Ag  Ag3  1  0.83746169  0.83921663  0.33361887  1
  Ag  Ag4  1  0.67146023  0.48892681  0.16908961  1
  Ag  Ag5  1  0.16714507  0.15852592  0.32948810  1
  Ag  Ag6  1  0.49716166  0.16691228  0.65252000  1
  Ag  Ag7  1  0.00998439  0.66833783  0.33158960  1
  Ag  Ag8  1  0.00307354  0.65098854  0.00854408  1
  Ag  Ag9  1  0.84840957  0.48992828  -0.00208924  1
  Ag  Ag10  1  0.65127230  0.17141407  0.49153203  1
  Ag  Ag11  1  0.49483663  0.83978401  0.65758620  1
  Ag  Ag12  1  0.84022278  0.49464138  0.66942313  1
  Ag  Ag13  1  0.66611701  0.48803185  0.49780325  1
  Ag  Ag14  1  0.16499466  0.49829286  0.33366802  1
  Ag  Ag15  1  0.16355711  0.49453975  0.66672661  1
  Ag  Ag16  1  0.33313757  0.66440749  0.66270648  1
  Ag  Ag17  1  0.32455940  0.00072952  0.33351645  1
  Ag  Ag18  1  0.67617635  0.33307230  0.00232503  1
  Ag  Ag19  1  0.66085126  0.33328276  0.65567806  1
  Ag  Ag20  1  0.33232356  0.33146590  0.66410879  1
  Ag  Ag21  1  0.49046699  0.66813685  0.82505064  1
  Ag  Ag22  1  0.16808107  0.32891476  0.49688514  1
  Ag  Ag23  1  0.15890035  0.49147411  0.00181029  1
  Ag  Ag24  1  0.33298480  0.16765465  0.82272279  1
  Ag  Ag25  1  0.17701124  0.83097164  0.65960801  1
  Ag  Ag26  1  0.83968223  0.17564218  0.01037390  1
  Ag  Ag27  1  0.16292538  0.33700197  0.83519862  1
  Ag  Ag28  1  0.17033924  0.01160796  0.49168524  1
  Ag  Ag29  1  0.48968871  0.16238658  0.34024518  1
  Ag  Ag30  1  0.16785810  0.01637715  0.18293766  1
  Ag  Ag31  1  0.48789477  0.83916928  0.33838038  1
  Ag  Ag32  1  0.49731982  0.00188649  0.82292307  1
  Ag  Ag33  1  0.00882049  0.16757692  0.48967048  1
  Ag  Ag34  1  0.49862449  0.32825571  0.17306633  1
  Ag  Ag35  1  0.00138161  0.49075051  0.15823084  1
  Ag  Ag36  1  -0.00260867  0.33787080  0.00012466  1
  Ag  Ag37  1  0.33650702  0.16812928  0.49570612  1
  Ag  Ag38  1  0.84306564  0.16587341  0.33194186  1
  Ag  Ag39  1  0.32254393  0.16618111  0.17492712  1
  Ag  Ag40  1  0.17026465  0.84570275  0.33554982  1
  Ag  Ag41  1  0.01111457  0.00785272  0.33628233  1
  Ag  Ag42  1  0.16765597  0.32874728  0.16632773  1
  Ag  Ag43  1  0.33275527  0.83977896  0.17631195  1
  Ag  Ag44  1  0.01150730  0.17141759  0.17240061  1
  Ag  Ag45  1  0.49355335  0.01467120  0.49979539  1
  Ag  Ag46  1  0.00529395  0.49708503  0.84665590  1
  Ag  Ag47  1  0.16298586  0.17556020  0.01561612  1
  Ag  Ag48  1  0.83825184  0.33526000  0.83772327  1
  Ag  Ag49  1  0.32902832  0.67521177  0.33884159  1
  Ag  Ag50  1  0.82234100  0.33037537  0.50469989  1
  Ag  Ag51  1  0.66542541  0.17235191  0.17424267  1
  Ag  Ag52  1  0.49642855  0.66646245  0.50143658  1
  Ag  Ag53  1  0.16934525  0.65498675  0.82953657  1
  Sb  Sb54  1  0.49944752  0.49726229  0.00035767  1
  Sb  Sb55  1  0.00274890  0.82673876  0.83203333  1
  Sb  Sb56  1  0.32613397  0.33102997  -0.00232416  1
  Sb  Sb57  1  0.49745572  0.66482594  0.16947084  1
  Sb  Sb58  1  0.65768989  0.65924046  0.66503589  1
  Sb  Sb59  1  0.82981036  0.17570371  0.66306202  1
  Sb  Sb60  1  0.32708662  0.66547212  -0.00159802  1
  Sb  Sb61  1  0.83863040  0.65796470  0.83303284  1
  Sb  Sb62  1  -0.00075748  0.49223048  0.49699462  1
  Sb  Sb63  1  0.83236317  0.01120904  0.83104764  1
  Sb  Sb64  1  0.32983446  0.32604607  0.33849428  1
  Sb  Sb65  1  0.33316708  0.83733536  0.83374896  1
  Sb  Sb66  1  0.17017144  0.00524805  0.82862281  1
  Sb  Sb67  1  0.83377496  0.83142795  0.00723259  1
  Sb  Sb68  1  0.17243113  0.66474558  0.49953825  1
  Sb  Sb69  1  0.83482823  0.66517901  0.16879328  1
  Sb  Sb70  1  0.83032710  0.65942241  0.49778253  1
  Sb  Sb71  1  0.00308578  0.83974561  0.49594033  1
  Sb  Sb72  1  0.33489826  0.49387192  0.49945084  1
  Sb  Sb73  1  0.00378026  0.83569591  0.17156955  1
  Sb  Sb74  1  0.49413902  0.00611637  0.17314102  1
  Sb  Sb75  1  0.16578066  0.83231740  0.00439966  1
  Sb  Sb76  1  0.66453637  0.00345539  0.33333276  1
  Sb  Sb77  1  0.49964698  0.83350308  0.00381634  1
  Sb  Sb78  1  0.33431108  0.83902851  0.49451433  1
  Sb  Sb79  1  0.66133791  0.83668659  0.49495373  1
  Sb  Sb80  1  0.33202080  0.00391621  0.00594335  1
  Sb  Sb81  1  0.83474176  0.33059375  0.16522225  1
  Sb  Sb82  1  0.33179646  0.00138212  0.65917563  1
  Sb  Sb83  1  0.83816569  0.49419495  0.33160893  1
  Sb  Sb84  1  0.49786888  0.33291627  0.83011451  1
  Sb  Sb85  1  0.17181469  0.17001338  0.65941877  1
  Sb  Sb86  1  0.16655501  0.66250409  0.16886127  1
  Sb  Sb87  1  0.00290546  0.00746406  0.00355509  1
  Sb  Sb88  1  0.49755001  0.16935745  0.00382775  1
  Sb  Sb89  1  0.66154797  0.17140607  0.83310900  1
  Sb  Sb90  1  0.66677734  0.33021574  0.33340490  1
  Sb  Sb91  1  0.49613157  0.49728115  0.33497714  1
  Sb  Sb92  1  0.00657279  0.17286071  0.83477226  1
  Sb  Sb93  1  0.83197721  0.82813597  0.66106135  1
  Sb  Sb94  1  0.00394397  0.32915271  0.32793338  1
  Sb  Sb95  1  0.67111187  0.65805425  0.00102646  1
  Sb  Sb96  1  0.66459285  0.00680835  0.66371034  1
  Sb  Sb97  1  0.49762840  0.49672671  0.66464089  1
  Sb  Sb98  1  0.32816071  0.49390771  0.17084377  1
  Sb  Sb99  1  0.67097069  0.49634079  0.83192699  1
  Sb  Sb100  1  0.32471227  0.49559312  0.83061638  1
  Sb  Sb101  1  0.66292588  0.83244958  0.83636032  1
  Sb  Sb102  1  0.83635778  0.01017575  0.49777844  1
  Sb  Sb103  1  0.00272385  0.33014958  0.66852370  1
  Sb  Sb104  1  0.66336336  0.66812958  0.33313607  1
  Sb  Sb105  1  0.00858562  0.66601285  0.66247458  1
  Sb  Sb106  1  0.66585475  0.00923350  0.00311037  1
  Sb  Sb107  1  0.83928433  0.00478218  0.17024054  1
  Te  Te108  1  0.16696700  0.16976985  0.16976135  1
  Te  Te109  1  0.16749073  0.16806920  0.50023955  1
  Te  Te110  1  0.17257449  0.17096723  0.82950133  1
  Te  Te111  1  0.16391901  0.49629253  0.16742342  1
  Te  Te112  1  0.16693521  0.49542343  0.50041608  1
  Te  Te113  1  0.16485355  0.49741252  0.83034113  1
  Te  Te114  1  0.17049232  0.83220425  0.17149252  1
  Te  Te115  1  0.16749610  0.83402860  0.50001502  1
  Te  Te116  1  0.16750866  0.83288969  0.83017345  1
  Te  Te117  1  0.50645285  0.16901139  0.16832413  1
  Te  Te118  1  0.49623691  0.16973642  0.49730214  1
  Te  Te119  1  0.49389056  0.16540251  0.83594573  1
  Te  Te120  1  0.50365912  0.49348811  0.16743756  1
  Te  Te121  1  0.50571240  0.49889788  0.49916398  1
  Te  Te122  1  0.49841582  0.50598925  0.83332252  1
  Te  Te123  1  0.49803598  0.83429280  0.17157677  1
  Te  Te124  1  0.49959156  0.82684244  0.49877346  1
  Te  Te125  1  0.49953762  0.83154220  0.83093382  1
  Te  Te126  1  0.82568154  0.16544009  0.16969452  1
  Te  Te127  1  0.83820753  0.17154971  0.49764938  1
  Te  Te128  1  0.83349761  0.17415156  0.83543180  1
  Te  Te129  1  0.83474125  0.49881488  0.16377678  1
  Te  Te130  1  0.82916660  0.49293298  0.50081263  1
  Te  Te131  1  0.83761752  0.49504122  0.83453727  1
  Te  Te132  1  0.83005773  0.83497958  0.17284770  1
  Te  Te133  1  0.83046961  0.83299022  0.49442490  1
  Te  Te134  1  0.83235638  0.83357991  0.83257925  1
  Te  Te135  1  0.16579544  0.00273457  -0.00055956  1
  Te  Te136  1  0.16638351  0.00022977  0.33677304  1
  Te  Te137  1  0.16484105  -0.00639468  0.66397319  1
  Te  Te138  1  0.16641047  0.33254872  0.00016558  1
  Te  Te139  1  0.16793957  0.33861266  0.33251474  1
  Te  Te140  1  0.16865811  0.33484536  0.66773135  1
  Te  Te141  1  0.16160300  0.66533143  -0.00543822  1
  Te  Te142  1  0.16883420  0.66240486  0.33426940  1
  Te  Te143  1  0.17117196  0.66982749  0.66688930  1
  Te  Te144  1  0.49973233  0.00021451  -0.00875473  1
  Te  Te145  1  0.49841991  0.00007060  0.33670417  1
  Te  Te146  1  0.49910737  0.00033559  0.66227289  1
  Te  Te147  1  0.50478152  0.33393615  0.00171369  1
  Te  Te148  1  0.49721333  0.32992585  0.33364888  1
  Te  Te149  1  0.49849230  0.33023127  0.66576116  1
  Te  Te150  1  0.50036865  0.66612303  -0.00614462  1
  Te  Te151  1  0.49593113  0.66976456  0.33613566  1
  Te  Te152  1  0.49481552  0.66477374  0.66545534  1
  Te  Te153  1  0.83408734  0.00553986  -0.00188296  1
  Te  Te154  1  0.83988740  0.00167909  0.33465182  1
  Te  Te155  1  0.83796120  -0.00356741  0.66594910  1
  Te  Te156  1  0.83544823  0.33266199  0.00141899  1
  Te  Te157  1  0.83605813  0.32706446  0.34310175  1
  Te  Te158  1  0.83363861  0.33715846  0.66601209  1
  Te  Te159  1  0.84113074  0.66248864  -0.00152570  1
  Te  Te160  1  0.83572406  0.67008686  0.33463732  1
  Te  Te161  1  0.83263206  0.65895835  0.66651588  1
  Te  Te162  1  0.00082536  0.17034891  0.00125268  1
  Te  Te163  1  0.00395850  0.16742690  0.33103685  1
  Te  Te164  1  -0.00202647  0.16171365  0.66704074  1
  Te  Te165  1  0.00312686  0.49655555  0.00240022  1
  Te  Te166  1  0.00229740  0.50451875  0.32988827  1
  Te  Te167  1  0.00178371  0.50014436  0.66438313  1
  Te  Te168  1  -0.00153198  0.82963731  0.00147298  1
  Te  Te169  1  0.00285457  0.83060346  0.33221379  1
  Te  Te170  1  0.00066475  0.83729640  0.66461932  1
  Te  Te171  1  0.32658785  0.16668913  0.00784554  1
  Te  Te172  1  0.33054868  0.16613260  0.33451982  1
  Te  Te173  1  0.33699954  0.16733158  0.66401823  1
  Te  Te174  1  0.32468699  0.50008353  0.00186048  1
  Te  Te175  1  0.32860240  0.51188513  0.33349379  1
  Te  Te176  1  0.32744049  0.49918378  0.66566949  1
  Te  Te177  1  0.33302299  0.83395260  0.01139775  1
  Te  Te178  1  0.33129964  0.83509283  0.33280207  1
  Te  Te179  1  0.33600839  0.83086537  0.66827718  1
  Te  Te180  1  0.67041131  0.17248672  0.00182606  1
  Te  Te181  1  0.66675373  0.16531994  0.33374613  1
  Te  Te182  1  0.66117929  0.17348688  0.66525145  1
  Te  Te183  1  0.66745706  0.49447388  0.00484595  1
  Te  Te184  1  0.66820757  0.50166435  0.33019610  1
  Te  Te185  1  0.66911398  0.49293844  0.66377132  1
  Te  Te186  1  0.66830884  0.83246466  0.00897881  1
  Te  Te187  1  0.67073618  0.83498467  0.32944318  1
  Te  Te188  1  0.66169435  0.83275339  0.66670645  1
  Te  Te189  1  0.00631331  0.00500349  0.17098165  1
  Te  Te190  1  0.00250427  0.00531404  0.49720064  1
  Te  Te191  1  -0.00013498  -0.00147883  0.83134673  1
  Te  Te192  1  0.00261770  0.33130366  0.16287131  1
  Te  Te193  1  0.00875223  0.32788609  0.50147971  1
  Te  Te194  1  0.00102045  0.33725337  0.83554730  1
  Te  Te195  1  0.00066906  0.66533369  0.16837663  1
  Te  Te196  1  -0.00123050  0.66611830  0.49296832  1
  Te  Te197  1  0.00563825  0.65952863  0.83150719  1
  Te  Te198  1  0.32955927  0.00306188  0.17175368  1
  Te  Te199  1  0.33304620  0.00446662  0.49539993  1
  Te  Te200  1  0.33823531  0.00527478  0.83371723  1
  Te  Te201  1  0.33402159  0.32872220  0.16547884  1
  Te  Te202  1  0.33176728  0.33022676  0.50400473  1
  Te  Te203  1  0.33013618  0.32904552  0.82791795  1
  Te  Te204  1  0.33400249  0.66808910  0.16872751  1
  Te  Te205  1  0.33724809  0.66402921  0.50196747  1
  Te  Te206  1  0.33035563  0.66854384  0.83133622  1
  Te  Te207  1  0.66518007  -0.00137231  0.16587299  1
  Te  Te208  1  0.65995125  0.00776244  0.50054060  1
  Te  Te209  1  0.65939020  0.00064806  0.83245724  1
  Te  Te210  1  0.66763972  0.33223768  0.16694791  1
  Te  Te211  1  0.66367279  0.33081812  0.49830355  1
  Te  Te212  1  0.66981214  0.33448241  0.83724047  1
  Te  Te213  1  0.66569844  0.66757799  0.16522116  1
  Te  Te214  1  0.66087016  0.66372472  0.50006836  1
  Te  Te215  1  0.66211709  0.66534772  0.83363413  1
