# generated using pymatgen
data_AgSbTe2
_symmetry_space_group_name_H-M   'P 1'
_cell_length_a   18.33905427
_cell_length_b   18.33371756
_cell_length_c   18.33786677
_cell_angle_alpha   89.99626049
_cell_angle_beta   89.99777492
_cell_angle_gamma   90.00001410
_symmetry_Int_Tables_number   1
_chemical_formula_structural   AgSbTe2
_chemical_formula_sum   'Ag54 Sb54 Te108'
_cell_volume   6165.61331826
_cell_formula_units_Z   54
loop_
 _symmetry_equiv_pos_site_id
 _symmetry_equiv_pos_as_xyz
  1  'x, y, z'
loop_
 _atom_site_type_symbol
 _atom_site_label
 _atom_site_symmetry_multiplicity
 _atom_site_fract_x
 _atom_site_fract_y
 _atom_site_fract_z
 _atom_site_occupancy
  Ag  Ag0  1  0.16907151  0.83696672  0.34606622  1
  Ag  Ag1  1  0.18174755  0.66054904  0.83208238  1
  Ag  Ag2  1  0.49617908  0.50739127  -0.00157148  1
  Ag  Ag3  1  0.49516880  -0.00285921  0.16555484  1
  Ag  Ag4  1  0.17182310  0.16254694  0.33845220  1
  Ag  Ag5  1  0.49985607  0.82901631  0.66894963  1
  Ag  Ag6  1  0.32827285  0.33839460  -0.00589633  1
  Ag  Ag7  1  0.16808593  0.83589730  0.66331302  1
  Ag  Ag8  1  0.83826565  0.82791092  0.34873714  1
  Ag  Ag9  1  0.66124227  0.82346291  0.82655758  1
  Ag  Ag10  1  0.33236416  0.83679566  0.16649730  1
  Ag  Ag11  1  0.84172621  0.16869751  -0.00419513  1
  Ag  Ag12  1  0.32841970  0.50822461  0.83586045  1
  Ag  Ag13  1  0.33749441  0.82208242  0.82865822  1
  Ag  Ag14  1  0.33212211  0.16272177  0.15954367  1
  Ag  Ag15  1  0.49551780  0.82649226  -0.01225151  1
  Ag  Ag16  1  0.49452270  0.16265952  0.66980041  1
  Ag  Ag17  1  0.16867023  0.17292832  -0.01108457  1
  Ag  Ag18  1  -0.00721227  0.83461950  0.50324630  1
  Ag  Ag19  1  0.83673139  0.33857959  0.51108673  1
  Ag  Ag20  1  0.32944513  0.32994894  0.33149285  1
  Ag  Ag21  1  0.34080826  0.67112678  0.67575682  1
  Ag  Ag22  1  0.33297935  0.16919746  0.83479543  1
  Ag  Ag23  1  0.67123707  0.50760724  0.50233716  1
  Ag  Ag24  1  0.00163048  -0.00110255  0.66775888  1
  Ag  Ag25  1  0.49640834  0.66832653  0.83039882  1
  Ag  Ag26  1  0.66335288  0.16693794  0.83021983  1
  Ag  Ag27  1  0.84100376  0.33964229  0.82842817  1
  Ag  Ag28  1  0.50764547  0.66958949  0.51176807  1
  Ag  Ag29  1  0.65716871  0.66582933  -0.01443098  1
  Ag  Ag30  1  -0.00386162  0.33088413  0.67182119  1
  Ag  Ag31  1  0.82651879  0.67124460  0.50924941  1
  Ag  Ag32  1  0.33809965  0.66316572  -0.01086955  1
  Ag  Ag33  1  0.67889250  0.82568326  0.50998955  1
  Ag  Ag34  1  0.16984888  0.16702198  0.66885257  1
  Ag  Ag35  1  0.33059686  0.83154035  0.50935217  1
  Ag  Ag36  1  0.00663057  0.49693759  0.83293936  1
  Ag  Ag37  1  0.66550295  0.50202626  0.16899369  1
  Ag  Ag38  1  0.82803130  0.50404872  0.34728653  1
  Ag  Ag39  1  0.16387922  -0.00720886  0.50168763  1
  Ag  Ag40  1  0.33089372  -0.00154268  0.33224623  1
  Ag  Ag41  1  0.00660650  0.83504145  0.17115635  1
  Ag  Ag42  1  0.66579984  0.66871801  0.66854137  1
  Ag  Ag43  1  0.67651728  0.34188380  0.66809981  1
  Ag  Ag44  1  0.82727510  0.66372640  0.82688252  1
  Ag  Ag45  1  0.17486717  0.49258387  -0.00807897  1
  Ag  Ag46  1  0.16395008  0.32911528  0.51081623  1
  Ag  Ag47  1  0.00929002  0.33108659  -0.00933528  1
  Ag  Ag48  1  0.82853147  0.82416084  0.66289504  1
  Ag  Ag49  1  0.84105426  -0.01466807  0.50158029  1
  Ag  Ag50  1  0.16438798  0.33793710  0.83179931  1
  Ag  Ag51  1  0.83078111  0.50663357  0.66502708  1
  Ag  Ag52  1  0.50351693  0.50060445  0.33149768  1
  Ag  Ag53  1  0.00113808  0.00251689  -0.00719800  1
  Sb  Sb54  1  0.16916533  0.49977638  0.33115857  1
  Sb  Sb55  1  0.16206995  0.50010004  0.67285728  1
  Sb  Sb56  1  0.66623181  0.66531311  0.34117162  1
  Sb  Sb57  1  0.49722835  0.33895337  0.83173308  1
  Sb  Sb58  1  0.33753664  0.50094159  0.15920635  1
  Sb  Sb59  1  0.17088496  -0.00114644  0.17182944  1
  Sb  Sb60  1  0.49827068  0.33922713  0.50358728  1
  Sb  Sb61  1  0.67154314  -0.00632211  0.66675391  1
  Sb  Sb62  1  0.66232845  -0.00242297  0.33563281  1
  Sb  Sb63  1  -0.00432362  0.50248889  0.15959081  1
  Sb  Sb64  1  0.49730582  -0.00813754  0.49965761  1
  Sb  Sb65  1  0.83355714  0.33503060  0.16319002  1
  Sb  Sb66  1  0.66901154  -0.00448391  -0.00131744  1
  Sb  Sb67  1  -0.00658824  0.50259203  0.50740813  1
  Sb  Sb68  1  0.00616609  -0.00398195  0.33684269  1
  Sb  Sb69  1  0.00292551  0.17461561  0.83286463  1
  Sb  Sb70  1  0.32962405  0.16293240  0.50334611  1
  Sb  Sb71  1  -0.00079181  0.66863807  0.33528203  1
  Sb  Sb72  1  0.00760806  0.16091371  0.16130629  1
  Sb  Sb73  1  0.83490605  -0.00007037  0.82743330  1
  Sb  Sb74  1  0.66496562  0.33718689  0.34077603  1
  Sb  Sb75  1  0.00508657  0.33429870  0.33872400  1
  Sb  Sb76  1  0.66549474  0.33900346  -0.00886686  1
  Sb  Sb77  1  0.49701314  0.82831529  0.33760034  1
  Sb  Sb78  1  -0.00373686  0.66843980  0.66830100  1
  Sb  Sb79  1  0.33472515  0.66884979  0.33473241  1
  Sb  Sb80  1  0.16908425  0.66955113  0.15922245  1
  Sb  Sb81  1  0.83069386  0.66668093  0.16641587  1
  Sb  Sb82  1  0.83497215  0.16864438  0.67180894  1
  Sb  Sb83  1  0.83214849  -0.00274334  0.17096086  1
  Sb  Sb84  1  0.00218515  0.66774508  -0.00474774  1
  Sb  Sb85  1  0.33604392  0.50449991  0.50446268  1
  Sb  Sb86  1  0.49289116  0.16977012  0.33810084  1
  Sb  Sb87  1  0.49943699  0.66975711  0.15976178  1
  Sb  Sb88  1  0.50377895  0.50703474  0.66914178  1
  Sb  Sb89  1  0.17178238  0.83480155  -0.00471884  1
  Sb  Sb90  1  0.83867762  0.16672831  0.33297967  1
  Sb  Sb91  1  0.66734067  0.16752366  0.50893181  1
  Sb  Sb92  1  0.83122148  0.83466655  -0.00530330  1
  Sb  Sb93  1  0.83152159  0.49799198  -0.00743642  1
  Sb  Sb94  1  0.00255507  0.16169319  0.50310382  1
  Sb  Sb95  1  0.16658801  0.67052605  0.50840604  1
  Sb  Sb96  1  0.32863598  -0.00746707  0.66401423  1
  Sb  Sb97  1  0.49688576  0.33273214  0.16578886  1
  Sb  Sb98  1  0.33070009  0.33564400  0.67054145  1
  Sb  Sb99  1  0.49434540  0.16631885  -0.00693236  1
  Sb  Sb100  1  0.00195329  0.82823552  0.82812476  1
  Sb  Sb101  1  0.49807100  -0.00807564  0.83493851  1
  Sb  Sb102  1  0.66343658  0.82717618  0.16601055  1
  Sb  Sb103  1  0.16814459  0.33116272  0.15967205  1
  Sb  Sb104  1  0.66563546  0.50493735  0.82912890  1
  Sb  Sb105  1  0.32895965  -0.00033541  0.00263478  1
  Sb  Sb106  1  0.66017242  0.17102244  0.15852914  1
  Sb  Sb107  1  0.16658779  0.00174049  0.82806266  1
  Te  Te108  1  0.17391323  0.16538113  0.17119858  1
  Te  Te109  1  0.16631675  0.16937606  0.50246978  1
  Te  Te110  1  0.16866096  0.16761414  0.83105474  1
  Te  Te111  1  0.16466448  0.50147537  0.15993877  1
  Te  Te112  1  0.16524099  0.49644042  0.49803941  1
  Te  Te113  1  0.16767604  0.49947170  0.83467570  1
  Te  Te114  1  0.16803475  0.83372037  0.16737503  1
  Te  Te115  1  0.17052506  0.83166130  0.50238713  1
  Te  Te116  1  0.17049140  0.83242734  0.82756207  1
  Te  Te117  1  0.49350529  0.16188384  0.16711406  1
  Te  Te118  1  0.49988732  0.16532634  0.50748577  1
  Te  Te119  1  0.49878067  0.16750670  0.82969981  1
  Te  Te120  1  0.50366843  0.50051002  0.16645925  1
  Te  Te121  1  0.50349220  0.50604330  0.49813659  1
  Te  Te122  1  0.49470673  0.50564880  0.83695652  1
  Te  Te123  1  0.49708055  0.83612596  0.16944472  1
  Te  Te124  1  0.49404462  0.82891883  0.50338790  1
  Te  Te125  1  0.49983224  0.83072124  0.83033538  1
  Te  Te126  1  0.83132929  0.16635863  0.16103335  1
  Te  Te127  1  0.83411873  0.17592577  0.49704557  1
  Te  Te128  1  0.83026935  0.16715882  0.83751026  1
  Te  Te129  1  0.82829092  0.50006154  0.17099528  1
  Te  Te130  1  0.83272090  0.49836733  0.50373440  1
  Te  Te131  1  0.83183915  0.49862748  0.82937690  1
  Te  Te132  1  0.83550394  0.83356123  0.16756595  1
  Te  Te133  1  0.83406859  0.83023751  0.50351240  1
  Te  Te134  1  0.83021326  0.83189912  0.82800664  1
  Te  Te135  1  0.16098259  0.00503868  0.00003291  1
  Te  Te136  1  0.17078947  -0.00207143  0.33822026  1
  Te  Te137  1  0.16340338  -0.00018468  0.66212308  1
  Te  Te138  1  0.16821442  0.33232269  -0.00292142  1
  Te  Te139  1  0.16974327  0.33267974  0.33493324  1
  Te  Te140  1  0.16506623  0.33347376  0.66961137  1
  Te  Te141  1  0.17040317  0.66530937  -0.00779057  1
  Te  Te142  1  0.16713118  0.67112623  0.33296627  1
  Te  Te143  1  0.16765186  0.66939427  0.67286282  1
  Te  Te144  1  0.50036883  -0.00458960  0.00451960  1
  Te  Te145  1  0.49327201  0.00044030  0.33105456  1
  Te  Te146  1  0.49948553  0.00012103  0.66650241  1
  Te  Te147  1  0.49407765  0.33783896  0.00000294  1
  Te  Te148  1  0.49434436  0.33885347  0.33523377  1
  Te  Te149  1  0.50262723  0.32787326  0.66594587  1
  Te  Te150  1  0.49855840  0.66743695  -0.00153093  1
  Te  Te151  1  0.49946418  0.65984853  0.33592277  1
  Te  Te152  1  0.50165599  0.66872993  0.66886303  1
  Te  Te153  1  0.83768007  0.00457487  0.00144103  1
  Te  Te154  1  0.83372990  -0.00195216  0.33945373  1
  Te  Te155  1  0.83953007  0.00072681  0.66038086  1
  Te  Te156  1  0.83353381  0.32998127  -0.00515869  1
  Te  Te157  1  0.83448726  0.33622029  0.33526504  1
  Te  Te158  1  0.83493320  0.32871233  0.66939259  1
  Te  Te159  1  0.83109204  0.66646438  -0.00452899  1
  Te  Te160  1  0.83273519  0.66678154  0.33562386  1
  Te  Te161  1  0.83377575  0.66649901  0.66680983  1
  Te  Te162  1  0.00320529  0.16751500  -0.00034458  1
  Te  Te163  1  0.00906245  0.16622313  0.33013697  1
  Te  Te164  1  0.00646067  0.16525724  0.66702662  1
  Te  Te165  1  0.00149746  0.49564905  -0.00403370  1
  Te  Te166  1  -0.00558333  0.50058299  0.32968686  1
  Te  Te167  1  -0.00618963  0.49455998  0.67246509  1
  Te  Te168  1  0.00079384  0.83718277  0.00065260  1
  Te  Te169  1  0.00073200  0.83427225  0.33585263  1
  Te  Te170  1  0.00180590  0.83564826  0.66463238  1
  Te  Te171  1  0.33023053  0.16788860  0.00007095  1
  Te  Te172  1  0.33040589  0.16792835  0.33566718  1
  Te  Te173  1  0.33086406  0.16724993  0.66928742  1
  Te  Te174  1  0.33401397  0.50004285  -0.00142540  1
  Te  Te175  1  0.33575378  0.49676458  0.33190392  1
  Te  Te176  1  0.33403231  0.50649420  0.67296335  1
  Te  Te177  1  0.33537910  0.83309082  -0.00175202  1
  Te  Te178  1  0.33179873  0.83367434  0.32850352  1
  Te  Te179  1  0.33359175  0.83267957  0.66907043  1
  Te  Te180  1  0.66601142  0.16779279  -0.00630140  1
  Te  Te181  1  0.66683106  0.16791562  0.33026055  1
  Te  Te182  1  0.66485959  0.16570797  0.67157228  1
  Te  Te183  1  0.66344560  0.50406983  0.00059733  1
  Te  Te184  1  0.66737403  0.49978004  0.33765781  1
  Te  Te185  1  0.66955965  0.50127918  0.66363822  1
  Te  Te186  1  0.66214720  0.82812995  -0.00301887  1
  Te  Te187  1  0.67149019  0.83280123  0.33548921  1
  Te  Te188  1  0.66683966  0.83207149  0.66701197  1
  Te  Te189  1  -0.00108843  -0.00558843  0.16319917  1
  Te  Te190  1  0.00229527  -0.00370133  0.50243293  1
  Te  Te191  1  -0.00038445  -0.00274076  0.83171652  1
  Te  Te192  1  -0.00022237  0.33253165  0.16016814  1
  Te  Te193  1  0.00181369  0.33434118  0.50515770  1
  Te  Te194  1  0.00078433  0.33571404  0.83319820  1
  Te  Te195  1  -0.00070242  0.67533370  0.16426465  1
  Te  Te196  1  -0.00517388  0.67283971  0.50104657  1
  Te  Te197  1  -0.00890853  0.65990962  0.83375397  1
  Te  Te198  1  0.33480676  -0.00081252  0.16939975  1
  Te  Te199  1  0.32954405  -0.00548541  0.49520245  1
  Te  Te200  1  0.33316418  0.00906251  0.83386425  1
  Te  Te201  1  0.33271179  0.33029947  0.16749786  1
  Te  Te202  1  0.32913533  0.33546147  0.49812738  1
  Te  Te203  1  0.33068124  0.32989135  0.83504207  1
  Te  Te204  1  0.33334950  0.67242928  0.16225269  1
  Te  Te205  1  0.33451795  0.67115890  0.50293309  1
  Te  Te206  1  0.33677572  0.66727315  0.83389157  1
  Te  Te207  1  0.65964120  0.00094280  0.16695719  1
  Te  Te208  1  0.67030838  -0.00376965  0.49913302  1
  Te  Te209  1  0.66653821  0.00362347  0.83440499  1
  Te  Te210  1  0.66543736  0.34021025  0.16667553  1
  Te  Te211  1  0.66920460  0.33580784  0.50747162  1
  Te  Te212  1  0.66718572  0.33204154  0.82788805  1
  Te  Te213  1  0.66629873  0.66089056  0.16037536  1
  Te  Te214  1  0.66706004  0.66738772  0.50341312  1
  Te  Te215  1  0.66804465  0.66625866  0.82995800  1
