# generated using pymatgen
data_AgSbTe2
_symmetry_space_group_name_H-M   'P 1'
_cell_length_a   18.30498838
_cell_length_b   18.31160490
_cell_length_c   18.31104713
_cell_angle_alpha   89.99980124
_cell_angle_beta   89.99988888
_cell_angle_gamma   89.99950057
_symmetry_Int_Tables_number   1
_chemical_formula_structural   AgSbTe2
_chemical_formula_sum   'Ag54 Sb54 Te108'
_cell_volume   6137.74791216
_cell_formula_units_Z   54
loop_
 _symmetry_equiv_pos_site_id
 _symmetry_equiv_pos_as_xyz
  1  'x, y, z'
loop_
 _atom_site_type_symbol
 _atom_site_label
 _atom_site_symmetry_multiplicity
 _atom_site_fract_x
 _atom_site_fract_y
 _atom_site_fract_z
 _atom_site_occupancy
  Ag  Ag0  1  -0.00341427  0.33826472  0.00027635  1
  Ag  Ag1  1  0.82977010  0.83232166  0.00201519  1
  Ag  Ag2  1  0.33736948  0.66569259  0.67575048  1
  Ag  Ag3  1  -0.00309444  0.00738448  0.33382787  1
  Ag  Ag4  1  0.15762957  0.16701084  0.33375630  1
  Ag  Ag5  1  0.67003485  0.00447617  0.32722186  1
  Ag  Ag6  1  0.32990831  0.66381759  -0.00630797  1
  Ag  Ag7  1  0.83330160  0.33420934  0.83478510  1
  Ag  Ag8  1  0.66574189  0.33010718  0.00456497  1
  Ag  Ag9  1  0.15716662  0.66101348  0.50412122  1
  Ag  Ag10  1  0.83784242  0.16344337  0.66648913  1
  Ag  Ag11  1  0.83483359  0.82887002  0.33791539  1
  Ag  Ag12  1  0.66368441  0.67367301  0.66870108  1
  Ag  Ag13  1  0.66280422  0.49877071  0.16853720  1
  Ag  Ag14  1  0.16788516  0.00689049  0.16872849  1
  Ag  Ag15  1  0.66862082  0.83285668  0.16285574  1
  Ag  Ag16  1  0.83104290  0.83479781  0.66240798  1
  Ag  Ag17  1  -0.00199684  0.82576312  0.83075149  1
  Ag  Ag18  1  0.83451886  0.66815734  0.17345041  1
  Ag  Ag19  1  0.16416494  0.50097589  -0.00070964  1
  Ag  Ag20  1  0.84043409  0.67304096  0.49491226  1
  Ag  Ag21  1  0.15742947  0.16762627  0.66175560  1
  Ag  Ag22  1  0.16724151  0.66431630  0.83201451  1
  Ag  Ag23  1  0.83571909  -0.00723142  0.49783549  1
  Ag  Ag24  1  0.50650619  0.49506091  0.32943647  1
  Ag  Ag25  1  0.50164327  0.00701633  0.16799433  1
  Ag  Ag26  1  0.33037231  0.50457423  0.83781979  1
  Ag  Ag27  1  -0.00025251  0.33188937  0.66200495  1
  Ag  Ag28  1  0.15887107  0.33498929  0.49421255  1
  Ag  Ag29  1  0.66893871  0.33179836  0.32620979  1
  Ag  Ag30  1  0.51080988  0.82437367  0.67310214  1
  Ag  Ag31  1  0.00020103  0.50153790  0.49946252  1
  Ag  Ag32  1  0.50095275  0.17001360  0.32654881  1
  Ag  Ag33  1  0.33731754  0.50052349  0.16239822  1
  Ag  Ag34  1  0.50869675  0.83518988  -0.00303190  1
  Ag  Ag35  1  0.00391421  0.50281546  0.83300903  1
  Ag  Ag36  1  0.16053849  0.32997729  0.16996077  1
  Ag  Ag37  1  0.16436284  -0.00186764  0.83664948  1
  Ag  Ag38  1  0.00069883  0.17284685  0.49393015  1
  Ag  Ag39  1  0.50666033  0.33893839  0.84173896  1
  Ag  Ag40  1  0.49424594  0.66181119  0.83075343  1
  Ag  Ag41  1  0.66862626  -0.00497767  0.66853227  1
  Ag  Ag42  1  0.83545996  0.50399010  0.33305627  1
  Ag  Ag43  1  -0.00200029  0.32953106  0.33543984  1
  Ag  Ag44  1  0.66468464  0.00081184  0.00326442  1
  Ag  Ag45  1  0.66582353  0.16842085  0.83579400  1
  Ag  Ag46  1  0.50273264  0.33139536  0.16422488  1
  Ag  Ag47  1  0.50088557  0.50610908  0.67096166  1
  Ag  Ag48  1  0.50428762  0.16749888  0.00734788  1
  Ag  Ag49  1  0.00232343  0.66160795  -0.00160217  1
  Ag  Ag50  1  -0.00413185  0.66384127  0.33844461  1
  Ag  Ag51  1  0.00385165  0.16963382  0.17583399  1
  Ag  Ag52  1  -0.00518523  0.82689731  0.50116056  1
  Ag  Ag53  1  0.32933061  0.00062420  0.33025069  1
  Sb  Sb54  1  0.67070467  0.83659255  0.83461227  1
  Sb  Sb55  1  0.83168690  0.50224386  0.66331784  1
  Sb  Sb56  1  0.15654402  0.83838986  0.33287777  1
  Sb  Sb57  1  0.83571778  0.00131701  0.82979193  1
  Sb  Sb58  1  0.66780358  0.16680506  0.16460612  1
  Sb  Sb59  1  0.33683451  -0.00582079  0.00425521  1
  Sb  Sb60  1  0.67417986  0.66590730  0.33390554  1
  Sb  Sb61  1  0.49698156  0.49967883  0.00011057  1
  Sb  Sb62  1  0.33262605  0.17020815  0.16755758  1
  Sb  Sb63  1  0.32605856  0.83166733  0.50067233  1
  Sb  Sb64  1  0.50443684  0.66396960  0.16299220  1
  Sb  Sb65  1  0.32979634  0.33891409  0.66888237  1
  Sb  Sb66  1  0.67242904  0.50001952  0.49453851  1
  Sb  Sb67  1  0.50723309  -0.00018084  0.49345097  1
  Sb  Sb68  1  0.67401843  0.16577640  0.50118876  1
  Sb  Sb69  1  0.16130593  0.66425526  0.16554706  1
  Sb  Sb70  1  0.50934315  0.83398060  0.33193726  1
  Sb  Sb71  1  0.32815929  0.66818686  0.33227629  1
  Sb  Sb72  1  0.15788074  0.00162096  0.49728192  1
  Sb  Sb73  1  0.83317109  0.33642641  0.16521406  1
  Sb  Sb74  1  0.16812080  0.17031979  0.00164592  1
  Sb  Sb75  1  0.16710881  0.49927548  0.66985540  1
  Sb  Sb76  1  0.33905810  0.82970551  0.16587119  1
  Sb  Sb77  1  0.66841015  0.66677155  -0.00273799  1
  Sb  Sb78  1  -0.00057237  0.49636868  0.16730676  1
  Sb  Sb79  1  -0.00109146  0.66357980  0.66537058  1
  Sb  Sb80  1  0.16093490  0.83530428  0.66822434  1
  Sb  Sb81  1  0.84065747  0.33374675  0.50081748  1
  Sb  Sb82  1  0.16262730  0.49460845  0.32996733  1
  Sb  Sb83  1  0.49706339  0.33432401  0.49609984  1
  Sb  Sb84  1  0.33115195  0.82607113  0.83337903  1
  Sb  Sb85  1  -0.00527630  0.00397036  0.66200145  1
  Sb  Sb86  1  0.82942970  0.16488371  -0.00337612  1
  Sb  Sb87  1  -0.00661623  0.83522032  0.16776971  1
  Sb  Sb88  1  0.33156265  0.33099682  0.33062738  1
  Sb  Sb89  1  -0.00306251  0.16989480  0.83246566  1
  Sb  Sb90  1  0.50304909  0.66618451  0.50563970  1
  Sb  Sb91  1  0.33668898  0.17231157  0.83353482  1
  Sb  Sb92  1  0.83545101  0.66425556  0.83222072  1
  Sb  Sb93  1  0.49889819  -0.00121664  0.83842703  1
  Sb  Sb94  1  0.33461293  0.33961999  0.00108259  1
  Sb  Sb95  1  0.32510346  0.16626266  0.49773903  1
  Sb  Sb96  1  0.83036649  -0.00416115  0.17210479  1
  Sb  Sb97  1  0.67090013  0.33308364  0.66863002  1
  Sb  Sb98  1  0.32859278  0.50210209  0.49934233  1
  Sb  Sb99  1  0.50300264  0.16728961  0.66672173  1
  Sb  Sb100  1  0.83785404  0.50322361  0.00444077  1
  Sb  Sb101  1  0.16303688  0.82951926  0.00002910  1
  Sb  Sb102  1  0.16217988  0.33655490  0.83559311  1
  Sb  Sb103  1  0.66725482  0.49652523  0.83778276  1
  Sb  Sb104  1  0.67450886  0.83316841  0.49960580  1
  Sb  Sb105  1  0.33697414  -0.00492661  0.66444801  1
  Sb  Sb106  1  0.83593906  0.16659454  0.33644314  1
  Sb  Sb107  1  -0.00395395  -0.00005793  0.00383713  1
  Te  Te108  1  0.16647456  0.16809232  0.16818782  1
  Te  Te109  1  0.16013967  0.16870440  0.49863551  1
  Te  Te110  1  0.16799667  0.16486968  0.83249678  1
  Te  Te111  1  0.17010787  0.49663819  0.16228164  1
  Te  Te112  1  0.16101008  0.49978047  0.49982711  1
  Te  Te113  1  0.16496833  0.50237999  0.83633335  1
  Te  Te114  1  0.16866250  0.84082106  0.16628373  1
  Te  Te115  1  0.15715309  0.82820309  0.50078809  1
  Te  Te116  1  0.15993855  0.83104494  0.83372578  1
  Te  Te117  1  0.49955359  0.16861325  0.16792598  1
  Te  Te118  1  0.49865098  0.16725734  0.49344670  1
  Te  Te119  1  0.50390117  0.16974792  0.83452523  1
  Te  Te120  1  0.50170399  0.49823644  0.16785988  1
  Te  Te121  1  0.49889343  0.49920278  0.49813806  1
  Te  Te122  1  0.50068144  0.50035490  0.83304459  1
  Te  Te123  1  0.50697544  0.83364180  0.16377864  1
  Te  Te124  1  0.49976217  0.83295106  0.50569621  1
  Te  Te125  1  0.50073740  0.83055548  0.83336512  1
  Te  Te126  1  0.84192796  0.16541585  0.16521775  1
  Te  Te127  1  0.84075866  0.16405526  0.50643664  1
  Te  Te128  1  0.82903112  0.17061257  0.82881513  1
  Te  Te129  1  0.82926100  0.50522999  0.17176647  1
  Te  Te130  1  0.83980121  0.50381213  0.49546565  1
  Te  Te131  1  0.83837431  0.49502346  0.83240719  1
  Te  Te132  1  0.82878223  0.82970378  0.16545116  1
  Te  Te133  1  0.83611414  0.83249434  0.50019744  1
  Te  Te134  1  0.83873761  0.83287879  0.83179641  1
  Te  Te135  1  0.16715286  0.00051911  0.00225859  1
  Te  Te136  1  0.16211212  0.00483438  0.33057706  1
  Te  Te137  1  0.16856028  0.00401648  0.66894637  1
  Te  Te138  1  0.16366192  0.33656974  0.00475520  1
  Te  Te139  1  0.16458230  0.32877161  0.33005109  1
  Te  Te140  1  0.16225064  0.32952242  0.66676063  1
  Te  Te141  1  0.16235078  0.66418240  -0.00133693  1
  Te  Te142  1  0.15932677  0.66682061  0.33514517  1
  Te  Te143  1  0.16935583  0.66738124  0.66916236  1
  Te  Te144  1  0.50324806  -0.00161402  0.00422988  1
  Te  Te145  1  0.50804264  -0.00012909  0.32873165  1
  Te  Te146  1  0.50610059  -0.00165366  0.66598252  1
  Te  Te147  1  0.50150974  0.33288794  0.00229110  1
  Te  Te148  1  0.50047505  0.33341611  0.33112032  1
  Te  Te149  1  0.50025380  0.33586713  0.66652022  1
  Te  Te150  1  0.49952068  0.66977858  -0.00387845  1
  Te  Te151  1  0.49877998  0.66282988  0.33559388  1
  Te  Te152  1  0.50083217  0.66600243  0.66769023  1
  Te  Te153  1  0.82704284  -0.00575132  -0.00020132  1
  Te  Te154  1  0.83347281  0.00002120  0.33630111  1
  Te  Te155  1  0.82948476  -0.00159218  0.66446626  1
  Te  Te156  1  0.83315733  0.33266626  -0.00293673  1
  Te  Te157  1  0.83387467  0.33635690  0.33306403  1
  Te  Te158  1  0.83739350  0.33178685  0.66987955  1
  Te  Te159  1  0.83719922  0.67136537  -0.00006879  1
  Te  Te160  1  0.83528632  0.66662007  0.33415421  1
  Te  Te161  1  0.82983794  0.67009748  0.66413896  1
  Te  Te162  1  -0.00025629  0.17031211  0.00189585  1
  Te  Te163  1  -0.00097387  0.16847776  0.33378981  1
  Te  Te164  1  -0.00044591  0.17016318  0.66695870  1
  Te  Te165  1  0.00193818  0.49982755  -0.00019210  1
  Te  Te166  1  -0.00190866  0.50021901  0.33397912  1
  Te  Te167  1  -0.00047777  0.49375567  0.66728947  1
  Te  Te168  1  -0.00451897  0.83135999  -0.00227202  1
  Te  Te169  1  -0.00630968  0.83042247  0.33529239  1
  Te  Te170  1  -0.00540188  0.83548402  0.66627580  1
  Te  Te171  1  0.34255842  0.16461946  -0.00059217  1
  Te  Te172  1  0.33659351  0.16061651  0.33286713  1
  Te  Te173  1  0.32852171  0.16499111  0.66589180  1
  Te  Te174  1  0.33001651  0.50461288  -0.00119810  1
  Te  Te175  1  0.33711835  0.50125618  0.32994472  1
  Te  Te176  1  0.33748565  0.50563473  0.66854838  1
  Te  Te177  1  0.33979300  0.82520588  0.00000762  1
  Te  Te178  1  0.33549070  0.83893058  0.33347274  1
  Te  Te179  1  0.33892236  0.82771474  0.66600131  1
  Te  Te180  1  0.66381941  0.16884743  -0.00150046  1
  Te  Te181  1  0.66585903  0.16683431  0.33387733  1
  Te  Te182  1  0.67093780  0.16412800  0.66948578  1
  Te  Te183  1  0.66894786  0.49454238  0.00637342  1
  Te  Te184  1  0.66705801  0.49873341  0.32967405  1
  Te  Te185  1  0.66210504  0.50055132  0.66555921  1
  Te  Te186  1  0.66814433  0.83363517  0.00063909  1
  Te  Te187  1  0.67427659  0.83670470  0.32937952  1
  Te  Te188  1  0.66946658  0.83493019  0.66799793  1
  Te  Te189  1  0.00245845  0.00307640  0.17130279  1
  Te  Te190  1  -0.00418808  -0.00094464  0.49490878  1
  Te  Te191  1  0.00440856  -0.00225812  0.83472188  1
  Te  Te192  1  -0.00027957  0.33139431  0.16681603  1
  Te  Te193  1  0.00183158  0.33377266  0.49760561  1
  Te  Te194  1  -0.00201802  0.33646946  0.83782414  1
  Te  Te195  1  -0.00479534  0.66606308  0.16557486  1
  Te  Te196  1  -0.00046588  0.66472435  0.50204199  1
  Te  Te197  1  0.00214027  0.66431052  0.83261515  1
  Te  Te198  1  0.33511134  -0.00174038  0.17109196  1
  Te  Te199  1  0.33335280  -0.00135236  0.49254908  1
  Te  Te200  1  0.32564283  -0.00070880  0.83309436  1
  Te  Te201  1  0.33646047  0.33963579  0.16609866  1
  Te  Te202  1  0.32098315  0.33428808  0.50050586  1
  Te  Te203  1  0.34045029  0.34134068  0.83365977  1
  Te  Te204  1  0.33216328  0.66097861  0.16325079  1
  Te  Te205  1  0.32511224  0.66689655  0.50181866  1
  Te  Te206  1  0.33204270  0.66381980  0.83368165  1
  Te  Te207  1  0.66379920  0.00079140  0.16543484  1
  Te  Te208  1  0.67430612  0.00003060  0.50010289  1
  Te  Te209  1  0.66579310  0.00482209  0.83528275  1
  Te  Te210  1  0.66524787  0.33315674  0.16697677  1
  Te  Te211  1  0.66641328  0.33298625  0.49080049  1
  Te  Te212  1  0.66622440  0.33055433  0.83511632  1
  Te  Te213  1  0.67204564  0.66740505  0.16577905  1
  Te  Te214  1  0.67184571  0.66617011  0.50698326  1
  Te  Te215  1  0.66350718  0.66545754  0.82913101  1
