# generated using pymatgen
data_AgSbTe2
_symmetry_space_group_name_H-M   'P 1'
_cell_length_a   18.32543883
_cell_length_b   18.33324063
_cell_length_c   18.33771859
_cell_angle_alpha   90.00045298
_cell_angle_beta   89.99972933
_cell_angle_gamma   89.99470235
_symmetry_Int_Tables_number   1
_chemical_formula_structural   AgSbTe2
_chemical_formula_sum   'Ag54 Sb54 Te108'
_cell_volume   6160.82573011
_cell_formula_units_Z   54
loop_
 _symmetry_equiv_pos_site_id
 _symmetry_equiv_pos_as_xyz
  1  'x, y, z'
loop_
 _atom_site_type_symbol
 _atom_site_label
 _atom_site_symmetry_multiplicity
 _atom_site_fract_x
 _atom_site_fract_y
 _atom_site_fract_z
 _atom_site_occupancy
  Ag  Ag0  1  0.66457621  -0.01102257  0.67230431  1
  Ag  Ag1  1  0.83677488  0.33821041  0.50442512  1
  Ag  Ag2  1  0.34487487  0.67514818  0.33714275  1
  Ag  Ag3  1  0.66223429  0.66609050  0.33983308  1
  Ag  Ag4  1  0.33760385  0.33103283  0.00026682  1
  Ag  Ag5  1  0.82819140  0.50573432  -0.00565468  1
  Ag  Ag6  1  0.66814842  0.15935103  0.83235042  1
  Ag  Ag7  1  -0.00834036  0.50246339  0.50180601  1
  Ag  Ag8  1  -0.00911282  0.83246340  0.83163099  1
  Ag  Ag9  1  0.17855384  -0.00395522  0.16801826  1
  Ag  Ag10  1  0.34754335  0.66935015  0.66062892  1
  Ag  Ag11  1  0.83186044  0.50736022  0.66927624  1
  Ag  Ag12  1  0.51083343  0.33493848  0.83534299  1
  Ag  Ag13  1  0.17119123  0.15458643  -0.00037738  1
  Ag  Ag14  1  -0.00947955  0.16387477  0.83010735  1
  Ag  Ag15  1  0.50570258  0.83068265  0.66774815  1
  Ag  Ag16  1  0.83373168  0.34036755  0.16363919  1
  Ag  Ag17  1  0.83033355  0.83085546  0.33425305  1
  Ag  Ag18  1  0.83152606  0.66833318  0.16406804  1
  Ag  Ag19  1  0.33590235  0.83716000  0.16709512  1
  Ag  Ag20  1  -0.00039381  0.16912265  0.50813184  1
  Ag  Ag21  1  0.83721083  0.82813983  -0.00602816  1
  Ag  Ag22  1  0.33858800  -0.00730858  0.32855300  1
  Ag  Ag23  1  -0.00601570  0.67282848  0.66689252  1
  Ag  Ag24  1  0.50346499  0.67048685  0.82744830  1
  Ag  Ag25  1  0.67046234  0.83538478  0.83066263  1
  Ag  Ag26  1  0.50383091  0.83436965  -0.00054803  1
  Ag  Ag27  1  0.50221752  0.83073324  0.33646492  1
  Ag  Ag28  1  0.49898347  0.15543541  0.33407907  1
  Ag  Ag29  1  -0.00431868  0.67238643  -0.00856603  1
  Ag  Ag30  1  0.00063983  0.83016280  0.50833661  1
  Ag  Ag31  1  0.82927620  0.33271648  0.83226664  1
  Ag  Ag32  1  0.33769375  0.15659404  0.16488705  1
  Ag  Ag33  1  0.66667555  0.67054474  0.66660706  1
  Ag  Ag34  1  0.66821730  0.50558765  0.83378407  1
  Ag  Ag35  1  0.15767029  0.83633855  -0.00065863  1
  Ag  Ag36  1  0.15692497  0.83158159  0.66728529  1
  Ag  Ag37  1  0.16742525  -0.00759938  0.49833041  1
  Ag  Ag38  1  0.49961488  -0.00974088  0.49407417  1
  Ag  Ag39  1  -0.00156274  0.83277132  0.16124334  1
  Ag  Ag40  1  0.49776395  -0.00299790  0.17237656  1
  Ag  Ag41  1  0.50985217  0.50448312  0.00004535  1
  Ag  Ag42  1  0.67120611  0.50444461  0.50307715  1
  Ag  Ag43  1  0.66438137  -0.00497729  -0.00753156  1
  Ag  Ag44  1  0.49887667  0.16287603  -0.00191245  1
  Ag  Ag45  1  0.50474348  0.51370542  0.33181292  1
  Ag  Ag46  1  0.50126525  0.67258243  0.50227403  1
  Ag  Ag47  1  -0.00475968  0.33654246  0.66361566  1
  Ag  Ag48  1  -0.00543509  0.33327334  0.34427872  1
  Ag  Ag49  1  0.66870719  0.50325412  0.15938246  1
  Ag  Ag50  1  0.82846187  -0.00834540  0.83317308  1
  Ag  Ag51  1  0.50251917  0.15769269  0.67170820  1
  Ag  Ag52  1  0.83160648  0.82765761  0.67429594  1
  Ag  Ag53  1  0.16321748  0.67371825  0.50269807  1
  Sb  Sb54  1  0.50406070  0.33055923  0.16135111  1
  Sb  Sb55  1  0.16446130  0.50435639  -0.00043224  1
  Sb  Sb56  1  0.16981436  0.67044854  0.82763587  1
  Sb  Sb57  1  0.34583410  0.50205926  0.83462317  1
  Sb  Sb58  1  0.17033288  0.16419694  0.33082520  1
  Sb  Sb59  1  0.66704701  0.82885480  0.50685319  1
  Sb  Sb60  1  0.66425003  0.33407745  -0.00364611  1
  Sb  Sb61  1  -0.01041741  0.50384260  0.82845073  1
  Sb  Sb62  1  0.16903335  0.50276803  0.33525646  1
  Sb  Sb63  1  0.33474141  0.33318902  0.32828198  1
  Sb  Sb64  1  0.82716468  0.66951929  0.83416207  1
  Sb  Sb65  1  0.65988248  -0.00824492  0.33466907  1
  Sb  Sb66  1  0.15876193  -0.00382281  0.83521367  1
  Sb  Sb67  1  0.82921645  -0.00466695  0.16195501  1
  Sb  Sb68  1  0.66120077  0.16897053  0.16121950  1
  Sb  Sb69  1  -0.00795218  0.50518071  0.17029041  1
  Sb  Sb70  1  0.34122437  -0.00833161  0.66026555  1
  Sb  Sb71  1  0.33358023  0.66781513  0.00207756  1
  Sb  Sb72  1  0.83041941  0.16649553  0.66939659  1
  Sb  Sb73  1  0.00302756  0.16237916  0.16391357  1
  Sb  Sb74  1  0.33352891  0.33802477  0.67134282  1
  Sb  Sb75  1  0.66924402  0.66918746  -0.00355839  1
  Sb  Sb76  1  0.50564833  0.33582089  0.50444138  1
  Sb  Sb77  1  0.00290374  0.00028317  0.33549401  1
  Sb  Sb78  1  -0.00170986  0.33701984  -0.00309323  1
  Sb  Sb79  1  0.83070659  -0.00188151  0.50479106  1
  Sb  Sb80  1  -0.00336898  0.66739038  0.33828962  1
  Sb  Sb81  1  0.50682742  -0.00167703  0.83412796  1
  Sb  Sb82  1  -0.00334259  -0.00731705  -0.00028704  1
  Sb  Sb83  1  0.82855082  0.16387572  0.33419856  1
  Sb  Sb84  1  0.15659368  0.50928377  0.66428936  1
  Sb  Sb85  1  0.34342660  0.50380990  0.16679238  1
  Sb  Sb86  1  0.83113901  0.66501796  0.50154649  1
  Sb  Sb87  1  0.34052294  0.00167662  0.00610276  1
  Sb  Sb88  1  0.50595770  0.67311028  0.16860922  1
  Sb  Sb89  1  0.50944472  0.50716722  0.66801086  1
  Sb  Sb90  1  0.15696222  0.33214317  0.50112164  1
  Sb  Sb91  1  0.66901991  0.33868431  0.33326579  1
  Sb  Sb92  1  0.16291180  0.32659144  0.16445267  1
  Sb  Sb93  1  0.16250894  0.67495080  0.17102469  1
  Sb  Sb94  1  0.16783241  0.15776387  0.67026351  1
  Sb  Sb95  1  -0.00579481  -0.00549544  0.66691509  1
  Sb  Sb96  1  0.67232647  0.33703123  0.67041634  1
  Sb  Sb97  1  0.16211400  0.33008758  0.83404977  1
  Sb  Sb98  1  0.82716350  0.50528964  0.33433111  1
  Sb  Sb99  1  0.33894780  0.83448851  0.83686910  1
  Sb  Sb100  1  0.34028204  0.16684710  0.83935169  1
  Sb  Sb101  1  0.33129936  0.16449733  0.49671732  1
  Sb  Sb102  1  0.83091277  0.16588260  -0.00322345  1
  Sb  Sb103  1  0.16842214  0.83377846  0.33445723  1
  Sb  Sb104  1  0.33260216  0.83209444  0.49555043  1
  Sb  Sb105  1  0.66794826  0.16967718  0.50573534  1
  Sb  Sb106  1  0.33794081  0.50474073  0.50054363  1
  Sb  Sb107  1  0.66719839  0.82916002  0.16200683  1
  Te  Te108  1  0.17144670  0.15971474  0.16094281  1
  Te  Te109  1  0.16055057  0.16144788  0.50070080  1
  Te  Te110  1  0.16195443  0.16436192  0.83923415  1
  Te  Te111  1  0.16739887  0.49910837  0.16608126  1
  Te  Te112  1  0.16132877  0.50426584  0.49972992  1
  Te  Te113  1  0.16780980  0.49973472  0.83356401  1
  Te  Te114  1  0.16454357  0.83716064  0.16550357  1
  Te  Te115  1  0.16529978  0.83362355  0.50057422  1
  Te  Te116  1  0.16128249  0.83325683  0.83457469  1
  Te  Te117  1  0.49756314  0.16412648  0.16254803  1
  Te  Te118  1  0.49999653  0.16837325  0.50029412  1
  Te  Te119  1  0.50403120  0.16710667  0.83509170  1
  Te  Te120  1  0.50702686  0.49869914  0.16403896  1
  Te  Te121  1  0.50560618  0.50234933  0.49751496  1
  Te  Te122  1  0.50806465  0.49859539  0.83564926  1
  Te  Te123  1  0.50072394  0.83643937  0.16364455  1
  Te  Te124  1  0.50036096  0.83199804  0.50003061  1
  Te  Te125  1  0.50331905  0.83166743  0.83385859  1
  Te  Te126  1  0.83242245  0.17050603  0.16604240  1
  Te  Te127  1  0.83943976  0.16982151  0.50026977  1
  Te  Te128  1  0.83109852  0.17044940  0.83349494  1
  Te  Te129  1  0.82941458  0.50149420  0.16703869  1
  Te  Te130  1  0.83303882  0.49870618  0.50011258  1
  Te  Te131  1  0.82881113  0.49695313  0.83351032  1
  Te  Te132  1  0.83446745  0.83211842  0.16354658  1
  Te  Te133  1  0.83807444  0.83466062  0.49885436  1
  Te  Te134  1  0.83155095  0.83174190  0.83363827  1
  Te  Te135  1  0.16649646  -0.00370863  0.00232157  1
  Te  Te136  1  0.17264706  0.00091441  0.33348547  1
  Te  Te137  1  0.17052245  -0.00841395  0.66068524  1
  Te  Te138  1  0.17097352  0.33303521  -0.00007727  1
  Te  Te139  1  0.15931438  0.33367181  0.33255011  1
  Te  Te140  1  0.16156410  0.33157688  0.66757485  1
  Te  Te141  1  0.16237023  0.67340189  0.00110766  1
  Te  Te142  1  0.17190397  0.66599706  0.34148489  1
  Te  Te143  1  0.15927000  0.67383520  0.66194118  1
  Te  Te144  1  0.50319453  -0.00209786  -0.00004918  1
  Te  Te145  1  0.49891474  -0.00359644  0.33388658  1
  Te  Te146  1  0.50344078  -0.00237705  0.66464529  1
  Te  Te147  1  0.49855864  0.33319942  -0.00348671  1
  Te  Te148  1  0.49997717  0.33168035  0.33385961  1
  Te  Te149  1  0.49787909  0.33074246  0.67339735  1
  Te  Te150  1  0.49837753  0.66596748  -0.00099581  1
  Te  Te151  1  0.50159293  0.67010242  0.33084379  1
  Te  Te152  1  0.50435916  0.66795922  0.66478218  1
  Te  Te153  1  0.82695848  -0.00410252  -0.00418278  1
  Te  Te154  1  0.83122109  -0.00754568  0.33236072  1
  Te  Te155  1  0.82599878  -0.00435987  0.67088645  1
  Te  Te156  1  0.83378547  0.33768713  -0.00102241  1
  Te  Te157  1  0.83600621  0.33199088  0.33388476  1
  Te  Te158  1  0.83707878  0.33229052  0.66759216  1
  Te  Te159  1  0.83511012  0.66680226  0.00159657  1
  Te  Te160  1  0.82999744  0.67174908  0.32901925  1
  Te  Te161  1  0.83233315  0.66681733  0.66719530  1
  Te  Te162  1  0.00264034  0.16725463  -0.00433390  1
  Te  Te163  1  -0.00144482  0.17072033  0.33366302  1
  Te  Te164  1  0.00162508  0.16590214  0.66886378  1
  Te  Te165  1  -0.00445948  0.50830526  0.00046298  1
  Te  Te166  1  0.00004503  0.49620356  0.33853511  1
  Te  Te167  1  -0.00731131  0.50168007  0.66230907  1
  Te  Te168  1  -0.00222887  0.83164050  -0.00153321  1
  Te  Te169  1  -0.00371146  0.83327009  0.33311396  1
  Te  Te170  1  -0.00301337  0.83359513  0.66796125  1
  Te  Te171  1  0.33531185  0.16790437  0.00302266  1
  Te  Te172  1  0.33886512  0.16597209  0.32831845  1
  Te  Te173  1  0.33892522  0.16795328  0.66703325  1
  Te  Te174  1  0.33609791  0.49624203  0.00170885  1
  Te  Te175  1  0.34199417  0.50237580  0.33312107  1
  Te  Te176  1  0.32962158  0.50810824  0.66729982  1
  Te  Te177  1  0.33681304  0.83272175  0.00481718  1
  Te  Te178  1  0.33510548  0.83325055  0.32896179  1
  Te  Te179  1  0.33986974  0.82692934  0.66925500  1
  Te  Te180  1  0.66286485  0.16214218  -0.00524229  1
  Te  Te181  1  0.65916163  0.16597430  0.33437220  1
  Te  Te182  1  0.66196258  0.16653653  0.67105313  1
  Te  Te183  1  0.66774956  0.50109057  -0.00220184  1
  Te  Te184  1  0.66250606  0.50379457  0.33714894  1
  Te  Te185  1  0.67254578  0.50333531  0.66845967  1
  Te  Te186  1  0.66452067  0.83413184  -0.00375148  1
  Te  Te187  1  0.66503208  0.82753014  0.33312019  1
  Te  Te188  1  0.66688953  0.83102658  0.66766359  1
  Te  Te189  1  0.00107055  -0.00607220  0.16770113  1
  Te  Te190  1  0.00186541  -0.00182325  0.49982210  1
  Te  Te191  1  -0.00870930  0.00055732  0.83338908  1
  Te  Te192  1  -0.00550300  0.33301745  0.16659372  1
  Te  Te193  1  -0.00355261  0.33262524  0.50334858  1
  Te  Te194  1  -0.00534263  0.33290641  0.82889216  1
  Te  Te195  1  -0.00504844  0.67215081  0.16806181  1
  Te  Te196  1  -0.00005853  0.66903769  0.50208185  1
  Te  Te197  1  0.00253721  0.67019842  0.83111602  1
  Te  Te198  1  0.33609525  -0.00178602  0.16822696  1
  Te  Te199  1  0.33589771  0.00091098  0.49280419  1
  Te  Te200  1  0.32882877  0.00085960  0.83046070  1
  Te  Te201  1  0.33214937  0.33148163  0.16194966  1
  Te  Te202  1  0.33046525  0.33508637  0.50034503  1
  Te  Te203  1  0.33546597  0.33436771  0.83862995  1
  Te  Te204  1  0.33132473  0.67171424  0.17164177  1
  Te  Te205  1  0.33813500  0.66616005  0.49952695  1
  Te  Te206  1  0.34131902  0.66798122  0.82906367  1
  Te  Te207  1  0.66068047  0.00058133  0.16358437  1
  Te  Te208  1  0.66105451  0.00242579  0.50506506  1
  Te  Te209  1  0.66825506  -0.00140230  0.83242605  1
  Te  Te210  1  0.67434185  0.33925968  0.16613256  1
  Te  Te211  1  0.67458465  0.33948125  0.50153797  1
  Te  Te212  1  0.66827389  0.33273834  0.83269107  1
  Te  Te213  1  0.67154985  0.66265292  0.17091406  1
  Te  Te214  1  0.66407749  0.66401596  0.50149432  1
  Te  Te215  1  0.66177672  0.66746024  0.83017220  1
