# generated using pymatgen
data_AgSbTe2
_symmetry_space_group_name_H-M   'P 1'
_cell_length_a   18.35620333
_cell_length_b   18.34997551
_cell_length_c   18.35781055
_cell_angle_alpha   89.99930660
_cell_angle_beta   89.99921760
_cell_angle_gamma   89.99490640
_symmetry_Int_Tables_number   1
_chemical_formula_structural   AgSbTe2
_chemical_formula_sum   'Ag54 Sb54 Te108'
_cell_volume   6183.56927349
_cell_formula_units_Z   54
loop_
 _symmetry_equiv_pos_site_id
 _symmetry_equiv_pos_as_xyz
  1  'x, y, z'
loop_
 _atom_site_type_symbol
 _atom_site_label
 _atom_site_symmetry_multiplicity
 _atom_site_fract_x
 _atom_site_fract_y
 _atom_site_fract_z
 _atom_site_occupancy
  Ag  Ag0  1  0.84256491  0.33447319  0.84056190  1
  Ag  Ag1  1  0.33090636  -0.00533461  0.00402711  1
  Ag  Ag2  1  0.16769176  0.17170798  0.67538890  1
  Ag  Ag3  1  0.17528452  0.82790196  0.32652856  1
  Ag  Ag4  1  0.49134906  0.82252222  0.32212388  1
  Ag  Ag5  1  0.65361120  0.66798040  0.32515780  1
  Ag  Ag6  1  0.00348914  0.33808112  0.00174720  1
  Ag  Ag7  1  0.01277227  0.49902243  0.49710527  1
  Ag  Ag8  1  0.16571181  0.17015244  -0.00325104  1
  Ag  Ag9  1  0.84133600  0.66431600  0.49520419  1
  Ag  Ag10  1  0.48944448  0.49924335  0.68059314  1
  Ag  Ag11  1  0.17374561  0.66342747  0.83883097  1
  Ag  Ag12  1  0.00862054  0.17308046  0.48897346  1
  Ag  Ag13  1  0.33229161  0.82374170  0.84719239  1
  Ag  Ag14  1  0.83017597  0.33225423  0.16450438  1
  Ag  Ag15  1  0.65510709  0.66829464  0.00255482  1
  Ag  Ag16  1  0.32876571  -0.00110311  0.67178720  1
  Ag  Ag17  1  0.65364142  0.82482925  0.16314003  1
  Ag  Ag18  1  0.65282306  0.50488675  0.83316033  1
  Ag  Ag19  1  0.49014233  0.17186351  0.32785964  1
  Ag  Ag20  1  0.16628698  0.66440909  0.49899662  1
  Ag  Ag21  1  0.01421519  0.83117918  0.83952100  1
  Ag  Ag22  1  0.33487951  0.83380048  0.16416047  1
  Ag  Ag23  1  0.17080085  0.50230647  0.67575019  1
  Ag  Ag24  1  0.01315520  0.66337223  -0.00004119  1
  Ag  Ag25  1  0.17194263  0.82665831  -0.00443867  1
  Ag  Ag26  1  0.48851714  0.65707727  0.84409011  1
  Ag  Ag27  1  0.49359958  0.82692982  0.00495732  1
  Ag  Ag28  1  0.49709603  0.50351108  0.33105061  1
  Ag  Ag29  1  0.00929910  0.00836328  0.33291719  1
  Ag  Ag30  1  0.00936920  0.33237508  0.32566923  1
  Ag  Ag31  1  0.66499671  0.82877557  0.49353416  1
  Ag  Ag32  1  0.66464552  0.33531363  0.67337678  1
  Ag  Ag33  1  0.65341083  0.16807874  0.16747305  1
  Ag  Ag34  1  0.17023395  0.82325473  0.67764019  1
  Ag  Ag35  1  0.65687823  0.82256333  0.84365384  1
  Ag  Ag36  1  0.82630916  0.50110260  0.33424102  1
  Ag  Ag37  1  0.17277236  0.50617516  -0.00580207  1
  Ag  Ag38  1  0.01100901  0.17137106  0.16650454  1
  Ag  Ag39  1  0.32804964  0.17069263  0.48931196  1
  Ag  Ag40  1  0.33553314  0.67097442  0.33224426  1
  Ag  Ag41  1  0.49986839  0.34055831  0.16595690  1
  Ag  Ag42  1  0.33300237  0.16307198  0.17043356  1
  Ag  Ag43  1  0.49563772  0.34350230  0.84311687  1
  Ag  Ag44  1  0.33107722  0.49866646  0.50075002  1
  Ag  Ag45  1  0.49175956  0.50617933  -0.00702437  1
  Ag  Ag46  1  0.33159641  -0.00395395  0.33157951  1
  Ag  Ag47  1  0.33216556  0.33397984  0.33112634  1
  Ag  Ag48  1  0.00809047  0.16987931  0.83985019  1
  Ag  Ag49  1  0.82484028  0.82938339  -0.00101683  1
  Ag  Ag50  1  0.16861338  0.34382865  0.83692503  1
  Ag  Ag51  1  0.17619335  0.66884573  0.15997456  1
  Ag  Ag52  1  0.49656849  0.66532282  0.16525194  1
  Ag  Ag53  1  0.33810215  0.50539227  0.83109069  1
  Sb  Sb54  1  0.16894200  0.33629453  0.16279037  1
  Sb  Sb55  1  0.00454731  0.66428342  0.32948434  1
  Sb  Sb56  1  0.33468581  0.67069643  0.00470240  1
  Sb  Sb57  1  0.49459146  0.82592039  0.66931665  1
  Sb  Sb58  1  0.00443880  0.66600227  0.67134850  1
  Sb  Sb59  1  0.83607351  0.33844034  0.49732278  1
  Sb  Sb60  1  0.66037296  -0.00913932  0.00180472  1
  Sb  Sb61  1  0.33221514  0.66684443  0.66480631  1
  Sb  Sb62  1  0.66847287  0.17185067  0.83786231  1
  Sb  Sb63  1  0.83498630  0.00261445  0.16698152  1
  Sb  Sb64  1  0.49552731  0.66585586  0.49523420  1
  Sb  Sb65  1  0.49659643  0.16832291  0.00565648  1
  Sb  Sb66  1  0.83111614  0.66431772  0.16775710  1
  Sb  Sb67  1  0.17169954  0.50527295  0.33270299  1
  Sb  Sb68  1  0.49633057  -0.00404965  0.16692034  1
  Sb  Sb69  1  0.33359502  0.83091016  0.49494130  1
  Sb  Sb70  1  0.83865335  0.16576001  0.00231427  1
  Sb  Sb71  1  0.66269694  -0.00666902  0.33109669  1
  Sb  Sb72  1  0.17014987  -0.00424919  0.16709484  1
  Sb  Sb73  1  0.49585015  -0.00379781  0.83443416  1
  Sb  Sb74  1  0.83541785  0.49969056  0.66457711  1
  Sb  Sb75  1  0.65795915  0.00125053  0.66772129  1
  Sb  Sb76  1  0.66269346  0.50413603  0.50200646  1
  Sb  Sb77  1  0.00450316  0.50012296  0.83259709  1
  Sb  Sb78  1  0.66328949  0.33744448  0.33351329  1
  Sb  Sb79  1  0.33472291  0.33455383  0.66675360  1
  Sb  Sb80  1  0.83328885  0.66415414  0.83420536  1
  Sb  Sb81  1  0.49556371  -0.00076067  0.49775713  1
  Sb  Sb82  1  0.16692497  0.33664475  0.50289389  1
  Sb  Sb83  1  0.84057853  0.17018418  0.66778105  1
  Sb  Sb84  1  0.33451650  0.50310765  0.16573815  1
  Sb  Sb85  1  0.83219417  0.82755756  0.32896420  1
  Sb  Sb86  1  0.00772265  0.00133050  0.66330860  1
  Sb  Sb87  1  0.66482013  0.16438148  0.49503061  1
  Sb  Sb88  1  0.00149968  0.83059920  0.50099650  1
  Sb  Sb89  1  0.83602829  0.83113284  0.67137476  1
  Sb  Sb90  1  0.17201120  0.16390012  0.33180373  1
  Sb  Sb91  1  0.49381789  0.17432037  0.66405733  1
  Sb  Sb92  1  0.00356087  0.83580981  0.16302212  1
  Sb  Sb93  1  0.66282924  0.50165934  0.16381350  1
  Sb  Sb94  1  0.83449643  0.17354302  0.33023994  1
  Sb  Sb95  1  0.83514828  0.00049943  0.83496689  1
  Sb  Sb96  1  0.16911832  -0.00275015  0.49856633  1
  Sb  Sb97  1  0.66495696  0.66335646  0.66882251  1
  Sb  Sb98  1  0.16761949  -0.00485765  0.83418844  1
  Sb  Sb99  1  0.00055704  0.49676581  0.16940798  1
  Sb  Sb100  1  0.66820107  0.33808089  -0.00213934  1
  Sb  Sb101  1  0.49755809  0.33572506  0.49534836  1
  Sb  Sb102  1  0.32797427  0.16751548  0.83534065  1
  Sb  Sb103  1  0.83303949  0.50274434  0.00229404  1
  Sb  Sb104  1  0.32990988  0.33164200  0.00268864  1
  Sb  Sb105  1  -0.00046298  0.33401737  0.67107047  1
  Sb  Sb106  1  0.83687090  -0.00537265  0.49761297  1
  Sb  Sb107  1  0.00636101  -0.00035436  0.00332755  1
  Te  Te108  1  0.16973186  0.16865183  0.16386843  1
  Te  Te109  1  0.16658084  0.16709535  0.49965968  1
  Te  Te110  1  0.16606166  0.16596915  0.83392047  1
  Te  Te111  1  0.16714274  0.50681931  0.15727951  1
  Te  Te112  1  0.17004463  0.50194150  0.49877266  1
  Te  Te113  1  0.16556014  0.50238372  0.83364105  1
  Te  Te114  1  0.16908622  0.82884595  0.16758266  1
  Te  Te115  1  0.16552354  0.82750404  0.50074949  1
  Te  Te116  1  0.17170853  0.83161020  0.83408193  1
  Te  Te117  1  0.49579650  0.16772366  0.16822561  1
  Te  Te118  1  0.49685433  0.16687787  0.49443284  1
  Te  Te119  1  0.50125459  0.17073057  0.83385801  1
  Te  Te120  1  0.50010952  0.50106956  0.16906351  1
  Te  Te121  1  0.49444246  0.50040208  0.49212378  1
  Te  Te122  1  0.49832704  0.49800154  0.83596846  1
  Te  Te123  1  0.49767982  0.83204932  0.16680944  1
  Te  Te124  1  0.50629637  0.83323731  0.50174165  1
  Te  Te125  1  0.49689724  0.83037643  0.83438289  1
  Te  Te126  1  0.83541298  0.17237092  0.16543042  1
  Te  Te127  1  0.83628232  0.16601377  0.50047114  1
  Te  Te128  1  0.83646626  0.17362025  0.83452075  1
  Te  Te129  1  0.83235162  0.49390538  0.17165898  1
  Te  Te130  1  0.83020543  0.50417311  0.49617356  1
  Te  Te131  1  0.83507902  0.49453421  0.83314242  1
  Te  Te132  1  0.83337066  0.83398891  0.15995639  1
  Te  Te133  1  0.83108364  0.82735193  0.50079908  1
  Te  Te134  1  0.82979236  0.83422876  0.83893445  1
  Te  Te135  1  0.17136760  0.00503680  0.00064159  1
  Te  Te136  1  0.16735412  -0.00747603  0.33355946  1
  Te  Te137  1  0.17135096  0.00214553  0.66449708  1
  Te  Te138  1  0.16379274  0.33059149  -0.00269962  1
  Te  Te139  1  0.16800224  0.33439418  0.33325280  1
  Te  Te140  1  0.16662326  0.33560857  0.67301473  1
  Te  Te141  1  0.17083845  0.66636696  -0.00012997  1
  Te  Te142  1  0.16916137  0.66973272  0.33444574  1
  Te  Te143  1  0.16630559  0.66446400  0.66474480  1
  Te  Te144  1  0.49235147  -0.00349725  -0.00112336  1
  Te  Te145  1  0.49485236  0.00403975  0.33342688  1
  Te  Te146  1  0.48969593  0.00274880  0.66608890  1
  Te  Te147  1  0.50139205  0.33720710  0.00294693  1
  Te  Te148  1  0.49899234  0.33158057  0.32922221  1
  Te  Te149  1  0.50227785  0.33917772  0.66780233  1
  Te  Te150  1  0.49852531  0.66525969  0.00206736  1
  Te  Te151  1  0.49740751  0.66701880  0.33269896  1
  Te  Te152  1  0.50069380  0.65799951  0.67398364  1
  Te  Te153  1  0.83324946  -0.01008265  -0.00011358  1
  Te  Te154  1  0.83676440  -0.00040403  0.33379849  1
  Te  Te155  1  0.83121069  0.00093732  0.66604977  1
  Te  Te156  1  0.83732989  0.33387838  0.00201616  1
  Te  Te157  1  0.83212000  0.34026938  0.33001291  1
  Te  Te158  1  0.82782282  0.33345847  0.67279865  1
  Te  Te159  1  0.83274158  0.67015308  0.00006419  1
  Te  Te160  1  0.83701734  0.66186300  0.33526056  1
  Te  Te161  1  0.83398625  0.66710893  0.65575162  1
  Te  Te162  1  0.00292308  0.16721372  0.00094868  1
  Te  Te163  1  0.00029788  0.17052844  0.33091243  1
  Te  Te164  1  0.00703763  0.16659324  0.66975425  1
  Te  Te165  1  0.00150271  0.49968114  -0.00017581  1
  Te  Te166  1  0.00129446  0.49571114  0.33657347  1
  Te  Te167  1  0.00355984  0.49979995  0.65794019  1
  Te  Te168  1  0.01207089  0.83408351  -0.00233188  1
  Te  Te169  1  0.00079099  0.83638772  0.33434499  1
  Te  Te170  1  0.00536852  0.83490468  0.67371232  1
  Te  Te171  1  0.32981993  0.16221148  0.00412109  1
  Te  Te172  1  0.33215127  0.16890665  0.33229993  1
  Te  Te173  1  0.32884623  0.16487778  0.66601880  1
  Te  Te174  1  0.33311513  0.49595130  -0.00470510  1
  Te  Te175  1  0.33607238  0.49680451  0.33178158  1
  Te  Te176  1  0.33182219  0.49907166  0.66492270  1
  Te  Te177  1  0.33289935  0.83375106  0.00308302  1
  Te  Te178  1  0.33422374  0.83283062  0.33539390  1
  Te  Te179  1  0.32984025  0.83798734  0.66105896  1
  Te  Te180  1  0.66697998  0.16349895  0.00707425  1
  Te  Te181  1  0.66430594  0.16506530  0.32986003  1
  Te  Te182  1  0.66601591  0.17021271  0.66551852  1
  Te  Te183  1  0.66700895  0.50549216  -0.00510808  1
  Te  Te184  1  0.66518025  0.50604815  0.33428289  1
  Te  Te185  1  0.66816285  0.49581338  0.67028686  1
  Te  Te186  1  0.66090349  0.83021959  0.00166355  1
  Te  Te187  1  0.66717577  0.82795423  0.32947365  1
  Te  Te188  1  0.66652530  0.83543079  0.66896580  1
  Te  Te189  1  0.00008630  0.00698086  0.17205077  1
  Te  Te190  1  0.00075473  0.00607800  0.49428093  1
  Te  Te191  1  -0.00110742  0.00319876  0.83252835  1
  Te  Te192  1  0.00264031  0.33114169  0.16563168  1
  Te  Te193  1  -0.00044063  0.33368499  0.49678856  1
  Te  Te194  1  0.00359984  0.33191450  0.83596769  1
  Te  Te195  1  -0.00021298  0.66749054  0.16009295  1
  Te  Te196  1  0.00277059  0.66234444  0.49915172  1
  Te  Te197  1  0.00168916  0.67181363  0.83876132  1
  Te  Te198  1  0.33304462  -0.00101823  0.16943689  1
  Te  Te199  1  0.33296895  0.00754254  0.49232464  1
  Te  Te200  1  0.33380080  -0.00288922  0.83201887  1
  Te  Te201  1  0.33772872  0.33085412  0.16918884  1
  Te  Te202  1  0.33289221  0.33339697  0.49545391  1
  Te  Te203  1  0.33232710  0.33732824  0.83329193  1
  Te  Te204  1  0.33525844  0.66856607  0.17213304  1
  Te  Te205  1  0.32928638  0.66198218  0.49507076  1
  Te  Te206  1  0.33265498  0.66707077  0.82844062  1
  Te  Te207  1  0.66885207  0.00710742  0.16755560  1
  Te  Te208  1  0.66828595  -0.00793742  0.50057223  1
  Te  Te209  1  0.66578071  -0.00413655  0.83267821  1
  Te  Te210  1  0.66549018  0.33019292  0.16666494  1
  Te  Te211  1  0.66785443  0.33063886  0.50707618  1
  Te  Te212  1  0.66050858  0.33388929  0.83315219  1
  Te  Te213  1  0.66535422  0.66786043  0.16581782  1
  Te  Te214  1  0.66384377  0.66967823  0.49938489  1
  Te  Te215  1  0.66920074  0.66559911  0.83524633  1
