# generated using pymatgen
data_AgSbTe2
_symmetry_space_group_name_H-M   'P 1'
_cell_length_a   18.32421718
_cell_length_b   18.32707371
_cell_length_c   18.32182120
_cell_angle_alpha   90.00128373
_cell_angle_beta   89.99824100
_cell_angle_gamma   90.00222532
_symmetry_Int_Tables_number   1
_chemical_formula_structural   AgSbTe2
_chemical_formula_sum   'Ag54 Sb54 Te108'
_cell_volume   6153.00399265
_cell_formula_units_Z   54
loop_
 _symmetry_equiv_pos_site_id
 _symmetry_equiv_pos_as_xyz
  1  'x, y, z'
loop_
 _atom_site_type_symbol
 _atom_site_label
 _atom_site_symmetry_multiplicity
 _atom_site_fract_x
 _atom_site_fract_y
 _atom_site_fract_z
 _atom_site_occupancy
  Ag  Ag0  1  -0.00248894  0.66066174  0.33447207  1
  Ag  Ag1  1  0.50044842  0.00452879  0.50114633  1
  Ag  Ag2  1  0.32827837  -0.00362993  -0.00388364  1
  Ag  Ag3  1  0.32544896  0.66701204  -0.00352182  1
  Ag  Ag4  1  -0.00683910  0.33567212  0.00474396  1
  Ag  Ag5  1  -0.00550485  0.16580259  0.82937314  1
  Ag  Ag6  1  -0.00524815  0.17052944  0.50224174  1
  Ag  Ag7  1  0.32535863  0.66900999  0.66501487  1
  Ag  Ag8  1  0.66731936  0.00798104  0.66229803  1
  Ag  Ag9  1  -0.00029085  -0.00214395  0.33665857  1
  Ag  Ag10  1  0.16373463  -0.00493243  0.16755261  1
  Ag  Ag11  1  0.67458367  0.16956961  0.82669713  1
  Ag  Ag12  1  0.66999992  0.17552365  0.16392509  1
  Ag  Ag13  1  0.67569426  0.83761761  0.83112063  1
  Ag  Ag14  1  0.83227271  0.34132952  0.16343312  1
  Ag  Ag15  1  0.15998600  0.66728683  0.16150275  1
  Ag  Ag16  1  0.16354891  0.50511386  0.00669384  1
  Ag  Ag17  1  0.33193615  0.83127939  0.50288028  1
  Ag  Ag18  1  0.67253562  0.17320697  0.50686959  1
  Ag  Ag19  1  0.49891648  0.49681058  0.65963932  1
  Ag  Ag20  1  0.67986728  0.49316467  0.17185420  1
  Ag  Ag21  1  0.00339753  0.66867153  0.66054467  1
  Ag  Ag22  1  0.50827241  0.83419200  0.33668872  1
  Ag  Ag23  1  0.16028297  0.83069247  0.66787282  1
  Ag  Ag24  1  0.83582453  -0.00170421  0.50190083  1
  Ag  Ag25  1  0.67525053  0.33562623  0.33832677  1
  Ag  Ag26  1  0.33135347  0.50135582  0.50267452  1
  Ag  Ag27  1  0.67069969  0.49126347  0.49632531  1
  Ag  Ag28  1  0.33864495  0.33970928  0.66140669  1
  Ag  Ag29  1  -0.00193361  0.49633303  0.49163372  1
  Ag  Ag30  1  0.83585254  0.82555223  0.34100442  1
  Ag  Ag31  1  -0.00621246  0.34555801  0.33331148  1
  Ag  Ag32  1  0.83237527  0.33292869  0.83643001  1
  Ag  Ag33  1  0.83662262  0.66702282  0.49548013  1
  Ag  Ag34  1  0.84170359  0.50229866  0.32729249  1
  Ag  Ag35  1  -0.00830124  0.50496079  0.17735865  1
  Ag  Ag36  1  0.84243803  0.65364795  0.17392618  1
  Ag  Ag37  1  0.16363777  0.33438286  0.50051405  1
  Ag  Ag38  1  0.83922178  0.49551134  0.01224361  1
  Ag  Ag39  1  0.67491239  0.33458077  0.00162826  1
  Ag  Ag40  1  0.00116855  0.82194420  0.16693267  1
  Ag  Ag41  1  0.50234789  0.49373013  -0.00008466  1
  Ag  Ag42  1  0.15350329  0.50023801  0.33146192  1
  Ag  Ag43  1  0.00029198  0.83402033  0.83272069  1
  Ag  Ag44  1  0.50149944  0.17432667  -0.00015863  1
  Ag  Ag45  1  0.66802881  0.32895590  0.65831290  1
  Ag  Ag46  1  0.16617547  0.16722954  -0.00072845  1
  Ag  Ag47  1  0.50916987  0.33255344  0.50217335  1
  Ag  Ag48  1  0.16365771  0.66807680  0.83990293  1
  Ag  Ag49  1  0.33435898  -0.00323450  0.66271653  1
  Ag  Ag50  1  0.16329058  0.00136440  0.49900853  1
  Ag  Ag51  1  0.16531130  0.82798017  -0.00371867  1
  Ag  Ag52  1  0.83031837  0.16556069  0.66320106  1
  Ag  Ag53  1  0.83825405  0.83566908  0.66179264  1
  Sb  Sb54  1  0.84116519  0.82703234  -0.00102420  1
  Sb  Sb55  1  0.83377746  0.00364671  0.82745060  1
  Sb  Sb56  1  0.66846892  0.49633232  0.83282507  1
  Sb  Sb57  1  0.33230029  0.16682687  0.83250002  1
  Sb  Sb58  1  0.67220213  0.00448741  0.34021052  1
  Sb  Sb59  1  0.83033053  0.49949175  0.66157953  1
  Sb  Sb60  1  0.49662280  0.66629656  0.83199643  1
  Sb  Sb61  1  0.16064336  0.33688810  0.83064813  1
  Sb  Sb62  1  0.33240305  0.33661439  -0.00491217  1
  Sb  Sb63  1  -0.00387457  0.17069630  0.16749984  1
  Sb  Sb64  1  0.84007307  0.66391054  0.83292843  1
  Sb  Sb65  1  0.49605088  0.00086765  0.17063821  1
  Sb  Sb66  1  0.83293038  0.33500534  0.49794739  1
  Sb  Sb67  1  0.66190169  0.00897531  -0.00468830  1
  Sb  Sb68  1  0.67697317  0.66064517  0.33443664  1
  Sb  Sb69  1  0.67524310  0.83179739  0.16457642  1
  Sb  Sb70  1  0.83471294  0.17162649  0.33954645  1
  Sb  Sb71  1  0.50196675  0.66411094  0.50014806  1
  Sb  Sb72  1  0.33355975  0.16629532  0.16252866  1
  Sb  Sb73  1  0.50094742  0.00138974  0.82736290  1
  Sb  Sb74  1  0.16906213  0.50465230  0.66266151  1
  Sb  Sb75  1  0.32862670  0.50094240  0.16914900  1
  Sb  Sb76  1  0.50416346  0.50202557  0.33575011  1
  Sb  Sb77  1  0.00023353  0.50140481  0.83436072  1
  Sb  Sb78  1  0.50738064  0.17080610  0.66822317  1
  Sb  Sb79  1  0.66783440  0.83467826  0.50316948  1
  Sb  Sb80  1  0.50739954  0.33248839  0.82920655  1
  Sb  Sb81  1  0.33297907  0.16702261  0.50319065  1
  Sb  Sb82  1  0.16076499  0.66572628  0.50003390  1
  Sb  Sb83  1  0.16252199  0.17058777  0.33243344  1
  Sb  Sb84  1  0.32472974  0.83247858  0.16958222  1
  Sb  Sb85  1  0.49535612  0.83328736  0.00348171  1
  Sb  Sb86  1  0.32926127  0.83213096  0.82815995  1
  Sb  Sb87  1  0.00054098  0.83219623  0.49950047  1
  Sb  Sb88  1  0.16481747  -0.00431789  0.83257524  1
  Sb  Sb89  1  0.33061320  0.33676796  0.34144522  1
  Sb  Sb90  1  0.83847883  0.00094782  0.17407563  1
  Sb  Sb91  1  0.33235272  0.50090548  0.82804355  1
  Sb  Sb92  1  0.00475103  0.00369658  0.00444343  1
  Sb  Sb93  1  0.32567186  0.66699299  0.33617505  1
  Sb  Sb94  1  0.15889056  0.33586895  0.16868807  1
  Sb  Sb95  1  0.66486674  0.65918902  0.00004382  1
  Sb  Sb96  1  0.83407043  0.17396612  -0.00533175  1
  Sb  Sb97  1  -0.00375737  0.33680361  0.66305650  1
  Sb  Sb98  1  0.50009267  0.83128110  0.66226714  1
  Sb  Sb99  1  0.66911874  0.66513866  0.66588741  1
  Sb  Sb100  1  0.51081451  0.33375772  0.17028770  1
  Sb  Sb101  1  0.16131658  0.16288570  0.66874251  1
  Sb  Sb102  1  0.50446642  0.16523325  0.33360208  1
  Sb  Sb103  1  0.00581406  0.66013022  0.00496645  1
  Sb  Sb104  1  -0.00143414  -0.00462703  0.66006715  1
  Sb  Sb105  1  0.32806329  -0.00342014  0.33862685  1
  Sb  Sb106  1  0.15875610  0.82961185  0.33511307  1
  Sb  Sb107  1  0.50025275  0.66486300  0.16719460  1
  Te  Te108  1  0.16538695  0.16385889  0.16061932  1
  Te  Te109  1  0.16196553  0.16630567  0.50050040  1
  Te  Te110  1  0.16100852  0.16755745  0.83794840  1
  Te  Te111  1  0.16409715  0.50167675  0.16733416  1
  Te  Te112  1  0.16478579  0.49881957  0.49862191  1
  Te  Te113  1  0.16664330  0.50543624  0.84032707  1
  Te  Te114  1  0.16136428  0.83419654  0.16728026  1
  Te  Te115  1  0.17002360  0.83581608  0.50261824  1
  Te  Te116  1  0.16316511  0.82994325  0.83114879  1
  Te  Te117  1  0.50579746  0.16585893  0.16108703  1
  Te  Te118  1  0.50396706  0.16762995  0.50092733  1
  Te  Te119  1  0.50486173  0.16627969  0.84058818  1
  Te  Te120  1  0.50028205  0.50094145  0.16213028  1
  Te  Te121  1  0.50058123  0.49708579  0.50042040  1
  Te  Te122  1  0.50038202  0.49989369  0.83818038  1
  Te  Te123  1  0.50137022  0.83373208  0.17360601  1
  Te  Te124  1  0.49879433  0.83510283  0.49710892  1
  Te  Te125  1  0.50791226  0.83360372  0.83434176  1
  Te  Te126  1  0.82874547  0.16839480  0.16762361  1
  Te  Te127  1  0.83345388  0.16442418  0.50296239  1
  Te  Te128  1  0.83426517  0.16915853  0.82893189  1
  Te  Te129  1  0.83492918  0.49812345  0.16709482  1
  Te  Te130  1  0.83384436  0.50214427  0.49824173  1
  Te  Te131  1  0.83362334  0.49500205  0.83604643  1
  Te  Te132  1  0.84107469  0.83242711  0.16837127  1
  Te  Te133  1  0.83252417  0.83301215  0.50156488  1
  Te  Te134  1  0.83724545  0.83277715  0.83104185  1
  Te  Te135  1  0.16905614  -0.00107490  -0.00004483  1
  Te  Te136  1  0.16230707  0.00065766  0.33486545  1
  Te  Te137  1  0.16895894  -0.00410485  0.66250809  1
  Te  Te138  1  0.16554089  0.33281309  -0.00067040  1
  Te  Te139  1  0.16268197  0.33814462  0.33789849  1
  Te  Te140  1  0.16883245  0.33233202  0.66222205  1
  Te  Te141  1  0.16650978  0.66741633  0.00110218  1
  Te  Te142  1  0.15997736  0.66201960  0.32860986  1
  Te  Te143  1  0.16610683  0.67001326  0.66599076  1
  Te  Te144  1  0.49223778  0.00222368  0.00097214  1
  Te  Te145  1  0.50011963  -0.00375423  0.33949723  1
  Te  Te146  1  0.50051432  -0.00032539  0.66059528  1
  Te  Te147  1  0.49941325  0.33372739  -0.00030420  1
  Te  Te148  1  0.50266950  0.33326853  0.34105350  1
  Te  Te149  1  0.50153332  0.33582616  0.66297750  1
  Te  Te150  1  0.49165205  0.66327600  -0.00008835  1
  Te  Te151  1  0.49879055  0.67374177  0.33277394  1
  Te  Te152  1  0.49397879  0.65946508  0.66700393  1
  Te  Te153  1  0.83168150  -0.00202117  0.00233668  1
  Te  Te154  1  0.83777608  -0.00373145  0.34021806  1
  Te  Te155  1  0.83106329  -0.00197157  0.66220468  1
  Te  Te156  1  0.83383934  0.33480877  0.00113330  1
  Te  Te157  1  0.83374746  0.33680258  0.33112401  1
  Te  Te158  1  0.82901973  0.33200214  0.67093706  1
  Te  Te159  1  0.83275920  0.65881740  0.00280662  1
  Te  Te160  1  0.83731355  0.66513610  0.33348195  1
  Te  Te161  1  0.83680472  0.67002258  0.66486557  1
  Te  Te162  1  0.00265182  0.17142739  -0.00120882  1
  Te  Te163  1  0.00011248  0.16180723  0.33864855  1
  Te  Te164  1  -0.00565869  0.16731950  0.66565034  1
  Te  Te165  1  0.00134275  0.49445204  -0.00123746  1
  Te  Te166  1  -0.00198073  0.50097220  0.33513923  1
  Te  Te167  1  -0.00004858  0.50581693  0.66296826  1
  Te  Te168  1  0.00570037  0.83535072  -0.00070795  1
  Te  Te169  1  -0.00458265  0.83395959  0.33135459  1
  Te  Te170  1  0.00014550  0.83060207  0.66728059  1
  Te  Te171  1  0.33150138  0.16421595  -0.00165611  1
  Te  Te172  1  0.33440497  0.16655513  0.33180810  1
  Te  Te173  1  0.33311302  0.16022434  0.66778741  1
  Te  Te174  1  0.33070621  0.50372137  0.00030598  1
  Te  Te175  1  0.33288886  0.50193633  0.34181484  1
  Te  Te176  1  0.33533749  0.50012804  0.66214227  1
  Te  Te177  1  0.32823559  0.83271937  0.00009929  1
  Te  Te178  1  0.33596977  0.83225170  0.34024333  1
  Te  Te179  1  0.33333791  0.83328873  0.66355740  1
  Te  Te180  1  0.66618069  0.17123886  -0.00137065  1
  Te  Te181  1  0.66751142  0.17257506  0.33326081  1
  Te  Te182  1  0.66821735  0.16730778  0.66655810  1
  Te  Te183  1  0.66435420  0.49589811  0.00014525  1
  Te  Te184  1  0.66790575  0.49544645  0.33336893  1
  Te  Te185  1  0.66212917  0.49702119  0.66399301  1
  Te  Te186  1  0.66617353  0.83416898  -0.00492804  1
  Te  Te187  1  0.67180511  0.83383765  0.33164528  1
  Te  Te188  1  0.66911041  0.83349874  0.67013782  1
  Te  Te189  1  0.00481854  0.00223735  0.17217462  1
  Te  Te190  1  0.00071116  0.00153008  0.49849958  1
  Te  Te191  1  -0.00052330  0.00112206  0.83401417  1
  Te  Te192  1  -0.00450927  0.33721658  0.16853130  1
  Te  Te193  1  0.00063201  0.33302462  0.49786704  1
  Te  Te194  1  -0.00431302  0.32997568  0.83362245  1
  Te  Te195  1  0.00012776  0.66460117  0.16591994  1
  Te  Te196  1  -0.00263224  0.66489508  0.49856294  1
  Te  Te197  1  0.00395459  0.67133561  0.82856265  1
  Te  Te198  1  0.32632965  -0.00063429  0.16354332  1
  Te  Te199  1  0.33145649  -0.00032181  0.50247679  1
  Te  Te200  1  0.33336829  -0.00068583  0.83178214  1
  Te  Te201  1  0.33446846  0.33338678  0.16739479  1
  Te  Te202  1  0.32974827  0.33457295  0.50418174  1
  Te  Te203  1  0.33304072  0.33249727  0.82172596  1
  Te  Te204  1  0.32724903  0.66704370  0.16328392  1
  Te  Te205  1  0.33391029  0.66628894  0.50349307  1
  Te  Te206  1  0.32732823  0.66756692  0.83175437  1
  Te  Te207  1  0.66590808  0.00331911  0.16690523  1
  Te  Te208  1  0.66784588  0.00164223  0.50346886  1
  Te  Te209  1  0.66705879  0.00230608  0.82710831  1
  Te  Te210  1  0.66995412  0.33446977  0.16513140  1
  Te  Te211  1  0.66911430  0.33327948  0.49976740  1
  Te  Te212  1  0.67113252  0.33013836  0.83621428  1
  Te  Te213  1  0.67136391  0.66181875  0.16635673  1
  Te  Te214  1  0.67309367  0.65983633  0.50113049  1
  Te  Te215  1  0.66757243  0.67363011  0.83310867  1
