# generated using pymatgen
data_AgSbTe2
_symmetry_space_group_name_H-M   'P 1'
_cell_length_a   18.34002758
_cell_length_b   18.34043806
_cell_length_c   18.35359663
_cell_angle_alpha   89.99803301
_cell_angle_beta   89.99988186
_cell_angle_gamma   90.00018794
_symmetry_Int_Tables_number   1
_chemical_formula_structural   AgSbTe2
_chemical_formula_sum   'Ag54 Sb54 Te108'
_cell_volume   6173.49174081
_cell_formula_units_Z   54
loop_
 _symmetry_equiv_pos_site_id
 _symmetry_equiv_pos_as_xyz
  1  'x, y, z'
loop_
 _atom_site_type_symbol
 _atom_site_label
 _atom_site_symmetry_multiplicity
 _atom_site_fract_x
 _atom_site_fract_y
 _atom_site_fract_z
 _atom_site_occupancy
  Ag  Ag0  1  0.32185104  0.50398515  0.49926627  1
  Ag  Ag1  1  0.15795027  0.33843404  0.50556068  1
  Ag  Ag2  1  0.16552852  0.66961783  0.16899641  1
  Ag  Ag3  1  0.15901654  0.33337185  0.82287239  1
  Ag  Ag4  1  0.32783035  0.67197157  0.33817179  1
  Ag  Ag5  1  0.83523104  0.17511156  0.00111278  1
  Ag  Ag6  1  0.83643030  0.00490651  0.16563897  1
  Ag  Ag7  1  0.49755215  0.16936639  0.33971023  1
  Ag  Ag8  1  0.16289453  0.50036721  0.66167322  1
  Ag  Ag9  1  0.83799234  0.67242382  0.83302395  1
  Ag  Ag10  1  0.84290360  0.83205862  0.33341037  1
  Ag  Ag11  1  0.84580564  0.49313628  0.32815458  1
  Ag  Ag12  1  0.84081056  0.83623356  0.67265908  1
  Ag  Ag13  1  0.00263017  0.83074478  0.83399585  1
  Ag  Ag14  1  0.32539955  -0.00755579  -0.00233113  1
  Ag  Ag15  1  0.16876239  -0.00292547  0.50506326  1
  Ag  Ag16  1  0.32898909  0.67457910  -0.00799119  1
  Ag  Ag17  1  0.00231327  0.82944367  0.15907823  1
  Ag  Ag18  1  0.68374757  0.83238216  0.82803443  1
  Ag  Ag19  1  0.00217799  -0.00655896  -0.00054844  1
  Ag  Ag20  1  -0.00125233  0.17874757  0.50049629  1
  Ag  Ag21  1  0.83558827  0.33546351  0.16621795  1
  Ag  Ag22  1  0.00260409  0.33859232  0.65853741  1
  Ag  Ag23  1  0.83677965  0.49285025  0.00803858  1
  Ag  Ag24  1  0.00661850  0.66417762  0.67015873  1
  Ag  Ag25  1  0.67056742  0.83574375  0.50722099  1
  Ag  Ag26  1  0.83503661  0.17558379  0.33322675  1
  Ag  Ag27  1  0.49235918  0.49420090  0.33365264  1
  Ag  Ag28  1  0.32910844  0.83471932  0.50795478  1
  Ag  Ag29  1  0.83487582  0.16822880  0.66399834  1
  Ag  Ag30  1  0.84368163  0.33200224  0.49970747  1
  Ag  Ag31  1  0.84448346  0.83407257  -0.00674549  1
  Ag  Ag32  1  0.16668804  0.82909889  0.66906913  1
  Ag  Ag33  1  0.16816135  -0.00959880  0.82704794  1
  Ag  Ag34  1  0.49721317  0.16286729  0.66101015  1
  Ag  Ag35  1  0.68305880  0.49797781  0.16802934  1
  Ag  Ag36  1  0.31862597  0.33225448  0.66574548  1
  Ag  Ag37  1  0.16530377  0.82878105  0.33700358  1
  Ag  Ag38  1  0.49388304  0.33359588  0.82904571  1
  Ag  Ag39  1  0.48199515  0.83764124  0.66549237  1
  Ag  Ag40  1  0.32264955  0.83401410  0.81979154  1
  Ag  Ag41  1  -0.00129335  0.50039612  0.82729683  1
  Ag  Ag42  1  0.33068335  -0.00822673  0.66001678  1
  Ag  Ag43  1  -0.00296142  0.33931397  0.34560177  1
  Ag  Ag44  1  0.33003573  -0.00570867  0.34312974  1
  Ag  Ag45  1  0.16392117  0.50346088  0.34471582  1
  Ag  Ag46  1  0.32591097  0.68041185  0.66545480  1
  Ag  Ag47  1  0.16272803  0.83501328  -0.01191825  1
  Ag  Ag48  1  0.00570503  0.49175125  0.50011898  1
  Ag  Ag49  1  0.83896570  0.33684240  0.83397909  1
  Ag  Ag50  1  0.33343958  0.16467159  0.16896099  1
  Ag  Ag51  1  0.67738801  0.33430537  -0.00139793  1
  Ag  Ag52  1  0.48662137  -0.00132820  0.50180984  1
  Ag  Ag53  1  -0.00030846  0.50207481  0.17200096  1
  Sb  Sb54  1  0.49889380  -0.00020916  0.17214884  1
  Sb  Sb55  1  0.67086398  0.16301096  0.50008883  1
  Sb  Sb56  1  0.00532311  0.83074134  0.50287679  1
  Sb  Sb57  1  0.00460033  0.66149446  0.33719360  1
  Sb  Sb58  1  0.49832335  0.32873012  0.50368475  1
  Sb  Sb59  1  0.32475511  0.50431012  0.82688820  1
  Sb  Sb60  1  0.16759145  0.66362313  0.50019248  1
  Sb  Sb61  1  0.67613842  0.33506689  0.33077430  1
  Sb  Sb62  1  0.83664624  0.66549343  0.50270188  1
  Sb  Sb63  1  0.48809953  0.49922732  0.66140769  1
  Sb  Sb64  1  0.50245971  0.16627860  -0.00124079  1
  Sb  Sb65  1  0.49490289  0.67148027  0.50133856  1
  Sb  Sb66  1  0.66933192  0.67004251  0.66774628  1
  Sb  Sb67  1  0.00252201  -0.00020415  0.33178749  1
  Sb  Sb68  1  0.66265535  -0.00338522  0.66698580  1
  Sb  Sb69  1  0.67270146  0.00144396  -0.00047460  1
  Sb  Sb70  1  0.16291634  -0.00583586  0.16713292  1
  Sb  Sb71  1  0.33228011  0.16243409  0.83227730  1
  Sb  Sb72  1  0.68092173  0.82800043  0.16580541  1
  Sb  Sb73  1  0.66432083  0.66631210  0.33269928  1
  Sb  Sb74  1  0.16009832  0.50567197  -0.00270043  1
  Sb  Sb75  1  0.32725035  0.49793741  0.17340553  1
  Sb  Sb76  1  0.66877413  0.16410696  0.83273803  1
  Sb  Sb77  1  -0.00088480  0.16730251  0.16918568  1
  Sb  Sb78  1  0.32751265  0.33277668  0.33968649  1
  Sb  Sb79  1  -0.00345680  0.33261367  -0.00284643  1
  Sb  Sb80  1  0.66893197  0.66440153  0.00004517  1
  Sb  Sb81  1  0.50084705  0.66403093  0.83101280  1
  Sb  Sb82  1  0.67098944  0.50261833  0.49545992  1
  Sb  Sb83  1  0.00547575  -0.00078963  0.66913177  1
  Sb  Sb84  1  0.49533357  0.83516964  -0.00809260  1
  Sb  Sb85  1  0.32637308  0.83609877  0.16783523  1
  Sb  Sb86  1  0.50401577  0.33347198  0.16629309  1
  Sb  Sb87  1  0.33380266  0.33358062  -0.00601365  1
  Sb  Sb88  1  0.32862515  0.16335586  0.50000845  1
  Sb  Sb89  1  -0.00199471  0.16810282  0.82893869  1
  Sb  Sb90  1  0.83886432  0.00152319  0.49751098  1
  Sb  Sb91  1  0.49359348  0.83451867  0.34138673  1
  Sb  Sb92  1  0.66844032  0.17085373  0.16736757  1
  Sb  Sb93  1  0.16443967  0.16626079  0.33540843  1
  Sb  Sb94  1  0.50384793  0.49889166  0.00295867  1
  Sb  Sb95  1  0.84319306  0.49842276  0.66610866  1
  Sb  Sb96  1  0.00312449  0.67183948  -0.00470523  1
  Sb  Sb97  1  0.16170389  0.66983562  0.83220598  1
  Sb  Sb98  1  0.49183580  0.00125524  0.82654940  1
  Sb  Sb99  1  0.16576729  0.16729350  0.66499702  1
  Sb  Sb100  1  0.16011679  0.33840781  0.16909072  1
  Sb  Sb101  1  0.84067632  -0.00186866  0.83614569  1
  Sb  Sb102  1  0.66570347  -0.00174182  0.33432872  1
  Sb  Sb103  1  0.67315139  0.33390630  0.67042430  1
  Sb  Sb104  1  0.84250875  0.66308675  0.16336859  1
  Sb  Sb105  1  0.16123500  0.16000770  -0.00097124  1
  Sb  Sb106  1  0.67589317  0.50102083  0.83631474  1
  Sb  Sb107  1  0.49128110  0.66715304  0.16874889  1
  Te  Te108  1  0.17127997  0.16816772  0.16671535  1
  Te  Te109  1  0.16073599  0.16882588  0.49862008  1
  Te  Te110  1  0.16604514  0.17194598  0.83399062  1
  Te  Te111  1  0.16014126  0.50416139  0.16547893  1
  Te  Te112  1  0.16577727  0.49869734  0.50160309  1
  Te  Te113  1  0.16016682  0.49544445  0.83058791  1
  Te  Te114  1  0.16186287  0.83073477  0.17342350  1
  Te  Te115  1  0.16846964  0.83621960  0.50010065  1
  Te  Te116  1  0.16454178  0.83227284  0.83118561  1
  Te  Te117  1  0.49771972  0.16662653  0.17120023  1
  Te  Te118  1  0.50176996  0.16193306  0.50020768  1
  Te  Te119  1  0.50103222  0.17249758  0.82907862  1
  Te  Te120  1  0.49760708  0.49884798  0.17295054  1
  Te  Te121  1  0.50197003  0.49816757  0.49390018  1
  Te  Te122  1  0.50229177  0.49466411  0.83299876  1
  Te  Te123  1  0.50717395  0.83385056  0.16703732  1
  Te  Te124  1  0.49464699  0.83776909  0.50478873  1
  Te  Te125  1  0.49329746  0.83234553  0.82566471  1
  Te  Te126  1  0.83376050  0.16818347  0.16873748  1
  Te  Te127  1  0.83598655  0.16840492  0.49844895  1
  Te  Te128  1  0.83254211  0.16839001  0.83341523  1
  Te  Te129  1  0.83957345  0.49998670  0.16754023  1
  Te  Te130  1  0.83417519  0.49632894  0.49401602  1
  Te  Te131  1  0.83797891  0.49837254  0.83323476  1
  Te  Te132  1  0.84051948  0.83128967  0.16853118  1
  Te  Te133  1  0.83493499  0.83380451  0.49688353  1
  Te  Te134  1  0.84052220  0.83601354  0.83366830  1
  Te  Te135  1  0.16572681  -0.00433678  0.00037293  1
  Te  Te136  1  0.17058449  -0.00197536  0.33509891  1
  Te  Te137  1  0.17059193  0.00072943  0.66754352  1
  Te  Te138  1  0.16648000  0.33258073  -0.00353961  1
  Te  Te139  1  0.16010447  0.33715286  0.33641007  1
  Te  Te140  1  0.16260424  0.33000842  0.66546534  1
  Te  Te141  1  0.17088658  0.67227361  0.00328226  1
  Te  Te142  1  0.16846888  0.66599648  0.33253621  1
  Te  Te143  1  0.16748625  0.66696313  0.66795975  1
  Te  Te144  1  0.49403693  0.00206449  0.00039371  1
  Te  Te145  1  0.49509516  0.00312022  0.33846577  1
  Te  Te146  1  0.49586759  -0.00007954  0.66251591  1
  Te  Te147  1  0.50438575  0.33276593  -0.00678273  1
  Te  Te148  1  0.49948802  0.33117900  0.33483753  1
  Te  Te149  1  0.50544483  0.33128287  0.67044671  1
  Te  Te150  1  0.48986879  0.66624055  0.00002225  1
  Te  Te151  1  0.49213746  0.66217764  0.33395570  1
  Te  Te152  1  0.49192852  0.67169896  0.66775850  1
  Te  Te153  1  0.83554542  -0.00611916  0.00293344  1
  Te  Te154  1  0.83385125  -0.00467910  0.33010958  1
  Te  Te155  1  0.83386271  0.00183815  0.66677948  1
  Te  Te156  1  0.83521925  0.33366435  0.00053546  1
  Te  Te157  1  0.83633896  0.33452994  0.33227921  1
  Te  Te158  1  0.83738962  0.33190218  0.66656841  1
  Te  Te159  1  0.83313253  0.67080519  -0.00507417  1
  Te  Te160  1  0.83268225  0.67019729  0.33300378  1
  Te  Te161  1  0.83645749  0.66954111  0.67079191  1
  Te  Te162  1  -0.00641871  0.15819366  0.00104955  1
  Te  Te163  1  -0.00448546  0.16989814  0.33557383  1
  Te  Te164  1  -0.00474904  0.16874257  0.66259274  1
  Te  Te165  1  -0.00486276  0.50142677  0.00015816  1
  Te  Te166  1  0.00234089  0.50039272  0.33452742  1
  Te  Te167  1  0.00291631  0.49887737  0.66759542  1
  Te  Te168  1  0.00211749  0.83331369  -0.00082238  1
  Te  Te169  1  0.00285963  0.83172471  0.33529380  1
  Te  Te170  1  0.00148641  0.83273145  0.66788039  1
  Te  Te171  1  0.33345344  0.16362614  0.00326421  1
  Te  Te172  1  0.33482353  0.16499616  0.33264077  1
  Te  Te173  1  0.33813888  0.17209675  0.66627256  1
  Te  Te174  1  0.33366531  0.50445297  -0.00005171  1
  Te  Te175  1  0.32943650  0.49910587  0.33740647  1
  Te  Te176  1  0.32528001  0.49311980  0.66155769  1
  Te  Te177  1  0.33085417  0.83353793  0.00297767  1
  Te  Te178  1  0.32996865  0.83405293  0.33443336  1
  Te  Te179  1  0.32644434  0.83606875  0.66391903  1
  Te  Te180  1  0.67389878  0.17120426  0.00020527  1
  Te  Te181  1  0.66747132  0.16676780  0.33275999  1
  Te  Te182  1  0.66838609  0.16546916  0.66646672  1
  Te  Te183  1  0.67179072  0.49693484  0.00420115  1
  Te  Te184  1  0.66563693  0.50103827  0.32906376  1
  Te  Te185  1  0.66138649  0.50316379  0.66599695  1
  Te  Te186  1  0.66697553  0.83264131  -0.00465663  1
  Te  Te187  1  0.66911333  0.83175191  0.33565124  1
  Te  Te188  1  0.68080444  0.83253562  0.66724609  1
  Te  Te189  1  -0.00416970  -0.00277597  0.16369910  1
  Te  Te190  1  0.00722105  0.00213476  0.50027649  1
  Te  Te191  1  0.00767194  -0.00193480  0.83669546  1
  Te  Te192  1  -0.00451546  0.33578557  0.16662030  1
  Te  Te193  1  -0.00053632  0.33529986  0.50130006  1
  Te  Te194  1  -0.00148261  0.33394740  0.83231495  1
  Te  Te195  1  0.00569169  0.66740979  0.16813316  1
  Te  Te196  1  -0.00049738  0.65816316  0.50970722  1
  Te  Te197  1  -0.00353397  0.66634242  0.82983860  1
  Te  Te198  1  0.33318344  0.00345073  0.16438128  1
  Te  Te199  1  0.32921979  0.00145807  0.50062030  1
  Te  Te200  1  0.32784811  -0.00395041  0.83560975  1
  Te  Te201  1  0.33394531  0.32843279  0.16552253  1
  Te  Te202  1  0.33154497  0.33582531  0.50452462  1
  Te  Te203  1  0.33253505  0.33522246  0.82862478  1
  Te  Te204  1  0.32653724  0.66607348  0.17366065  1
  Te  Te205  1  0.33317785  0.66666025  0.50113446  1
  Te  Te206  1  0.33378742  0.67038262  0.83110395  1
  Te  Te207  1  0.67492527  -0.00111199  0.16617674  1
  Te  Te208  1  0.66496981  -0.00649824  0.49995887  1
  Te  Te209  1  0.66252906  -0.00877082  0.83499435  1
  Te  Te210  1  0.67160141  0.33790933  0.16156255  1
  Te  Te211  1  0.67237196  0.33313080  0.50058129  1
  Te  Te212  1  0.67604599  0.33328364  0.83741658  1
  Te  Te213  1  0.66320526  0.65752391  0.16543355  1
  Te  Te214  1  0.66532874  0.67686196  0.50034990  1
  Te  Te215  1  0.67247172  0.67215135  0.83451476  1
