# generated using pymatgen
data_AgSbTe2
_symmetry_space_group_name_H-M   'P 1'
_cell_length_a   18.34707571
_cell_length_b   18.34749119
_cell_length_c   18.34512110
_cell_angle_alpha   90.00392749
_cell_angle_beta   89.99863702
_cell_angle_gamma   90.00430917
_symmetry_Int_Tables_number   1
_chemical_formula_structural   AgSbTe2
_chemical_formula_sum   'Ag54 Sb54 Te108'
_cell_volume   6175.38617912
_cell_formula_units_Z   54
loop_
 _symmetry_equiv_pos_site_id
 _symmetry_equiv_pos_as_xyz
  1  'x, y, z'
loop_
 _atom_site_type_symbol
 _atom_site_label
 _atom_site_symmetry_multiplicity
 _atom_site_fract_x
 _atom_site_fract_y
 _atom_site_fract_z
 _atom_site_occupancy
  Ag  Ag0  1  0.67564224  0.83105165  0.16594597  1
  Ag  Ag1  1  0.83782100  0.16558573  0.31797737  1
  Ag  Ag2  1  0.00292186  0.67343787  0.32748127  1
  Ag  Ag3  1  0.00056857  0.00131359  0.00881407  1
  Ag  Ag4  1  0.17110703  0.32149537  0.83575232  1
  Ag  Ag5  1  0.15917859  0.67384209  0.16993990  1
  Ag  Ag6  1  0.16645561  0.15739380  0.67605719  1
  Ag  Ag7  1  0.49366585  0.66703871  0.49021562  1
  Ag  Ag8  1  0.16429314  0.00164895  0.51386367  1
  Ag  Ag9  1  0.31717217  0.16752232  0.16415900  1
  Ag  Ag10  1  0.33401983  0.66538934  0.33455971  1
  Ag  Ag11  1  0.32985970  0.32383795  0.67739601  1
  Ag  Ag12  1  0.67889719  0.16289952  0.16217124  1
  Ag  Ag13  1  0.00276023  -0.00324341  0.32182277  1
  Ag  Ag14  1  0.66219122  0.66769109  0.32626248  1
  Ag  Ag15  1  0.67709556  0.00459268  0.00153444  1
  Ag  Ag16  1  0.16101928  0.83365109  0.32675943  1
  Ag  Ag17  1  0.84185171  0.00350423  0.83766763  1
  Ag  Ag18  1  0.49574576  0.83440582  0.00173226  1
  Ag  Ag19  1  0.16663476  0.84531244  0.00742982  1
  Ag  Ag20  1  0.84438189  0.00315395  0.15910331  1
  Ag  Ag21  1  0.00807866  0.67997262  0.66015891  1
  Ag  Ag22  1  0.66825667  0.32477695  0.00177021  1
  Ag  Ag23  1  0.68004111  -0.00095669  0.67231308  1
  Ag  Ag24  1  0.84365348  0.15715262  0.67586599  1
  Ag  Ag25  1  0.67488040  0.51008112  0.16527800  1
  Ag  Ag26  1  0.84780647  0.84193831  0.66778248  1
  Ag  Ag27  1  0.00280169  0.32375767  0.32797884  1
  Ag  Ag28  1  0.16170615  0.00378527  0.82808277  1
  Ag  Ag29  1  0.16436637  0.16363067  0.00092202  1
  Ag  Ag30  1  -0.00013993  0.15426810  0.16783032  1
  Ag  Ag31  1  0.16424322  0.31941837  0.16391463  1
  Ag  Ag32  1  0.15783533  0.00140163  0.16267464  1
  Ag  Ag33  1  0.16878163  0.32347053  0.50524818  1
  Ag  Ag34  1  0.83876231  0.67575548  0.16697013  1
  Ag  Ag35  1  0.32871488  0.66993483  0.66195719  1
  Ag  Ag36  1  -0.00205890  0.50234886  0.16768721  1
  Ag  Ag37  1  0.83948671  0.16385850  0.00050149  1
  Ag  Ag38  1  0.32561107  0.17190492  0.83062573  1
  Ag  Ag39  1  0.00201924  0.83959095  0.17078724  1
  Ag  Ag40  1  0.33247643  0.48653941  0.82719403  1
  Ag  Ag41  1  0.83739702  0.31985472  0.83709862  1
  Ag  Ag42  1  0.49414558  0.83412036  0.66890323  1
  Ag  Ag43  1  0.00366329  0.83549276  0.49698699  1
  Ag  Ag44  1  0.50083605  0.66704861  0.17158473  1
  Ag  Ag45  1  0.83395156  0.48872880  0.00484310  1
  Ag  Ag46  1  0.31840557  0.00547784  0.66794341  1
  Ag  Ag47  1  0.16398389  0.84479192  0.66626023  1
  Ag  Ag48  1  0.33263629  0.32967832  -0.01058537  1
  Ag  Ag49  1  0.32662862  0.17064456  0.50913242  1
  Ag  Ag50  1  0.49810817  0.50623270  0.33107781  1
  Ag  Ag51  1  0.48219688  0.33286004  0.83554046  1
  Ag  Ag52  1  0.33122959  0.50005534  0.50417368  1
  Ag  Ag53  1  0.00342843  -0.00267424  0.66709255  1
  Sb  Sb54  1  0.33177673  0.66320484  0.00177812  1
  Sb  Sb55  1  0.83373660  0.66767957  0.49368759  1
  Sb  Sb56  1  0.00240506  0.32587547  0.00614701  1
  Sb  Sb57  1  0.84163804  0.32976362  0.50440221  1
  Sb  Sb58  1  0.83998709  0.32787906  0.16115111  1
  Sb  Sb59  1  0.32617762  0.83205686  0.50311265  1
  Sb  Sb60  1  0.66807584  0.67021453  0.00835356  1
  Sb  Sb61  1  0.16356576  0.49428513  0.00312489  1
  Sb  Sb62  1  0.83349967  0.49880273  0.32536274  1
  Sb  Sb63  1  0.66994910  0.83484963  0.49616587  1
  Sb  Sb64  1  0.00129613  0.83703274  0.83323738  1
  Sb  Sb65  1  0.66620227  0.83611822  0.83846797  1
  Sb  Sb66  1  0.49807476  0.16386171  0.00068923  1
  Sb  Sb67  1  0.83581513  0.67085164  0.83831539  1
  Sb  Sb68  1  0.16898530  0.49896845  0.66650423  1
  Sb  Sb69  1  0.32387088  -0.00275624  0.33593306  1
  Sb  Sb70  1  0.32591746  0.00594524  -0.00326571  1
  Sb  Sb71  1  0.84187008  -0.00068088  0.50274851  1
  Sb  Sb72  1  0.16990793  0.67150728  0.49633231  1
  Sb  Sb73  1  0.49112860  -0.00592684  0.50409294  1
  Sb  Sb74  1  0.49669257  0.66421604  0.83401165  1
  Sb  Sb75  1  0.00835116  0.32683128  0.66380570  1
  Sb  Sb76  1  0.33034759  0.49805571  0.16703326  1
  Sb  Sb77  1  0.67251692  0.33661052  0.32255173  1
  Sb  Sb78  1  0.16894691  0.50440817  0.33180553  1
  Sb  Sb79  1  0.32606135  0.33548108  0.33321807  1
  Sb  Sb80  1  0.00647065  0.50433992  0.49386038  1
  Sb  Sb81  1  0.83489118  0.49952643  0.67514703  1
  Sb  Sb82  1  0.49213085  0.16125742  0.66796549  1
  Sb  Sb83  1  0.50190701  0.17206690  0.33053028  1
  Sb  Sb84  1  0.49638622  0.33658618  0.16279741  1
  Sb  Sb85  1  0.50086199  -0.00520370  0.16520286  1
  Sb  Sb86  1  0.66850187  0.16495462  0.83911503  1
  Sb  Sb87  1  0.66465176  0.16498058  0.49745107  1
  Sb  Sb88  1  0.66117548  0.50047942  0.49289897  1
  Sb  Sb89  1  0.49737286  0.00447664  0.83403165  1
  Sb  Sb90  1  0.00551772  0.16416162  0.83952751  1
  Sb  Sb91  1  0.83679840  0.84077890  0.00153411  1
  Sb  Sb92  1  0.49600361  0.50491153  0.66434133  1
  Sb  Sb93  1  0.67538941  -0.00340401  0.32713230  1
  Sb  Sb94  1  0.32681976  0.83566206  0.16643454  1
  Sb  Sb95  1  0.00690100  0.15890947  0.49549781  1
  Sb  Sb96  1  0.66317464  0.49534568  0.84118061  1
  Sb  Sb97  1  0.49534821  0.82804207  0.33198694  1
  Sb  Sb98  1  0.00440319  0.49710299  0.83869586  1
  Sb  Sb99  1  0.50233011  0.50163913  0.00456719  1
  Sb  Sb100  1  0.16239693  0.16188268  0.33016053  1
  Sb  Sb101  1  0.48920200  0.33776523  0.50482050  1
  Sb  Sb102  1  0.66274311  0.32600545  0.67408101  1
  Sb  Sb103  1  0.16739136  0.66940194  0.83485400  1
  Sb  Sb104  1  0.66482741  0.67525231  0.65965556  1
  Sb  Sb105  1  0.84172592  0.83673007  0.33144129  1
  Sb  Sb106  1  0.33154007  0.83784505  0.83040591  1
  Sb  Sb107  1  0.00109846  0.67357522  0.00696648  1
  Te  Te108  1  0.16077458  0.16380617  0.16685432  1
  Te  Te109  1  0.16950216  0.16448828  0.49699314  1
  Te  Te110  1  0.16642017  0.16495556  0.83464926  1
  Te  Te111  1  0.16240968  0.50818353  0.16615369  1
  Te  Te112  1  0.17251720  0.49371649  0.49898910  1
  Te  Te113  1  0.17192972  0.49782763  0.83505286  1
  Te  Te114  1  0.16588786  0.83469713  0.16631965  1
  Te  Te115  1  0.16257095  0.83705058  0.50531057  1
  Te  Te116  1  0.16729535  0.83708125  0.83168777  1
  Te  Te117  1  0.50385988  0.16714765  0.16757207  1
  Te  Te118  1  0.49104515  0.16790527  0.49916344  1
  Te  Te119  1  0.49383961  0.17309480  0.83313307  1
  Te  Te120  1  0.50017715  0.50463636  0.17007887  1
  Te  Te121  1  0.49372273  0.50520409  0.49529751  1
  Te  Te122  1  0.49557578  0.49405651  0.83476044  1
  Te  Te123  1  0.49835616  0.82832636  0.16454463  1
  Te  Te124  1  0.50105916  0.82732930  0.50326586  1
  Te  Te125  1  0.49932820  0.83268529  0.83409806  1
  Te  Te126  1  0.83691351  0.16585303  0.16121204  1
  Te  Te127  1  0.83294611  0.16720257  0.50724425  1
  Te  Te128  1  0.83304222  0.16167743  0.83488763  1
  Te  Te129  1  0.83325236  0.49570874  0.16328640  1
  Te  Te130  1  0.83219902  0.49879227  0.50062727  1
  Te  Te131  1  0.83337351  0.50200375  0.84269661  1
  Te  Te132  1  0.83507094  0.83591084  0.16652458  1
  Te  Te133  1  0.83874055  0.83192396  0.50762007  1
  Te  Te134  1  0.83180808  0.83871409  0.82763348  1
  Te  Te135  1  0.16628731  0.00261181  0.00156990  1
  Te  Te136  1  0.16214156  -0.00512271  0.32325808  1
  Te  Te137  1  0.16403532  0.00144627  0.66960404  1
  Te  Te138  1  0.16812500  0.32943448  0.00062545  1
  Te  Te139  1  0.16186194  0.33501788  0.32582081  1
  Te  Te140  1  0.17090623  0.33156526  0.66879022  1
  Te  Te141  1  0.16701875  0.67187573  0.00413399  1
  Te  Te142  1  0.16491893  0.67065204  0.33123299  1
  Te  Te143  1  0.16769540  0.66780284  0.66649793  1
  Te  Te144  1  0.50466277  -0.00669422  -0.00110358  1
  Te  Te145  1  0.50040663  -0.00048102  0.33536223  1
  Te  Te146  1  0.50243921  -0.00607092  0.66807194  1
  Te  Te147  1  0.49950548  0.33384702  -0.00386770  1
  Te  Te148  1  0.50196387  0.34053804  0.33503793  1
  Te  Te149  1  0.49474985  0.33358759  0.67327197  1
  Te  Te150  1  0.49999411  0.67239867  0.00388955  1
  Te  Te151  1  0.49673008  0.66694626  0.33063537  1
  Te  Te152  1  0.49640609  0.67239940  0.66636540  1
  Te  Te153  1  0.83628067  0.00148878  -0.00104110  1
  Te  Te154  1  0.83997683  0.00410898  0.33134965  1
  Te  Te155  1  0.83591097  0.00099429  0.66451348  1
  Te  Te156  1  0.83535289  0.32801468  -0.00228919  1
  Te  Te157  1  0.84036620  0.32832496  0.33609987  1
  Te  Te158  1  0.83315290  0.33004668  0.67291238  1
  Te  Te159  1  0.83386305  0.66554200  0.00596451  1
  Te  Te160  1  0.83695299  0.66701567  0.32715459  1
  Te  Te161  1  0.83415083  0.66868170  0.66684873  1
  Te  Te162  1  0.00174342  0.16211954  0.00502055  1
  Te  Te163  1  -0.00338553  0.16486565  0.33024496  1
  Te  Te164  1  0.00289485  0.16385521  0.66285074  1
  Te  Te165  1  -0.00444622  0.50232745  0.00504584  1
  Te  Te166  1  -0.00011843  0.50838090  0.32910912  1
  Te  Te167  1  -0.00063655  0.50305186  0.66520027  1
  Te  Te168  1  0.00437390  0.83956080  0.00488188  1
  Te  Te169  1  0.00136329  0.83486403  0.33254051  1
  Te  Te170  1  0.00355880  0.83590107  0.67016351  1
  Te  Te171  1  0.33141290  0.16999305  0.00305145  1
  Te  Te172  1  0.33501853  0.16618313  0.32684346  1
  Te  Te173  1  0.32985957  0.16532601  0.66805634  1
  Te  Te174  1  0.33360759  0.49462127  -0.00305560  1
  Te  Te175  1  0.33649112  0.50391948  0.33527361  1
  Te  Te176  1  0.33421900  0.50452291  0.66503196  1
  Te  Te177  1  0.33243736  0.83323218  -0.00156759  1
  Te  Te178  1  0.32595780  0.82739638  0.33516859  1
  Te  Te179  1  0.33170660  0.83283598  0.66624021  1
  Te  Te180  1  0.66488492  0.16502298  0.00314461  1
  Te  Te181  1  0.67324236  0.16690714  0.32877230  1
  Te  Te182  1  0.66766734  0.16063992  0.66614801  1
  Te  Te183  1  0.66995449  0.49723948  0.00659847  1
  Te  Te184  1  0.66398199  0.50416975  0.32578867  1
  Te  Te185  1  0.66605057  0.49897754  0.66549907  1
  Te  Te186  1  0.66671412  0.83771480  0.00556709  1
  Te  Te187  1  0.66698316  0.82876764  0.32788791  1
  Te  Te188  1  0.66233551  0.83823114  0.66530579  1
  Te  Te189  1  -0.00127975  -0.00136324  0.16603140  1
  Te  Te190  1  0.00588893  -0.00492134  0.50506618  1
  Te  Te191  1  0.00053459  0.00085767  0.82842785  1
  Te  Te192  1  0.00508648  0.34082122  0.16889099  1
  Te  Te193  1  0.00876757  0.33524195  0.49400410  1
  Te  Te194  1  -0.00259838  0.33460057  0.83252789  1
  Te  Te195  1  -0.00089293  0.66821135  0.16685964  1
  Te  Te196  1  0.00109259  0.67145335  0.49945705  1
  Te  Te197  1  0.00031550  0.66519967  0.82359129  1
  Te  Te198  1  0.33318243  0.00606154  0.16738833  1
  Te  Te199  1  0.32617549  0.00411697  0.50382645  1
  Te  Te200  1  0.32985312  0.00616688  0.82881624  1
  Te  Te201  1  0.32821690  0.33033831  0.16532802  1
  Te  Te202  1  0.32719213  0.33311872  0.50037196  1
  Te  Te203  1  0.32617453  0.33138473  0.83297319  1
  Te  Te204  1  0.33299825  0.66551291  0.16906919  1
  Te  Te205  1  0.33389773  0.66536407  0.50048708  1
  Te  Te206  1  0.33289773  0.66193648  0.82887555  1
  Te  Te207  1  0.66774593  0.00010288  0.16406525  1
  Te  Te208  1  0.66459715  0.00018909  0.50210964  1
  Te  Te209  1  0.66812072  -0.00027850  0.83420961  1
  Te  Te210  1  0.66457335  0.32797639  0.16084655  1
  Te  Te211  1  0.66478279  0.33299005  0.50073098  1
  Te  Te212  1  0.67721881  0.33213043  0.84059739  1
  Te  Te213  1  0.66831143  0.66834817  0.16907558  1
  Te  Te214  1  0.66154176  0.66644423  0.49069669  1
  Te  Te215  1  0.66628414  0.66474317  0.83120697  1
