# generated using pymatgen
data_AgSbTe2
_symmetry_space_group_name_H-M   'P 1'
_cell_length_a   18.33050919
_cell_length_b   18.33700574
_cell_length_c   18.33269013
_cell_angle_alpha   90.00203138
_cell_angle_beta   89.99613832
_cell_angle_gamma   90.00280529
_symmetry_Int_Tables_number   1
_chemical_formula_structural   AgSbTe2
_chemical_formula_sum   'Ag54 Sb54 Te108'
_cell_volume   6162.10573537
_cell_formula_units_Z   54
loop_
 _symmetry_equiv_pos_site_id
 _symmetry_equiv_pos_as_xyz
  1  'x, y, z'
loop_
 _atom_site_type_symbol
 _atom_site_label
 _atom_site_symmetry_multiplicity
 _atom_site_fract_x
 _atom_site_fract_y
 _atom_site_fract_z
 _atom_site_occupancy
  Ag  Ag0  1  0.33941612  0.66549380  0.66762314  1
  Ag  Ag1  1  0.83934406  0.82578370  0.33577048  1
  Ag  Ag2  1  0.33125210  0.32870959  0.33091920  1
  Ag  Ag3  1  0.49920165  0.00685673  0.83020251  1
  Ag  Ag4  1  0.00459276  0.66355328  0.00720098  1
  Ag  Ag5  1  0.16952060  0.16679229  0.33635193  1
  Ag  Ag6  1  0.50184288  0.65809200  0.50435545  1
  Ag  Ag7  1  0.15464536  0.66255489  0.50012939  1
  Ag  Ag8  1  0.82294655  0.16971994  0.66703092  1
  Ag  Ag9  1  0.32536447  0.66275870  -0.00362259  1
  Ag  Ag10  1  0.83105639  0.00081821  0.82625043  1
  Ag  Ag11  1  0.49996898  0.33261619  0.16788023  1
  Ag  Ag12  1  0.17143227  0.00890864  0.83757343  1
  Ag  Ag13  1  0.16691983  0.83786787  0.00079030  1
  Ag  Ag14  1  -0.00176007  0.50337399  0.17374740  1
  Ag  Ag15  1  0.16104675  0.00458653  0.49343812  1
  Ag  Ag16  1  0.84090855  0.50088858  0.34477292  1
  Ag  Ag17  1  0.66862548  0.00943676  0.66802544  1
  Ag  Ag18  1  0.66686292  0.66030784  0.66388999  1
  Ag  Ag19  1  0.17347639  0.16520823  -0.00626533  1
  Ag  Ag20  1  0.33479082  0.16587184  0.83903284  1
  Ag  Ag21  1  0.51037681  0.33732462  0.49749020  1
  Ag  Ag22  1  -0.00194363  0.82730430  0.17412417  1
  Ag  Ag23  1  0.50609175  0.16514969  0.67288278  1
  Ag  Ag24  1  0.32848334  0.01288842  -0.00031731  1
  Ag  Ag25  1  0.83246157  0.66142731  0.82459467  1
  Ag  Ag26  1  0.16684887  0.49878008  0.00259054  1
  Ag  Ag27  1  0.67358935  0.83455231  0.16864284  1
  Ag  Ag28  1  0.32184248  0.00987006  0.32937226  1
  Ag  Ag29  1  0.66619948  0.33464864  0.34262721  1
  Ag  Ag30  1  0.48589362  0.17249938  -0.00788953  1
  Ag  Ag31  1  0.67009935  0.49528436  0.82503525  1
  Ag  Ag32  1  0.83715877  0.65613136  0.50389320  1
  Ag  Ag33  1  -0.00965189  0.50508778  0.49129024  1
  Ag  Ag34  1  0.16964587  0.16651176  0.66997877  1
  Ag  Ag35  1  0.17011862  0.32693708  0.83360547  1
  Ag  Ag36  1  0.67675868  0.49774004  0.50649612  1
  Ag  Ag37  1  0.33303043  0.32486398  0.00437915  1
  Ag  Ag38  1  0.82861281  0.49741012  0.65692140  1
  Ag  Ag39  1  0.82888970  0.33675105  0.17622584  1
  Ag  Ag40  1  -0.00152036  0.82576393  0.49381501  1
  Ag  Ag41  1  0.83596213  0.50021902  -0.00067486  1
  Ag  Ag42  1  -0.00024412  0.66749675  0.33493247  1
  Ag  Ag43  1  0.50228203  0.83499833  0.66561696  1
  Ag  Ag44  1  0.65913991  0.16940552  0.82791104  1
  Ag  Ag45  1  0.83947334  -0.00093883  0.50358989  1
  Ag  Ag46  1  0.16752667  0.00352828  0.16877318  1
  Ag  Ag47  1  0.16613108  0.33439437  0.49800353  1
  Ag  Ag48  1  0.33122416  0.16876238  0.15264878  1
  Ag  Ag49  1  0.15890025  0.49415353  0.33504258  1
  Ag  Ag50  1  0.49263516  0.49274498  0.00011915  1
  Ag  Ag51  1  0.66796111  0.33534082  0.66324048  1
  Ag  Ag52  1  0.82837595  0.34481330  0.49810996  1
  Ag  Ag53  1  0.00455809  -0.00756031  0.33612865  1
  Sb  Sb54  1  0.66177257  0.16592711  0.16141046  1
  Sb  Sb55  1  0.83889305  0.00407332  0.16770844  1
  Sb  Sb56  1  0.66988958  0.00502418  0.34005852  1
  Sb  Sb57  1  0.49744535  0.32815891  0.83269083  1
  Sb  Sb58  1  0.49999523  0.66161880  0.16881535  1
  Sb  Sb59  1  0.82877399  0.83249978  0.66045542  1
  Sb  Sb60  1  0.32759042  0.49376812  0.16427585  1
  Sb  Sb61  1  0.66804601  0.83483026  0.83310853  1
  Sb  Sb62  1  0.17044582  0.83720471  0.66740354  1
  Sb  Sb63  1  0.50006421  0.00260085  0.50560031  1
  Sb  Sb64  1  0.16454430  0.66869090  0.16698416  1
  Sb  Sb65  1  0.50714017  0.49694833  0.66907178  1
  Sb  Sb66  1  0.49412839  0.16960569  0.33417685  1
  Sb  Sb67  1  -0.00464730  0.50160826  0.83371116  1
  Sb  Sb68  1  0.00199058  0.33820549  0.33407242  1
  Sb  Sb69  1  0.33320020  0.83905498  0.83393494  1
  Sb  Sb70  1  0.67246748  0.50025689  0.16758491  1
  Sb  Sb71  1  0.66838002  0.66441245  -0.00484660  1
  Sb  Sb72  1  0.83558709  0.66127239  0.16943841  1
  Sb  Sb73  1  0.33204053  0.49941970  0.49982952  1
  Sb  Sb74  1  0.66857176  0.17533050  0.50783281  1
  Sb  Sb75  1  0.50325628  0.66800357  0.82797045  1
  Sb  Sb76  1  0.32818778  0.83301850  0.49946086  1
  Sb  Sb77  1  0.00172995  0.16794153  0.49908453  1
  Sb  Sb78  1  0.50550742  0.83293383  0.33842364  1
  Sb  Sb79  1  -0.00315256  0.66543569  0.66139076  1
  Sb  Sb80  1  0.50111833  0.49643600  0.33134343  1
  Sb  Sb81  1  0.16962858  0.33050124  0.16914875  1
  Sb  Sb82  1  0.67325665  0.82790364  0.49922887  1
  Sb  Sb83  1  0.83890005  0.17152964  0.33987139  1
  Sb  Sb84  1  0.32505415  0.66430791  0.33462389  1
  Sb  Sb85  1  0.33610483  0.33445929  0.66515373  1
  Sb  Sb86  1  0.00743611  0.33993281  0.00251902  1
  Sb  Sb87  1  0.32870793  0.83992736  0.16522829  1
  Sb  Sb88  1  0.67341513  0.66000094  0.34005492  1
  Sb  Sb89  1  0.83897889  0.82928826  0.00442083  1
  Sb  Sb90  1  0.83407414  0.17155676  -0.00595087  1
  Sb  Sb91  1  0.33533113  0.00149598  0.66843948  1
  Sb  Sb92  1  0.33074316  0.16729807  0.50208805  1
  Sb  Sb93  1  0.00423143  0.16558818  0.83389117  1
  Sb  Sb94  1  0.00625824  0.16858949  0.16852008  1
  Sb  Sb95  1  0.16128423  0.49635065  0.66434256  1
  Sb  Sb96  1  0.15975223  0.83779178  0.33089653  1
  Sb  Sb97  1  0.16369151  0.66537340  0.83239212  1
  Sb  Sb98  1  -0.00445535  0.33317458  0.66359668  1
  Sb  Sb99  1  0.66114525  0.33547250  -0.00265661  1
  Sb  Sb100  1  0.49388070  0.00519246  0.16194246  1
  Sb  Sb101  1  0.00906761  -0.00587857  0.00439904  1
  Sb  Sb102  1  -0.00361210  0.00030195  0.66142628  1
  Sb  Sb103  1  -0.00030816  0.83352774  0.83304882  1
  Sb  Sb104  1  0.66206082  0.00098815  -0.00662303  1
  Sb  Sb105  1  0.49485590  0.83395226  -0.00294458  1
  Sb  Sb106  1  0.83391068  0.33483647  0.82921088  1
  Sb  Sb107  1  0.33709054  0.49569661  0.83615629  1
  Te  Te108  1  0.17012133  0.16438810  0.17054887  1
  Te  Te109  1  0.16629460  0.16686649  0.49898686  1
  Te  Te110  1  0.16692025  0.16631213  0.83314350  1
  Te  Te111  1  0.16088527  0.49972391  0.16655989  1
  Te  Te112  1  0.16551488  0.50013315  0.49990773  1
  Te  Te113  1  0.16625079  0.49655970  0.83493938  1
  Te  Te114  1  0.16182116  0.83741461  0.16161026  1
  Te  Te115  1  0.16096060  0.83093661  0.50071582  1
  Te  Te116  1  0.16548901  0.83727880  0.83859288  1
  Te  Te117  1  0.49460996  0.17192128  0.16297964  1
  Te  Te118  1  0.49994865  0.17188769  0.50492630  1
  Te  Te119  1  0.49956596  0.16666352  0.83316977  1
  Te  Te120  1  0.50180093  0.49413648  0.16102201  1
  Te  Te121  1  0.50139823  0.49814902  0.49958486  1
  Te  Te122  1  0.50628094  0.49984641  0.83993711  1
  Te  Te123  1  0.50340047  0.83295202  0.16741484  1
  Te  Te124  1  0.50108596  0.83204872  0.50510559  1
  Te  Te125  1  0.50106466  0.84041153  0.82825254  1
  Te  Te126  1  0.83221450  0.17412161  0.16529991  1
  Te  Te127  1  0.83454993  0.15948278  0.50674848  1
  Te  Te128  1  0.83299117  0.16463488  0.82832319  1
  Te  Te129  1  0.83653633  0.49618887  0.16102908  1
  Te  Te130  1  0.83256307  0.50060261  0.50021051  1
  Te  Te131  1  0.83028076  0.50124591  0.83623474  1
  Te  Te132  1  0.83714084  0.83519694  0.17165765  1
  Te  Te133  1  0.83772371  0.83934976  0.49540015  1
  Te  Te134  1  0.83311532  0.83502773  0.83423277  1
  Te  Te135  1  0.16915806  0.00257224  -0.00163368  1
  Te  Te136  1  0.16576140  -0.00171420  0.33495485  1
  Te  Te137  1  0.16744151  0.00318063  0.66714634  1
  Te  Te138  1  0.17166823  0.33480071  0.00241276  1
  Te  Te139  1  0.16813339  0.33260844  0.33465278  1
  Te  Te140  1  0.16744331  0.32969018  0.66301829  1
  Te  Te141  1  0.16519521  0.66074034  -0.00115872  1
  Te  Te142  1  0.16336791  0.66153969  0.33816630  1
  Te  Te143  1  0.16932350  0.66735709  0.66312832  1
  Te  Te144  1  0.49380617  0.00260321  -0.00556257  1
  Te  Te145  1  0.49667520  0.00064337  0.33394328  1
  Te  Te146  1  0.50223102  0.00348804  0.66921044  1
  Te  Te147  1  0.49578773  0.33294174  0.00004784  1
  Te  Te148  1  0.49820840  0.33351696  0.33573237  1
  Te  Te149  1  0.50279404  0.32963688  0.66213406  1
  Te  Te150  1  0.49854767  0.66393117  -0.00050891  1
  Te  Te151  1  0.49826346  0.66550801  0.34119099  1
  Te  Te152  1  0.50159607  0.66413878  0.66403721  1
  Te  Te153  1  0.83350507  0.00072058  -0.00336850  1
  Te  Te154  1  0.83656455  0.00262618  0.33615640  1
  Te  Te155  1  0.83060520  -0.00068737  0.66682164  1
  Te  Te156  1  0.83389050  0.33745754  -0.00163885  1
  Te  Te157  1  0.83357532  0.33522769  0.33733433  1
  Te  Te158  1  0.82971916  0.33162350  0.66345819  1
  Te  Te159  1  0.83628508  0.66354640  -0.00049091  1
  Te  Te160  1  0.83728943  0.66398397  0.33633467  1
  Te  Te161  1  0.83136538  0.66624101  0.66517057  1
  Te  Te162  1  0.00684177  0.16674412  0.00229013  1
  Te  Te163  1  0.00736610  0.15784859  0.33236961  1
  Te  Te164  1  0.00647291  0.16648787  0.66675055  1
  Te  Te165  1  0.00076564  0.50401794  -0.00013075  1
  Te  Te166  1  0.00058385  0.50083316  0.33311782  1
  Te  Te167  1  -0.00920337  0.50017104  0.66226547  1
  Te  Te168  1  0.00551541  0.82688747  0.00374048  1
  Te  Te169  1  -0.00109366  0.83122654  0.33295677  1
  Te  Te170  1  0.00073088  0.83269697  0.65902156  1
  Te  Te171  1  0.32998168  0.16837191  -0.00282445  1
  Te  Te172  1  0.32933972  0.16766961  0.33561426  1
  Te  Te173  1  0.33079296  0.16733129  0.67294716  1
  Te  Te174  1  0.33143447  0.50188300  0.00008650  1
  Te  Te175  1  0.32806455  0.49522443  0.33180771  1
  Te  Te176  1  0.33278852  0.50580955  0.66879845  1
  Te  Te177  1  0.32805042  0.82538185  0.00031842  1
  Te  Te178  1  0.33545549  0.83679337  0.33121265  1
  Te  Te179  1  0.34009915  0.82696323  0.66670708  1
  Te  Te180  1  0.66438902  0.16687275  -0.00806437  1
  Te  Te181  1  0.66670583  0.17415270  0.33105996  1
  Te  Te182  1  0.66616672  0.16794835  0.66925419  1
  Te  Te183  1  0.67139871  0.50105043  -0.00105249  1
  Te  Te184  1  0.67010500  0.49388118  0.33526530  1
  Te  Te185  1  0.66873216  0.49885452  0.66686027  1
  Te  Te186  1  0.66594492  0.83313470  0.00653877  1
  Te  Te187  1  0.67381435  0.83534052  0.33022282  1
  Te  Te188  1  0.66186268  0.82875539  0.66643867  1
  Te  Te189  1  0.00468551  -0.00245397  0.17146655  1
  Te  Te190  1  0.00153260  0.00040390  0.49708233  1
  Te  Te191  1  -0.00316724  -0.00188064  0.83410334  1
  Te  Te192  1  -0.00841346  0.33855369  0.16704164  1
  Te  Te193  1  0.00215974  0.33979790  0.49947845  1
  Te  Te194  1  0.00999287  0.33384713  0.83356200  1
  Te  Te195  1  -0.00005330  0.66588699  0.16872185  1
  Te  Te196  1  -0.00230563  0.66539893  0.49880875  1
  Te  Te197  1  -0.00600712  0.66810936  0.83777054  1
  Te  Te198  1  0.32931674  0.00558166  0.16589217  1
  Te  Te199  1  0.32822822  -0.00099293  0.49611013  1
  Te  Te200  1  0.33161119  0.00419400  0.83482186  1
  Te  Te201  1  0.33598700  0.32940136  0.16770344  1
  Te  Te202  1  0.32709570  0.33404184  0.49678925  1
  Te  Te203  1  0.32999641  0.32876127  0.83499024  1
  Te  Te204  1  0.33373611  0.66709247  0.16150392  1
  Te  Te205  1  0.33777880  0.66705367  0.50227507  1
  Te  Te206  1  0.33330606  0.66687200  0.83335285  1
  Te  Te207  1  0.66661660  -0.00247451  0.16783315  1
  Te  Te208  1  0.66892136  -0.00128513  0.50565256  1
  Te  Te209  1  0.66793782  0.00140808  0.82901071  1
  Te  Te210  1  0.66515180  0.33260803  0.16728211  1
  Te  Te211  1  0.66895881  0.33623040  0.50140425  1
  Te  Te212  1  0.66722205  0.33330259  0.82893908  1
  Te  Te213  1  0.66625538  0.67259397  0.16872043  1
  Te  Te214  1  0.66836200  0.66181066  0.50312997  1
  Te  Te215  1  0.67143967  0.66447649  0.82804339  1
