# generated using pymatgen
data_AgSbTe2
_symmetry_space_group_name_H-M   'P 1'
_cell_length_a   18.34396207
_cell_length_b   18.34718816
_cell_length_c   18.34543620
_cell_angle_alpha   89.99817918
_cell_angle_beta   90.00198325
_cell_angle_gamma   90.00308967
_symmetry_Int_Tables_number   1
_chemical_formula_structural   AgSbTe2
_chemical_formula_sum   'Ag54 Sb54 Te108'
_cell_volume   6174.34226129
_cell_formula_units_Z   54
loop_
 _symmetry_equiv_pos_site_id
 _symmetry_equiv_pos_as_xyz
  1  'x, y, z'
loop_
 _atom_site_type_symbol
 _atom_site_label
 _atom_site_symmetry_multiplicity
 _atom_site_fract_x
 _atom_site_fract_y
 _atom_site_fract_z
 _atom_site_occupancy
  Ag  Ag0  1  0.32545718  0.33904412  -0.00040613  1
  Ag  Ag1  1  0.33133121  0.82465888  0.83159622  1
  Ag  Ag2  1  0.66270367  0.49411563  0.15578080  1
  Ag  Ag3  1  0.50060596  0.16044421  0.66983808  1
  Ag  Ag4  1  0.16477388  0.33380639  0.16109781  1
  Ag  Ag5  1  0.17452408  0.49765973  0.00051594  1
  Ag  Ag6  1  0.33368816  0.67008379  0.67655148  1
  Ag  Ag7  1  0.00456626  -0.00499884  0.00279867  1
  Ag  Ag8  1  0.49808827  0.00091831  0.50828269  1
  Ag  Ag9  1  0.82370716  -0.00527226  0.84110978  1
  Ag  Ag10  1  0.66974033  0.83429413  0.15468400  1
  Ag  Ag11  1  0.00174869  0.50704529  0.83868420  1
  Ag  Ag12  1  0.66141624  0.16629880  0.83699872  1
  Ag  Ag13  1  0.66788643  0.49897900  0.83863461  1
  Ag  Ag14  1  0.83818033  0.00757987  0.15859399  1
  Ag  Ag15  1  0.32653504  0.65150917  -0.00606703  1
  Ag  Ag16  1  0.17036769  0.34316910  0.84396771  1
  Ag  Ag17  1  0.17076936  0.17412915  0.00159976  1
  Ag  Ag18  1  0.48894695  0.49900243  0.00004868  1
  Ag  Ag19  1  0.17814152  0.82870631  0.67205334  1
  Ag  Ag20  1  0.16935304  0.17752181  0.31852279  1
  Ag  Ag21  1  0.00113625  0.84106455  0.15844580  1
  Ag  Ag22  1  0.16104861  0.00437387  0.16132664  1
  Ag  Ag23  1  0.65733515  0.16819816  0.50601559  1
  Ag  Ag24  1  0.66446783  0.33810152  -0.00101696  1
  Ag  Ag25  1  0.01106916  0.33412625  0.32477310  1
  Ag  Ag26  1  0.49812565  0.83266645  0.33515154  1
  Ag  Ag27  1  0.83059395  0.33355325  0.49512923  1
  Ag  Ag28  1  0.16967923  0.66550237  0.50920234  1
  Ag  Ag29  1  0.33747070  0.16582403  0.83557867  1
  Ag  Ag30  1  0.50252215  -0.00069168  0.83321491  1
  Ag  Ag31  1  0.66422624  0.83486092  0.83679284  1
  Ag  Ag32  1  0.49643475  0.83691137  0.67067115  1
  Ag  Ag33  1  0.83568003  0.66286624  0.83591537  1
  Ag  Ag34  1  0.67092365  0.17137768  0.15479859  1
  Ag  Ag35  1  0.66144865  0.66271109  0.67391115  1
  Ag  Ag36  1  0.66726507  0.33626690  0.68245744  1
  Ag  Ag37  1  0.49222580  0.50031349  0.32497809  1
  Ag  Ag38  1  0.32837906  0.33602917  0.32097370  1
  Ag  Ag39  1  0.16699283  0.65464041  0.15382929  1
  Ag  Ag40  1  0.83740810  0.33005266  0.16583502  1
  Ag  Ag41  1  0.82884464  0.49942057  0.68227266  1
  Ag  Ag42  1  0.33040745  0.50820476  0.84285124  1
  Ag  Ag43  1  0.33553455  0.83571313  0.51254724  1
  Ag  Ag44  1  0.00844532  0.66578309  -0.00345641  1
  Ag  Ag45  1  0.32838330  0.49845388  0.15384011  1
  Ag  Ag46  1  0.00785375  0.16559064  0.16301439  1
  Ag  Ag47  1  0.33710378  0.16418706  0.50668755  1
  Ag  Ag48  1  0.17331114  0.49549622  0.31757063  1
  Ag  Ag49  1  0.66708700  0.00870750  -0.00121853  1
  Ag  Ag50  1  0.00509279  0.82530094  0.83945142  1
  Ag  Ag51  1  0.83118151  0.49791061  -0.00137713  1
  Ag  Ag52  1  0.32944639  0.00264801  -0.00297121  1
  Ag  Ag53  1  0.17052075  0.66275040  0.83682198  1
  Sb  Sb54  1  0.83482262  0.49686088  0.32502753  1
  Sb  Sb55  1  0.82370023  0.17331042  0.66974097  1
  Sb  Sb56  1  0.50029041  -0.00074915  0.16080889  1
  Sb  Sb57  1  0.00120141  0.16608172  0.84165837  1
  Sb  Sb58  1  0.33342209  0.49997528  0.50130378  1
  Sb  Sb59  1  0.16581345  0.33649376  0.49606289  1
  Sb  Sb60  1  0.82886220  0.82778950  0.67239496  1
  Sb  Sb61  1  -0.00486970  0.33420289  0.66714973  1
  Sb  Sb62  1  0.17145407  0.83043129  0.33214220  1
  Sb  Sb63  1  0.00789077  0.83369179  0.50290801  1
  Sb  Sb64  1  0.83298866  0.16806079  0.00089355  1
  Sb  Sb65  1  0.33086153  0.17203401  0.16162323  1
  Sb  Sb66  1  0.17461393  0.16259641  0.67293023  1
  Sb  Sb67  1  0.33171767  0.82922223  0.16093575  1
  Sb  Sb68  1  0.82523017  0.00551495  0.50150120  1
  Sb  Sb69  1  0.00032062  -0.00160381  0.67955911  1
  Sb  Sb70  1  0.49793420  0.33433871  0.16497282  1
  Sb  Sb71  1  0.50360142  0.50155598  0.67211735  1
  Sb  Sb72  1  0.33410431  0.00380441  0.32775098  1
  Sb  Sb73  1  0.49781310  0.67095477  0.83392500  1
  Sb  Sb74  1  0.65811463  0.83869438  0.50601782  1
  Sb  Sb75  1  0.66540912  0.66518663  0.33511115  1
  Sb  Sb76  1  0.00445899  0.66166009  0.32279491  1
  Sb  Sb77  1  0.66618466  0.49487096  0.50146585  1
  Sb  Sb78  1  0.66355362  0.33334995  0.32696680  1
  Sb  Sb79  1  0.16541692  0.50331490  0.67639481  1
  Sb  Sb80  1  0.33698804  0.33654724  0.67329817  1
  Sb  Sb81  1  0.83604620  0.16946454  0.32938203  1
  Sb  Sb82  1  0.49687831  0.66457769  0.16424169  1
  Sb  Sb83  1  0.66418967  0.00172474  0.32323533  1
  Sb  Sb84  1  0.83747726  0.66148145  0.51139695  1
  Sb  Sb85  1  0.83461372  0.83449622  -0.00229007  1
  Sb  Sb86  1  0.00246262  0.00425741  0.32264747  1
  Sb  Sb87  1  0.83811346  0.66478764  0.15695549  1
  Sb  Sb88  1  0.00437584  0.49709523  0.15815090  1
  Sb  Sb89  1  0.00455221  0.66648029  0.67786653  1
  Sb  Sb90  1  0.49978073  0.83068662  -0.00381480  1
  Sb  Sb91  1  0.66717911  0.66202140  -0.00590906  1
  Sb  Sb92  1  0.49786263  0.33020931  0.83478777  1
  Sb  Sb93  1  0.49471729  0.67143290  0.50213154  1
  Sb  Sb94  1  0.83332554  0.33698703  0.83910000  1
  Sb  Sb95  1  0.33525329  -0.00717686  0.67543704  1
  Sb  Sb96  1  0.00424951  0.16767831  0.49222284  1
  Sb  Sb97  1  0.00308632  0.33458360  0.00317069  1
  Sb  Sb98  1  0.49532696  0.16788685  0.33563046  1
  Sb  Sb99  1  0.50248331  0.32910141  0.50048656  1
  Sb  Sb100  1  0.17398765  -0.00221138  0.49435826  1
  Sb  Sb101  1  0.33154547  0.66142016  0.33110549  1
  Sb  Sb102  1  0.82892045  0.83381294  0.32930777  1
  Sb  Sb103  1  0.00190384  0.49970992  0.50324387  1
  Sb  Sb104  1  0.16570595  0.82762160  -0.00328239  1
  Sb  Sb105  1  0.16976197  -0.00358714  0.84263965  1
  Sb  Sb106  1  0.49807717  0.16950909  -0.00406718  1
  Sb  Sb107  1  0.66354796  0.00183958  0.67849123  1
  Te  Te108  1  0.16933761  0.17007552  0.16268983  1
  Te  Te109  1  0.17296277  0.16606232  0.50223729  1
  Te  Te110  1  0.16968811  0.16681391  0.83793046  1
  Te  Te111  1  0.16561421  0.49726324  0.16186971  1
  Te  Te112  1  0.16668050  0.50540816  0.50235419  1
  Te  Te113  1  0.16867493  0.50230237  0.83681433  1
  Te  Te114  1  0.16353694  0.83963530  0.16917610  1
  Te  Te115  1  0.17398059  0.82975786  0.50197736  1
  Te  Te116  1  0.16769014  0.83155735  0.83103483  1
  Te  Te117  1  0.51105765  0.16481668  0.16810258  1
  Te  Te118  1  0.49772595  0.16310182  0.50192029  1
  Te  Te119  1  0.50119307  0.16349924  0.83117662  1
  Te  Te120  1  0.50167160  0.50048162  0.16540269  1
  Te  Te121  1  0.50009159  0.50147374  0.49396093  1
  Te  Te122  1  0.50289932  0.49901189  0.83608643  1
  Te  Te123  1  0.50422991  0.83226073  0.16997584  1
  Te  Te124  1  0.49497856  0.83758773  0.50251328  1
  Te  Te125  1  0.49965451  0.83745821  0.83182993  1
  Te  Te126  1  0.82997362  0.16742956  0.16633927  1
  Te  Te127  1  0.83094297  0.17114163  0.50033295  1
  Te  Te128  1  0.83111673  0.16138946  0.83315046  1
  Te  Te129  1  0.82976599  0.49709017  0.16133992  1
  Te  Te130  1  0.83423394  0.49466439  0.49755309  1
  Te  Te131  1  0.82934299  0.49778082  0.83825189  1
  Te  Te132  1  0.83167761  0.83374734  0.16665722  1
  Te  Te133  1  0.83402714  0.83470340  0.50011598  1
  Te  Te134  1  0.83079261  0.83327674  0.83246946  1
  Te  Te135  1  0.16637927  0.00090751  0.00308427  1
  Te  Te136  1  0.16721824  0.00470069  0.32589666  1
  Te  Te137  1  0.16574550  -0.00776349  0.66391423  1
  Te  Te138  1  0.16548441  0.33469713  0.00097479  1
  Te  Te139  1  0.16878447  0.33523473  0.33457386  1
  Te  Te140  1  0.16553138  0.33300327  0.66845251  1
  Te  Te141  1  0.16782176  0.66512508  -0.00271409  1
  Te  Te142  1  0.16664901  0.66103511  0.32948499  1
  Te  Te143  1  0.17000700  0.66890115  0.67074430  1
  Te  Te144  1  0.50350948  -0.00009026  -0.00523721  1
  Te  Te145  1  0.49920846  -0.00403420  0.33565798  1
  Te  Te146  1  0.50012241  -0.00051128  0.66825500  1
  Te  Te147  1  0.50388791  0.33841712  0.00026580  1
  Te  Te148  1  0.49104985  0.33803065  0.33356043  1
  Te  Te149  1  0.50834708  0.33092622  0.66591467  1
  Te  Te150  1  0.48990556  0.66090056  0.00048846  1
  Te  Te151  1  0.49971533  0.66627050  0.33419517  1
  Te  Te152  1  0.49882436  0.66982228  0.66558116  1
  Te  Te153  1  0.82859829  0.00152679  0.00085455  1
  Te  Te154  1  0.83349168  0.00080395  0.32703959  1
  Te  Te155  1  0.83256116  0.00013730  0.67045702  1
  Te  Te156  1  0.82994223  0.33528739  0.00467263  1
  Te  Te157  1  0.83507836  0.33374868  0.32935938  1
  Te  Te158  1  0.82764928  0.33862353  0.66524238  1
  Te  Te159  1  0.83670949  0.66052721  -0.00621392  1
  Te  Te160  1  0.83504320  0.66543731  0.33732271  1
  Te  Te161  1  0.82809008  0.66090177  0.67450054  1
  Te  Te162  1  0.00571668  0.16284716  0.00474140  1
  Te  Te163  1  0.00672958  0.17194782  0.32557524  1
  Te  Te164  1  0.00022527  0.16623849  0.66497192  1
  Te  Te165  1  -0.00230020  0.50091137  -0.00353646  1
  Te  Te166  1  0.00556134  0.49435850  0.33427655  1
  Te  Te167  1  -0.00753765  0.49982600  0.67387617  1
  Te  Te168  1  -0.00034989  0.83323941  -0.00077850  1
  Te  Te169  1  0.00004621  0.83304973  0.32932499  1
  Te  Te170  1  0.00119942  0.83299294  0.67237431  1
  Te  Te171  1  0.33254768  0.16660026  -0.00243540  1
  Te  Te172  1  0.33007801  0.17170692  0.33227939  1
  Te  Te173  1  0.33883716  0.16722736  0.66924403  1
  Te  Te174  1  0.33230857  0.49572139  -0.00158946  1
  Te  Te175  1  0.33209332  0.49616819  0.33565420  1
  Te  Te176  1  0.33466758  0.50570004  0.67098968  1
  Te  Te177  1  0.33468123  0.84196961  -0.00551320  1
  Te  Te178  1  0.33849203  0.83344232  0.33173945  1
  Te  Te179  1  0.33599780  0.83092057  0.67003889  1
  Te  Te180  1  0.66499085  0.16892632  -0.00235186  1
  Te  Te181  1  0.66463397  0.16756753  0.33664495  1
  Te  Te182  1  0.66117250  0.16942406  0.66932483  1
  Te  Te183  1  0.66871309  0.50201584  -0.00126693  1
  Te  Te184  1  0.66265752  0.50081386  0.32950955  1
  Te  Te185  1  0.66773722  0.49830780  0.66788497  1
  Te  Te186  1  0.66573701  0.83048549  -0.00273663  1
  Te  Te187  1  0.66011177  0.83318870  0.33493238  1
  Te  Te188  1  0.66141968  0.83019555  0.67217821  1
  Te  Te189  1  -0.00140183  0.00213704  0.16188734  1
  Te  Te190  1  -0.00384563  0.00012936  0.49948690  1
  Te  Te191  1  -0.00292040  -0.00283045  0.84234479  1
  Te  Te192  1  0.00016687  0.33125089  0.16748983  1
  Te  Te193  1  -0.00671303  0.33241108  0.49568361  1
  Te  Te194  1  0.00592970  0.33510307  0.83321008  1
  Te  Te195  1  0.00530929  0.67171740  0.15876071  1
  Te  Te196  1  0.00669085  0.66814971  0.49968251  1
  Te  Te197  1  -0.00088592  0.66688371  0.83725839  1
  Te  Te198  1  0.33163009  -0.00048036  0.15953979  1
  Te  Te199  1  0.33735002  0.00086225  0.49791195  1
  Te  Te200  1  0.33525348  0.00535223  0.83762593  1
  Te  Te201  1  0.33118218  0.33766068  0.16259603  1
  Te  Te202  1  0.33409447  0.32842214  0.50499825  1
  Te  Te203  1  0.33117706  0.33111090  0.83700854  1
  Te  Te204  1  0.32731366  0.66159207  0.16235756  1
  Te  Te205  1  0.32833862  0.67023432  0.50038010  1
  Te  Te206  1  0.33363019  0.66710215  0.83415463  1
  Te  Te207  1  0.66761154  -0.00348030  0.15976562  1
  Te  Te208  1  0.66171561  0.00692320  0.49880799  1
  Te  Te209  1  0.66520135  -0.00086000  0.83833581  1
  Te  Te210  1  0.66724486  0.33450126  0.16331701  1
  Te  Te211  1  0.67013355  0.32807303  0.49469020  1
  Te  Te212  1  0.66809805  0.33304811  0.83832467  1
  Te  Te213  1  0.66916759  0.67109465  0.16667825  1
  Te  Te214  1  0.66943085  0.66762941  0.50782415  1
  Te  Te215  1  0.66653213  0.66641928  0.83195012  1
