# generated using pymatgen
data_AgSbTe2
_symmetry_space_group_name_H-M   'P 1'
_cell_length_a   18.33672736
_cell_length_b   18.33434243
_cell_length_c   18.34241593
_cell_angle_alpha   90.00313904
_cell_angle_beta   90.00355318
_cell_angle_gamma   89.99949919
_symmetry_Int_Tables_number   1
_chemical_formula_structural   AgSbTe2
_chemical_formula_sum   'Ag54 Sb54 Te108'
_cell_volume   6166.57050991
_cell_formula_units_Z   54
loop_
 _symmetry_equiv_pos_site_id
 _symmetry_equiv_pos_as_xyz
  1  'x, y, z'
loop_
 _atom_site_type_symbol
 _atom_site_label
 _atom_site_symmetry_multiplicity
 _atom_site_fract_x
 _atom_site_fract_y
 _atom_site_fract_z
 _atom_site_occupancy
  Ag  Ag0  1  0.00143835  0.66620828  0.66194573  1
  Ag  Ag1  1  0.83429098  0.83953833  0.00506982  1
  Ag  Ag2  1  0.83294154  -0.00083577  0.48459495  1
  Ag  Ag3  1  0.32788920  0.84503206  0.84572923  1
  Ag  Ag4  1  0.65958096  0.50083531  0.83884000  1
  Ag  Ag5  1  0.65882219  -0.00394003  0.00624364  1
  Ag  Ag6  1  0.01048147  0.17468801  0.48857223  1
  Ag  Ag7  1  0.83213270  0.00101585  0.84567740  1
  Ag  Ag8  1  0.83320686  0.83807397  0.32350413  1
  Ag  Ag9  1  0.84506435  0.50271811  0.32563529  1
  Ag  Ag10  1  0.33321708  0.49029182  0.48979516  1
  Ag  Ag11  1  0.32890106  0.17176082  0.49671130  1
  Ag  Ag12  1  0.17462976  -0.00041348  0.84174177  1
  Ag  Ag13  1  0.49004621  0.00252294  0.84462691  1
  Ag  Ag14  1  0.49580864  0.49411256  0.33093887  1
  Ag  Ag15  1  0.00258895  0.16692746  0.16969575  1
  Ag  Ag16  1  0.67800177  0.84452881  0.16575689  1
  Ag  Ag17  1  0.84060006  0.33250996  0.83813487  1
  Ag  Ag18  1  0.50630414  0.00192219  0.16299387  1
  Ag  Ag19  1  0.66617561  0.15782152  0.16608758  1
  Ag  Ag20  1  0.16420721  0.32700854  0.16549911  1
  Ag  Ag21  1  0.66908381  0.66615134  0.67493057  1
  Ag  Ag22  1  0.16836533  0.16449811  0.66368711  1
  Ag  Ag23  1  0.49680269  0.16172299  0.00834254  1
  Ag  Ag24  1  0.01131333  0.33535999  0.00792941  1
  Ag  Ag25  1  0.32831507  0.66251441  0.33113934  1
  Ag  Ag26  1  0.33757855  0.00112229  0.32141755  1
  Ag  Ag27  1  0.00273184  0.49585592  0.16941310  1
  Ag  Ag28  1  0.00414876  0.49407299  0.48902667  1
  Ag  Ag29  1  0.49662670  0.49453758  0.00123357  1
  Ag  Ag30  1  0.00153019  0.33724873  0.32621489  1
  Ag  Ag31  1  0.16980725  0.16696672  0.33315737  1
  Ag  Ag32  1  0.16726403  0.83639061  0.67635616  1
  Ag  Ag33  1  0.48629116  0.33569100  0.49505471  1
  Ag  Ag34  1  0.66740750  0.67242407  -0.00125954  1
  Ag  Ag35  1  0.32974146  0.32765530  -0.00073680  1
  Ag  Ag36  1  0.16919766  0.67681718  0.83313012  1
  Ag  Ag37  1  0.32972426  0.84620698  0.16359032  1
  Ag  Ag38  1  0.33222004  0.50026582  0.16703061  1
  Ag  Ag39  1  0.83004073  0.50027026  0.00398507  1
  Ag  Ag40  1  0.66438610  -0.00160864  0.31860570  1
  Ag  Ag41  1  0.33855818  0.00316184  0.00493959  1
  Ag  Ag42  1  0.66902718  0.83487165  0.48936207  1
  Ag  Ag43  1  0.33025087  0.16123997  0.83932522  1
  Ag  Ag44  1  0.16832456  0.32953239  0.83896171  1
  Ag  Ag45  1  0.16883823  0.32863494  0.49240858  1
  Ag  Ag46  1  0.00452152  0.65695668  0.33267461  1
  Ag  Ag47  1  0.17088605  0.00217756  0.16238900  1
  Ag  Ag48  1  0.49185787  0.16746580  0.32573859  1
  Ag  Ag49  1  -0.00369531  0.84287506  0.16726371  1
  Ag  Ag50  1  0.33598786  0.49804561  0.84268438  1
  Ag  Ag51  1  0.16954164  0.83720506  -0.00058211  1
  Ag  Ag52  1  0.49832120  0.50005849  0.67456444  1
  Ag  Ag53  1  0.81997394  -0.00259861  0.16527429  1
  Sb  Sb54  1  0.16656689  0.66842688  0.16423423  1
  Sb  Sb55  1  0.66134202  0.16771226  0.83840484  1
  Sb  Sb56  1  0.49313275  0.32947361  0.16858855  1
  Sb  Sb57  1  0.17039938  0.49839046  0.66796095  1
  Sb  Sb58  1  0.66961921  0.33091223  0.33111112  1
  Sb  Sb59  1  0.66612543  -0.00491687  0.67060935  1
  Sb  Sb60  1  0.00140557  0.00380484  0.00398782  1
  Sb  Sb61  1  0.83749711  0.83385566  0.66926670  1
  Sb  Sb62  1  0.83585171  0.16469270  0.33106386  1
  Sb  Sb63  1  0.49910341  0.66017573  0.49890933  1
  Sb  Sb64  1  0.83185852  0.50094526  0.66779371  1
  Sb  Sb65  1  0.66493223  0.50425123  0.50117846  1
  Sb  Sb66  1  0.16508503  0.00623142  0.49689122  1
  Sb  Sb67  1  0.33198208  0.00031064  0.67146479  1
  Sb  Sb68  1  0.16574322  0.66146126  0.50195334  1
  Sb  Sb69  1  0.49683857  0.82909633  0.66866260  1
  Sb  Sb70  1  0.50266225  0.83627646  0.33121836  1
  Sb  Sb71  1  0.17165373  0.16434909  0.00250683  1
  Sb  Sb72  1  -0.00175368  0.66367791  0.00337252  1
  Sb  Sb73  1  0.00696488  0.16725781  0.83662827  1
  Sb  Sb74  1  0.83483047  0.67352869  0.16643197  1
  Sb  Sb75  1  0.00535252  0.83371960  0.84140771  1
  Sb  Sb76  1  0.33115452  0.33427497  0.66847350  1
  Sb  Sb77  1  0.66633066  0.67052817  0.32978402  1
  Sb  Sb78  1  0.16668976  0.49457641  0.33206278  1
  Sb  Sb79  1  0.84142674  0.33054941  0.16233317  1
  Sb  Sb80  1  0.33567360  0.66775078  0.00287406  1
  Sb  Sb81  1  0.49411956  0.17059629  0.66621736  1
  Sb  Sb82  1  0.83390993  0.67015131  0.49780694  1
  Sb  Sb83  1  0.66690477  0.50084298  0.16269033  1
  Sb  Sb84  1  -0.00193880  0.83351468  0.49363213  1
  Sb  Sb85  1  0.16334508  0.83895501  0.32837692  1
  Sb  Sb86  1  0.83812916  0.33002862  0.50087558  1
  Sb  Sb87  1  0.49899924  0.83732884  0.00186269  1
  Sb  Sb88  1  -0.00130375  0.00289353  0.32966981  1
  Sb  Sb89  1  0.50155421  0.00585231  0.49444694  1
  Sb  Sb90  1  0.32722094  0.33158818  0.32890610  1
  Sb  Sb91  1  0.00349856  -0.00399131  0.66631957  1
  Sb  Sb92  1  0.84150676  0.16463864  0.66725737  1
  Sb  Sb93  1  0.33180781  0.66388954  0.66489410  1
  Sb  Sb94  1  0.66433282  0.16193684  0.49335158  1
  Sb  Sb95  1  0.33056524  0.16471662  0.16673576  1
  Sb  Sb96  1  0.00366784  0.33699244  0.66591680  1
  Sb  Sb97  1  0.16894919  0.49964608  0.00040681  1
  Sb  Sb98  1  0.00217231  0.49958507  0.83586507  1
  Sb  Sb99  1  0.49837911  0.66982869  0.16589941  1
  Sb  Sb100  1  0.33453158  0.83604910  0.49531508  1
  Sb  Sb101  1  0.83008795  0.16507136  0.00157084  1
  Sb  Sb102  1  0.66397938  0.33192636  0.00091622  1
  Sb  Sb103  1  0.49523654  0.66657268  0.83567581  1
  Sb  Sb104  1  0.83655874  0.66738499  0.83616386  1
  Sb  Sb105  1  0.66496614  0.33770436  0.66886974  1
  Sb  Sb106  1  0.66399782  0.83148145  0.83865657  1
  Sb  Sb107  1  0.49480369  0.33292448  0.83391181  1
  Te  Te108  1  0.16369564  0.16770280  0.16839407  1
  Te  Te109  1  0.16707848  0.16768301  0.49845243  1
  Te  Te110  1  0.17041469  0.16598633  0.83446737  1
  Te  Te111  1  0.16653364  0.49884973  0.16538747  1
  Te  Te112  1  0.16854730  0.49358273  0.50172539  1
  Te  Te113  1  0.17109702  0.49148166  0.83362086  1
  Te  Te114  1  0.16877437  0.83480135  0.16343757  1
  Te  Te115  1  0.16695225  0.83484949  0.50465580  1
  Te  Te116  1  0.16754685  0.83695220  0.83660503  1
  Te  Te117  1  0.49975100  0.16493729  0.16767872  1
  Te  Te118  1  0.49639508  0.17311907  0.49826652  1
  Te  Te119  1  0.49340841  0.16464439  0.83400239  1
  Te  Te120  1  0.49927875  0.49858224  0.16628399  1
  Te  Te121  1  0.49778914  0.49560050  0.49296776  1
  Te  Te122  1  0.49884248  0.49950260  0.83609938  1
  Te  Te123  1  0.48983618  0.83865446  0.16745275  1
  Te  Te124  1  0.50566773  0.83484222  0.50106946  1
  Te  Te125  1  0.49137445  0.83807527  0.83345861  1
  Te  Te126  1  0.83679518  0.16017538  0.16699076  1
  Te  Te127  1  0.83546454  0.16078708  0.50035306  1
  Te  Te128  1  0.83279321  0.16674633  0.83309903  1
  Te  Te129  1  0.83421842  0.49807684  0.16604052  1
  Te  Te130  1  0.83613565  0.49865255  0.49724383  1
  Te  Te131  1  0.83311708  0.49908295  0.83630036  1
  Te  Te132  1  0.83578554  0.83681796  0.16541178  1
  Te  Te133  1  0.83056642  0.83895759  0.49997204  1
  Te  Te134  1  0.83392949  0.83655222  0.83962094  1
  Te  Te135  1  0.16687599  -0.00232182  -0.00032127  1
  Te  Te136  1  0.17050458  0.00521366  0.33002226  1
  Te  Te137  1  0.16672964  0.00040448  0.67202791  1
  Te  Te138  1  0.16959146  0.33423593  0.00181045  1
  Te  Te139  1  0.16129921  0.32825256  0.33254633  1
  Te  Te140  1  0.16604523  0.32760958  0.67137567  1
  Te  Te141  1  0.16616582  0.67338549  -0.00560888  1
  Te  Te142  1  0.16658962  0.67071186  0.33398739  1
  Te  Te143  1  0.16434445  0.66903373  0.67017180  1
  Te  Te144  1  0.49831121  -0.00010338  0.00171170  1
  Te  Te145  1  0.50042722  0.00333993  0.33038778  1
  Te  Te146  1  0.50017374  -0.00013288  0.67234944  1
  Te  Te147  1  0.49386330  0.33335439  0.00051564  1
  Te  Te148  1  0.50255598  0.33148410  0.33516705  1
  Te  Te149  1  0.49999917  0.33975746  0.65950527  1
  Te  Te150  1  0.50587115  0.65650439  -0.00014157  1
  Te  Te151  1  0.49640415  0.66022090  0.33256568  1
  Te  Te152  1  0.50442967  0.66123090  0.66711542  1
  Te  Te153  1  0.83552043  -0.00034234  0.00504183  1
  Te  Te154  1  0.83130170  -0.00179145  0.32720496  1
  Te  Te155  1  0.83468722  -0.00041476  0.67321095  1
  Te  Te156  1  0.83161806  0.33575103  -0.00341854  1
  Te  Te157  1  0.83853598  0.33891595  0.33398188  1
  Te  Te158  1  0.83373757  0.33264336  0.67647476  1
  Te  Te159  1  0.82989582  0.66300499  -0.00039147  1
  Te  Te160  1  0.83497272  0.66315758  0.33308442  1
  Te  Te161  1  0.83397460  0.66724726  0.66760068  1
  Te  Te162  1  -0.00216800  0.17506524  0.00477901  1
  Te  Te163  1  0.00170195  0.16891525  0.33125951  1
  Te  Te164  1  0.00791177  0.16653644  0.66384689  1
  Te  Te165  1  -0.00315534  0.49664836  0.00352491  1
  Te  Te166  1  0.00247766  0.49927747  0.33209124  1
  Te  Te167  1  0.00047848  0.50548351  0.66431220  1
  Te  Te168  1  -0.00361826  0.83124072  0.00768605  1
  Te  Te169  1  -0.00495850  0.83148514  0.32820818  1
  Te  Te170  1  0.00532758  0.82732853  0.66418574  1
  Te  Te171  1  0.33716452  0.16582513  -0.00201098  1
  Te  Te172  1  0.33279961  0.16584881  0.33449428  1
  Te  Te173  1  0.32816396  0.16672669  0.66291639  1
  Te  Te174  1  0.33466665  0.50240688  0.00174452  1
  Te  Te175  1  0.33333170  0.49807216  0.33190961  1
  Te  Te176  1  0.33863295  0.50127225  0.66599890  1
  Te  Te177  1  0.33237470  0.83380496  0.00229907  1
  Te  Te178  1  0.33329942  0.83646772  0.32918456  1
  Te  Te179  1  0.32814794  0.83170939  0.66573467  1
  Te  Te180  1  0.65951835  0.16096936  0.00377368  1
  Te  Te181  1  0.66481047  0.16115456  0.32859193  1
  Te  Te182  1  0.66631953  0.16702042  0.66646317  1
  Te  Te183  1  0.66851478  0.49854115  -0.00118911  1
  Te  Te184  1  0.66339022  0.50062498  0.33171583  1
  Te  Te185  1  0.66360412  0.50538734  0.66982596  1
  Te  Te186  1  0.66680654  0.83428598  0.00338277  1
  Te  Te187  1  0.66977433  0.83583018  0.32911353  1
  Te  Te188  1  0.66669041  0.82677378  0.66895357  1
  Te  Te189  1  0.01211469  0.00053116  0.16725255  1
  Te  Te190  1  -0.00517482  0.00322463  0.49829198  1
  Te  Te191  1  -0.00557730  0.00055729  0.83449538  1
  Te  Te192  1  0.00256516  0.33355044  0.16622733  1
  Te  Te193  1  0.00255273  0.33363946  0.49958954  1
  Te  Te194  1  0.00247365  0.33346192  0.83634533  1
  Te  Te195  1  0.00078369  0.65751275  0.17112912  1
  Te  Te196  1  -0.00009838  0.66227364  0.49671343  1
  Te  Te197  1  0.00711059  0.66653063  0.83071590  1
  Te  Te198  1  0.32925346  0.00233752  0.16510210  1
  Te  Te199  1  0.33383513  0.00477712  0.49474025  1
  Te  Te200  1  0.33201344  0.00099218  0.83543766  1
  Te  Te201  1  0.32759497  0.33896578  0.16141095  1
  Te  Te202  1  0.32862091  0.33349367  0.49918642  1
  Te  Te203  1  0.33112294  0.33647042  0.83665441  1
  Te  Te204  1  0.33268134  0.65827945  0.17183384  1
  Te  Te205  1  0.33260752  0.66415059  0.49327188  1
  Te  Te206  1  0.32868647  0.66106873  0.83301302  1
  Te  Te207  1  0.66320383  -0.00003801  0.16337351  1
  Te  Te208  1  0.67007554  -0.00512766  0.50291555  1
  Te  Te209  1  0.67109201  -0.00002459  0.83751828  1
  Te  Te210  1  0.66799030  0.32473492  0.16693457  1
  Te  Te211  1  0.66855376  0.33320619  0.50024897  1
  Te  Te212  1  0.66905893  0.33887084  0.83366772  1
  Te  Te213  1  0.66613921  0.67286858  0.16090473  1
  Te  Te214  1  0.66636167  0.67365176  0.50084775  1
  Te  Te215  1  0.66638656  0.66374965  0.83591394  1
