# generated using pymatgen
data_AgSbTe2
_symmetry_space_group_name_H-M   'P 1'
_cell_length_a   18.35044789
_cell_length_b   18.36346040
_cell_length_c   18.36587244
_cell_angle_alpha   90.00402314
_cell_angle_beta   90.00009626
_cell_angle_gamma   90.00130780
_symmetry_Int_Tables_number   1
_chemical_formula_structural   AgSbTe2
_chemical_formula_sum   'Ag54 Sb54 Te108'
_cell_volume   6188.88985961
_cell_formula_units_Z   54
loop_
 _symmetry_equiv_pos_site_id
 _symmetry_equiv_pos_as_xyz
  1  'x, y, z'
loop_
 _atom_site_type_symbol
 _atom_site_label
 _atom_site_symmetry_multiplicity
 _atom_site_fract_x
 _atom_site_fract_y
 _atom_site_fract_z
 _atom_site_occupancy
  Ag  Ag0  1  0.32865113  0.50021094  0.83885721  1
  Ag  Ag1  1  0.33542565  0.84361677  0.49949383  1
  Ag  Ag2  1  0.67399773  0.16768083  0.48578655  1
  Ag  Ag3  1  0.14986526  0.49885453  0.33170392  1
  Ag  Ag4  1  0.68258998  0.49945487  0.83440049  1
  Ag  Ag5  1  -0.00684419  0.66419562  0.66627686  1
  Ag  Ag6  1  -0.00595847  0.15960091  0.16219753  1
  Ag  Ag7  1  0.32954560  0.83151637  0.83136465  1
  Ag  Ag8  1  -0.00732479  0.83382079  0.83800508  1
  Ag  Ag9  1  -0.00003847  0.32567832  -0.00379709  1
  Ag  Ag10  1  -0.00784999  0.84231346  0.16319260  1
  Ag  Ag11  1  -0.00508530  0.50179734  0.48812991  1
  Ag  Ag12  1  -0.01301276  -0.00175883  0.32648393  1
  Ag  Ag13  1  0.68326618  0.84242902  0.16950870  1
  Ag  Ag14  1  -0.00712366  0.49953664  0.16896569  1
  Ag  Ag15  1  0.33232453  0.16159477  0.17017275  1
  Ag  Ag16  1  0.33636053  0.16350803  0.49415250  1
  Ag  Ag17  1  0.83704402  0.66220632  0.83381334  1
  Ag  Ag18  1  0.32925282  0.49639093  0.16273788  1
  Ag  Ag19  1  0.83657053  0.50720686  -0.01159383  1
  Ag  Ag20  1  0.83356057  0.50247009  0.33425288  1
  Ag  Ag21  1  -0.00180880  0.00665110  0.00612589  1
  Ag  Ag22  1  0.15372100  0.16903783  0.67261085  1
  Ag  Ag23  1  0.83445542  0.82973705  0.66914656  1
  Ag  Ag24  1  0.83293797  0.33250517  0.50346297  1
  Ag  Ag25  1  0.83298048  0.84428097  0.32052720  1
  Ag  Ag26  1  0.67857468  0.16070200  0.17428815  1
  Ag  Ag27  1  0.51614370  0.16009326  0.33293852  1
  Ag  Ag28  1  0.83522205  0.67749686  0.16780055  1
  Ag  Ag29  1  0.50313102  0.16639673  0.66037230  1
  Ag  Ag30  1  -0.00234491  0.17359523  0.84088995  1
  Ag  Ag31  1  0.33710197  0.00299103  0.32740631  1
  Ag  Ag32  1  0.32549021  0.32861946  -0.00136621  1
  Ag  Ag33  1  0.83558464  0.34701030  0.82944768  1
  Ag  Ag34  1  0.83334093  0.00346558  0.48580513  1
  Ag  Ag35  1  0.83387223  -0.00824887  0.17263877  1
  Ag  Ag36  1  0.16113668  0.16914357  -0.00155639  1
  Ag  Ag37  1  0.67427392  0.32046197  0.33647719  1
  Ag  Ag38  1  0.32749910  0.00671795  0.00777853  1
  Ag  Ag39  1  0.15212682  0.33163506  0.83541070  1
  Ag  Ag40  1  0.67351461  0.32975885  0.66346305  1
  Ag  Ag41  1  -0.00623277  0.49460984  0.83708004  1
  Ag  Ag42  1  -0.00553891  0.66381846  0.33305029  1
  Ag  Ag43  1  0.51274762  0.00217183  0.17217059  1
  Ag  Ag44  1  0.67630442  0.66680952  0.00097652  1
  Ag  Ag45  1  0.83690065  0.50093543  0.67441811  1
  Ag  Ag46  1  0.83576971  0.82942277  0.00742624  1
  Ag  Ag47  1  0.83357765  0.17325118  0.66045726  1
  Ag  Ag48  1  0.67355788  0.00799914  0.32833246  1
  Ag  Ag49  1  0.83740625  -0.00260133  0.83542107  1
  Ag  Ag50  1  0.33001526  0.66691855  0.66805587  1
  Ag  Ag51  1  0.83627577  0.66364343  0.49590263  1
  Ag  Ag52  1  0.51367379  0.84492484  0.33094737  1
  Ag  Ag53  1  0.82870557  0.15694972  0.33596574  1
  Sb  Sb54  1  0.67127669  0.83935980  0.49356119  1
  Sb  Sb55  1  0.16156167  0.00232024  0.49866866  1
  Sb  Sb56  1  0.67546524  0.82921093  0.83901473  1
  Sb  Sb57  1  0.67831129  0.49333964  0.50413131  1
  Sb  Sb58  1  0.67478774  0.33405451  0.00098140  1
  Sb  Sb59  1  0.67195875  0.00663060  0.66011902  1
  Sb  Sb60  1  0.50241934  0.00113840  0.84020588  1
  Sb  Sb61  1  0.50447834  0.33131273  0.83367884  1
  Sb  Sb62  1  0.50251264  0.83850961  0.66255883  1
  Sb  Sb63  1  0.33939051  0.66653993  -0.00425198  1
  Sb  Sb64  1  0.33052122  0.83784336  0.16663429  1
  Sb  Sb65  1  -0.00477709  0.83054282  0.49874193  1
  Sb  Sb66  1  0.15854479  0.83250764  0.33345036  1
  Sb  Sb67  1  0.67416068  0.49960785  0.16420667  1
  Sb  Sb68  1  0.15925265  0.00548576  0.83504474  1
  Sb  Sb69  1  -0.00614349  -0.00188927  0.66700979  1
  Sb  Sb70  1  0.15609442  0.66308221  0.16700350  1
  Sb  Sb71  1  0.15771072  0.66087297  0.83293020  1
  Sb  Sb72  1  0.32536188  0.49769605  0.49847612  1
  Sb  Sb73  1  -0.00546427  0.66691594  0.00084849  1
  Sb  Sb74  1  0.15914377  0.00207661  0.16794881  1
  Sb  Sb75  1  0.15801199  0.33056156  0.50556039  1
  Sb  Sb76  1  0.15833378  0.49400015  0.00219775  1
  Sb  Sb77  1  0.50407300  0.00332103  0.49025348  1
  Sb  Sb78  1  0.50554826  0.49653464  0.66787857  1
  Sb  Sb79  1  0.67516230  0.66276310  0.67008327  1
  Sb  Sb80  1  0.50416924  0.66734189  0.83176467  1
  Sb  Sb81  1  0.32748295  0.67039780  0.33568148  1
  Sb  Sb82  1  -0.00691377  0.16985541  0.49896485  1
  Sb  Sb83  1  0.50596646  0.66952953  0.49880204  1
  Sb  Sb84  1  0.67647195  -0.00155204  0.00719732  1
  Sb  Sb85  1  0.15855154  0.49577918  0.66734828  1
  Sb  Sb86  1  0.67848056  0.16995199  0.83345681  1
  Sb  Sb87  1  -0.00832270  0.33684297  0.67378501  1
  Sb  Sb88  1  0.15927166  0.66695726  0.50169368  1
  Sb  Sb89  1  0.16517177  0.33229300  0.16288146  1
  Sb  Sb90  1  0.33664243  0.33409852  0.67087241  1
  Sb  Sb91  1  0.33703406  0.32782884  0.32932080  1
  Sb  Sb92  1  0.50521000  0.67221041  0.16894037  1
  Sb  Sb93  1  0.83532745  0.33056160  0.16774042  1
  Sb  Sb94  1  0.15827592  0.83963393  -0.00166201  1
  Sb  Sb95  1  0.16176749  0.83662733  0.66825656  1
  Sb  Sb96  1  0.83922851  0.16490852  0.00172545  1
  Sb  Sb97  1  0.50451604  0.83647923  0.00522944  1
  Sb  Sb98  1  -0.00702827  0.33398073  0.32784313  1
  Sb  Sb99  1  0.33398883  -0.00009996  0.66657145  1
  Sb  Sb100  1  0.50622722  0.49736225  0.33130221  1
  Sb  Sb101  1  0.67802141  0.66984725  0.32968557  1
  Sb  Sb102  1  0.32770735  0.16648815  0.83387265  1
  Sb  Sb103  1  0.49381665  0.16470545  0.00477669  1
  Sb  Sb104  1  0.50753311  0.32857372  0.49927337  1
  Sb  Sb105  1  0.50002266  0.32429420  0.16752821  1
  Sb  Sb106  1  0.50287404  0.49870978  0.00080121  1
  Sb  Sb107  1  0.16117350  0.17036414  0.33157730  1
  Te  Te108  1  0.16859836  0.16802256  0.16339224  1
  Te  Te109  1  0.17074752  0.16749192  0.50489986  1
  Te  Te110  1  0.16120214  0.17081985  0.83358712  1
  Te  Te111  1  0.16889563  0.49861891  0.17039837  1
  Te  Te112  1  0.15786694  0.49865753  0.49624087  1
  Te  Te113  1  0.16944909  0.49404942  0.83431463  1
  Te  Te114  1  0.15542637  0.83054320  0.16618182  1
  Te  Te115  1  0.17595438  0.83451764  0.50125065  1
  Te  Te116  1  0.16890571  0.83237138  0.83210733  1
  Te  Te117  1  0.49084337  0.16067584  0.17116947  1
  Te  Te118  1  0.49834853  0.16604449  0.49779880  1
  Te  Te119  1  0.50342947  0.16514732  0.82836018  1
  Te  Te120  1  0.49531828  0.50126872  0.16722221  1
  Te  Te121  1  0.49841586  0.50017253  0.49985392  1
  Te  Te122  1  0.48857200  0.49991610  0.83296366  1
  Te  Te123  1  0.49860379  0.83928818  0.17271521  1
  Te  Te124  1  0.49546893  0.83482322  0.49398852  1
  Te  Te125  1  0.49455325  0.83433506  0.83201716  1
  Te  Te126  1  0.83603869  0.16635486  0.16754120  1
  Te  Te127  1  0.83327050  0.16634317  0.49931965  1
  Te  Te128  1  0.83885954  0.16016636  0.83525595  1
  Te  Te129  1  0.83454211  0.49656500  0.17149678  1
  Te  Te130  1  0.83486867  0.50125440  0.49878516  1
  Te  Te131  1  0.83838885  0.50243957  0.83274604  1
  Te  Te132  1  0.83765406  0.83285163  0.16597285  1
  Te  Te133  1  0.83284731  0.83358101  0.50824013  1
  Te  Te134  1  0.83333150  0.83205163  0.83028883  1
  Te  Te135  1  0.16464319  0.00595678  -0.00047150  1
  Te  Te136  1  0.17604283  0.00057413  0.33470385  1
  Te  Te137  1  0.16532683  0.00957264  0.66659034  1
  Te  Te138  1  0.16489512  0.33013966  -0.00411275  1
  Te  Te139  1  0.16789018  0.33937640  0.33664990  1
  Te  Te140  1  0.16839157  0.32751102  0.67364552  1
  Te  Te141  1  0.17078812  0.66719633  -0.00060704  1
  Te  Te142  1  0.15867506  0.65994417  0.33412962  1
  Te  Te143  1  0.16839072  0.66637034  0.66711232  1
  Te  Te144  1  0.49133711  -0.00054080  0.00758495  1
  Te  Te145  1  0.49615715  0.00141968  0.32995377  1
  Te  Te146  1  0.50293902  0.00640414  0.66776248  1
  Te  Te147  1  0.49111247  0.33272564  0.00048567  1
  Te  Te148  1  0.50847901  0.32558600  0.33365631  1
  Te  Te149  1  0.50870835  0.32784269  0.66626880  1
  Te  Te150  1  0.51194903  0.66752882  0.00034022  1
  Te  Te151  1  0.49918184  0.67277960  0.33377171  1
  Te  Te152  1  0.49404909  0.66808086  0.66544013  1
  Te  Te153  1  0.83797172  -0.00227589  -0.00126023  1
  Te  Te154  1  0.83213242  -0.00053084  0.33075305  1
  Te  Te155  1  0.83294740  -0.00178315  0.67499643  1
  Te  Te156  1  0.83647848  0.33764502  -0.00475806  1
  Te  Te157  1  0.83170600  0.33588973  0.33494375  1
  Te  Te158  1  0.83293175  0.33369842  0.66724916  1
  Te  Te159  1  0.83445512  0.66722757  0.00034366  1
  Te  Te160  1  0.83677510  0.66356312  0.33268833  1
  Te  Te161  1  0.83451309  0.66380330  0.66900409  1
  Te  Te162  1  0.00064885  0.16622097  0.00104307  1
  Te  Te163  1  -0.00317055  0.16345906  0.32877112  1
  Te  Te164  1  -0.00459296  0.16536488  0.66650727  1
  Te  Te165  1  -0.00347455  0.50040919  -0.00216488  1
  Te  Te166  1  -0.00642622  0.49734863  0.33028743  1
  Te  Te167  1  -0.00258237  0.50394142  0.67576663  1
  Te  Te168  1  -0.00401426  0.83510954  -0.00103676  1
  Te  Te169  1  -0.00503555  0.83442885  0.33244241  1
  Te  Te170  1  -0.00271801  0.82827158  0.66902533  1
  Te  Te171  1  0.32849168  0.16669461  0.00048570  1
  Te  Te172  1  0.32663241  0.16512618  0.33184172  1
  Te  Te173  1  0.34103945  0.16757618  0.66577941  1
  Te  Te174  1  0.33330981  0.49964644  0.00132745  1
  Te  Te175  1  0.33778876  0.50017280  0.33001511  1
  Te  Te176  1  0.33259364  0.50279842  0.66668884  1
  Te  Te177  1  0.33221990  0.83537720  -0.00274272  1
  Te  Te178  1  0.32685094  0.83601003  0.33518442  1
  Te  Te179  1  0.33373230  0.83214867  0.66594361  1
  Te  Te180  1  0.66320889  0.16719755  0.00696956  1
  Te  Te181  1  0.67121673  0.16479042  0.33043039  1
  Te  Te182  1  0.67337521  0.16985459  0.66812681  1
  Te  Te183  1  0.67091354  0.50167187  -0.00404385  1
  Te  Te184  1  0.67036663  0.49841072  0.33364420  1
  Te  Te185  1  0.67084779  0.49517351  0.67233041  1
  Te  Te186  1  0.67179116  0.83111942  0.00638104  1
  Te  Te187  1  0.67102375  0.83561092  0.32953275  1
  Te  Te188  1  0.66912043  0.83308849  0.66577561  1
  Te  Te189  1  -0.00320062  0.00167059  0.16654600  1
  Te  Te190  1  -0.00587435  -0.00055378  0.49291583  1
  Te  Te191  1  -0.00273148  -0.00550032  0.83357112  1
  Te  Te192  1  0.00070924  0.33693257  0.15890389  1
  Te  Te193  1  -0.00686095  0.33893469  0.49879627  1
  Te  Te194  1  -0.00451848  0.33261249  0.83541085  1
  Te  Te195  1  -0.00604758  0.65857327  0.16935497  1
  Te  Te196  1  -0.00511668  0.66385169  0.50098135  1
  Te  Te197  1  -0.00316883  0.66952000  0.83198418  1
  Te  Te198  1  0.32694414  0.00057645  0.16624420  1
  Te  Te199  1  0.33279819  0.00300983  0.49957944  1
  Te  Te200  1  0.33363195  -0.00311490  0.83566812  1
  Te  Te201  1  0.33319981  0.33427973  0.16197253  1
  Te  Te202  1  0.33261789  0.32857740  0.50051560  1
  Te  Te203  1  0.33697190  0.33526123  0.83747701  1
  Te  Te204  1  0.33358477  0.66454483  0.16541147  1
  Te  Te205  1  0.33369317  0.66554137  0.50424361  1
  Te  Te206  1  0.33417676  0.66674040  0.83100984  1
  Te  Te207  1  0.67018115  0.00076603  0.16790122  1
  Te  Te208  1  0.67264965  0.00621546  0.49293191  1
  Te  Te209  1  0.67063212  -0.00135682  0.83565752  1
  Te  Te210  1  0.66587930  0.32877822  0.16972777  1
  Te  Te211  1  0.67287342  0.32811335  0.49989623  1
  Te  Te212  1  0.67176176  0.33768572  0.83300425  1
  Te  Te213  1  0.67248583  0.66715254  0.16328361  1
  Te  Te214  1  0.67359959  0.66691446  0.50080396  1
  Te  Te215  1  0.67100391  0.66163555  0.83677773  1
