# generated using pymatgen
data_AgSbTe2
_symmetry_space_group_name_H-M   'P 1'
_cell_length_a   18.34725554
_cell_length_b   18.34996408
_cell_length_c   18.33366581
_cell_angle_alpha   90.00178440
_cell_angle_beta   89.99551235
_cell_angle_gamma   90.00014885
_symmetry_Int_Tables_number   1
_chemical_formula_structural   AgSbTe2
_chemical_formula_sum   'Ag54 Sb54 Te108'
_cell_volume   6172.42238180
_cell_formula_units_Z   54
loop_
 _symmetry_equiv_pos_site_id
 _symmetry_equiv_pos_as_xyz
  1  'x, y, z'
loop_
 _atom_site_type_symbol
 _atom_site_label
 _atom_site_symmetry_multiplicity
 _atom_site_fract_x
 _atom_site_fract_y
 _atom_site_fract_z
 _atom_site_occupancy
  Ag  Ag0  1  0.17110046  0.50072442  0.00341871  1
  Ag  Ag1  1  0.00383863  0.66306414  0.33182836  1
  Ag  Ag2  1  0.49671689  0.34264383  0.17054485  1
  Ag  Ag3  1  -0.00184484  0.83703108  0.82654614  1
  Ag  Ag4  1  0.16716829  0.83541697  -0.00461864  1
  Ag  Ag5  1  0.65914506  0.83605840  0.50503641  1
  Ag  Ag6  1  0.16189316  0.31968904  0.83764585  1
  Ag  Ag7  1  0.33274416  0.50253914  0.16785420  1
  Ag  Ag8  1  0.00086622  0.49719690  0.83454647  1
  Ag  Ag9  1  0.16364508  0.00475273  0.83216416  1
  Ag  Ag10  1  0.33228541  0.66042147  0.32596569  1
  Ag  Ag11  1  0.16486124  0.15454292  0.67931338  1
  Ag  Ag12  1  0.01011675  0.16508168  0.83030288  1
  Ag  Ag13  1  0.17365905  0.65955135  0.16394619  1
  Ag  Ag14  1  0.49726630  0.50565562  0.67284911  1
  Ag  Ag15  1  0.66113891  0.00025512  0.33157552  1
  Ag  Ag16  1  0.00897850  0.49778738  0.16639537  1
  Ag  Ag17  1  -0.00021594  0.34066923  0.32953448  1
  Ag  Ag18  1  0.33523942  0.66478215  0.00471442  1
  Ag  Ag19  1  0.49443464  0.50844242  0.00369709  1
  Ag  Ag20  1  0.32242464  0.16446774  0.83405643  1
  Ag  Ag21  1  0.34029662  0.34174013  0.33012468  1
  Ag  Ag22  1  0.49955315  -0.00391583  0.50537420  1
  Ag  Ag23  1  0.17228791  -0.00115424  0.15935117  1
  Ag  Ag24  1  0.49899860  -0.00382084  0.83301882  1
  Ag  Ag25  1  0.66342021  0.83317275  0.16058925  1
  Ag  Ag26  1  0.49190574  0.65914506  0.16081102  1
  Ag  Ag27  1  0.66504428  0.15531236  0.83423949  1
  Ag  Ag28  1  0.84465017  0.83259905  0.67145760  1
  Ag  Ag29  1  0.15652393  0.83729678  0.67461021  1
  Ag  Ag30  1  0.49472384  0.16750880  0.00081444  1
  Ag  Ag31  1  0.49359082  -0.00061196  0.16628356  1
  Ag  Ag32  1  0.66941969  0.83599573  0.83144003  1
  Ag  Ag33  1  0.84020709  0.33758481  0.16857928  1
  Ag  Ag34  1  -0.00081982  -0.00158146  0.33558640  1
  Ag  Ag35  1  0.84431178  -0.00594497  0.83120472  1
  Ag  Ag36  1  0.00287789  0.33291223  0.67832940  1
  Ag  Ag37  1  0.49925763  0.83344757  0.66983517  1
  Ag  Ag38  1  0.83773916  0.67561860  0.83358426  1
  Ag  Ag39  1  0.00273289  0.83373198  0.51356210  1
  Ag  Ag40  1  0.84447598  0.33186824  0.83523040  1
  Ag  Ag41  1  0.49972802  0.17004834  0.32300591  1
  Ag  Ag42  1  0.17284084  0.16737897  -0.00724023  1
  Ag  Ag43  1  0.65544521  0.66775473  -0.00181011  1
  Ag  Ag44  1  0.65720033  0.33069006  0.33039142  1
  Ag  Ag45  1  0.50180538  0.67185780  0.83872351  1
  Ag  Ag46  1  0.83428401  0.49760391  0.32997268  1
  Ag  Ag47  1  0.32741909  -0.00392314  0.67031736  1
  Ag  Ag48  1  0.00764352  -0.01053216  0.67324369  1
  Ag  Ag49  1  0.33353866  0.83112871  0.50314058  1
  Ag  Ag50  1  0.49351196  0.49685622  0.32455075  1
  Ag  Ag51  1  0.33600128  0.50640002  0.48485366  1
  Ag  Ag52  1  0.16671651  0.34284556  0.16191060  1
  Ag  Ag53  1  0.00191762  0.67777078  0.67366365  1
  Sb  Sb54  1  0.66226439  0.16467634  0.16234641  1
  Sb  Sb55  1  0.49473077  0.16312146  0.67372991  1
  Sb  Sb56  1  0.16826311  0.50310376  0.67466312  1
  Sb  Sb57  1  0.33573489  -0.00094357  0.33581898  1
  Sb  Sb58  1  0.16907011  -0.00303330  0.50505160  1
  Sb  Sb59  1  0.16674294  0.67064423  0.83925734  1
  Sb  Sb60  1  0.83468256  0.50003366  0.00169718  1
  Sb  Sb61  1  0.84088091  0.16072503  0.67367613  1
  Sb  Sb62  1  0.33413789  0.16423022  0.50224980  1
  Sb  Sb63  1  0.66263691  0.33612772  0.00386633  1
  Sb  Sb64  1  0.00173322  0.16145975  0.50458792  1
  Sb  Sb65  1  0.83379895  0.82963621  0.33702661  1
  Sb  Sb66  1  0.66947993  0.50265320  0.83489762  1
  Sb  Sb67  1  0.16798000  0.66894122  0.49487497  1
  Sb  Sb68  1  -0.00077193  0.83053765  0.16474859  1
  Sb  Sb69  1  0.32935001  0.33130645  0.66425342  1
  Sb  Sb70  1  0.49847146  0.67160547  0.49946564  1
  Sb  Sb71  1  0.00400930  0.17182645  0.16237697  1
  Sb  Sb72  1  0.33611132  0.82829926  0.16949953  1
  Sb  Sb73  1  0.67013315  0.33246185  0.66597598  1
  Sb  Sb74  1  0.65941653  0.50601426  0.49603994  1
  Sb  Sb75  1  0.33469158  0.17137892  0.16127056  1
  Sb  Sb76  1  0.66426323  0.66797576  0.32737234  1
  Sb  Sb77  1  0.66752345  0.67140080  0.67266309  1
  Sb  Sb78  1  0.00603501  0.50425921  0.49840334  1
  Sb  Sb79  1  0.33222158  0.83751762  0.82894450  1
  Sb  Sb80  1  0.16966816  0.16705923  0.32883444  1
  Sb  Sb81  1  0.16673932  0.33475977  0.49811957  1
  Sb  Sb82  1  0.00456461  0.33422963  -0.00238661  1
  Sb  Sb83  1  0.83287390  0.50335342  0.66673621  1
  Sb  Sb84  1  0.83344958  0.66255196  0.16249850  1
  Sb  Sb85  1  0.33067299  0.49735661  0.83761570  1
  Sb  Sb86  1  0.83027126  0.17046159  0.33173057  1
  Sb  Sb87  1  0.49794330  0.33231301  0.83864896  1
  Sb  Sb88  1  0.00385017  0.66506316  -0.00191706  1
  Sb  Sb89  1  0.83563605  0.83153087  -0.00719910  1
  Sb  Sb90  1  0.33243864  -0.00379262  -0.00434539  1
  Sb  Sb91  1  0.50054043  0.83369075  0.33459050  1
  Sb  Sb92  1  0.00421512  -0.00017944  -0.00531451  1
  Sb  Sb93  1  0.33096383  0.67158347  0.66825248  1
  Sb  Sb94  1  0.49917350  0.33187882  0.49319501  1
  Sb  Sb95  1  0.49569432  0.83047652  -0.00292841  1
  Sb  Sb96  1  0.16578003  0.83446704  0.33160628  1
  Sb  Sb97  1  0.83584545  0.33563988  0.49786476  1
  Sb  Sb98  1  0.83487906  0.66825584  0.50441603  1
  Sb  Sb99  1  0.66193295  0.16070596  0.50113211  1
  Sb  Sb100  1  0.33183583  0.33801958  0.00603324  1
  Sb  Sb101  1  0.83389360  0.16839526  -0.00418645  1
  Sb  Sb102  1  0.66133135  0.50217080  0.16713612  1
  Sb  Sb103  1  0.16976861  0.49949326  0.32537299  1
  Sb  Sb104  1  0.66576805  -0.00291545  0.66826799  1
  Sb  Sb105  1  0.83160563  -0.00394789  0.50482028  1
  Sb  Sb106  1  0.83444334  0.00231751  0.16378189  1
  Sb  Sb107  1  0.66214161  -0.00428858  -0.00039005  1
  Te  Te108  1  0.16786344  0.16010071  0.16037034  1
  Te  Te109  1  0.16759911  0.16685553  0.50774471  1
  Te  Te110  1  0.16595094  0.16431590  0.83496107  1
  Te  Te111  1  0.16835877  0.49954477  0.16340948  1
  Te  Te112  1  0.17599786  0.50089825  0.50418248  1
  Te  Te113  1  0.16269628  0.50234763  0.84069051  1
  Te  Te114  1  0.16623121  0.83856145  0.16308604  1
  Te  Te115  1  0.16637231  0.83350247  0.50535796  1
  Te  Te116  1  0.16674065  0.83512472  0.83355578  1
  Te  Te117  1  0.49925048  0.16071355  0.16415969  1
  Te  Te118  1  0.49913441  0.15821101  0.49800536  1
  Te  Te119  1  0.50435691  0.16627921  0.83699678  1
  Te  Te120  1  0.49892900  0.50110258  0.16565845  1
  Te  Te121  1  0.49512062  0.50107366  0.49933593  1
  Te  Te122  1  0.49998001  0.50001236  0.83652526  1
  Te  Te123  1  0.50319474  0.83813259  0.16595318  1
  Te  Te124  1  0.49975528  0.83623578  0.50115777  1
  Te  Te125  1  0.49817852  0.83398975  0.83274543  1
  Te  Te126  1  0.83375463  0.17628854  0.16398345  1
  Te  Te127  1  0.83176978  0.16642323  0.50183345  1
  Te  Te128  1  0.82855775  0.16914709  0.83437503  1
  Te  Te129  1  0.83687868  0.49614221  0.16897678  1
  Te  Te130  1  0.83273196  0.50116809  0.49303943  1
  Te  Te131  1  0.83824861  0.49551716  0.83354460  1
  Te  Te132  1  0.82630411  0.83358650  0.16510322  1
  Te  Te133  1  0.83653542  0.83293746  0.50782041  1
  Te  Te134  1  0.83266663  0.83406852  0.83162519  1
  Te  Te135  1  0.16766233  0.00047077  -0.00226323  1
  Te  Te136  1  0.16350968  0.00186394  0.32978706  1
  Te  Te137  1  0.16692998  -0.00358242  0.66791657  1
  Te  Te138  1  0.16907422  0.33289281  0.00060197  1
  Te  Te139  1  0.16140143  0.33048087  0.32829969  1
  Te  Te140  1  0.16355013  0.33528923  0.66976003  1
  Te  Te141  1  0.16922918  0.66402634  0.00468522  1
  Te  Te142  1  0.16611024  0.66809968  0.32664038  1
  Te  Te143  1  0.16224667  0.67191257  0.66723408  1
  Te  Te144  1  0.49846656  0.00313234  0.00032057  1
  Te  Te145  1  0.50011192  0.00037066  0.32798651  1
  Te  Te146  1  0.49936892  -0.00053134  0.66930364  1
  Te  Te147  1  0.49845538  0.33003936  0.00744172  1
  Te  Te148  1  0.49946453  0.33345401  0.33077980  1
  Te  Te149  1  0.50010684  0.33599281  0.66502458  1
  Te  Te150  1  0.49681552  0.66832834  0.00095350  1
  Te  Te151  1  0.49816070  0.66261454  0.32891547  1
  Te  Te152  1  0.49930160  0.66623204  0.66951969  1
  Te  Te153  1  0.83235474  0.00031232  -0.00791554  1
  Te  Te154  1  0.83445776  0.00072816  0.33275607  1
  Te  Te155  1  0.83821500  -0.00550241  0.67233071  1
  Te  Te156  1  0.83034915  0.33474776  0.00003137  1
  Te  Te157  1  0.83945291  0.33572264  0.33093726  1
  Te  Te158  1  0.83856941  0.33421022  0.67043481  1
  Te  Te159  1  0.82819368  0.66524091  -0.00707699  1
  Te  Te160  1  0.83627629  0.66160733  0.33215775  1
  Te  Te161  1  0.83843924  0.66947375  0.67320147  1
  Te  Te162  1  0.00498928  0.16590546  -0.00835948  1
  Te  Te163  1  0.00003029  0.16251755  0.33467953  1
  Te  Te164  1  0.00454614  0.17162723  0.67018719  1
  Te  Te165  1  0.00262810  0.50081052  0.00171172  1
  Te  Te166  1  0.00116750  0.50180230  0.33406147  1
  Te  Te167  1  0.00008489  0.49514867  0.66727848  1
  Te  Te168  1  0.00643905  0.83257179  -0.00447101  1
  Te  Te169  1  -0.00129006  0.83323174  0.33257305  1
  Te  Te170  1  0.00083507  0.83384199  0.66956325  1
  Te  Te171  1  0.33374642  0.16509112  -0.00485765  1
  Te  Te172  1  0.33860998  0.16867630  0.33399185  1
  Te  Te173  1  0.32788712  0.16319962  0.66993638  1
  Te  Te174  1  0.33374273  0.50361019  0.00364541  1
  Te  Te175  1  0.33387327  0.50095164  0.32875346  1
  Te  Te176  1  0.33734468  0.50038710  0.66874222  1
  Te  Te177  1  0.32616796  0.82650898  0.00166091  1
  Te  Te178  1  0.33291224  0.82942526  0.34136635  1
  Te  Te179  1  0.34065233  0.83517088  0.66301025  1
  Te  Te180  1  0.66257344  0.16668399  -0.00526961  1
  Te  Te181  1  0.66231989  0.16508544  0.33324132  1
  Te  Te182  1  0.66704796  0.16666315  0.67280408  1
  Te  Te183  1  0.65837343  0.50542801  0.00023723  1
  Te  Te184  1  0.66682266  0.49676646  0.33362888  1
  Te  Te185  1  0.65888291  0.50044432  0.66416837  1
  Te  Te186  1  0.66698632  0.82947293  -0.00351425  1
  Te  Te187  1  0.66791944  0.83689277  0.33563544  1
  Te  Te188  1  0.65830932  0.83418917  0.66914648  1
  Te  Te189  1  -0.00026563  0.00029505  0.17083262  1
  Te  Te190  1  -0.00028947  -0.00509760  0.49790415  1
  Te  Te191  1  0.00225890  -0.00074534  0.83205073  1
  Te  Te192  1  0.00319106  0.33589042  0.16842366  1
  Te  Te193  1  0.00100201  0.33376357  0.49293895  1
  Te  Te194  1  0.00202698  0.33503154  0.83562346  1
  Te  Te195  1  0.00088026  0.66251878  0.16935872  1
  Te  Te196  1  0.00098268  0.67195578  0.49704553  1
  Te  Te197  1  -0.00016457  0.66722093  0.83281816  1
  Te  Te198  1  0.33278830  -0.00083354  0.16753515  1
  Te  Te199  1  0.33828482  -0.00366952  0.50412438  1
  Te  Te200  1  0.33529197  0.00283450  0.83008298  1
  Te  Te201  1  0.33307408  0.33615432  0.17150690  1
  Te  Te202  1  0.33255115  0.33689562  0.49270947  1
  Te  Te203  1  0.32863072  0.32743195  0.83193550  1
  Te  Te204  1  0.33335051  0.66644920  0.16754142  1
  Te  Te205  1  0.33361496  0.66727644  0.49706097  1
  Te  Te206  1  0.33879278  0.66574997  0.83624320  1
  Te  Te207  1  0.66859324  -0.00324811  0.16980057  1
  Te  Te208  1  0.66272212  -0.00502852  0.49573461  1
  Te  Te209  1  0.65998380  -0.00402652  0.83406509  1
  Te  Te210  1  0.66214057  0.33312233  0.17122476  1
  Te  Te211  1  0.66775691  0.33284005  0.49211819  1
  Te  Te212  1  0.66835510  0.33368976  0.83299741  1
  Te  Te213  1  0.66493764  0.67175507  0.16238578  1
  Te  Te214  1  0.66722563  0.67625321  0.49947479  1
  Te  Te215  1  0.66302497  0.66934026  0.83613899  1
