# generated using pymatgen
data_AgSbTe2
_symmetry_space_group_name_H-M   'P 1'
_cell_length_a   18.32032918
_cell_length_b   18.32140278
_cell_length_c   18.32367848
_cell_angle_alpha   89.99713873
_cell_angle_beta   89.99922798
_cell_angle_gamma   90.00989800
_symmetry_Int_Tables_number   1
_chemical_formula_structural   AgSbTe2
_chemical_formula_sum   'Ag54 Sb54 Te108'
_cell_volume   6150.41825924
_cell_formula_units_Z   54
loop_
 _symmetry_equiv_pos_site_id
 _symmetry_equiv_pos_as_xyz
  1  'x, y, z'
loop_
 _atom_site_type_symbol
 _atom_site_label
 _atom_site_symmetry_multiplicity
 _atom_site_fract_x
 _atom_site_fract_y
 _atom_site_fract_z
 _atom_site_occupancy
  Ag  Ag0  1  0.67074851  0.17152837  0.84241150  1
  Ag  Ag1  1  0.83021814  0.67021965  0.49659409  1
  Ag  Ag2  1  0.50713127  0.83449200  0.33520588  1
  Ag  Ag3  1  0.50543961  0.66833924  0.49813449  1
  Ag  Ag4  1  0.67252704  0.16575020  0.16036022  1
  Ag  Ag5  1  0.67019780  0.49001542  0.83754996  1
  Ag  Ag6  1  0.83408637  0.83255560  0.33318448  1
  Ag  Ag7  1  0.32411955  0.00092016  -0.00053033  1
  Ag  Ag8  1  0.84167570  0.00543938  0.83457947  1
  Ag  Ag9  1  0.67019402  0.49900055  0.16606371  1
  Ag  Ag10  1  0.16402130  0.32232180  0.83401351  1
  Ag  Ag11  1  0.66896663  0.17121561  0.49791183  1
  Ag  Ag12  1  0.50893306  0.16428256  -0.00235021  1
  Ag  Ag13  1  -0.00557824  0.83899423  0.16188359  1
  Ag  Ag14  1  0.83310425  0.66837291  0.83772025  1
  Ag  Ag15  1  0.50430963  0.49692332  0.66359674  1
  Ag  Ag16  1  0.32883572  0.67059299  0.00340762  1
  Ag  Ag17  1  -0.00278367  0.83962388  0.49745378  1
  Ag  Ag18  1  0.33980745  0.50389322  0.16577186  1
  Ag  Ag19  1  0.33371219  0.66803220  0.33225766  1
  Ag  Ag20  1  0.83146210  0.50325277  0.00700055  1
  Ag  Ag21  1  0.66968239  0.66552107  0.66382085  1
  Ag  Ag22  1  -0.01243580  0.50539363  0.16470738  1
  Ag  Ag23  1  0.50572895  -0.00017051  0.16772071  1
  Ag  Ag24  1  0.16514181  0.16098443  -0.00876243  1
  Ag  Ag25  1  0.66781641  0.32580187  -0.00322147  1
  Ag  Ag26  1  0.16302328  0.16606628  0.67846371  1
  Ag  Ag27  1  -0.00144562  0.00201161  0.33071859  1
  Ag  Ag28  1  0.83488195  0.16458191  0.33261986  1
  Ag  Ag29  1  -0.00039491  0.67616734  0.00285331  1
  Ag  Ag30  1  -0.00596997  0.15791683  0.16557729  1
  Ag  Ag31  1  0.00549453  0.15755311  0.83725501  1
  Ag  Ag32  1  0.15331840  0.01042291  0.83728252  1
  Ag  Ag33  1  0.16191544  0.66931931  0.49951314  1
  Ag  Ag34  1  0.82422896  0.32436499  0.83460483  1
  Ag  Ag35  1  -0.00336275  0.84543131  0.84338637  1
  Ag  Ag36  1  0.16162005  0.84162126  -0.00076172  1
  Ag  Ag37  1  -0.00081645  0.00007241  0.68064187  1
  Ag  Ag38  1  0.66552659  0.49781011  0.50053528  1
  Ag  Ag39  1  0.50235549  -0.00026807  0.49564551  1
  Ag  Ag40  1  0.33672118  0.33136725  0.67021481  1
  Ag  Ag41  1  -0.00403674  0.15825087  0.49450188  1
  Ag  Ag42  1  0.66831628  0.33118121  0.32949743  1
  Ag  Ag43  1  0.15477509  0.16585661  0.33319047  1
  Ag  Ag44  1  0.50471872  0.33222374  0.50524295  1
  Ag  Ag45  1  0.33079502  0.83042113  0.49835585  1
  Ag  Ag46  1  0.83542399  0.83153485  0.66335136  1
  Ag  Ag47  1  0.83450745  0.66386192  0.16760530  1
  Ag  Ag48  1  0.31956148  0.16807231  0.83674441  1
  Ag  Ag49  1  0.67515787  0.83356447  0.16679756  1
  Ag  Ag50  1  0.66831147  0.00794600  0.00141122  1
  Ag  Ag51  1  0.00044453  -0.00280027  -0.00553061  1
  Ag  Ag52  1  0.83048611  0.50336267  0.32463664  1
  Ag  Ag53  1  0.50583988  0.32950052  0.83001761  1
  Sb  Sb54  1  0.67607136  0.83585735  0.83995221  1
  Sb  Sb55  1  0.83237553  -0.00351450  0.16146570  1
  Sb  Sb56  1  0.32978298  0.00338971  0.67064540  1
  Sb  Sb57  1  0.16105735  0.49741225  0.33231299  1
  Sb  Sb58  1  0.33083317  -0.00322544  0.32924337  1
  Sb  Sb59  1  0.17080281  0.33259819  0.50385351  1
  Sb  Sb60  1  0.67090880  -0.00239475  0.66993648  1
  Sb  Sb61  1  0.33736684  0.66394007  0.66553006  1
  Sb  Sb62  1  0.50158111  0.00670107  0.83628951  1
  Sb  Sb63  1  0.50647449  0.66221830  0.83066162  1
  Sb  Sb64  1  0.83067566  0.33646194  0.16206276  1
  Sb  Sb65  1  0.33383536  0.16764004  0.16074475  1
  Sb  Sb66  1  0.33754241  0.33053577  -0.00465933  1
  Sb  Sb67  1  0.50478992  0.67039924  0.16983536  1
  Sb  Sb68  1  -0.00839437  0.32580019  0.33226874  1
  Sb  Sb69  1  0.16594155  0.32994838  0.16130501  1
  Sb  Sb70  1  0.33391846  0.16283710  0.50270375  1
  Sb  Sb71  1  0.82673919  0.50571351  0.66787762  1
  Sb  Sb72  1  0.67022889  0.66744664  -0.00094127  1
  Sb  Sb73  1  0.67154376  0.00339570  0.32861260  1
  Sb  Sb74  1  0.15881075  0.83816604  0.66885299  1
  Sb  Sb75  1  0.33258448  0.83055947  0.16895705  1
  Sb  Sb76  1  0.33877440  0.33715140  0.33710921  1
  Sb  Sb77  1  0.49675066  0.84032605  0.00443213  1
  Sb  Sb78  1  0.49880693  0.17022332  0.67064474  1
  Sb  Sb79  1  0.16272332  0.49790188  -0.00001761  1
  Sb  Sb80  1  0.32788092  0.83761805  0.83228183  1
  Sb  Sb81  1  0.50602981  0.49603302  -0.00215661  1
  Sb  Sb82  1  -0.00693025  0.67389809  0.66932114  1
  Sb  Sb83  1  -0.00146301  0.67267497  0.32944679  1
  Sb  Sb84  1  0.82758999  0.33471931  0.50358855  1
  Sb  Sb85  1  0.66329287  0.33706695  0.67046177  1
  Sb  Sb86  1  0.16405546  0.00056373  0.15905813  1
  Sb  Sb87  1  0.50477054  0.16245456  0.33100969  1
  Sb  Sb88  1  0.00289042  0.32467415  0.66909047  1
  Sb  Sb89  1  0.83318592  0.16728328  0.00081403  1
  Sb  Sb90  1  0.66983962  0.83314548  0.49372828  1
  Sb  Sb91  1  0.33924878  0.49456996  0.83748168  1
  Sb  Sb92  1  0.50475617  0.32931239  0.16576377  1
  Sb  Sb93  1  0.50590071  0.82960134  0.65946653  1
  Sb  Sb94  1  0.50754945  0.50409126  0.33618048  1
  Sb  Sb95  1  0.34089675  0.50617908  0.49600713  1
  Sb  Sb96  1  0.16033594  0.66778286  0.83216994  1
  Sb  Sb97  1  0.16185378  0.83683281  0.33172600  1
  Sb  Sb98  1  0.16470012  -0.00173833  0.50355395  1
  Sb  Sb99  1  0.17170898  0.49565685  0.66705273  1
  Sb  Sb100  1  0.83661755  0.16242485  0.66764690  1
  Sb  Sb101  1  -0.00969664  0.49810266  0.83839502  1
  Sb  Sb102  1  0.66845080  0.66328050  0.33620770  1
  Sb  Sb103  1  -0.00558985  0.32885554  -0.00130944  1
  Sb  Sb104  1  -0.00951650  0.50309352  0.49452768  1
  Sb  Sb105  1  0.83371263  -0.00277486  0.50155953  1
  Sb  Sb106  1  0.16122526  0.66741871  0.16827404  1
  Sb  Sb107  1  0.84038966  0.82916541  0.00253342  1
  Te  Te108  1  0.16236826  0.16670077  0.17025180  1
  Te  Te109  1  0.16388363  0.16684462  0.49578421  1
  Te  Te110  1  0.16361248  0.16621607  0.83478618  1
  Te  Te111  1  0.16478407  0.49870137  0.16691375  1
  Te  Te112  1  0.16545584  0.50565192  0.49926995  1
  Te  Te113  1  0.16679131  0.49563237  0.83288600  1
  Te  Te114  1  0.15994982  0.83319078  0.16161970  1
  Te  Te115  1  0.16386686  0.83041268  0.50016805  1
  Te  Te116  1  0.15995166  0.83499917  0.83680943  1
  Te  Te117  1  0.50263292  0.16198745  0.16236371  1
  Te  Te118  1  0.50144529  0.16593909  0.49988624  1
  Te  Te119  1  0.51081145  0.16974592  0.83655601  1
  Te  Te120  1  0.50499146  0.50058444  0.16692904  1
  Te  Te121  1  0.50520229  0.50120949  0.50169614  1
  Te  Te122  1  0.50713811  0.49476671  0.82976200  1
  Te  Te123  1  0.50144415  0.83798794  0.17212327  1
  Te  Te124  1  0.50254677  0.83134171  0.49601011  1
  Te  Te125  1  0.49930571  0.83306936  0.83086048  1
  Te  Te126  1  0.83319582  0.16797636  0.17043049  1
  Te  Te127  1  0.83393312  0.16622166  0.49822163  1
  Te  Te128  1  0.83081775  0.16594748  0.83363076  1
  Te  Te129  1  0.83086199  0.50004714  0.16799808  1
  Te  Te130  1  0.82658667  0.50463974  0.49704323  1
  Te  Te131  1  0.82811600  0.50541164  0.83394874  1
  Te  Te132  1  0.83464841  0.83078595  0.16989574  1
  Te  Te133  1  0.83546829  0.83146998  0.49628851  1
  Te  Te134  1  0.83787663  0.82937646  0.83302239  1
  Te  Te135  1  0.16467911  0.00133105  -0.00181533  1
  Te  Te136  1  0.16282147  0.00513580  0.33323998  1
  Te  Te137  1  0.16210018  0.00491337  0.67217568  1
  Te  Te138  1  0.16730698  0.32823910  -0.00637213  1
  Te  Te139  1  0.16883433  0.32778257  0.33440863  1
  Te  Te140  1  0.17281410  0.32848033  0.67117841  1
  Te  Te141  1  0.16536196  0.66621841  -0.00035909  1
  Te  Te142  1  0.17104230  0.66603728  0.33894540  1
  Te  Te143  1  0.16771519  0.66619019  0.66053592  1
  Te  Te144  1  0.50511254  0.00392916  0.00272852  1
  Te  Te145  1  0.49868965  -0.00487199  0.33367070  1
  Te  Te146  1  0.49944986  -0.00141866  0.65914011  1
  Te  Te147  1  0.50527738  0.32811901  -0.00326965  1
  Te  Te148  1  0.50648835  0.33259647  0.33912730  1
  Te  Te149  1  0.49773473  0.33524952  0.66636478  1
  Te  Te150  1  0.49311834  0.66849486  0.00014711  1
  Te  Te151  1  0.49624476  0.67132138  0.33670060  1
  Te  Te152  1  0.50505729  0.66167795  0.66229899  1
  Te  Te153  1  0.83408141  -0.00128842  -0.00555320  1
  Te  Te154  1  0.83763281  0.00008751  0.33403235  1
  Te  Te155  1  0.83781056  -0.00636886  0.67191102  1
  Te  Te156  1  0.82834029  0.34125475  -0.00687195  1
  Te  Te157  1  0.82607503  0.33121844  0.33659421  1
  Te  Te158  1  0.83520970  0.33498746  0.67526447  1
  Te  Te159  1  0.83551036  0.66329617  0.00095347  1
  Te  Te160  1  0.83437592  0.66822947  0.33232711  1
  Te  Te161  1  0.82996928  0.67130179  0.66409214  1
  Te  Te162  1  -0.00014103  0.16360991  0.00138312  1
  Te  Te163  1  -0.00456260  0.16528424  0.33217727  1
  Te  Te164  1  0.00254304  0.16095792  0.66795654  1
  Te  Te165  1  -0.00454937  0.50099194  0.00516499  1
  Te  Te166  1  -0.00706307  0.49818403  0.32698606  1
  Te  Te167  1  0.00150290  0.49976604  0.66472551  1
  Te  Te168  1  0.00100424  0.83459366  0.00101110  1
  Te  Te169  1  -0.00265804  0.83721958  0.33450498  1
  Te  Te170  1  -0.00468544  0.83885851  0.66094541  1
  Te  Te171  1  0.32998375  0.16375029  -0.00282980  1
  Te  Te172  1  0.33028580  0.16740348  0.33165110  1
  Te  Te173  1  0.32906799  0.16929806  0.67151295  1
  Te  Te174  1  0.33376863  0.50271227  0.00525580  1
  Te  Te175  1  0.33233511  0.50501917  0.32806271  1
  Te  Te176  1  0.34033091  0.49516547  0.66746096  1
  Te  Te177  1  0.32780920  0.83434210  0.00035588  1
  Te  Te178  1  0.33130764  0.82895808  0.33668853  1
  Te  Te179  1  0.33263941  0.83360960  0.66006254  1
  Te  Te180  1  0.66980950  0.16678881  0.00209386  1
  Te  Te181  1  0.66922883  0.16935502  0.33560813  1
  Te  Te182  1  0.66760976  0.16494125  0.65981596  1
  Te  Te183  1  0.66968729  0.50120349  0.00062562  1
  Te  Te184  1  0.67090921  0.49695418  0.33172259  1
  Te  Te185  1  0.66373539  0.50344231  0.66394233  1
  Te  Te186  1  0.66471768  0.83655557  0.00771811  1
  Te  Te187  1  0.66870447  0.83495912  0.32702106  1
  Te  Te188  1  0.67352677  0.82895849  0.66939449  1
  Te  Te189  1  -0.00117599  -0.00037892  0.16781184  1
  Te  Te190  1  0.00003831  0.00058655  0.49356143  1
  Te  Te191  1  -0.00189565  0.00087585  0.83550439  1
  Te  Te192  1  -0.00050374  0.33286364  0.16604239  1
  Te  Te193  1  0.00075272  0.32833949  0.50074729  1
  Te  Te194  1  0.00186717  0.33033877  0.83351508  1
  Te  Te195  1  -0.00422021  0.66726709  0.16362222  1
  Te  Te196  1  -0.00358648  0.66917232  0.50008779  1
  Te  Te197  1  -0.00531516  0.66621366  0.83783360  1
  Te  Te198  1  0.34043719  -0.00121624  0.16062431  1
  Te  Te199  1  0.33675496  -0.00604074  0.49901090  1
  Te  Te200  1  0.33361908  0.00529513  0.83841059  1
  Te  Te201  1  0.33522277  0.34138811  0.16749342  1
  Te  Te202  1  0.33968846  0.33449627  0.50505380  1
  Te  Te203  1  0.33770902  0.32964542  0.83127815  1
  Te  Te204  1  0.33350951  0.66463699  0.16612500  1
  Te  Te205  1  0.33867875  0.66999219  0.49993117  1
  Te  Te206  1  0.33264670  0.66635306  0.83848365  1
  Te  Te207  1  0.66656040  0.00354523  0.16386888  1
  Te  Te208  1  0.66326263  0.00400716  0.50053992  1
  Te  Te209  1  0.66882810  0.00415190  0.83786980  1
  Te  Te210  1  0.66611485  0.33157627  0.16546927  1
  Te  Te211  1  0.66430768  0.33300546  0.50210236  1
  Te  Te212  1  0.66673634  0.33312015  0.83411662  1
  Te  Te213  1  0.67214598  0.66597145  0.16709015  1
  Te  Te214  1  0.66787945  0.66656160  0.50103445  1
  Te  Te215  1  0.67187730  0.66616096  0.83058392  1
