# generated using pymatgen
data_AgSbTe2
_symmetry_space_group_name_H-M   'P 1'
_cell_length_a   18.30295157
_cell_length_b   18.30136320
_cell_length_c   18.30022713
_cell_angle_alpha   89.99909556
_cell_angle_beta   89.99813095
_cell_angle_gamma   90.00227029
_symmetry_Int_Tables_number   1
_chemical_formula_structural   AgSbTe2
_chemical_formula_sum   'Ag54 Sb54 Te108'
_cell_volume   6130.00811942
_cell_formula_units_Z   54
loop_
 _symmetry_equiv_pos_site_id
 _symmetry_equiv_pos_as_xyz
  1  'x, y, z'
loop_
 _atom_site_type_symbol
 _atom_site_label
 _atom_site_symmetry_multiplicity
 _atom_site_fract_x
 _atom_site_fract_y
 _atom_site_fract_z
 _atom_site_occupancy
  Ag  Ag0  1  0.65752291  0.49145344  0.17163032  1
  Ag  Ag1  1  0.00533022  -0.00042330  0.34048342  1
  Ag  Ag2  1  0.00941007  0.50002452  0.83049028  1
  Ag  Ag3  1  0.00500651  -0.00140821  0.66538050  1
  Ag  Ag4  1  0.16542650  0.83417390  0.34095227  1
  Ag  Ag5  1  0.16948573  0.49236433  0.33881880  1
  Ag  Ag6  1  0.16811639  0.17657392  0.33296700  1
  Ag  Ag7  1  0.00455920  0.33015470  0.33663603  1
  Ag  Ag8  1  0.00291664  0.33121878  0.66695237  1
  Ag  Ag9  1  0.49278144  0.50119338  0.66656122  1
  Ag  Ag10  1  0.50027886  0.66095894  0.16780152  1
  Ag  Ag11  1  0.83519851  0.66816123  0.83357055  1
  Ag  Ag12  1  0.33138056  0.66632311  -0.00306697  1
  Ag  Ag13  1  0.16668563  0.83258134  -0.00724106  1
  Ag  Ag14  1  0.17420345  0.33519370  0.17104302  1
  Ag  Ag15  1  0.50058291  0.16429679  0.66947806  1
  Ag  Ag16  1  0.00510027  0.83288107  0.50275393  1
  Ag  Ag17  1  0.83508981  0.33930702  0.49174571  1
  Ag  Ag18  1  0.65529742  0.00085842  0.67217551  1
  Ag  Ag19  1  0.49815835  -0.00039708  0.82824811  1
  Ag  Ag20  1  0.49661359  0.66525731  0.50166760  1
  Ag  Ag21  1  0.49296022  0.83535936  0.66855512  1
  Ag  Ag22  1  0.33128038  0.83104199  0.83400408  1
  Ag  Ag23  1  -0.00200524  0.16605946  0.83178385  1
  Ag  Ag24  1  0.49941577  0.33836420  0.16863260  1
  Ag  Ag25  1  0.33249180  0.50097622  0.83192410  1
  Ag  Ag26  1  0.00399831  0.67118913  -0.00538741  1
  Ag  Ag27  1  0.33232532  0.33798592  0.00297179  1
  Ag  Ag28  1  0.83490235  0.83266446  0.33093381  1
  Ag  Ag29  1  0.33771202  0.49577688  0.16587295  1
  Ag  Ag30  1  0.83092817  0.16346109  -0.00116119  1
  Ag  Ag31  1  0.49674215  0.66797303  0.83055299  1
  Ag  Ag32  1  0.66519538  0.17238829  0.16384717  1
  Ag  Ag33  1  0.16575139  -0.00939329  0.50177891  1
  Ag  Ag34  1  0.49789764  0.16910917  0.33480946  1
  Ag  Ag35  1  0.33702695  -0.00429547  -0.00768233  1
  Ag  Ag36  1  0.83683737  0.83421423  0.00089774  1
  Ag  Ag37  1  0.33651363  -0.00389122  0.67215923  1
  Ag  Ag38  1  0.66472895  0.33322847  0.32858425  1
  Ag  Ag39  1  0.16772947  0.83412144  0.66556487  1
  Ag  Ag40  1  0.49826662  0.83465571  0.33647954  1
  Ag  Ag41  1  0.33043113  0.33675828  0.32653609  1
  Ag  Ag42  1  0.66474135  0.83389978  0.16720620  1
  Ag  Ag43  1  0.83544162  0.66466158  0.50231205  1
  Ag  Ag44  1  0.49352337  0.33289471  0.83379754  1
  Ag  Ag45  1  0.00713753  0.83183587  0.82970925  1
  Ag  Ag46  1  0.66330721  0.00109281  -0.00418221  1
  Ag  Ag47  1  0.16719027  0.66989330  0.49894409  1
  Ag  Ag48  1  0.17272486  0.50160746  0.66449864  1
  Ag  Ag49  1  0.17175347  0.33663689  0.83495169  1
  Ag  Ag50  1  0.82455967  0.33417037  0.17116928  1
  Ag  Ag51  1  0.66570306  0.16528464  0.83814326  1
  Ag  Ag52  1  0.66119982  0.50044397  0.49724082  1
  Ag  Ag53  1  0.33346483  0.50180891  0.50306024  1
  Sb  Sb54  1  0.16392791  0.33701424  0.49776605  1
  Sb  Sb55  1  0.83405261  0.49954654  0.66612207  1
  Sb  Sb56  1  0.66384233  0.83763036  0.83560147  1
  Sb  Sb57  1  0.17016593  0.50363685  -0.00354936  1
  Sb  Sb58  1  0.17088821  -0.00041988  0.82883549  1
  Sb  Sb59  1  0.33331931  0.17148517  0.49949955  1
  Sb  Sb60  1  0.66783848  0.82930758  0.49725564  1
  Sb  Sb61  1  0.33087753  0.33462619  0.66824339  1
  Sb  Sb62  1  0.66199991  0.67037000  0.66641234  1
  Sb  Sb63  1  0.66495653  0.17048535  0.49911195  1
  Sb  Sb64  1  0.50422798  0.16679635  -0.00206641  1
  Sb  Sb65  1  0.83381176  0.16789227  0.32951350  1
  Sb  Sb66  1  0.49649080  0.49995756  -0.00158114  1
  Sb  Sb67  1  0.83634858  0.49980917  0.33504297  1
  Sb  Sb68  1  0.33931083  0.17511113  0.16721287  1
  Sb  Sb69  1  0.83792517  -0.00252736  0.49934295  1
  Sb  Sb70  1  0.82804624  0.66437505  0.16608788  1
  Sb  Sb71  1  0.49772326  0.83329709  -0.00296931  1
  Sb  Sb72  1  0.83474450  0.33553873  0.83498283  1
  Sb  Sb73  1  0.83438835  0.50126223  -0.00034661  1
  Sb  Sb74  1  0.00076445  -0.00487386  -0.00353750  1
  Sb  Sb75  1  0.49467467  0.49772160  0.33528713  1
  Sb  Sb76  1  0.00429168  0.33569061  -0.00217999  1
  Sb  Sb77  1  0.16446321  0.16419773  0.00191426  1
  Sb  Sb78  1  0.50183114  0.33970287  0.49854679  1
  Sb  Sb79  1  0.33443011  0.66956376  0.67313902  1
  Sb  Sb80  1  0.16840310  0.00186793  0.17073661  1
  Sb  Sb81  1  -0.00364176  0.17002720  0.16464207  1
  Sb  Sb82  1  0.33662829  0.82768979  0.16190403  1
  Sb  Sb83  1  0.66426443  0.66231782  0.33333590  1
  Sb  Sb84  1  0.17228553  0.66272454  0.16924532  1
  Sb  Sb85  1  0.32948470  0.00216356  0.33545335  1
  Sb  Sb86  1  0.66430421  0.67200858  0.00034057  1
  Sb  Sb87  1  0.49487019  -0.00577766  0.50703527  1
  Sb  Sb88  1  0.16912995  0.66522171  0.82982227  1
  Sb  Sb89  1  0.66663882  0.33042223  0.66427885  1
  Sb  Sb90  1  0.33404029  0.66232176  0.33105353  1
  Sb  Sb91  1  0.66052486  0.49695095  0.83302722  1
  Sb  Sb92  1  -0.00170476  0.83281434  0.16707865  1
  Sb  Sb93  1  0.33546305  0.16794473  0.83302178  1
  Sb  Sb94  1  0.00161463  0.66749109  0.33289414  1
  Sb  Sb95  1  0.66789567  0.00195327  0.33280562  1
  Sb  Sb96  1  0.83191652  0.00195595  0.16569890  1
  Sb  Sb97  1  0.83042894  0.16665379  0.67082826  1
  Sb  Sb98  1  0.00176802  0.16388376  0.50292045  1
  Sb  Sb99  1  0.00254949  0.66834323  0.67096373  1
  Sb  Sb100  1  0.83617972  0.83285744  0.66787511  1
  Sb  Sb101  1  0.66209800  0.32836271  0.00637736  1
  Sb  Sb102  1  0.16901127  0.16539107  0.66438958  1
  Sb  Sb103  1  0.83010813  -0.00407791  0.83390209  1
  Sb  Sb104  1  0.50013942  0.00068965  0.16406570  1
  Sb  Sb105  1  0.00338465  0.49765231  0.16463177  1
  Sb  Sb106  1  0.32773296  0.82687936  0.50526678  1
  Sb  Sb107  1  0.00426084  0.50342973  0.50522292  1
  Te  Te108  1  0.16606885  0.17231720  0.17153040  1
  Te  Te109  1  0.16717344  0.16133546  0.49311284  1
  Te  Te110  1  0.16162204  0.17324949  0.83331787  1
  Te  Te111  1  0.17128086  0.49543741  0.17022565  1
  Te  Te112  1  0.16947066  0.50353284  0.50249373  1
  Te  Te113  1  0.16932656  0.49786273  0.83050367  1
  Te  Te114  1  0.16714137  0.83249375  0.16873259  1
  Te  Te115  1  0.16644016  0.83067406  0.50257762  1
  Te  Te116  1  0.16796760  0.83275963  0.83092127  1
  Te  Te117  1  0.50587889  0.17015601  0.17009325  1
  Te  Te118  1  0.50001605  0.16599565  0.49914482  1
  Te  Te119  1  0.50163153  0.16776179  0.83133286  1
  Te  Te120  1  0.49855279  0.49908209  0.16942787  1
  Te  Te121  1  0.49884510  0.50458801  0.50183932  1
  Te  Te122  1  0.49735319  0.50016576  0.82917446  1
  Te  Te123  1  0.50319752  0.83237284  0.16928888  1
  Te  Te124  1  0.49940666  0.82673325  0.50042301  1
  Te  Te125  1  0.49721234  0.83148435  0.83000309  1
  Te  Te126  1  0.82786012  0.17200033  0.16181331  1
  Te  Te127  1  0.83288966  0.17377497  0.49949283  1
  Te  Te128  1  0.83260897  0.16723477  0.83833313  1
  Te  Te129  1  0.83019743  0.49419513  0.16748341  1
  Te  Te130  1  0.83061920  0.50250976  0.50030406  1
  Te  Te131  1  0.83298649  0.50722002  0.83268017  1
  Te  Te132  1  0.82923624  0.83220059  0.16659505  1
  Te  Te133  1  0.83741877  0.82944778  0.49777886  1
  Te  Te134  1  0.83496168  0.82814433  0.83607566  1
  Te  Te135  1  0.17038732  -0.00596978  0.00072339  1
  Te  Te136  1  0.16476658  -0.00484176  0.33699042  1
  Te  Te137  1  0.16526705  -0.00172003  0.66326416  1
  Te  Te138  1  0.17151778  0.33259114  -0.00063061  1
  Te  Te139  1  0.16631644  0.33314678  0.33440752  1
  Te  Te140  1  0.16304221  0.33412619  0.66881832  1
  Te  Te141  1  0.16822371  0.67262851  0.00183295  1
  Te  Te142  1  0.16736642  0.67091599  0.33715352  1
  Te  Te143  1  0.16746110  0.66715100  0.66024250  1
  Te  Te144  1  0.49941338  0.00022429  -0.00608704  1
  Te  Te145  1  0.49903246  -0.00013667  0.33582046  1
  Te  Te146  1  0.49790623  -0.00188713  0.66811626  1
  Te  Te147  1  0.49391595  0.33251632  -0.00075934  1
  Te  Te148  1  0.50002699  0.33144946  0.33276770  1
  Te  Te149  1  0.49995220  0.33276962  0.66898393  1
  Te  Te150  1  0.49635267  0.66727190  -0.00215383  1
  Te  Te151  1  0.50004592  0.67283186  0.33392289  1
  Te  Te152  1  0.49948137  0.66677756  0.66775736  1
  Te  Te153  1  0.83106560  -0.00250611  0.00026464  1
  Te  Te154  1  0.83871137  -0.00591162  0.33338503  1
  Te  Te155  1  0.83917522  0.00035777  0.66574814  1
  Te  Te156  1  0.83496434  0.33126126  0.00508954  1
  Te  Te157  1  0.83439467  0.33313470  0.33198150  1
  Te  Te158  1  0.83932509  0.33320328  0.66359622  1
  Te  Te159  1  0.83460055  0.67085355  -0.00210325  1
  Te  Te160  1  0.83347468  0.67278491  0.33614506  1
  Te  Te161  1  0.83177477  0.66647141  0.66581594  1
  Te  Te162  1  -0.00530456  0.16461209  -0.00659966  1
  Te  Te163  1  0.00281773  0.16786118  0.33283036  1
  Te  Te164  1  0.00012717  0.16634389  0.67171256  1
  Te  Te165  1  0.00196043  0.50571536  -0.00770808  1
  Te  Te166  1  0.00801094  0.49612384  0.33374794  1
  Te  Te167  1  0.00408308  0.49720048  0.67221245  1
  Te  Te168  1  0.00010855  0.83162432  -0.00177716  1
  Te  Te169  1  0.00229687  0.83361494  0.33440375  1
  Te  Te170  1  0.00262550  0.83515151  0.66814642  1
  Te  Te171  1  0.33161519  0.16464618  0.00027170  1
  Te  Te172  1  0.33407800  0.17069678  0.33328164  1
  Te  Te173  1  0.33956889  0.16067445  0.66545082  1
  Te  Te174  1  0.33202105  0.49883596  -0.00312432  1
  Te  Te175  1  0.32928436  0.49701828  0.33219710  1
  Te  Te176  1  0.33285890  0.49898250  0.66944294  1
  Te  Te177  1  0.33062874  0.83300243  -0.00378074  1
  Te  Te178  1  0.33373170  0.83437047  0.33192469  1
  Te  Te179  1  0.33197581  0.83588216  0.67048668  1
  Te  Te180  1  0.66999039  0.16256857  0.00001106  1
  Te  Te181  1  0.66422489  0.17026803  0.33023893  1
  Te  Te182  1  0.66210440  0.16252400  0.66996483  1
  Te  Te183  1  0.66747911  0.49989099  0.00632969  1
  Te  Te184  1  0.66778154  0.49458720  0.33277177  1
  Te  Te185  1  0.66063046  0.49905368  0.66272962  1
  Te  Te186  1  0.67036513  0.83921877  0.00350218  1
  Te  Te187  1  0.66579160  0.83471630  0.32972667  1
  Te  Te188  1  0.66317023  0.84075778  0.66608792  1
  Te  Te189  1  0.00011719  0.00182062  0.17449994  1
  Te  Te190  1  0.00294258  -0.00367673  0.50115977  1
  Te  Te191  1  0.00001195  -0.00192400  0.82933874  1
  Te  Te192  1  0.00222927  0.33430852  0.16966710  1
  Te  Te193  1  -0.00411646  0.33430570  0.50017067  1
  Te  Te194  1  -0.00031747  0.33532352  0.83148764  1
  Te  Te195  1  -0.00128738  0.66452184  0.15742908  1
  Te  Te196  1  -0.00069566  0.67167113  0.50006511  1
  Te  Te197  1  0.00121998  0.66949814  0.83588742  1
  Te  Te198  1  0.33431202  0.00078137  0.15942914  1
  Te  Te199  1  0.32669070  -0.00023503  0.50448257  1
  Te  Te200  1  0.33676639  -0.00095545  0.83289318  1
  Te  Te201  1  0.33480630  0.33575749  0.16610469  1
  Te  Te202  1  0.33300654  0.34106623  0.49531422  1
  Te  Te203  1  0.33396171  0.33536374  0.83444742  1
  Te  Te204  1  0.33998326  0.65998880  0.16059975  1
  Te  Te205  1  0.33460753  0.66035403  0.49781577  1
  Te  Te206  1  0.33533329  0.66533379  0.83854858  1
  Te  Te207  1  0.66571140  -0.00080055  0.16420108  1
  Te  Te208  1  0.66751628  0.00024752  0.50508554  1
  Te  Te209  1  0.66365347  0.00350896  0.83329335  1
  Te  Te210  1  0.66304014  0.33312310  0.16775337  1
  Te  Te211  1  0.67121259  0.33822062  0.49588356  1
  Te  Te212  1  0.66310238  0.32768190  0.83380051  1
  Te  Te213  1  0.65991182  0.66818787  0.16636871  1
  Te  Te214  1  0.66636458  0.66120858  0.50000982  1
  Te  Te215  1  0.66442080  0.66506652  0.83392616  1
