# generated using pymatgen
data_AgSbTe2
_symmetry_space_group_name_H-M   'P 1'
_cell_length_a   18.31234217
_cell_length_b   18.30965513
_cell_length_c   18.31344377
_cell_angle_alpha   90.00071522
_cell_angle_beta   90.00023837
_cell_angle_gamma   89.99891327
_symmetry_Int_Tables_number   1
_chemical_formula_structural   AgSbTe2
_chemical_formula_sum   'Ag54 Sb54 Te108'
_cell_volume   6140.36345244
_cell_formula_units_Z   54
loop_
 _symmetry_equiv_pos_site_id
 _symmetry_equiv_pos_as_xyz
  1  'x, y, z'
loop_
 _atom_site_type_symbol
 _atom_site_label
 _atom_site_symmetry_multiplicity
 _atom_site_fract_x
 _atom_site_fract_y
 _atom_site_fract_z
 _atom_site_occupancy
  Ag  Ag0  1  0.83423607  0.15962391  0.34091183  1
  Ag  Ag1  1  0.50317530  0.66450649  0.50473397  1
  Ag  Ag2  1  0.15941881  -0.00387703  0.15429666  1
  Ag  Ag3  1  0.49983463  0.33957524  0.16784753  1
  Ag  Ag4  1  0.16027566  -0.00721509  0.83819179  1
  Ag  Ag5  1  0.49712079  0.66675885  0.83249918  1
  Ag  Ag6  1  0.00209664  0.00172477  -0.00218293  1
  Ag  Ag7  1  0.83853629  0.00337052  0.49523866  1
  Ag  Ag8  1  0.67424313  0.16647200  0.50361189  1
  Ag  Ag9  1  -0.00202174  0.16091679  0.15709379  1
  Ag  Ag10  1  0.66748329  0.66448690  -0.00240866  1
  Ag  Ag11  1  -0.00199999  0.15731594  0.83871594  1
  Ag  Ag12  1  0.32989142  0.66255168  0.33005416  1
  Ag  Ag13  1  0.66516820  0.33550775  0.66540483  1
  Ag  Ag14  1  0.49907251  0.50309091  0.00762155  1
  Ag  Ag15  1  0.16682286  0.66961757  0.15661413  1
  Ag  Ag16  1  0.16693270  0.83286093  0.66867169  1
  Ag  Ag17  1  0.50155523  0.50149840  0.32772992  1
  Ag  Ag18  1  0.15670959  0.15573142  -0.00573564  1
  Ag  Ag19  1  0.83487326  0.16905823  0.66465355  1
  Ag  Ag20  1  0.32549124  0.66642345  0.00027754  1
  Ag  Ag21  1  0.67043817  0.82743202  0.16412957  1
  Ag  Ag22  1  0.83359614  0.32483922  0.82772226  1
  Ag  Ag23  1  0.67156570  0.83051771  0.83417071  1
  Ag  Ag24  1  -0.00230378  0.50669532  0.49912665  1
  Ag  Ag25  1  0.83852457  0.00244847  0.16905892  1
  Ag  Ag26  1  0.17145317  0.49976716  0.66828996  1
  Ag  Ag27  1  0.00805072  0.66862703  0.00081053  1
  Ag  Ag28  1  0.83630348  0.32791301  0.50264381  1
  Ag  Ag29  1  0.32062494  0.83057607  0.83138857  1
  Ag  Ag30  1  0.16368380  0.33130772  0.50515886  1
  Ag  Ag31  1  0.16635047  0.51063069  -0.00198911  1
  Ag  Ag32  1  0.33424282  0.33444650  0.66306404  1
  Ag  Ag33  1  0.00144603  0.83085172  0.50303191  1
  Ag  Ag34  1  0.50539870  0.17597162  0.66635596  1
  Ag  Ag35  1  0.84019322  0.16567613  -0.00493044  1
  Ag  Ag36  1  0.15827686  -0.00032108  0.50428728  1
  Ag  Ag37  1  0.00287567  0.83759748  0.83144410  1
  Ag  Ag38  1  0.83022513  0.50241712  0.33330875  1
  Ag  Ag39  1  0.32357334  0.83131663  0.50463631  1
  Ag  Ag40  1  0.00026798  0.66665920  0.33387138  1
  Ag  Ag41  1  0.33387077  0.34203487  0.33782837  1
  Ag  Ag42  1  0.16862650  0.67461697  0.83698302  1
  Ag  Ag43  1  0.32046387  -0.00717695  0.00011328  1
  Ag  Ag44  1  0.83326954  0.83685087  0.33725598  1
  Ag  Ag45  1  0.83436365  0.66536571  0.49676463  1
  Ag  Ag46  1  0.84353239  0.00421652  0.83691624  1
  Ag  Ag47  1  0.67384164  -0.00120201  0.33300529  1
  Ag  Ag48  1  0.66236495  0.50414617  0.16484879  1
  Ag  Ag49  1  0.83472604  0.50147020  0.00462178  1
  Ag  Ag50  1  0.16258080  0.16539708  0.66957780  1
  Ag  Ag51  1  0.49816665  0.49888297  0.66507213  1
  Ag  Ag52  1  0.66443028  0.66323653  0.66935684  1
  Ag  Ag53  1  0.33795258  0.50213067  0.16689328  1
  Sb  Sb54  1  -0.00059065  0.33276191  0.66538651  1
  Sb  Sb55  1  0.66984448  0.00045970  0.66413970  1
  Sb  Sb56  1  0.32568565  0.16071308  0.83214270  1
  Sb  Sb57  1  -0.00160945  0.66739330  0.66610014  1
  Sb  Sb58  1  0.49985237  0.17253623  -0.00507379  1
  Sb  Sb59  1  0.66601886  0.33256165  0.33753889  1
  Sb  Sb60  1  0.16442298  0.66730073  0.50311885  1
  Sb  Sb61  1  0.33283637  0.50580205  0.83690922  1
  Sb  Sb62  1  0.50521819  0.17263533  0.33782360  1
  Sb  Sb63  1  0.16229627  0.33179442  0.82787626  1
  Sb  Sb64  1  0.83625954  0.66936019  0.16975238  1
  Sb  Sb65  1  0.00186811  0.00059411  0.67364223  1
  Sb  Sb66  1  0.50381047  0.82498231  0.33449960  1
  Sb  Sb67  1  -0.00045310  0.33103263  -0.00055064  1
  Sb  Sb68  1  0.50143397  -0.00401018  0.50087845  1
  Sb  Sb69  1  -0.00515387  0.16206664  0.50183032  1
  Sb  Sb70  1  0.33050216  0.50353446  0.49699091  1
  Sb  Sb71  1  0.16518713  0.83329154  -0.00730903  1
  Sb  Sb72  1  0.83727074  0.83716250  0.66320186  1
  Sb  Sb73  1  0.50001703  0.33858974  0.50025712  1
  Sb  Sb74  1  -0.00015657  0.50023879  0.16815026  1
  Sb  Sb75  1  0.67266531  -0.00409197  0.00289436  1
  Sb  Sb76  1  0.83468352  0.83295836  0.00146654  1
  Sb  Sb77  1  0.49702109  0.82906243  0.66720870  1
  Sb  Sb78  1  0.33331167  0.16449616  0.50185962  1
  Sb  Sb79  1  0.50019352  0.82428911  -0.00086942  1
  Sb  Sb80  1  0.66713039  0.50651404  0.83627017  1
  Sb  Sb81  1  0.83257636  0.49604985  0.66498682  1
  Sb  Sb82  1  0.67563469  0.16191068  0.82848409  1
  Sb  Sb83  1  0.33363878  -0.00364222  0.33006113  1
  Sb  Sb84  1  0.16029715  0.16624547  0.33445376  1
  Sb  Sb85  1  0.16707586  0.50200767  0.33340842  1
  Sb  Sb86  1  0.33172095  0.33918182  -0.00217955  1
  Sb  Sb87  1  0.50394171  0.33983782  0.83171808  1
  Sb  Sb88  1  0.00041680  0.50289601  0.83216683  1
  Sb  Sb89  1  0.16997344  0.33445612  0.16893425  1
  Sb  Sb90  1  0.67128947  0.49836721  0.49797123  1
  Sb  Sb91  1  0.16045804  0.83226474  0.33967361  1
  Sb  Sb92  1  0.49833529  -0.00530108  0.83346557  1
  Sb  Sb93  1  0.66898677  0.66748930  0.33215348  1
  Sb  Sb94  1  -0.00215158  0.83537869  0.16539387  1
  Sb  Sb95  1  0.49711710  0.65964480  0.16430629  1
  Sb  Sb96  1  0.33377959  0.82716795  0.16517804  1
  Sb  Sb97  1  0.32845065  0.00131931  0.67027289  1
  Sb  Sb98  1  0.83479212  0.66941717  0.83231996  1
  Sb  Sb99  1  0.50170238  0.00407812  0.16495260  1
  Sb  Sb100  1  0.67211469  0.83391032  0.50048046  1
  Sb  Sb101  1  0.00121011  0.33800522  0.33629309  1
  Sb  Sb102  1  -0.00670106  -0.00442230  0.33020164  1
  Sb  Sb103  1  0.32783049  0.17032074  0.16535007  1
  Sb  Sb104  1  0.66995109  0.33966958  -0.00382126  1
  Sb  Sb105  1  0.33539222  0.66293815  0.66840619  1
  Sb  Sb106  1  0.83015513  0.33082265  0.16932573  1
  Sb  Sb107  1  0.67375670  0.16709822  0.17008071  1
  Te  Te108  1  0.16098582  0.16364880  0.16408476  1
  Te  Te109  1  0.16502224  0.16612341  0.50323477  1
  Te  Te110  1  0.16178516  0.16432074  0.83300047  1
  Te  Te111  1  0.16834906  0.50249748  0.16210900  1
  Te  Te112  1  0.16277931  0.49728329  0.50337370  1
  Te  Te113  1  0.16616208  0.50154294  0.83393895  1
  Te  Te114  1  0.16678658  0.83464772  0.17124861  1
  Te  Te115  1  0.16403208  0.83511685  0.50568133  1
  Te  Te116  1  0.16477414  0.83438348  0.82877555  1
  Te  Te117  1  0.50041162  0.17535249  0.16589472  1
  Te  Te118  1  0.50456685  0.16649752  0.50590413  1
  Te  Te119  1  0.49986845  0.16690250  0.82728906  1
  Te  Te120  1  0.50002062  0.49975453  0.16718388  1
  Te  Te121  1  0.49983298  0.50537737  0.50289446  1
  Te  Te122  1  0.49974826  0.50692503  0.82923774  1
  Te  Te123  1  0.50888896  0.83533815  0.16736869  1
  Te  Te124  1  0.49534299  0.82689892  0.50046703  1
  Te  Te125  1  0.50397814  0.82688024  0.83226626  1
  Te  Te126  1  0.83593791  0.16356264  0.16456063  1
  Te  Te127  1  0.83467099  0.16629413  0.50105493  1
  Te  Te128  1  0.83597969  0.16468769  0.83364579  1
  Te  Te129  1  0.83170516  0.49885678  0.16611288  1
  Te  Te130  1  0.83634637  0.50205030  0.49871680  1
  Te  Te131  1  0.83441464  0.49616193  0.83793521  1
  Te  Te132  1  0.83043135  0.83847882  0.17177602  1
  Te  Te133  1  0.83702346  0.83339975  0.49765923  1
  Te  Te134  1  0.83596282  0.83831230  0.83138489  1
  Te  Te135  1  0.16461792  -0.00044495  -0.00139483  1
  Te  Te136  1  0.16819686  0.00063483  0.33846964  1
  Te  Te137  1  0.16753675  0.00290368  0.66383454  1
  Te  Te138  1  0.16749699  0.33496754  -0.00085102  1
  Te  Te139  1  0.17333573  0.33349692  0.33978856  1
  Te  Te140  1  0.16853413  0.33451418  0.66453364  1
  Te  Te141  1  0.16546205  0.66801065  -0.00143868  1
  Te  Te142  1  0.16647207  0.66679066  0.33134925  1
  Te  Te143  1  0.16702001  0.66441504  0.67229225  1
  Te  Te144  1  0.49529792  0.00228351  0.00007824  1
  Te  Te145  1  0.50622757  0.00130475  0.33249227  1
  Te  Te146  1  0.49899432  0.00908452  0.66659979  1
  Te  Te147  1  0.50011824  0.34157984  0.00214907  1
  Te  Te148  1  0.49532119  0.33962041  0.33219255  1
  Te  Te149  1  0.50121077  0.33626219  0.66651941  1
  Te  Te150  1  0.50233723  0.66065116  -0.00235295  1
  Te  Te151  1  0.49726396  0.66047374  0.33643992  1
  Te  Te152  1  0.50194777  0.66330864  0.66719990  1
  Te  Te153  1  0.83626700  0.00156393  -0.00012880  1
  Te  Te154  1  0.83350634  0.00023914  0.33379399  1
  Te  Te155  1  0.83322095  0.00587268  0.66471864  1
  Te  Te156  1  0.83327590  0.33394720  -0.00140439  1
  Te  Te157  1  0.83291097  0.33906307  0.33838206  1
  Te  Te158  1  0.83023642  0.33098143  0.66381541  1
  Te  Te159  1  0.83095217  0.66292975  0.00030363  1
  Te  Te160  1  0.83541462  0.66308996  0.33576164  1
  Te  Te161  1  0.82744880  0.66590413  0.66181629  1
  Te  Te162  1  0.00007872  0.16666960  -0.00113065  1
  Te  Te163  1  -0.00725868  0.16792387  0.33061080  1
  Te  Te164  1  0.00063460  0.16664992  0.67046890  1
  Te  Te165  1  0.00062820  0.50421176  0.00038404  1
  Te  Te166  1  -0.00366663  0.50559361  0.33578877  1
  Te  Te167  1  0.00546965  0.50069001  0.66163192  1
  Te  Te168  1  -0.00171839  0.83053840  -0.00339939  1
  Te  Te169  1  -0.00622391  0.82660703  0.33647866  1
  Te  Te170  1  0.00545177  0.83326055  0.66666049  1
  Te  Te171  1  0.33058511  0.16537081  -0.00051683  1
  Te  Te172  1  0.33488903  0.17100948  0.33286477  1
  Te  Te173  1  0.32842682  0.17188813  0.66647581  1
  Te  Te174  1  0.33101349  0.50419993  0.00342381  1
  Te  Te175  1  0.33386202  0.50201973  0.33087552  1
  Te  Te176  1  0.33242860  0.49560137  0.66621633  1
  Te  Te177  1  0.33506949  0.82964096  -0.00281803  1
  Te  Te178  1  0.33503730  0.82698865  0.33511514  1
  Te  Te179  1  0.32957012  0.83325517  0.66736277  1
  Te  Te180  1  0.67026693  0.16622393  -0.00019396  1
  Te  Te181  1  0.67298092  0.16378646  0.33805895  1
  Te  Te182  1  0.67053917  0.16774728  0.66405617  1
  Te  Te183  1  0.66813121  0.50406249  0.00290073  1
  Te  Te184  1  0.66676225  0.49984866  0.32842903  1
  Te  Te185  1  0.66350427  0.50089531  0.66698815  1
  Te  Te186  1  0.66724015  0.82801850  0.00000791  1
  Te  Te187  1  0.67130311  0.83632679  0.33198925  1
  Te  Te188  1  0.66557095  0.82782266  0.67059569  1
  Te  Te189  1  -0.00007748  0.00068094  0.16353672  1
  Te  Te190  1  -0.00117816  -0.00455169  0.49743177  1
  Te  Te191  1  0.00000825  -0.00207326  0.83723275  1
  Te  Te192  1  0.00061413  0.32556322  0.16855343  1
  Te  Te193  1  -0.00044942  0.33696204  0.49927467  1
  Te  Te194  1  -0.00710336  0.32916168  0.83239816  1
  Te  Te195  1  0.00540041  0.66723191  0.16409624  1
  Te  Te196  1  -0.00271824  0.66818135  0.49913639  1
  Te  Te197  1  0.00309147  0.67059176  0.83708197  1
  Te  Te198  1  0.32931593  -0.00045921  0.16144847  1
  Te  Te199  1  0.33065798  -0.00683206  0.49755986  1
  Te  Te200  1  0.33075251  -0.00715412  0.83918967  1
  Te  Te201  1  0.33670156  0.33865497  0.16855409  1
  Te  Te202  1  0.33028635  0.33236556  0.50078519  1
  Te  Te203  1  0.33439179  0.33241991  0.82633685  1
  Te  Te204  1  0.32994991  0.66364177  0.16556003  1
  Te  Te205  1  0.33327625  0.67069426  0.49823290  1
  Te  Te206  1  0.33209620  0.67057035  0.83562027  1
  Te  Te207  1  0.67005584  -0.00202056  0.17026227  1
  Te  Te208  1  0.66942752  0.00203488  0.49634720  1
  Te  Te209  1  0.66788014  -0.00887409  0.83373770  1
  Te  Te210  1  0.66202251  0.33873181  0.16633917  1
  Te  Te211  1  0.66995884  0.33003255  0.50470401  1
  Te  Te212  1  0.67229498  0.33246565  0.82650577  1
  Te  Te213  1  0.66743185  0.66610634  0.16362265  1
  Te  Te214  1  0.66806161  0.66675657  0.50268065  1
  Te  Te215  1  0.66763817  0.67104180  0.83385454  1
