# generated using pymatgen
data_AgSbTe2
_symmetry_space_group_name_H-M   'P 1'
_cell_length_a   18.33222615
_cell_length_b   18.34414729
_cell_length_c   18.34535970
_cell_angle_alpha   90.00040891
_cell_angle_beta   89.99949238
_cell_angle_gamma   89.99540660
_symmetry_Int_Tables_number   1
_chemical_formula_structural   AgSbTe2
_chemical_formula_sum   'Ag54 Sb54 Te108'
_cell_volume   6169.34368930
_cell_formula_units_Z   54
loop_
 _symmetry_equiv_pos_site_id
 _symmetry_equiv_pos_as_xyz
  1  'x, y, z'
loop_
 _atom_site_type_symbol
 _atom_site_label
 _atom_site_symmetry_multiplicity
 _atom_site_fract_x
 _atom_site_fract_y
 _atom_site_fract_z
 _atom_site_occupancy
  Ag  Ag0  1  0.00231582  0.66900337  0.32664965  1
  Ag  Ag1  1  0.16998625  0.67462975  0.83776155  1
  Ag  Ag2  1  0.49849381  0.33523143  0.83544683  1
  Ag  Ag3  1  0.00587651  -0.00917315  0.33716970  1
  Ag  Ag4  1  0.16820581  -0.00684842  0.51360943  1
  Ag  Ag5  1  0.84583969  0.33921865  0.50081182  1
  Ag  Ag6  1  0.49828816  0.66514002  0.50322982  1
  Ag  Ag7  1  0.33793297  0.49653154  0.83616786  1
  Ag  Ag8  1  0.49697303  0.66555931  0.15254410  1
  Ag  Ag9  1  0.16657959  0.33083339  0.50060713  1
  Ag  Ag10  1  0.01227859  0.16163711  0.83384508  1
  Ag  Ag11  1  0.66671420  0.66301062  0.32370558  1
  Ag  Ag12  1  0.65631292  0.82599069  0.83529690  1
  Ag  Ag13  1  0.49595055  0.33529298  0.50885847  1
  Ag  Ag14  1  0.33458714  0.33428482  -0.00200750  1
  Ag  Ag15  1  0.00572260  0.82410397  0.16645241  1
  Ag  Ag16  1  0.49210019  0.81940299  -0.00510284  1
  Ag  Ag17  1  0.16421433  0.33528570  0.16446335  1
  Ag  Ag18  1  0.01241604  0.66689048  0.00543670  1
  Ag  Ag19  1  0.00935735  0.00366121  0.66610505  1
  Ag  Ag20  1  0.65720948  0.34433237  -0.00646986  1
  Ag  Ag21  1  0.67045122  0.50144765  0.15857637  1
  Ag  Ag22  1  0.66397790  0.33477889  0.67061279  1
  Ag  Ag23  1  0.48980194  0.00534937  0.82946011  1
  Ag  Ag24  1  0.01143172  0.83496404  0.83401453  1
  Ag  Ag25  1  0.32282019  -0.00320045  0.66735452  1
  Ag  Ag26  1  0.00728526  0.17220880  0.16177189  1
  Ag  Ag27  1  0.16893686  0.82582460  -0.00463156  1
  Ag  Ag28  1  0.16926844  0.50601702  0.00051970  1
  Ag  Ag29  1  0.49055576  -0.00266505  0.50828284  1
  Ag  Ag30  1  0.65689565  0.66076705  0.00072835  1
  Ag  Ag31  1  0.16698328  0.84368754  0.66782983  1
  Ag  Ag32  1  0.49202252  0.17748970  -0.00719850  1
  Ag  Ag33  1  0.83443168  0.49611709  0.66387712  1
  Ag  Ag34  1  0.33256930  0.67173949  0.66904736  1
  Ag  Ag35  1  0.84565010  0.33924252  0.16829229  1
  Ag  Ag36  1  0.16956029  0.16709694  -0.00732559  1
  Ag  Ag37  1  0.49987588  0.50075462  -0.00476560  1
  Ag  Ag38  1  0.49382046  0.66281562  0.83572786  1
  Ag  Ag39  1  0.00055617  0.50093956  0.49658588  1
  Ag  Ag40  1  0.16988920  0.15587232  0.67576153  1
  Ag  Ag41  1  0.33014179  0.16993580  0.83229204  1
  Ag  Ag42  1  0.83694383  0.49975628  0.33396010  1
  Ag  Ag43  1  0.00820196  0.83061025  0.49594290  1
  Ag  Ag44  1  0.49101119  0.16758212  0.67573405  1
  Ag  Ag45  1  0.00060235  0.50229579  0.16901058  1
  Ag  Ag46  1  0.16252485  0.83470946  0.33401194  1
  Ag  Ag47  1  0.65740119  0.50332968  0.84098655  1
  Ag  Ag48  1  0.16094822  0.66965849  0.15825364  1
  Ag  Ag49  1  0.17040722  -0.00538028  0.82496694  1
  Ag  Ag50  1  0.16409508  -0.00987892  0.16413862  1
  Ag  Ag51  1  0.00182780  0.33079325  0.66577421  1
  Ag  Ag52  1  0.33090902  0.33446605  0.33149821  1
  Ag  Ag53  1  0.32522426  0.83418782  0.50331303  1
  Sb  Sb54  1  0.83869485  0.17417689  0.66736432  1
  Sb  Sb55  1  0.83863772  0.17101662  -0.00105777  1
  Sb  Sb56  1  0.66372132  0.16901512  0.50265949  1
  Sb  Sb57  1  0.49809252  0.16831635  0.33379349  1
  Sb  Sb58  1  0.66885731  0.49892414  0.50149579  1
  Sb  Sb59  1  0.33022969  0.50057602  0.16005926  1
  Sb  Sb60  1  0.50217709  0.49445661  0.67392085  1
  Sb  Sb61  1  0.49428922  0.83067463  0.33188579  1
  Sb  Sb62  1  0.66916425  0.17651541  0.16151501  1
  Sb  Sb63  1  0.49334811  0.83683567  0.67291598  1
  Sb  Sb64  1  0.83913690  0.65958621  0.16680203  1
  Sb  Sb65  1  0.33279030  0.66177142  -0.00714009  1
  Sb  Sb66  1  0.00491882  0.16854937  0.50208328  1
  Sb  Sb67  1  0.83338497  0.66448074  0.83405955  1
  Sb  Sb68  1  0.33195792  0.33091724  0.66994023  1
  Sb  Sb69  1  0.82849180  0.33480345  0.83275148  1
  Sb  Sb70  1  0.00635195  0.66632135  0.66796153  1
  Sb  Sb71  1  0.84305929  0.82562160  0.33312077  1
  Sb  Sb72  1  0.66422347  0.33983889  0.33365035  1
  Sb  Sb73  1  0.17062980  0.33071496  0.83500050  1
  Sb  Sb74  1  0.66221868  0.00360108  0.66928037  1
  Sb  Sb75  1  0.16166688  0.50355595  0.32830195  1
  Sb  Sb76  1  0.83743761  0.17519130  0.33287069  1
  Sb  Sb77  1  0.32888249  0.00416546  -0.01078350  1
  Sb  Sb78  1  0.84249749  0.00505353  0.50114150  1
  Sb  Sb79  1  0.16454592  0.49901294  0.67140293  1
  Sb  Sb80  1  0.66366494  0.83003886  0.50611026  1
  Sb  Sb81  1  0.16771230  0.67070722  0.50143747  1
  Sb  Sb82  1  0.33152175  0.16430928  0.50707905  1
  Sb  Sb83  1  0.83143687  0.49907794  0.00149465  1
  Sb  Sb84  1  0.16526900  0.16300025  0.33146752  1
  Sb  Sb85  1  0.67001462  -0.00985079  0.33394958  1
  Sb  Sb86  1  0.32988049  0.50128551  0.50598690  1
  Sb  Sb87  1  0.00477411  0.33593269  0.33364310  1
  Sb  Sb88  1  0.00479114  0.33751279  -0.00073588  1
  Sb  Sb89  1  0.32344635  0.83121337  0.16850821  1
  Sb  Sb90  1  0.84576946  0.00614370  0.16825136  1
  Sb  Sb91  1  0.67062965  0.82305457  0.16020528  1
  Sb  Sb92  1  0.83866553  0.83104535  -0.00036439  1
  Sb  Sb93  1  0.65894486  0.16919696  0.83429355  1
  Sb  Sb94  1  0.32530400  0.00195650  0.34105143  1
  Sb  Sb95  1  0.00645018  -0.00488646  -0.00240331  1
  Sb  Sb96  1  0.32563087  0.16820884  0.15788952  1
  Sb  Sb97  1  0.50277853  0.50134456  0.32882743  1
  Sb  Sb98  1  0.00269781  0.50082583  0.83436967  1
  Sb  Sb99  1  0.65879422  -0.00380011  -0.00149561  1
  Sb  Sb100  1  0.83246130  0.66049399  0.49858106  1
  Sb  Sb101  1  0.49325485  -0.00486719  0.16159267  1
  Sb  Sb102  1  0.83909166  -0.00087756  0.83182919  1
  Sb  Sb103  1  0.33051594  0.66363892  0.33665495  1
  Sb  Sb104  1  0.33086259  0.83224723  0.82937297  1
  Sb  Sb105  1  0.65975135  0.66162358  0.67203935  1
  Sb  Sb106  1  0.49632151  0.33850990  0.15971647  1
  Sb  Sb107  1  0.84317583  0.82817031  0.66661270  1
  Te  Te108  1  0.16383329  0.17344370  0.16553678  1
  Te  Te109  1  0.16709629  0.16867241  0.50222686  1
  Te  Te110  1  0.16883993  0.16908482  0.83291323  1
  Te  Te111  1  0.16403398  0.50069376  0.16308253  1
  Te  Te112  1  0.16178216  0.49703298  0.49973384  1
  Te  Te113  1  0.16894882  0.50237050  0.83910548  1
  Te  Te114  1  0.16283886  0.82986978  0.16312098  1
  Te  Te115  1  0.16474455  0.83226790  0.50322908  1
  Te  Te116  1  0.16877914  0.83457865  0.83536842  1
  Te  Te117  1  0.49985547  0.16359589  0.15986137  1
  Te  Te118  1  0.49848712  0.16689919  0.50223546  1
  Te  Te119  1  0.49880151  0.16583487  0.83453985  1
  Te  Te120  1  0.50186989  0.50539251  0.16158622  1
  Te  Te121  1  0.49881574  0.49946319  0.50009809  1
  Te  Te122  1  0.49991584  0.50004292  0.83496744  1
  Te  Te123  1  0.50136097  0.82871091  0.16135454  1
  Te  Te124  1  0.49804881  0.83488729  0.50065178  1
  Te  Te125  1  0.49851419  0.83126999  0.83621411  1
  Te  Te126  1  0.84061522  0.17585818  0.16630753  1
  Te  Te127  1  0.83271235  0.17868913  0.49954081  1
  Te  Te128  1  0.84395692  0.16593568  0.83339635  1
  Te  Te129  1  0.83549046  0.49652138  0.16767190  1
  Te  Te130  1  0.83567437  0.49619226  0.49927874  1
  Te  Te131  1  0.83048344  0.49894929  0.82802412  1
  Te  Te132  1  0.84278719  0.83695904  0.16689308  1
  Te  Te133  1  0.83928997  0.83483228  0.50046732  1
  Te  Te134  1  0.83610651  0.83318676  0.83247949  1
  Te  Te135  1  0.16667833  0.00490901  0.00467003  1
  Te  Te136  1  0.16290638  -0.00364791  0.32920506  1
  Te  Te137  1  0.16420991  0.00011719  0.66834813  1
  Te  Te138  1  0.16799548  0.33081592  0.00175870  1
  Te  Te139  1  0.17009686  0.33339311  0.33404029  1
  Te  Te140  1  0.16415853  0.33279306  0.66400825  1
  Te  Te141  1  0.16944266  0.66672041  -0.00068219  1
  Te  Te142  1  0.16349806  0.67103864  0.33101562  1
  Te  Te143  1  0.17114265  0.66742276  0.67192868  1
  Te  Te144  1  0.49613117  0.00219350  -0.00514249  1
  Te  Te145  1  0.49982933  -0.00045110  0.33805902  1
  Te  Te146  1  0.49956710  0.00371428  0.66776678  1
  Te  Te147  1  0.49805577  0.33671572  -0.00109551  1
  Te  Te148  1  0.49501813  0.33319498  0.33691274  1
  Te  Te149  1  0.49868442  0.32960418  0.66884915  1
  Te  Te150  1  0.49721508  0.66271914  -0.00399198  1
  Te  Te151  1  0.50177399  0.66726021  0.34068178  1
  Te  Te152  1  0.49562002  0.66795395  0.66642863  1
  Te  Te153  1  0.83018807  0.00104112  0.00091349  1
  Te  Te154  1  0.83989720  0.00034363  0.33499420  1
  Te  Te155  1  0.83754471  0.00075150  0.66502178  1
  Te  Te156  1  0.82666513  0.33354861  0.00608661  1
  Te  Te157  1  0.83197997  0.34041133  0.33389577  1
  Te  Te158  1  0.83476737  0.33631149  0.66391996  1
  Te  Te159  1  0.82776891  0.66708804  0.00006170  1
  Te  Te160  1  0.83473426  0.65973722  0.33326630  1
  Te  Te161  1  0.83183844  0.65836379  0.66559969  1
  Te  Te162  1  0.00512780  0.16743636  -0.00029592  1
  Te  Te163  1  -0.00010342  0.16189181  0.32589797  1
  Te  Te164  1  0.00393876  0.16828519  0.66799062  1
  Te  Te165  1  0.00266507  0.50475435  0.00262192  1
  Te  Te166  1  -0.00204727  0.50215679  0.33368394  1
  Te  Te167  1  -0.00294291  0.49677455  0.66444694  1
  Te  Te168  1  0.00434869  0.82899914  -0.00198900  1
  Te  Te169  1  0.00361195  0.83091104  0.33473105  1
  Te  Te170  1  0.00545279  0.83364862  0.66903773  1
  Te  Te171  1  0.33244785  0.17072272  -0.00628111  1
  Te  Te172  1  0.33320565  0.17409989  0.33174894  1
  Te  Te173  1  0.33179456  0.16434417  0.67121892  1
  Te  Te174  1  0.33175546  0.49515197  -0.00390246  1
  Te  Te175  1  0.33290207  0.49480479  0.33504505  1
  Te  Te176  1  0.33332698  0.50507763  0.67337383  1
  Te  Te177  1  0.33240783  0.83645591  0.00271791  1
  Te  Te178  1  0.32642140  0.83287004  0.34105232  1
  Te  Te179  1  0.32878815  0.83513063  0.66306187  1
  Te  Te180  1  0.66394988  0.16973428  -0.00063085  1
  Te  Te181  1  0.66811870  0.16254879  0.33071259  1
  Te  Te182  1  0.66449982  0.17361397  0.66789254  1
  Te  Te183  1  0.66788897  0.50038269  -0.00041578  1
  Te  Te184  1  0.67049003  0.50494228  0.32975338  1
  Te  Te185  1  0.67052745  0.49504277  0.66924437  1
  Te  Te186  1  0.66503143  0.82861197  -0.00502412  1
  Te  Te187  1  0.66881784  0.82352452  0.33393348  1
  Te  Te188  1  0.67089233  0.83405379  0.67438441  1
  Te  Te189  1  0.00541269  0.00006225  0.16664402  1
  Te  Te190  1  0.00481714  -0.00043398  0.50087434  1
  Te  Te191  1  0.00458851  -0.00064555  0.83098032  1
  Te  Te192  1  0.00332603  0.33655492  0.16684151  1
  Te  Te193  1  0.00329775  0.33527633  0.50009747  1
  Te  Te194  1  -0.00226290  0.33127595  0.82962356  1
  Te  Te195  1  0.00141793  0.66455739  0.16635784  1
  Te  Te196  1  -0.00027904  0.66513461  0.49903717  1
  Te  Te197  1  0.00353162  0.66989370  0.83652130  1
  Te  Te198  1  0.32649324  0.00027781  0.17156181  1
  Te  Te199  1  0.33076478  -0.00230073  0.50534360  1
  Te  Te200  1  0.33189696  0.00362751  0.82668131  1
  Te  Te201  1  0.32831068  0.33401626  0.16443929  1
  Te  Te202  1  0.33202203  0.33394627  0.50070010  1
  Te  Te203  1  0.33695987  0.33407809  0.83560034  1
  Te  Te204  1  0.33706214  0.66659581  0.17087936  1
  Te  Te205  1  0.33707319  0.66873276  0.50406956  1
  Te  Te206  1  0.33328933  0.66469074  0.82950344  1
  Te  Te207  1  0.66713858  -0.00070145  0.16830917  1
  Te  Te208  1  0.66342046  -0.00137006  0.50013685  1
  Te  Te209  1  0.66537487  -0.00401772  0.83327708  1
  Te  Te210  1  0.66476730  0.34052755  0.16543874  1
  Te  Te211  1  0.65683730  0.33314778  0.50310369  1
  Te  Te212  1  0.66250139  0.33512737  0.83319026  1
  Te  Te213  1  0.66514970  0.66245028  0.16424155  1
  Te  Te214  1  0.66052519  0.66696122  0.50005931  1
  Te  Te215  1  0.66475877  0.66498429  0.83612424  1
