# generated using pymatgen
data_AgSbTe2
_symmetry_space_group_name_H-M   'P 1'
_cell_length_a   18.32138231
_cell_length_b   18.32526107
_cell_length_c   18.32225937
_cell_angle_alpha   90.00004556
_cell_angle_beta   89.99831857
_cell_angle_gamma   90.00232785
_symmetry_Int_Tables_number   1
_chemical_formula_structural   AgSbTe2
_chemical_formula_sum   'Ag54 Sb54 Te108'
_cell_volume   6151.59073113
_cell_formula_units_Z   54
loop_
 _symmetry_equiv_pos_site_id
 _symmetry_equiv_pos_as_xyz
  1  'x, y, z'
loop_
 _atom_site_type_symbol
 _atom_site_label
 _atom_site_symmetry_multiplicity
 _atom_site_fract_x
 _atom_site_fract_y
 _atom_site_fract_z
 _atom_site_occupancy
  Ag  Ag0  1  0.32192433  0.33480444  0.33141058  1
  Ag  Ag1  1  -0.00670097  0.66730599  0.65737513  1
  Ag  Ag2  1  0.66554219  -0.01032925  0.65616702  1
  Ag  Ag3  1  0.32722489  0.83329889  0.50357414  1
  Ag  Ag4  1  0.15744567  0.67502049  0.49621672  1
  Ag  Ag5  1  0.00171022  0.33959798  0.65584379  1
  Ag  Ag6  1  0.50561539  0.50364601  -0.00274823  1
  Ag  Ag7  1  0.83293186  0.51018450  0.66647948  1
  Ag  Ag8  1  0.66146207  0.00068596  0.33892326  1
  Ag  Ag9  1  0.16473733  0.49574026  0.33465508  1
  Ag  Ag10  1  0.00177211  0.33516525  0.00297606  1
  Ag  Ag11  1  0.00204567  -0.00266906  0.00715989  1
  Ag  Ag12  1  0.67133856  0.15942352  0.49638297  1
  Ag  Ag13  1  0.50788665  0.51183750  0.66976389  1
  Ag  Ag14  1  0.16672779  -0.00133598  0.82709157  1
  Ag  Ag15  1  0.49646774  -0.00781088  0.83017833  1
  Ag  Ag16  1  -0.00167791  0.66665956  0.00106054  1
  Ag  Ag17  1  0.66930754  0.34032763  0.00450125  1
  Ag  Ag18  1  0.16430431  0.16932950  0.33592706  1
  Ag  Ag19  1  0.00466765  0.16085589  0.49571987  1
  Ag  Ag20  1  0.66683012  0.50351069  0.50059583  1
  Ag  Ag21  1  0.49991927  0.15863511  0.33484347  1
  Ag  Ag22  1  0.32990162  0.66354116  0.00141548  1
  Ag  Ag23  1  0.16257986  0.32879998  0.49560942  1
  Ag  Ag24  1  0.32690018  0.34103374  0.00556253  1
  Ag  Ag25  1  0.83588766  0.82854496  0.66383278  1
  Ag  Ag26  1  0.66696120  0.33167770  0.33584721  1
  Ag  Ag27  1  0.66990041  0.66780726  0.34234351  1
  Ag  Ag28  1  0.16184095  0.67185137  0.17110340  1
  Ag  Ag29  1  0.00686191  0.33356090  0.33651449  1
  Ag  Ag30  1  0.83830531  0.67255957  0.50482245  1
  Ag  Ag31  1  0.16256112  0.16466274  0.00661981  1
  Ag  Ag32  1  0.33161200  0.50055418  0.16471092  1
  Ag  Ag33  1  0.16358973  0.83614513  0.66083751  1
  Ag  Ag34  1  0.83139436  -0.00641162  0.49705314  1
  Ag  Ag35  1  0.00148419  0.50203359  0.83505609  1
  Ag  Ag36  1  0.00110588  0.83808709  0.17090878  1
  Ag  Ag37  1  0.16202431  -0.00163893  0.49952102  1
  Ag  Ag38  1  0.16001076  -0.00178241  0.16912315  1
  Ag  Ag39  1  0.83360418  0.50699869  -0.00308734  1
  Ag  Ag40  1  0.51110795  -0.00445631  0.49671229  1
  Ag  Ag41  1  0.00362140  0.83247803  0.49899114  1
  Ag  Ag42  1  0.67077865  0.66118463  -0.00069695  1
  Ag  Ag43  1  0.50181914  0.83162066  0.66241326  1
  Ag  Ag44  1  0.00419746  0.15940883  0.17192490  1
  Ag  Ag45  1  0.50149968  -0.00163791  0.17776057  1
  Ag  Ag46  1  0.49912041  0.67097474  0.83151894  1
  Ag  Ag47  1  0.84379506  -0.00328217  0.17166266  1
  Ag  Ag48  1  0.00285180  0.66594697  0.34058090  1
  Ag  Ag49  1  0.16266455  0.15556724  0.65294186  1
  Ag  Ag50  1  0.33455676  0.83292261  0.82728308  1
  Ag  Ag51  1  0.67382211  0.67070178  0.65893850  1
  Ag  Ag52  1  0.83824236  0.82632455  -0.00328743  1
  Ag  Ag53  1  0.50164377  0.84054165  0.34281026  1
  Sb  Sb54  1  0.49672179  0.15973792  0.65931494  1
  Sb  Sb55  1  0.16192922  0.50450756  0.66031138  1
  Sb  Sb56  1  0.83178238  0.66678102  0.82995851  1
  Sb  Sb57  1  0.32870291  0.83107577  0.16829657  1
  Sb  Sb58  1  0.83880562  0.16376956  0.66208349  1
  Sb  Sb59  1  0.32677758  0.33578561  0.66385896  1
  Sb  Sb60  1  0.83654372  0.33091570  0.16675266  1
  Sb  Sb61  1  0.67084560  -0.00143142  0.00118097  1
  Sb  Sb62  1  0.67057631  0.83502766  0.50079836  1
  Sb  Sb63  1  0.67157068  0.83373843  0.16772071  1
  Sb  Sb64  1  0.50221494  0.82942705  -0.00137883  1
  Sb  Sb65  1  0.33588021  0.50434374  0.49737980  1
  Sb  Sb66  1  0.32959432  0.66389866  0.33054641  1
  Sb  Sb67  1  0.49789360  0.67031065  0.16446309  1
  Sb  Sb68  1  0.49883851  0.50057493  0.33361789  1
  Sb  Sb69  1  0.83636894  0.50319996  0.33423642  1
  Sb  Sb70  1  0.66402072  0.50100570  0.16738618  1
  Sb  Sb71  1  0.67109806  0.16446751  0.17351368  1
  Sb  Sb72  1  0.32751624  0.16105998  0.49723022  1
  Sb  Sb73  1  0.16793909  0.67171204  0.83242107  1
  Sb  Sb74  1  0.32646693  0.16888990  0.16902967  1
  Sb  Sb75  1  0.83961132  0.16670868  0.00226771  1
  Sb  Sb76  1  0.16504321  0.49803839  0.00599369  1
  Sb  Sb77  1  0.67243501  0.33754169  0.66263936  1
  Sb  Sb78  1  0.32735012  -0.00215586  0.00052645  1
  Sb  Sb79  1  -0.00071446  0.00036079  0.33208101  1
  Sb  Sb80  1  0.49735488  0.32912809  0.49847018  1
  Sb  Sb81  1  0.00287735  0.16792443  0.83217392  1
  Sb  Sb82  1  0.33089622  0.16099935  0.83450739  1
  Sb  Sb83  1  0.16138233  0.83586365  -0.00197119  1
  Sb  Sb84  1  0.33372785  -0.00341377  0.66450424  1
  Sb  Sb85  1  0.00398336  0.50272609  0.16447544  1
  Sb  Sb86  1  0.66920859  0.50296428  0.83152680  1
  Sb  Sb87  1  0.16473097  0.33133618  0.17240169  1
  Sb  Sb88  1  0.66056969  0.83106108  0.82978619  1
  Sb  Sb89  1  0.66344984  0.16513560  0.82786583  1
  Sb  Sb90  1  0.33394112  0.66907023  0.66806845  1
  Sb  Sb91  1  0.00521073  0.82941923  0.83082901  1
  Sb  Sb92  1  0.83997850  0.67197843  0.16643332  1
  Sb  Sb93  1  0.83649712  0.16458702  0.33522750  1
  Sb  Sb94  1  0.83668004  -0.00380256  0.83134941  1
  Sb  Sb95  1  0.49647806  0.16839879  0.00543566  1
  Sb  Sb96  1  0.16792449  0.83494419  0.33968651  1
  Sb  Sb97  1  -0.00346233  0.50356624  0.50209440  1
  Sb  Sb98  1  0.83284109  0.83422764  0.33710738  1
  Sb  Sb99  1  0.50290298  0.67373588  0.50300460  1
  Sb  Sb100  1  0.49914646  0.33664555  0.83519561  1
  Sb  Sb101  1  0.83827221  0.33512532  0.49957830  1
  Sb  Sb102  1  -0.00048566  -0.00376185  0.66414362  1
  Sb  Sb103  1  0.83546616  0.33653759  0.83359916  1
  Sb  Sb104  1  0.16495237  0.32884391  0.83174683  1
  Sb  Sb105  1  0.33028973  0.50511160  0.83857875  1
  Sb  Sb106  1  0.49873438  0.32982028  0.16831737  1
  Sb  Sb107  1  0.33613174  0.00250669  0.33439795  1
  Te  Te108  1  0.16251800  0.16356081  0.16827419  1
  Te  Te109  1  0.16562385  0.16448787  0.49707612  1
  Te  Te110  1  0.16699095  0.15867415  0.83592087  1
  Te  Te111  1  0.16971882  0.50541012  0.17299096  1
  Te  Te112  1  0.16815732  0.49980670  0.49459370  1
  Te  Te113  1  0.16196423  0.49985818  0.83032227  1
  Te  Te114  1  0.16206192  0.83452104  0.16734912  1
  Te  Te115  1  0.16427394  0.83434831  0.50056203  1
  Te  Te116  1  0.17261511  0.83900740  0.82715289  1
  Te  Te117  1  0.49981075  0.15971572  0.17336215  1
  Te  Te118  1  0.49998965  0.16037432  0.49496494  1
  Te  Te119  1  0.49820552  0.15880333  0.83186145  1
  Te  Te120  1  0.49439290  0.50043174  0.16141243  1
  Te  Te121  1  0.50465100  0.50061663  0.50302901  1
  Te  Te122  1  0.49876050  0.50363676  0.83411719  1
  Te  Te123  1  0.49832354  0.83881195  0.16765361  1
  Te  Te124  1  0.49753974  0.83643978  0.50254919  1
  Te  Te125  1  0.49526451  0.83314591  0.83159805  1
  Te  Te126  1  0.84195547  0.15728049  0.16710321  1
  Te  Te127  1  0.83517282  0.16038965  0.50071129  1
  Te  Te128  1  0.83221189  0.16633022  0.83185093  1
  Te  Te129  1  0.83300415  0.50044673  0.15840789  1
  Te  Te130  1  0.82741233  0.50395580  0.50200671  1
  Te  Te131  1  0.83944016  0.50091546  0.83378547  1
  Te  Te132  1  0.83965147  0.83853471  0.16349447  1
  Te  Te133  1  0.83880420  0.83326997  0.50255559  1
  Te  Te134  1  0.83401875  0.83373058  0.83277825  1
  Te  Te135  1  0.16344443  0.00249656  0.00583720  1
  Te  Te136  1  0.16822306  0.00397807  0.33354627  1
  Te  Te137  1  0.16558832  -0.00231532  0.66406009  1
  Te  Te138  1  0.16449599  0.33056705  -0.00020779  1
  Te  Te139  1  0.16409913  0.33208153  0.33424537  1
  Te  Te140  1  0.16115678  0.33466131  0.66188091  1
  Te  Te141  1  0.16447540  0.66683142  0.00123428  1
  Te  Te142  1  0.16417518  0.66854932  0.33382728  1
  Te  Te143  1  0.16254934  0.67193301  0.66364029  1
  Te  Te144  1  0.50001480  0.00131853  -0.00405342  1
  Te  Te145  1  0.50024896  0.00011852  0.33597842  1
  Te  Te146  1  0.50274794  -0.00320399  0.66460133  1
  Te  Te147  1  0.50100479  0.33693611  0.00070452  1
  Te  Te148  1  0.50769295  0.33174187  0.33387065  1
  Te  Te149  1  0.50003185  0.33362772  0.66751613  1
  Te  Te150  1  0.50289371  0.66415617  -0.00043253  1
  Te  Te151  1  0.50386077  0.66916128  0.33341946  1
  Te  Te152  1  0.50074896  0.66929149  0.66889867  1
  Te  Te153  1  0.83831038  -0.00249138  0.00147879  1
  Te  Te154  1  0.82629141  -0.00146561  0.33490197  1
  Te  Te155  1  0.82959054  -0.00468616  0.66368201  1
  Te  Te156  1  0.83543422  0.33755349  0.00060443  1
  Te  Te157  1  0.82856233  0.33476479  0.33353422  1
  Te  Te158  1  0.84164919  0.33936394  0.66676853  1
  Te  Te159  1  0.83432292  0.66672831  0.00017995  1
  Te  Te160  1  0.83153700  0.66765237  0.33687272  1
  Te  Te161  1  0.83297609  0.66724968  0.66662112  1
  Te  Te162  1  0.00303133  0.16840693  -0.00041666  1
  Te  Te163  1  0.00230934  0.16746633  0.33480844  1
  Te  Te164  1  0.00453788  0.16906339  0.66286688  1
  Te  Te165  1  -0.00127473  0.50003281  -0.00021551  1
  Te  Te166  1  0.00317972  0.49979461  0.33259508  1
  Te  Te167  1  -0.00255777  0.50273962  0.66823844  1
  Te  Te168  1  -0.00195642  0.83144057  -0.00161302  1
  Te  Te169  1  0.00022645  0.82817834  0.33434938  1
  Te  Te170  1  -0.00054415  0.82990746  0.66429200  1
  Te  Te171  1  0.32750682  0.17242222  0.00161317  1
  Te  Te172  1  0.33383111  0.17495177  0.33322307  1
  Te  Te173  1  0.32287983  0.16946515  0.66643543  1
  Te  Te174  1  0.33226695  0.50154001  0.00264886  1
  Te  Te175  1  0.33097978  0.49563705  0.32961159  1
  Te  Te176  1  0.34290411  0.50052217  0.66743853  1
  Te  Te177  1  0.33299478  0.82717110  -0.00046538  1
  Te  Te178  1  0.34088718  0.83196778  0.33642094  1
  Te  Te179  1  0.33425837  0.83270761  0.66509122  1
  Te  Te180  1  0.66663204  0.17180991  0.00002365  1
  Te  Te181  1  0.66641282  0.16620816  0.33691228  1
  Te  Te182  1  0.66655878  0.16719385  0.65931654  1
  Te  Te183  1  0.66677067  0.50039042  -0.00036680  1
  Te  Te184  1  0.66728597  0.50183408  0.33580216  1
  Te  Te185  1  0.66799472  0.50173563  0.66470082  1
  Te  Te186  1  0.67429583  0.82931075  -0.00075711  1
  Te  Te187  1  0.66241541  0.83070483  0.33319083  1
  Te  Te188  1  0.66629644  0.83126596  0.66676246  1
  Te  Te189  1  0.00093543  -0.00140412  0.16870183  1
  Te  Te190  1  0.00018794  -0.00054728  0.49946672  1
  Te  Te191  1  0.00520441  -0.00075793  0.83937408  1
  Te  Te192  1  -0.00068281  0.32830090  0.16769878  1
  Te  Te193  1  0.00228468  0.33303658  0.49698431  1
  Te  Te194  1  0.00110575  0.33768997  0.83963471  1
  Te  Te195  1  0.00333398  0.66948928  0.16473355  1
  Te  Te196  1  -0.00140869  0.66688058  0.49891861  1
  Te  Te197  1  0.00125093  0.66311840  0.83927884  1
  Te  Te198  1  0.33275893  -0.00029031  0.16655640  1
  Te  Te199  1  0.32607167  -0.00612956  0.49919413  1
  Te  Te200  1  0.33248213  -0.00597360  0.83365644  1
  Te  Te201  1  0.33252679  0.33779630  0.16653948  1
  Te  Te202  1  0.32780011  0.33504732  0.49496847  1
  Te  Te203  1  0.33298959  0.33389935  0.84078907  1
  Te  Te204  1  0.32781319  0.66374680  0.16265672  1
  Te  Te205  1  0.32584284  0.67205760  0.49892920  1
  Te  Te206  1  0.33674217  0.67123665  0.83884607  1
  Te  Te207  1  0.66200634  0.00008699  0.17057106  1
  Te  Te208  1  0.66866831  -0.00062652  0.49957689  1
  Te  Te209  1  0.66294038  0.00057835  0.82994335  1
  Te  Te210  1  0.66774692  0.33238118  0.16605188  1
  Te  Te211  1  0.66735572  0.33215442  0.49715589  1
  Te  Te212  1  0.66615701  0.33260419  0.84146026  1
  Te  Te213  1  0.66779527  0.66705810  0.16496979  1
  Te  Te214  1  0.66886173  0.66572084  0.50081239  1
  Te  Te215  1  0.65922410  0.66569737  0.83711814  1
