# generated using pymatgen
data_AgSbTe2
_symmetry_space_group_name_H-M   'P 1'
_cell_length_a   18.36251319
_cell_length_b   18.36440333
_cell_length_c   18.34999801
_cell_angle_alpha   89.99429122
_cell_angle_beta   89.99231661
_cell_angle_gamma   89.99891403
_symmetry_Int_Tables_number   1
_chemical_formula_structural   AgSbTe2
_chemical_formula_sum   'Ag54 Sb54 Te108'
_cell_volume   6187.92382305
_cell_formula_units_Z   54
loop_
 _symmetry_equiv_pos_site_id
 _symmetry_equiv_pos_as_xyz
  1  'x, y, z'
loop_
 _atom_site_type_symbol
 _atom_site_label
 _atom_site_symmetry_multiplicity
 _atom_site_fract_x
 _atom_site_fract_y
 _atom_site_fract_z
 _atom_site_occupancy
  Ag  Ag0  1  0.83461987  0.32189628  0.49733866  1
  Ag  Ag1  1  0.33283118  0.31806977  0.66508618  1
  Ag  Ag2  1  0.16246796  0.51216168  -0.00003939  1
  Ag  Ag3  1  0.16396203  0.83378457  0.68034741  1
  Ag  Ag4  1  0.33268214  0.51134431  0.83579094  1
  Ag  Ag5  1  -0.00423398  0.16508309  0.16000316  1
  Ag  Ag6  1  0.32879549  0.67645213  -0.00045769  1
  Ag  Ag7  1  0.16068090  0.15450406  0.00373053  1
  Ag  Ag8  1  0.66903397  0.49882462  0.16333068  1
  Ag  Ag9  1  0.33378439  0.15587457  0.49106919  1
  Ag  Ag10  1  0.49956091  0.66612910  0.16270504  1
  Ag  Ag11  1  0.67000081  0.83911273  0.15407854  1
  Ag  Ag12  1  0.84094588  0.83674376  0.68254077  1
  Ag  Ag13  1  0.32580919  0.83541364  0.83766836  1
  Ag  Ag14  1  -0.00277389  -0.00552849  0.00168829  1
  Ag  Ag15  1  0.17214723  -0.00616735  0.83905225  1
  Ag  Ag16  1  -0.00108138  0.16318012  0.49608938  1
  Ag  Ag17  1  0.49378212  0.16535040  0.33238560  1
  Ag  Ag18  1  0.49537167  0.16188825  0.65559519  1
  Ag  Ag19  1  0.66915065  0.16308313  0.16684877  1
  Ag  Ag20  1  0.48859097  -0.00290262  0.83607548  1
  Ag  Ag21  1  0.83245420  0.32294062  0.16104666  1
  Ag  Ag22  1  0.16367955  0.83497440  -0.00250001  1
  Ag  Ag23  1  0.67789079  0.83635445  0.84286579  1
  Ag  Ag24  1  -0.00116372  0.67507191  -0.00055796  1
  Ag  Ag25  1  0.00414962  0.67238127  0.68093454  1
  Ag  Ag26  1  0.83334735  0.00420527  0.15719363  1
  Ag  Ag27  1  0.33367549  0.67256154  0.32620381  1
  Ag  Ag28  1  0.33448691  0.16328635  0.16999031  1
  Ag  Ag29  1  0.83405609  0.00334952  0.50186460  1
  Ag  Ag30  1  0.17310368  0.16245784  0.32515017  1
  Ag  Ag31  1  0.68214467  -0.00884468  0.00174176  1
  Ag  Ag32  1  0.17084734  0.67932749  0.50603151  1
  Ag  Ag33  1  0.33265527  0.00062174  0.65656818  1
  Ag  Ag34  1  0.49508977  0.49520324  0.32851564  1
  Ag  Ag35  1  0.32927472  -0.00651388  -0.00070841  1
  Ag  Ag36  1  0.33339133  0.00163014  0.34342779  1
  Ag  Ag37  1  0.33159022  0.50163715  0.50162189  1
  Ag  Ag38  1  0.84440487  0.50787207  0.00286778  1
  Ag  Ag39  1  -0.00120713  0.32888838  0.00325655  1
  Ag  Ag40  1  0.84307659  0.67732860  0.84136923  1
  Ag  Ag41  1  0.48820407  0.00451295  0.50366532  1
  Ag  Ag42  1  0.66622820  0.16136952  0.49389513  1
  Ag  Ag43  1  -0.00609043  0.83882856  0.15872144  1
  Ag  Ag44  1  0.50471811  0.33122116  0.16618594  1
  Ag  Ag45  1  0.82868780  0.83753032  -0.00136733  1
  Ag  Ag46  1  0.17724060  -0.00243656  0.50497474  1
  Ag  Ag47  1  0.16574315  0.67684394  0.83833781  1
  Ag  Ag48  1  0.67864642  0.68085507  0.00233551  1
  Ag  Ag49  1  -0.00680550  0.50156693  0.15976429  1
  Ag  Ag50  1  0.32996238  0.84560934  0.50628193  1
  Ag  Ag51  1  0.83470539  -0.00655345  0.84617648  1
  Ag  Ag52  1  0.84079378  0.15108259  0.00872016  1
  Ag  Ag53  1  0.51324936  0.83630396  -0.00142539  1
  Sb  Sb54  1  0.32875384  0.33166407  -0.00126795  1
  Sb  Sb55  1  0.33456451  0.83768899  0.15852767  1
  Sb  Sb56  1  0.00774206  0.66729725  0.32679692  1
  Sb  Sb57  1  0.66228504  0.00162811  0.32889132  1
  Sb  Sb58  1  0.49714483  0.50665696  0.00497569  1
  Sb  Sb59  1  0.67220005  0.32996137  0.00273224  1
  Sb  Sb60  1  0.33476618  0.32707224  0.33638551  1
  Sb  Sb61  1  0.33437064  0.49709043  0.16546919  1
  Sb  Sb62  1  0.67249918  0.67022488  0.67521948  1
  Sb  Sb63  1  0.83011899  0.67029592  0.15987201  1
  Sb  Sb64  1  0.82873048  0.49960567  0.32342031  1
  Sb  Sb65  1  0.49591360  0.83754687  0.32725652  1
  Sb  Sb66  1  0.17347538  0.49842813  0.32972934  1
  Sb  Sb67  1  0.66676429  0.15738264  0.83952599  1
  Sb  Sb68  1  0.00429095  0.49699993  0.49332929  1
  Sb  Sb69  1  -0.00109823  0.33024784  0.32460808  1
  Sb  Sb70  1  0.66528357  0.32974797  0.32875040  1
  Sb  Sb71  1  0.84021414  0.67124978  0.50808032  1
  Sb  Sb72  1  0.16354218  0.00120008  0.16021744  1
  Sb  Sb73  1  0.00645788  0.50512849  0.84313814  1
  Sb  Sb74  1  0.49498114  0.49519049  0.66110447  1
  Sb  Sb75  1  0.00131904  0.83450580  0.84233290  1
  Sb  Sb76  1  0.17103138  0.83910059  0.32896004  1
  Sb  Sb77  1  0.66256312  0.32919916  0.66385268  1
  Sb  Sb78  1  0.16932209  0.33135977  0.83585925  1
  Sb  Sb79  1  -0.00005996  0.16295798  0.83949261  1
  Sb  Sb80  1  0.17059286  0.15716860  0.66802453  1
  Sb  Sb81  1  0.49868597  0.15913370  0.00452068  1
  Sb  Sb82  1  0.16733247  0.32538227  0.50099599  1
  Sb  Sb83  1  0.50193534  0.00046312  0.16314540  1
  Sb  Sb84  1  0.83361232  0.33216831  0.83975043  1
  Sb  Sb85  1  0.00307168  -0.00481952  0.66996709  1
  Sb  Sb86  1  0.00572400  0.00255612  0.32902483  1
  Sb  Sb87  1  0.66232842  0.51028377  0.84457758  1
  Sb  Sb88  1  0.32917342  0.67418439  0.66971034  1
  Sb  Sb89  1  0.49459941  0.83939286  0.67324330  1
  Sb  Sb90  1  0.66266827  -0.00105932  0.67272555  1
  Sb  Sb91  1  0.16834343  0.50840195  0.67179944  1
  Sb  Sb92  1  0.83050807  0.15970643  0.66585791  1
  Sb  Sb93  1  0.66248799  0.49700569  0.49284392  1
  Sb  Sb94  1  0.16450977  0.32975340  0.16344584  1
  Sb  Sb95  1  0.65941013  0.66722709  0.32275868  1
  Sb  Sb96  1  0.33365519  0.15647625  0.83518818  1
  Sb  Sb97  1  0.49495609  0.67546701  0.84017685  1
  Sb  Sb98  1  0.00623943  0.83960027  0.49588839  1
  Sb  Sb99  1  0.83316324  0.83529866  0.32622620  1
  Sb  Sb100  1  0.48976282  0.67273263  0.49487827  1
  Sb  Sb101  1  0.83307114  0.16474846  0.32895453  1
  Sb  Sb102  1  0.16982235  0.66710012  0.15943583  1
  Sb  Sb103  1  0.00397729  0.33448515  0.66853235  1
  Sb  Sb104  1  0.49650670  0.32724662  0.83866885  1
  Sb  Sb105  1  0.50042487  0.32379218  0.49453624  1
  Sb  Sb106  1  0.83534239  0.50385639  0.67436368  1
  Sb  Sb107  1  0.66273520  0.83957890  0.50179749  1
  Te  Te108  1  0.16742196  0.16616798  0.16475811  1
  Te  Te109  1  0.17250918  0.16174992  0.50310281  1
  Te  Te110  1  0.16609310  0.16112668  0.83943353  1
  Te  Te111  1  0.16339907  0.49806944  0.16153199  1
  Te  Te112  1  0.16984022  0.49729220  0.49924307  1
  Te  Te113  1  0.17282609  0.50171695  0.83863028  1
  Te  Te114  1  0.16241573  0.83339679  0.16183971  1
  Te  Te115  1  0.17046333  0.83640094  0.49471513  1
  Te  Te116  1  0.16513151  0.83438912  0.83567621  1
  Te  Te117  1  0.50075074  0.16672906  0.16783224  1
  Te  Te118  1  0.49647152  0.16447502  0.49642137  1
  Te  Te119  1  0.50197288  0.15930486  0.83117781  1
  Te  Te120  1  0.50080254  0.49900622  0.16870580  1
  Te  Te121  1  0.49707161  0.49961572  0.49241120  1
  Te  Te122  1  0.49416594  0.49982116  0.83191768  1
  Te  Te123  1  0.50224573  0.83137519  0.16047627  1
  Te  Te124  1  0.49432795  0.84045821  0.50183038  1
  Te  Te125  1  0.49507860  0.83866964  0.83761150  1
  Te  Te126  1  0.83290141  0.16506294  0.16752016  1
  Te  Te127  1  0.83184452  0.16429956  0.49888394  1
  Te  Te128  1  0.83185668  0.16330861  0.83699311  1
  Te  Te129  1  0.83181248  0.49998788  0.16253452  1
  Te  Te130  1  0.83296925  0.50071430  0.49939203  1
  Te  Te131  1  0.83098634  0.50111144  0.84106672  1
  Te  Te132  1  0.83185024  0.83699805  0.16215345  1
  Te  Te133  1  0.83294101  0.83628542  0.49634089  1
  Te  Te134  1  0.83709471  0.83320478  0.83848347  1
  Te  Te135  1  0.16645612  -0.00236469  -0.00000784  1
  Te  Te136  1  0.17208231  0.00462709  0.33951405  1
  Te  Te137  1  0.16882568  -0.00616420  0.66706989  1
  Te  Te138  1  0.16011103  0.33280529  -0.00096950  1
  Te  Te139  1  0.16651889  0.32496263  0.33315013  1
  Te  Te140  1  0.17286092  0.33547838  0.66800895  1
  Te  Te141  1  0.16757933  0.66922541  -0.00092903  1
  Te  Te142  1  0.17428957  0.66575079  0.33859768  1
  Te  Te143  1  0.16342410  0.67293868  0.66743931  1
  Te  Te144  1  0.49040841  -0.00386759  -0.00253265  1
  Te  Te145  1  0.49514430  0.00395478  0.33604422  1
  Te  Te146  1  0.49680156  0.00219667  0.66768056  1
  Te  Te147  1  0.49983434  0.33271754  0.00556556  1
  Te  Te148  1  0.49934111  0.33147704  0.32736178  1
  Te  Te149  1  0.49481217  0.32637980  0.66610298  1
  Te  Te150  1  0.49208233  0.67204340  0.00300933  1
  Te  Te151  1  0.49303745  0.66625585  0.32778519  1
  Te  Te152  1  0.50264817  0.66587598  0.66571690  1
  Te  Te153  1  0.83721148  -0.00292320  0.00202823  1
  Te  Te154  1  0.83368611  -0.00029497  0.34054975  1
  Te  Te155  1  0.83416400  -0.00468853  0.66321285  1
  Te  Te156  1  0.83783060  0.33897851  0.00357236  1
  Te  Te157  1  0.83288670  0.33413762  0.33555918  1
  Te  Te158  1  0.83436308  0.33382123  0.66492648  1
  Te  Te159  1  0.83539020  0.66805931  0.00001285  1
  Te  Te160  1  0.83457849  0.66625122  0.33702588  1
  Te  Te161  1  0.84032205  0.67174735  0.67571309  1
  Te  Te162  1  -0.00073730  0.16327094  0.00098879  1
  Te  Te163  1  0.00544268  0.16670701  0.33559622  1
  Te  Te164  1  -0.00018978  0.16874004  0.65894401  1
  Te  Te165  1  0.00224267  0.50372055  0.00318037  1
  Te  Te166  1  0.00069511  0.49884454  0.32302815  1
  Te  Te167  1  0.00035290  0.50595920  0.66408656  1
  Te  Te168  1  0.00232668  0.83389210  0.00291376  1
  Te  Te169  1  0.00103720  0.83388412  0.31982742  1
  Te  Te170  1  0.00102452  0.82985152  0.65929729  1
  Te  Te171  1  0.32983303  0.16728982  0.00324763  1
  Te  Te172  1  0.33357306  0.16483238  0.33257021  1
  Te  Te173  1  0.33486628  0.16090410  0.66888051  1
  Te  Te174  1  0.32927442  0.49908710  -0.00216330  1
  Te  Te175  1  0.33583286  0.50282681  0.33411561  1
  Te  Te176  1  0.33306240  0.50380900  0.66514000  1
  Te  Te177  1  0.32346837  0.83308274  -0.00023060  1
  Te  Te178  1  0.33455003  0.83387490  0.33714267  1
  Te  Te179  1  0.32999039  0.83930072  0.66752136  1
  Te  Te180  1  0.66929362  0.16280336  0.00568082  1
  Te  Te181  1  0.66054077  0.16507219  0.33267401  1
  Te  Te182  1  0.66102474  0.16565315  0.65972101  1
  Te  Te183  1  0.66540011  0.50031069  0.00569105  1
  Te  Te184  1  0.65800930  0.50061413  0.32463581  1
  Te  Te185  1  0.66534635  0.49980748  0.66659310  1
  Te  Te186  1  0.66779280  0.83572679  -0.00125987  1
  Te  Te187  1  0.66473944  0.83272275  0.32689094  1
  Te  Te188  1  0.67494567  0.83286285  0.67042258  1
  Te  Te189  1  -0.00334638  0.00364480  0.16439660  1
  Te  Te190  1  -0.00249887  0.00392427  0.50008479  1
  Te  Te191  1  -0.00372442  0.00116666  0.83664046  1
  Te  Te192  1  -0.00378215  0.32726406  0.16149688  1
  Te  Te193  1  -0.00404071  0.32908471  0.50073270  1
  Te  Te194  1  0.00032180  0.33483447  0.83833371  1
  Te  Te195  1  0.00030206  0.66404006  0.16163769  1
  Te  Te196  1  0.00846407  0.66644227  0.49555576  1
  Te  Te197  1  0.00273959  0.66566095  0.83800180  1
  Te  Te198  1  0.33402746  0.00264057  0.16228175  1
  Te  Te199  1  0.33291919  0.00136368  0.49992134  1
  Te  Te200  1  0.33093826  -0.00333756  0.83937783  1
  Te  Te201  1  0.33779727  0.32780695  0.16703393  1
  Te  Te202  1  0.33428302  0.33867098  0.50433557  1
  Te  Te203  1  0.33483394  0.33800952  0.82683381  1
  Te  Te204  1  0.33654320  0.66633112  0.16490288  1
  Te  Te205  1  0.32960042  0.66208254  0.50279683  1
  Te  Te206  1  0.32978171  0.67099210  0.83598723  1
  Te  Te207  1  0.66821806  0.00044792  0.16356442  1
  Te  Te208  1  0.67007439  0.00240034  0.50024818  1
  Te  Te209  1  0.67403571  -0.00433244  0.83880897  1
  Te  Te210  1  0.66957584  0.33080868  0.16527031  1
  Te  Te211  1  0.67266122  0.32848198  0.49864639  1
  Te  Te212  1  0.66480204  0.33496254  0.83237916  1
  Te  Te213  1  0.66301914  0.66670087  0.16061312  1
  Te  Te214  1  0.66728683  0.66745619  0.49896383  1
  Te  Te215  1  0.66731842  0.67435298  0.84175130  1
