# generated using pymatgen
data_AgSbTe2
_symmetry_space_group_name_H-M   'P 1'
_cell_length_a   18.31901596
_cell_length_b   18.32112635
_cell_length_c   18.32346229
_cell_angle_alpha   90.00350393
_cell_angle_beta   89.99880453
_cell_angle_gamma   89.99703220
_symmetry_Int_Tables_number   1
_chemical_formula_structural   AgSbTe2
_chemical_formula_sum   'Ag54 Sb54 Te108'
_cell_volume   6149.81211912
_cell_formula_units_Z   54
loop_
 _symmetry_equiv_pos_site_id
 _symmetry_equiv_pos_as_xyz
  1  'x, y, z'
loop_
 _atom_site_type_symbol
 _atom_site_label
 _atom_site_symmetry_multiplicity
 _atom_site_fract_x
 _atom_site_fract_y
 _atom_site_fract_z
 _atom_site_occupancy
  Ag  Ag0  1  0.00350526  0.66628946  0.33851891  1
  Ag  Ag1  1  0.16895340  -0.00697641  0.50263873  1
  Ag  Ag2  1  0.66782206  0.32301666  0.67548665  1
  Ag  Ag3  1  0.82472691  0.49421923  0.00745091  1
  Ag  Ag4  1  0.83176241  0.33419755  0.49418036  1
  Ag  Ag5  1  0.66691702  0.83814964  0.16131335  1
  Ag  Ag6  1  0.83420831  0.83491849  0.66088727  1
  Ag  Ag7  1  0.16732566  0.50232109  0.65528921  1
  Ag  Ag8  1  0.83304773  0.66969634  0.16931537  1
  Ag  Ag9  1  0.00381845  0.82832884  0.49694308  1
  Ag  Ag10  1  0.50501500  0.49195045  0.00670257  1
  Ag  Ag11  1  -0.00985435  0.16637007  0.83323259  1
  Ag  Ag12  1  0.32748136  0.67412996  0.65575969  1
  Ag  Ag13  1  0.66414864  -0.00169190  0.00486777  1
  Ag  Ag14  1  0.66838329  0.48798799  0.83952182  1
  Ag  Ag15  1  -0.00105798  -0.00487932  0.66534955  1
  Ag  Ag16  1  0.49459301  0.49643835  0.32554827  1
  Ag  Ag17  1  0.34712182  0.33855146  0.00221209  1
  Ag  Ag18  1  0.32719028  0.82912261  0.49759550  1
  Ag  Ag19  1  0.50416773  0.16495159  0.32899339  1
  Ag  Ag20  1  0.33903289  0.83519523  0.82952531  1
  Ag  Ag21  1  0.33853752  0.82986896  0.17144921  1
  Ag  Ag22  1  0.66628859  0.66370698  0.00115157  1
  Ag  Ag23  1  0.50414002  0.17044400  0.00425199  1
  Ag  Ag24  1  0.32407946  0.50721011  0.48973314  1
  Ag  Ag25  1  -0.01471771  0.83321792  0.17390458  1
  Ag  Ag26  1  0.50563501  0.33137520  0.16370311  1
  Ag  Ag27  1  0.82865334  0.33293317  0.83904915  1
  Ag  Ag28  1  0.66692209  0.16520834  0.50208533  1
  Ag  Ag29  1  -0.01411890  0.33519527  0.00064757  1
  Ag  Ag30  1  0.00580473  0.50894758  0.49712199  1
  Ag  Ag31  1  0.82732285  0.33668912  0.16394593  1
  Ag  Ag32  1  0.32848429  0.66723564  0.33694358  1
  Ag  Ag33  1  0.66519314  0.00250786  0.32495081  1
  Ag  Ag34  1  0.17223966  0.50106743  0.33645924  1
  Ag  Ag35  1  0.82360514  -0.00871267  0.17054990  1
  Ag  Ag36  1  0.16732039  0.16636541  0.33518539  1
  Ag  Ag37  1  0.66750525  0.33683191  -0.00294469  1
  Ag  Ag38  1  0.83469492  0.83423783  0.32987172  1
  Ag  Ag39  1  0.50526631  0.00146993  0.16730577  1
  Ag  Ag40  1  0.16772937  0.49797223  0.00208990  1
  Ag  Ag41  1  0.16767458  0.00000517  0.82461145  1
  Ag  Ag42  1  0.33732379  0.50430014  0.17268551  1
  Ag  Ag43  1  0.33202619  -0.00662510  0.66007725  1
  Ag  Ag44  1  0.66575792  0.83923871  0.84335801  1
  Ag  Ag45  1  0.83232430  0.50028384  0.32775763  1
  Ag  Ag46  1  0.82771221  0.16362878  0.33272221  1
  Ag  Ag47  1  0.66897824  0.16759524  0.83100393  1
  Ag  Ag48  1  0.66586116  0.00426169  0.66912418  1
  Ag  Ag49  1  0.50618269  0.16449392  0.66864781  1
  Ag  Ag50  1  0.16521342  0.66714367  0.49919421  1
  Ag  Ag51  1  0.50496080  0.83509318  0.00418713  1
  Ag  Ag52  1  0.00434029  0.67229057  0.65723026  1
  Ag  Ag53  1  0.33628896  -0.00630748  0.33663633  1
  Sb  Sb54  1  -0.00032976  -0.00528879  0.33727783  1
  Sb  Sb55  1  0.66517756  0.50273994  0.16142119  1
  Sb  Sb56  1  0.16444237  0.66513143  0.17266352  1
  Sb  Sb57  1  -0.00451286  0.66232227  0.00303569  1
  Sb  Sb58  1  0.66759260  0.83833146  0.49834788  1
  Sb  Sb59  1  0.50495909  0.33168568  0.49338316  1
  Sb  Sb60  1  0.66866635  0.49532623  0.50080406  1
  Sb  Sb61  1  0.33640786  0.50392356  0.83645205  1
  Sb  Sb62  1  0.50049948  0.83966252  0.67065728  1
  Sb  Sb63  1  0.49695665  0.00117218  0.49519789  1
  Sb  Sb64  1  0.50389779  0.66678804  0.16603172  1
  Sb  Sb65  1  0.50053104  0.00043829  0.83854354  1
  Sb  Sb66  1  0.16173362  0.33001033  0.83514099  1
  Sb  Sb67  1  0.33755008  0.16713781  0.16868316  1
  Sb  Sb68  1  0.33484371  0.33689350  0.32933088  1
  Sb  Sb69  1  0.17169933  0.82912680  -0.00058937  1
  Sb  Sb70  1  0.82578795  0.83015809  0.00472197  1
  Sb  Sb71  1  0.50027206  0.83540306  0.32783180  1
  Sb  Sb72  1  0.16750900  0.66866346  0.82695763  1
  Sb  Sb73  1  0.16956516  0.16570250  0.66348235  1
  Sb  Sb74  1  0.16475699  0.83221246  0.66425157  1
  Sb  Sb75  1  -0.00189171  0.50366717  0.17119598  1
  Sb  Sb76  1  0.16159527  0.33697129  0.49940561  1
  Sb  Sb77  1  -0.00222604  0.83725151  0.82994652  1
  Sb  Sb78  1  0.16869973  -0.00153347  0.17014340  1
  Sb  Sb79  1  0.33832470  0.66331213  0.00404344  1
  Sb  Sb80  1  0.50026702  0.66784462  0.83424034  1
  Sb  Sb81  1  -0.00389036  0.16365519  0.16455362  1
  Sb  Sb82  1  0.16751378  0.33601768  0.16524653  1
  Sb  Sb83  1  0.82365025  0.17257423  0.00379419  1
  Sb  Sb84  1  -0.00349455  0.16488048  0.50226037  1
  Sb  Sb85  1  0.66604331  0.16005757  0.16535293  1
  Sb  Sb86  1  0.83459479  0.00142756  0.49640216  1
  Sb  Sb87  1  0.50783224  0.33232209  0.84296831  1
  Sb  Sb88  1  0.33676810  0.16556154  0.49746116  1
  Sb  Sb89  1  0.83614347  0.50341936  0.66569170  1
  Sb  Sb90  1  0.49108865  0.66518774  0.49774813  1
  Sb  Sb91  1  -0.00399753  0.33790411  0.32911530  1
  Sb  Sb92  1  0.83019131  0.00295140  0.83567588  1
  Sb  Sb93  1  0.66778056  0.67066366  0.67182136  1
  Sb  Sb94  1  0.17052974  0.17010361  0.00252610  1
  Sb  Sb95  1  0.33933039  0.33323044  0.66967433  1
  Sb  Sb96  1  0.84016858  0.66412640  0.49305043  1
  Sb  Sb97  1  0.82724586  0.16311477  0.66356175  1
  Sb  Sb98  1  0.83180344  0.66455367  0.83784369  1
  Sb  Sb99  1  0.66882473  0.32743048  0.32757839  1
  Sb  Sb100  1  0.33721117  0.16263794  0.83347832  1
  Sb  Sb101  1  0.33934769  0.00012595  0.00229046  1
  Sb  Sb102  1  -0.00668648  0.00301666  -0.00271062  1
  Sb  Sb103  1  0.66782274  0.66988470  0.32903924  1
  Sb  Sb104  1  -0.00330580  0.49695698  0.83193295  1
  Sb  Sb105  1  0.16541564  0.83118092  0.33529757  1
  Sb  Sb106  1  0.49739679  0.49526405  0.66582922  1
  Sb  Sb107  1  -0.00650136  0.33251442  0.66899937  1
  Te  Te108  1  0.16582064  0.16740864  0.17490478  1
  Te  Te109  1  0.16604438  0.16601055  0.49550267  1
  Te  Te110  1  0.16696162  0.16084121  0.83297494  1
  Te  Te111  1  0.17079561  0.50024340  0.16804811  1
  Te  Te112  1  0.16560261  0.49963195  0.49740041  1
  Te  Te113  1  0.16645332  0.49970165  0.83898162  1
  Te  Te114  1  0.17551572  0.83256938  0.16544829  1
  Te  Te115  1  0.16640860  0.83367211  0.49998057  1
  Te  Te116  1  0.16991184  0.83973914  0.83414125  1
  Te  Te117  1  0.50026218  0.16662288  0.16741694  1
  Te  Te118  1  0.50616829  0.16721516  0.49448167  1
  Te  Te119  1  0.50513421  0.16648282  0.83395238  1
  Te  Te120  1  0.49919139  0.50073804  0.16650939  1
  Te  Te121  1  0.49642019  0.49794415  0.49582894  1
  Te  Te122  1  0.50620924  0.50021723  0.83793255  1
  Te  Te123  1  0.50010898  0.83432421  0.16402493  1
  Te  Te124  1  0.49271884  0.83287911  0.49955691  1
  Te  Te125  1  0.50166508  0.83412120  0.83908606  1
  Te  Te126  1  0.83365413  0.17092645  0.17353574  1
  Te  Te127  1  0.82945068  0.17027463  0.49455423  1
  Te  Te128  1  0.83114536  0.17007063  0.83323236  1
  Te  Te129  1  0.83332540  0.49854241  0.16686825  1
  Te  Te130  1  0.83663106  0.49594691  0.49717501  1
  Te  Te131  1  0.82871469  0.49637413  0.83546916  1
  Te  Te132  1  0.82961333  0.83366599  0.16699587  1
  Te  Te133  1  0.83649346  0.83267885  0.49667125  1
  Te  Te134  1  0.82885152  0.83379031  0.83215258  1
  Te  Te135  1  0.16575246  0.00099188  -0.00155787  1
  Te  Te136  1  0.16981098  0.00248331  0.33680662  1
  Te  Te137  1  0.16972983  0.00226290  0.66472619  1
  Te  Te138  1  0.16638114  0.33751570  -0.00047908  1
  Te  Te139  1  0.16584320  0.33356072  0.33287928  1
  Te  Te140  1  0.16760388  0.33944873  0.66776493  1
  Te  Te141  1  0.16585291  0.65928010  -0.00091626  1
  Te  Te142  1  0.16703160  0.66261218  0.33796347  1
  Te  Te143  1  0.16650855  0.66322806  0.66219322  1
  Te  Te144  1  0.50361913  0.00147824  0.00566695  1
  Te  Te145  1  0.50066950  0.00134557  0.32899201  1
  Te  Te146  1  0.50037466  0.00453761  0.66565085  1
  Te  Te147  1  0.50415666  0.33266635  0.00474848  1
  Te  Te148  1  0.50188220  0.33328360  0.32559789  1
  Te  Te149  1  0.50637139  0.32701977  0.66457794  1
  Te  Te150  1  0.50582227  0.66789516  -0.00004976  1
  Te  Te151  1  0.49621209  0.65885355  0.33284627  1
  Te  Te152  1  0.49343827  0.66582965  0.66577961  1
  Te  Te153  1  0.82728056  0.00236576  0.00742456  1
  Te  Te154  1  0.83268658  -0.00088057  0.33107502  1
  Te  Te155  1  0.83327990  -0.00379894  0.66639959  1
  Te  Te156  1  0.82918427  0.33398126  0.00061085  1
  Te  Te157  1  0.83207333  0.33569215  0.33130693  1
  Te  Te158  1  0.82761443  0.33429078  0.66822512  1
  Te  Te159  1  0.82947503  0.65899424  0.00526960  1
  Te  Te160  1  0.83382257  0.66626745  0.32889802  1
  Te  Te161  1  0.83672937  0.67235195  0.66635057  1
  Te  Te162  1  0.00257173  0.17165276  -0.00492457  1
  Te  Te163  1  -0.00108813  0.16641982  0.33357562  1
  Te  Te164  1  0.00059534  0.16323953  0.67080708  1
  Te  Te165  1  0.00088187  0.49647427  0.00066650  1
  Te  Te166  1  -0.00324852  0.50411737  0.33602863  1
  Te  Te167  1  0.00429264  0.50063047  0.66312624  1
  Te  Te168  1  0.00093802  0.83266425  0.00217139  1
  Te  Te169  1  -0.00222210  0.82947115  0.33389103  1
  Te  Te170  1  -0.00289468  0.83462845  0.66558255  1
  Te  Te171  1  0.33957406  0.17225246  0.00058110  1
  Te  Te172  1  0.33685747  0.16326351  0.33343317  1
  Te  Te173  1  0.34033767  0.16220914  0.66595604  1
  Te  Te174  1  0.33648748  0.49910872  0.00140222  1
  Te  Te175  1  0.33393562  0.49947135  0.33219444  1
  Te  Te176  1  0.33071551  0.50145929  0.66753048  1
  Te  Te177  1  0.33933788  0.83159309  0.00180099  1
  Te  Te178  1  0.33349977  0.83312283  0.33430885  1
  Te  Te179  1  0.33438091  0.83417658  0.66584503  1
  Te  Te180  1  0.66280451  0.16472764  -0.00399142  1
  Te  Te181  1  0.66675097  0.16287491  0.33484775  1
  Te  Te182  1  0.66634792  0.16516845  0.66767662  1
  Te  Te183  1  0.66597358  0.49997959  -0.00002445  1
  Te  Te184  1  0.66952415  0.50060643  0.33418660  1
  Te  Te185  1  0.66605068  0.50078583  0.67305154  1
  Te  Te186  1  0.66574958  0.83664668  0.00091695  1
  Te  Te187  1  0.67028634  0.83863385  0.33167853  1
  Te  Te188  1  0.66947020  0.83693516  0.66665746  1
  Te  Te189  1  -0.00099782  -0.00662963  0.16586799  1
  Te  Te190  1  0.00416787  -0.00314380  0.50516437  1
  Te  Te191  1  0.00212220  0.00459042  0.82969957  1
  Te  Te192  1  -0.00476788  0.33317237  0.16031890  1
  Te  Te193  1  -0.00744676  0.33457509  0.50058354  1
  Te  Te194  1  -0.00614529  0.32909762  0.83706682  1
  Te  Te195  1  -0.00431988  0.67277682  0.17076804  1
  Te  Te196  1  0.00223122  0.66801678  0.49964849  1
  Te  Te197  1  0.00017546  0.66723270  0.82610809  1
  Te  Te198  1  0.33635109  -0.00359831  0.17075987  1
  Te  Te199  1  0.33023753  -0.00035997  0.49853383  1
  Te  Te200  1  0.33115823  -0.00446929  0.83276275  1
  Te  Te201  1  0.33627912  0.33825013  0.16206513  1
  Te  Te202  1  0.33319294  0.34011416  0.50211120  1
  Te  Te203  1  0.33192274  0.33317530  0.83947317  1
  Te  Te204  1  0.33218822  0.66688903  0.17146262  1
  Te  Te205  1  0.32823779  0.66681770  0.49811868  1
  Te  Te206  1  0.33280560  0.67427260  0.82958625  1
  Te  Te207  1  0.66588129  -0.00254894  0.16711941  1
  Te  Te208  1  0.66661919  0.00433662  0.50446627  1
  Te  Te209  1  0.66650244  0.00018721  0.83088758  1
  Te  Te210  1  0.66635747  0.33385061  0.16122854  1
  Te  Te211  1  0.67182791  0.32928568  0.50297052  1
  Te  Te212  1  0.66897308  0.33082106  0.83466352  1
  Te  Te213  1  0.67205313  0.67521036  0.16295637  1
  Te  Te214  1  0.66605954  0.66691425  0.50099773  1
  Te  Te215  1  0.66680290  0.67537992  0.83894809  1
