# generated using pymatgen
data_AgSbTe2
_symmetry_space_group_name_H-M   'P 1'
_cell_length_a   18.32417708
_cell_length_b   18.32690141
_cell_length_c   18.31653850
_cell_angle_alpha   90.00208294
_cell_angle_beta   90.00170076
_cell_angle_gamma   89.99811648
_symmetry_Int_Tables_number   1
_chemical_formula_structural   AgSbTe2
_chemical_formula_sum   'Ag54 Sb54 Te108'
_cell_volume   6151.15861377
_cell_formula_units_Z   54
loop_
 _symmetry_equiv_pos_site_id
 _symmetry_equiv_pos_as_xyz
  1  'x, y, z'
loop_
 _atom_site_type_symbol
 _atom_site_label
 _atom_site_symmetry_multiplicity
 _atom_site_fract_x
 _atom_site_fract_y
 _atom_site_fract_z
 _atom_site_occupancy
  Ag  Ag0  1  0.33354404  0.00382629  0.66751929  1
  Ag  Ag1  1  0.66243942  0.66887419  0.33892689  1
  Ag  Ag2  1  0.00234988  0.83187501  0.50140656  1
  Ag  Ag3  1  0.00068744  0.50135909  0.50569684  1
  Ag  Ag4  1  0.15931696  0.66494425  0.83976515  1
  Ag  Ag5  1  0.33172872  0.33542302  -0.00691686  1
  Ag  Ag6  1  0.50211754  -0.00674377  0.49607838  1
  Ag  Ag7  1  0.67149161  0.83288020  0.83302003  1
  Ag  Ag8  1  0.00024665  0.82447916  0.83127991  1
  Ag  Ag9  1  0.49470620  0.82955076  0.33511233  1
  Ag  Ag10  1  0.67080958  0.16731606  0.82323504  1
  Ag  Ag11  1  0.32487624  0.49966132  0.82634707  1
  Ag  Ag12  1  0.00335274  0.66963518  -0.00564264  1
  Ag  Ag13  1  0.33403797  0.50497080  0.50405979  1
  Ag  Ag14  1  0.16723932  -0.00762818  0.83704589  1
  Ag  Ag15  1  0.67058794  0.17204675  0.50218791  1
  Ag  Ag16  1  0.17232239  0.49826538  0.66890984  1
  Ag  Ag17  1  0.83400461  0.66797972  0.17370624  1
  Ag  Ag18  1  0.16923583  0.50879740  -0.01043458  1
  Ag  Ag19  1  0.50126025  0.17602606  0.66540630  1
  Ag  Ag20  1  0.50139951  0.33435572  0.82491145  1
  Ag  Ag21  1  0.48770564  0.67101220  0.17674056  1
  Ag  Ag22  1  0.66748528  0.50343605  0.50127537  1
  Ag  Ag23  1  0.17538207  -0.01114062  0.16398181  1
  Ag  Ag24  1  0.66825593  -0.00351484  0.33826265  1
  Ag  Ag25  1  0.33204482  0.82711008  0.49250668  1
  Ag  Ag26  1  0.84408467  0.83009444  -0.00303253  1
  Ag  Ag27  1  0.83159832  0.50316821  0.33691321  1
  Ag  Ag28  1  0.33410506  0.15126561  0.16742720  1
  Ag  Ag29  1  0.49158228  -0.00790358  0.17571382  1
  Ag  Ag30  1  0.83996735  0.66555779  0.83249145  1
  Ag  Ag31  1  -0.00693228  0.16438748  0.50443675  1
  Ag  Ag32  1  0.33047711  0.83127533  0.17349600  1
  Ag  Ag33  1  0.50648865  0.66983065  0.49566855  1
  Ag  Ag34  1  0.83022805  -0.00345329  0.49610983  1
  Ag  Ag35  1  -0.00258581  0.16918247  0.82607318  1
  Ag  Ag36  1  0.66857548  0.33456472  0.34610817  1
  Ag  Ag37  1  0.33224765  0.51088849  0.16961247  1
  Ag  Ag38  1  0.83201758  0.33831554  0.83301110  1
  Ag  Ag39  1  0.33009094  0.00072410  0.00476210  1
  Ag  Ag40  1  0.33905111  0.66990663  0.33228202  1
  Ag  Ag41  1  0.66089857  0.33665161  0.66340202  1
  Ag  Ag42  1  0.83028970  0.16855059  0.33678196  1
  Ag  Ag43  1  0.16478768  0.82686418  0.00354348  1
  Ag  Ag44  1  -0.00389168  -0.00302855  0.33871352  1
  Ag  Ag45  1  0.66552581  0.65767688  0.65693127  1
  Ag  Ag46  1  0.33806587  0.33732802  0.66952662  1
  Ag  Ag47  1  0.00547647  0.50574155  0.82512132  1
  Ag  Ag48  1  0.00308483  0.33581255  0.66609746  1
  Ag  Ag49  1  0.82754888  0.66579374  0.49790386  1
  Ag  Ag50  1  0.17174541  0.67046661  0.16278530  1
  Ag  Ag51  1  0.17436021  0.83238127  0.32917394  1
  Ag  Ag52  1  0.49361374  0.49494953  0.66476219  1
  Ag  Ag53  1  0.16548984  0.33803307  0.50234791  1
  Sb  Sb54  1  0.16418521  0.15933663  0.33441393  1
  Sb  Sb55  1  0.00586861  0.00451635  0.66338060  1
  Sb  Sb56  1  0.16747359  0.16559664  -0.00208622  1
  Sb  Sb57  1  0.66667029  0.83053076  0.50158223  1
  Sb  Sb58  1  0.49030612  0.50121907  -0.00433311  1
  Sb  Sb59  1  0.83297869  0.83053998  0.66827209  1
  Sb  Sb60  1  -0.00072391  0.67036697  0.33421409  1
  Sb  Sb61  1  0.66954165  0.50000182  0.82446262  1
  Sb  Sb62  1  0.00403160  0.16358624  0.16940951  1
  Sb  Sb63  1  0.16962024  0.17224556  0.66670473  1
  Sb  Sb64  1  0.50362335  0.16026777  0.33966134  1
  Sb  Sb65  1  0.66185533  -0.00232188  0.00268110  1
  Sb  Sb66  1  0.00615730  -0.00630741  0.00027809  1
  Sb  Sb67  1  0.17092551  0.33673499  0.17083001  1
  Sb  Sb68  1  0.83476693  0.49889505  0.66214208  1
  Sb  Sb69  1  0.00483517  0.50356463  0.16783334  1
  Sb  Sb70  1  0.33525095  0.16704661  0.49794448  1
  Sb  Sb71  1  0.83350244  -0.00699822  0.17338088  1
  Sb  Sb72  1  0.66046201  0.00176279  0.66073016  1
  Sb  Sb73  1  0.49605674  0.00253278  0.83013537  1
  Sb  Sb74  1  0.50065885  0.33709967  0.50510520  1
  Sb  Sb75  1  0.50339100  0.50727397  0.34209987  1
  Sb  Sb76  1  0.66211069  0.83111641  0.16607843  1
  Sb  Sb77  1  0.50097049  0.66270143  0.83066482  1
  Sb  Sb78  1  0.32492998  0.66668730  0.00624187  1
  Sb  Sb79  1  0.16761375  0.82767654  0.66742697  1
  Sb  Sb80  1  0.66053633  0.50348073  0.17671823  1
  Sb  Sb81  1  0.49393296  0.83219721  0.00464443  1
  Sb  Sb82  1  0.66182563  0.33435566  -0.00835538  1
  Sb  Sb83  1  0.32976494  0.82974204  0.83333319  1
  Sb  Sb84  1  0.49883516  0.83105072  0.66082263  1
  Sb  Sb85  1  0.33178382  0.17123397  0.83428796  1
  Sb  Sb86  1  0.49665145  0.33557862  0.16397818  1
  Sb  Sb87  1  0.66167073  0.16503562  0.17373695  1
  Sb  Sb88  1  -0.00307500  0.66118843  0.66952923  1
  Sb  Sb89  1  0.33876749  0.34100882  0.33665796  1
  Sb  Sb90  1  0.33437193  -0.00817751  0.33243231  1
  Sb  Sb91  1  0.00769136  0.83150125  0.16826192  1
  Sb  Sb92  1  0.00602629  0.34003155  -0.01099182  1
  Sb  Sb93  1  0.83698921  -0.00252027  0.82805677  1
  Sb  Sb94  1  0.16431118  0.50600549  0.33642220  1
  Sb  Sb95  1  0.67219154  0.66722905  -0.00046167  1
  Sb  Sb96  1  0.33691760  0.66125141  0.66139693  1
  Sb  Sb97  1  0.16737535  0.33954291  0.82754772  1
  Sb  Sb98  1  0.82895897  0.16847830  0.66136382  1
  Sb  Sb99  1  0.83221617  0.33954744  0.16589535  1
  Sb  Sb100  1  -0.00444481  0.33025687  0.34243168  1
  Sb  Sb101  1  0.83346686  0.33548780  0.50521459  1
  Sb  Sb102  1  0.49825739  0.16599553  -0.00424849  1
  Sb  Sb103  1  0.84024620  0.50705888  -0.00003485  1
  Sb  Sb104  1  0.83293908  0.83027049  0.33270108  1
  Sb  Sb105  1  0.83414320  0.16126433  0.00080878  1
  Sb  Sb106  1  0.16657901  0.66360464  0.50068047  1
  Sb  Sb107  1  0.16808310  -0.00044880  0.49976748  1
  Te  Te108  1  0.17246103  0.16437412  0.16659247  1
  Te  Te109  1  0.16174795  0.17161519  0.49928339  1
  Te  Te110  1  0.16197592  0.16027288  0.83277579  1
  Te  Te111  1  0.17208194  0.50458507  0.16744999  1
  Te  Te112  1  0.16496766  0.49883753  0.50204508  1
  Te  Te113  1  0.16558226  0.50013507  0.83133623  1
  Te  Te114  1  0.16804488  0.83158159  0.16653213  1
  Te  Te115  1  0.16633324  0.83218268  0.49787705  1
  Te  Te116  1  0.16426312  0.83118212  0.83480046  1
  Te  Te117  1  0.49506587  0.16488912  0.16678004  1
  Te  Te118  1  0.50322362  0.16188030  0.50470759  1
  Te  Te119  1  0.50217967  0.17016580  0.82812418  1
  Te  Te120  1  0.49310039  0.50460036  0.16526125  1
  Te  Te121  1  0.49849601  0.50324991  0.50447111  1
  Te  Te122  1  0.49903468  0.49575548  0.82784916  1
  Te  Te123  1  0.49565065  0.83206455  0.17024385  1
  Te  Te124  1  0.49847781  0.83141668  0.49614908  1
  Te  Te125  1  0.50421380  0.83264871  0.83502450  1
  Te  Te126  1  0.83273250  0.16587410  0.17294028  1
  Te  Te127  1  0.83297639  0.16843403  0.49673092  1
  Te  Te128  1  0.83441935  0.16603762  0.83419622  1
  Te  Te129  1  0.83334983  0.50707400  0.17013039  1
  Te  Te130  1  0.83263843  0.50112421  0.49709592  1
  Te  Te131  1  0.83823043  0.50274664  0.83537247  1
  Te  Te132  1  0.83299123  0.82728330  0.16108385  1
  Te  Te133  1  0.83844703  0.83202273  0.49992602  1
  Te  Te134  1  0.83729980  0.83234898  0.83513810  1
  Te  Te135  1  0.16995092  -0.00071906  0.00073370  1
  Te  Te136  1  0.16301872  -0.00574845  0.33058681  1
  Te  Te137  1  0.17377584  0.00100289  0.67035264  1
  Te  Te138  1  0.17289335  0.33713113  0.00131013  1
  Te  Te139  1  0.16633363  0.33273602  0.34009377  1
  Te  Te140  1  0.16756131  0.33801698  0.66322685  1
  Te  Te141  1  0.16500936  0.66684569  -0.00010597  1
  Te  Te142  1  0.16688947  0.67218914  0.32945138  1
  Te  Te143  1  0.16798690  0.65976346  0.67323950  1
  Te  Te144  1  0.49348963  -0.00053526  0.00518837  1
  Te  Te145  1  0.50189103  -0.00391483  0.33462429  1
  Te  Te146  1  0.49343756  0.00025918  0.66254202  1
  Te  Te147  1  0.49306380  0.33330366  -0.00832255  1
  Te  Te148  1  0.50813828  0.33326621  0.33319225  1
  Te  Te149  1  0.49974147  0.33448130  0.66685656  1
  Te  Te150  1  0.50293840  0.66689785  0.00696387  1
  Te  Te151  1  0.50101305  0.66776450  0.33472477  1
  Te  Te152  1  0.50534344  0.66278268  0.66258133  1
  Te  Te153  1  0.83291643  -0.00767672  0.00176359  1
  Te  Te154  1  0.83177855  -0.00061428  0.33635521  1
  Te  Te155  1  0.83304210  0.00037408  0.65638246  1
  Te  Te156  1  0.83407112  0.33297328  -0.00627815  1
  Te  Te157  1  0.82842083  0.33384352  0.33050323  1
  Te  Te158  1  0.83105177  0.33293222  0.67456890  1
  Te  Te159  1  0.83837413  0.67071510  -0.00509134  1
  Te  Te160  1  0.83304330  0.66525944  0.33613098  1
  Te  Te161  1  0.82666565  0.66543104  0.66556307  1
  Te  Te162  1  -0.00115427  0.16777153  -0.00635416  1
  Te  Te163  1  -0.00498030  0.16264955  0.33783259  1
  Te  Te164  1  0.00044316  0.17197846  0.66510580  1
  Te  Te165  1  0.00747775  0.50599945  -0.00283379  1
  Te  Te166  1  -0.00558034  0.49910461  0.33891858  1
  Te  Te167  1  0.00100189  0.49642157  0.66566593  1
  Te  Te168  1  0.00396731  0.83059325  -0.00271025  1
  Te  Te169  1  0.00113927  0.83679407  0.33843513  1
  Te  Te170  1  0.00101545  0.83512314  0.66516204  1
  Te  Te171  1  0.33367981  0.16683277  0.00416755  1
  Te  Te172  1  0.33308425  0.17153106  0.32806695  1
  Te  Te173  1  0.33847640  0.16988167  0.66654793  1
  Te  Te174  1  0.32850925  0.49878191  -0.00188425  1
  Te  Te175  1  0.33324168  0.50655733  0.33667066  1
  Te  Te176  1  0.33337730  0.49944083  0.66468955  1
  Te  Te177  1  0.32723281  0.83812519  0.00106985  1
  Te  Te178  1  0.33396061  0.83119657  0.33458515  1
  Te  Te179  1  0.33334079  0.83775030  0.66271920  1
  Te  Te180  1  0.66712057  0.16638284  -0.00751670  1
  Te  Te181  1  0.66978701  0.16510003  0.33781616  1
  Te  Te182  1  0.66344582  0.16804571  0.66445798  1
  Te  Te183  1  0.66686039  0.49878571  0.00067355  1
  Te  Te184  1  0.67012377  0.50221130  0.34039220  1
  Te  Te185  1  0.66555754  0.49810813  0.66150962  1
  Te  Te186  1  0.66839757  0.83393844  -0.00654134  1
  Te  Te187  1  0.66270855  0.83217556  0.33361371  1
  Te  Te188  1  0.66592296  0.83212491  0.67348776  1
  Te  Te189  1  0.00333135  0.00025990  0.17230445  1
  Te  Te190  1  -0.00027374  0.00082134  0.49897117  1
  Te  Te191  1  0.00428657  0.00112105  0.83226453  1
  Te  Te192  1  0.00060510  0.33245458  0.16509834  1
  Te  Te193  1  -0.00011763  0.33586786  0.50494923  1
  Te  Te194  1  -0.00117542  0.33307278  0.82782764  1
  Te  Te195  1  -0.00286947  0.66600526  0.16251775  1
  Te  Te196  1  -0.00301095  0.66646145  0.50197559  1
  Te  Te197  1  -0.00001610  0.66652107  0.83121618  1
  Te  Te198  1  0.33295008  -0.00457589  0.16894926  1
  Te  Te199  1  0.33630447  -0.00080218  0.50214079  1
  Te  Te200  1  0.32992632  -0.00023023  0.83372466  1
  Te  Te201  1  0.33412614  0.34000021  0.16472945  1
  Te  Te202  1  0.33080552  0.33640716  0.50359466  1
  Te  Te203  1  0.33367106  0.33594134  0.83136718  1
  Te  Te204  1  0.33164743  0.66947649  0.16862264  1
  Te  Te205  1  0.33262972  0.66698489  0.49608512  1
  Te  Te206  1  0.33313953  0.66056910  0.83380455  1
  Te  Te207  1  0.66136671  0.00000783  0.17207499  1
  Te  Te208  1  0.66676685  -0.00188866  0.49718140  1
  Te  Te209  1  0.66647110  0.00172010  0.83311110  1
  Te  Te210  1  0.66572460  0.33338134  0.16787679  1
  Te  Te211  1  0.66697423  0.33229911  0.50258139  1
  Te  Te212  1  0.66725776  0.33090064  0.82816458  1
  Te  Te213  1  0.67228448  0.66648643  0.17200437  1
  Te  Te214  1  0.66742447  0.66823331  0.49954041  1
  Te  Te215  1  0.66909152  0.66920781  0.83211500  1
