# generated using pymatgen
data_AgSbTe2
_symmetry_space_group_name_H-M   'P 1'
_cell_length_a   18.33652007
_cell_length_b   18.33438911
_cell_length_c   18.33076474
_cell_angle_alpha   90.00074107
_cell_angle_beta   89.99869048
_cell_angle_gamma   90.00163627
_symmetry_Int_Tables_number   1
_chemical_formula_structural   AgSbTe2
_chemical_formula_sum   'Ag54 Sb54 Te108'
_cell_volume   6162.59951567
_cell_formula_units_Z   54
loop_
 _symmetry_equiv_pos_site_id
 _symmetry_equiv_pos_as_xyz
  1  'x, y, z'
loop_
 _atom_site_type_symbol
 _atom_site_label
 _atom_site_symmetry_multiplicity
 _atom_site_fract_x
 _atom_site_fract_y
 _atom_site_fract_z
 _atom_site_occupancy
  Ag  Ag0  1  -0.00252213  0.33218236  -0.00511162  1
  Ag  Ag1  1  0.49765417  0.33294352  0.50325090  1
  Ag  Ag2  1  0.33170903  0.49079577  0.49385951  1
  Ag  Ag3  1  0.15344258  0.84201008  -0.00535500  1
  Ag  Ag4  1  0.00171655  0.67894516  -0.00048976  1
  Ag  Ag5  1  0.67925953  0.83331508  0.16913550  1
  Ag  Ag6  1  0.33306134  0.17361295  0.49780911  1
  Ag  Ag7  1  0.33703492  0.00036212  0.67468046  1
  Ag  Ag8  1  0.49345344  0.00472770  0.83093174  1
  Ag  Ag9  1  0.00157695  0.83425809  0.84207454  1
  Ag  Ag10  1  -0.00476064  0.83194058  0.49996895  1
  Ag  Ag11  1  0.16803125  -0.00604355  0.83749035  1
  Ag  Ag12  1  0.49334113  0.16783944  -0.00798867  1
  Ag  Ag13  1  -0.00901961  0.33533881  0.67249380  1
  Ag  Ag14  1  0.83611318  -0.00955520  0.50338962  1
  Ag  Ag15  1  0.31887930  0.00274195  -0.00963078  1
  Ag  Ag16  1  0.84175071  0.83590350  -0.00035629  1
  Ag  Ag17  1  0.16944034  0.33447937  0.50245537  1
  Ag  Ag18  1  0.00073130  0.16811387  0.16385163  1
  Ag  Ag19  1  0.83620654  -0.00207883  0.82784015  1
  Ag  Ag20  1  0.66792277  0.49494972  0.83413246  1
  Ag  Ag21  1  0.67843045  0.33339400  -0.01266764  1
  Ag  Ag22  1  0.16229331  0.67541760  0.83515578  1
  Ag  Ag23  1  -0.00528892  -0.01110766  0.32769711  1
  Ag  Ag24  1  -0.00042659  0.50009741  0.16695841  1
  Ag  Ag25  1  0.32191235  0.83969409  0.83301629  1
  Ag  Ag26  1  0.00240386  -0.00918880  -0.00079126  1
  Ag  Ag27  1  0.67724378  -0.00900641  0.33338974  1
  Ag  Ag28  1  0.83352374  0.33360556  0.50275276  1
  Ag  Ag29  1  0.83524982  0.33254799  0.16556441  1
  Ag  Ag30  1  0.67060601  0.33870901  0.33677532  1
  Ag  Ag31  1  0.83628134  0.67334615  0.49861347  1
  Ag  Ag32  1  0.67310597  0.33538055  0.67094283  1
  Ag  Ag33  1  0.50774832  0.32798411  0.82762905  1
  Ag  Ag34  1  0.50190961  0.16680089  0.67092457  1
  Ag  Ag35  1  -0.00576377  0.66981143  0.66591576  1
  Ag  Ag36  1  0.83435616  0.83651081  0.66368487  1
  Ag  Ag37  1  0.49966955  0.49688140  0.33543323  1
  Ag  Ag38  1  0.83255921  0.33118953  0.82846570  1
  Ag  Ag39  1  -0.00309664  0.67019704  0.33316214  1
  Ag  Ag40  1  0.33570201  0.33909552  0.34084656  1
  Ag  Ag41  1  0.83233091  0.17231997  0.66661871  1
  Ag  Ag42  1  0.83686647  0.82893693  0.33632608  1
  Ag  Ag43  1  0.83494902  0.50530941  0.33352599  1
  Ag  Ag44  1  0.16373055  0.49920868  0.33139958  1
  Ag  Ag45  1  0.16251279  0.49591075  0.00010896  1
  Ag  Ag46  1  0.32903207  0.16807241  0.16680645  1
  Ag  Ag47  1  0.50799369  0.83996979  0.66870747  1
  Ag  Ag48  1  0.16167424  0.33306386  0.83438457  1
  Ag  Ag49  1  0.67800857  0.66224761  0.33881001  1
  Ag  Ag50  1  0.32631113  0.65718174  0.33541794  1
  Ag  Ag51  1  -0.00426960  0.83304920  0.15794286  1
  Ag  Ag52  1  0.16516429  0.16356017  -0.00127442  1
  Ag  Ag53  1  0.67516068  0.66520856  0.66304924  1
  Sb  Sb54  1  0.16491731  0.17148925  0.32910405  1
  Sb  Sb55  1  0.83959526  0.66639025  0.82681323  1
  Sb  Sb56  1  0.16553032  0.49771857  0.66745476  1
  Sb  Sb57  1  0.33208030  0.67280445  0.66364768  1
  Sb  Sb58  1  -0.00315414  0.33731450  0.33294842  1
  Sb  Sb59  1  0.66684224  0.49692105  0.49902515  1
  Sb  Sb60  1  0.67658181  0.66269687  -0.00004706  1
  Sb  Sb61  1  0.49807500  0.66812208  0.83024987  1
  Sb  Sb62  1  0.66539315  0.17078158  0.50089945  1
  Sb  Sb63  1  0.16184967  0.66526359  0.16243597  1
  Sb  Sb64  1  0.50747676  0.82855694  0.33990595  1
  Sb  Sb65  1  0.32702264  0.49347224  0.17313701  1
  Sb  Sb66  1  0.32728107  0.83477258  0.50355209  1
  Sb  Sb67  1  0.33539786  0.32744722  0.66333712  1
  Sb  Sb68  1  0.00080262  0.50171662  0.49449240  1
  Sb  Sb69  1  0.50454919  0.66164268  0.49973706  1
  Sb  Sb70  1  0.32904189  0.32615513  0.00187455  1
  Sb  Sb71  1  0.66985982  0.16615699  0.16676270  1
  Sb  Sb72  1  0.50119004  0.66680930  0.16833859  1
  Sb  Sb73  1  0.15708926  0.82785256  0.32841872  1
  Sb  Sb74  1  0.49963584  0.17208279  0.33551960  1
  Sb  Sb75  1  0.50125199  0.00214168  0.16079872  1
  Sb  Sb76  1  0.67337229  0.50137494  0.16792834  1
  Sb  Sb77  1  0.32396604  0.67201910  0.00273047  1
  Sb  Sb78  1  0.33379298  0.50116835  0.83022241  1
  Sb  Sb79  1  0.67441507  0.83245731  0.49832547  1
  Sb  Sb80  1  0.16219270  0.00118034  0.15982087  1
  Sb  Sb81  1  0.16195273  0.00441102  0.50569833  1
  Sb  Sb82  1  0.83784526  0.16593635  -0.00456356  1
  Sb  Sb83  1  0.66802453  0.00100689  0.66500840  1
  Sb  Sb84  1  -0.00249810  0.50017702  0.83813750  1
  Sb  Sb85  1  0.83439677  0.16608077  0.33854677  1
  Sb  Sb86  1  0.33393779  0.16083310  0.83341718  1
  Sb  Sb87  1  0.66589412  0.17193713  0.83294040  1
  Sb  Sb88  1  -0.00177069  -0.00071546  0.67116617  1
  Sb  Sb89  1  0.32877848  0.83778327  0.16240981  1
  Sb  Sb90  1  0.83676627  0.00092729  0.16826204  1
  Sb  Sb91  1  0.50457320  0.33200476  0.16827494  1
  Sb  Sb92  1  0.00070404  0.16482835  0.83829961  1
  Sb  Sb93  1  0.50140380  0.83904255  -0.00664244  1
  Sb  Sb94  1  0.83739666  0.66789666  0.17474225  1
  Sb  Sb95  1  0.84129710  0.50006796  0.00395441  1
  Sb  Sb96  1  0.67164090  0.00447190  0.00115293  1
  Sb  Sb97  1  0.33190805  0.00116870  0.33418348  1
  Sb  Sb98  1  0.67308993  0.82918045  0.83442424  1
  Sb  Sb99  1  0.50442562  0.00482758  0.50492461  1
  Sb  Sb100  1  0.49535966  0.49231532  0.00259215  1
  Sb  Sb101  1  0.15918352  0.33330892  0.16491148  1
  Sb  Sb102  1  0.83307604  0.49841603  0.66257849  1
  Sb  Sb103  1  0.16099746  0.66219707  0.50203476  1
  Sb  Sb104  1  0.50258585  0.49473403  0.66215442  1
  Sb  Sb105  1  0.16543671  0.16824844  0.67190204  1
  Sb  Sb106  1  0.15852788  0.83367136  0.67355050  1
  Sb  Sb107  1  0.00113461  0.16632165  0.49716849  1
  Te  Te108  1  0.16539447  0.16737236  0.16081633  1
  Te  Te109  1  0.17069063  0.17279339  0.49992021  1
  Te  Te110  1  0.16709262  0.17163782  0.83878871  1
  Te  Te111  1  0.16025757  0.49928426  0.16752257  1
  Te  Te112  1  0.17009298  0.49530513  0.49694685  1
  Te  Te113  1  0.16737401  0.49336322  0.83681936  1
  Te  Te114  1  0.16040300  0.83282176  0.15701256  1
  Te  Te115  1  0.15831783  0.83428285  0.50017535  1
  Te  Te116  1  0.16351629  0.83483256  0.83566682  1
  Te  Te117  1  0.49659344  0.16644993  0.16301097  1
  Te  Te118  1  0.49522524  0.17178340  0.50382898  1
  Te  Te119  1  0.49983773  0.16700537  0.83147295  1
  Te  Te120  1  0.49947990  0.50009887  0.17490792  1
  Te  Te121  1  0.49499501  0.49445969  0.49526064  1
  Te  Te122  1  0.50252658  0.49459805  0.83409323  1
  Te  Te123  1  0.50006597  0.83452021  0.16787361  1
  Te  Te124  1  0.49757469  0.83470416  0.50865539  1
  Te  Te125  1  0.50214395  0.83662035  0.82828367  1
  Te  Te126  1  0.83753302  0.17220766  0.16543382  1
  Te  Te127  1  0.83400693  0.17195188  0.50654748  1
  Te  Te128  1  0.83369207  0.16665300  0.82782675  1
  Te  Te129  1  0.83849920  0.49375078  0.17123523  1
  Te  Te130  1  0.83404211  0.49521396  0.49298584  1
  Te  Te131  1  0.82948179  0.49484632  0.83651927  1
  Te  Te132  1  0.83660554  0.83481958  0.16841597  1
  Te  Te133  1  0.83579310  0.83316919  0.49907988  1
  Te  Te134  1  0.83720408  0.83314721  0.83151613  1
  Te  Te135  1  0.16316071  0.00130280  -0.00353043  1
  Te  Te136  1  0.16105481  -0.00186176  0.33558762  1
  Te  Te137  1  0.17170954  0.00119392  0.67461340  1
  Te  Te138  1  0.16456255  0.33232232  -0.00123425  1
  Te  Te139  1  0.16771549  0.33760499  0.33573300  1
  Te  Te140  1  0.16314466  0.33240219  0.66697587  1
  Te  Te141  1  0.16170691  0.66333991  -0.00427721  1
  Te  Te142  1  0.16263762  0.66118095  0.33405197  1
  Te  Te143  1  0.16179386  0.66581847  0.67223518  1
  Te  Te144  1  0.50382396  0.00568916  -0.00714536  1
  Te  Te145  1  0.50337731  -0.00080125  0.33464143  1
  Te  Te146  1  0.50156418  0.00264053  0.66990872  1
  Te  Te147  1  0.49862285  0.32906513  -0.00367511  1
  Te  Te148  1  0.50106163  0.33619933  0.33617896  1
  Te  Te149  1  0.50181751  0.32980372  0.66610712  1
  Te  Te150  1  0.50019065  0.66467519  -0.00050833  1
  Te  Te151  1  0.50300619  0.66065080  0.33458418  1
  Te  Te152  1  0.50384878  0.67089700  0.66642275  1
  Te  Te153  1  0.83736019  -0.00165777  -0.00468153  1
  Te  Te154  1  0.83469344  -0.00024615  0.33583905  1
  Te  Te155  1  0.83318722  -0.00179483  0.66598010  1
  Te  Te156  1  0.83462346  0.33302037  -0.00321783  1
  Te  Te157  1  0.83273307  0.33188839  0.33854519  1
  Te  Te158  1  0.83257057  0.33544751  0.66786089  1
  Te  Te159  1  0.84028665  0.67077796  -0.00152148  1
  Te  Te160  1  0.83574861  0.66742646  0.33599479  1
  Te  Te161  1  0.83404877  0.66572368  0.66155611  1
  Te  Te162  1  0.00194499  0.17388309  0.00406157  1
  Te  Te163  1  0.00093077  0.15855841  0.32613503  1
  Te  Te164  1  -0.00466297  0.17179637  0.66526064  1
  Te  Te165  1  0.00419311  0.49051176  0.00471806  1
  Te  Te166  1  -0.00102491  0.50354366  0.32936009  1
  Te  Te167  1  0.00025768  0.49990788  0.66663326  1
  Te  Te168  1  -0.00214410  0.83430481  -0.00142682  1
  Te  Te169  1  -0.00274433  0.83110144  0.33347376  1
  Te  Te170  1  -0.00573660  0.83241817  0.66369724  1
  Te  Te171  1  0.33196930  0.16243822  0.00186974  1
  Te  Te172  1  0.33242796  0.16972946  0.33307114  1
  Te  Te173  1  0.33525068  0.16157214  0.66218904  1
  Te  Te174  1  0.32582441  0.50141116  0.00171578  1
  Te  Te175  1  0.33007902  0.49857240  0.33382603  1
  Te  Te176  1  0.33428514  0.50345066  0.65920784  1
  Te  Te177  1  0.33337800  0.83979740  -0.00404725  1
  Te  Te178  1  0.33275222  0.83011296  0.33261434  1
  Te  Te179  1  0.33414658  0.83774156  0.67050873  1
  Te  Te180  1  0.66194007  0.17405197  0.00278771  1
  Te  Te181  1  0.66610060  0.17203136  0.33236603  1
  Te  Te182  1  0.66748098  0.17133175  0.66630018  1
  Te  Te183  1  0.66513980  0.49397401  -0.00114968  1
  Te  Te184  1  0.67126214  0.50154957  0.33262434  1
  Te  Te185  1  0.66587882  0.50001045  0.67047053  1
  Te  Te186  1  0.67012852  0.83250601  0.00625902  1
  Te  Te187  1  0.67074301  0.83062203  0.33189680  1
  Te  Te188  1  0.67051160  0.83033224  0.66669950  1
  Te  Te189  1  -0.00102478  -0.00116886  0.16434721  1
  Te  Te190  1  -0.00370494  -0.00180617  0.49973866  1
  Te  Te191  1  -0.00146204  -0.00173689  0.83576520  1
  Te  Te192  1  -0.00453394  0.33242042  0.16699495  1
  Te  Te193  1  -0.00067994  0.33380940  0.50225158  1
  Te  Te194  1  -0.00098120  0.33350380  0.83232474  1
  Te  Te195  1  -0.00078858  0.66811762  0.16508248  1
  Te  Te196  1  -0.00326153  0.66785683  0.50139881  1
  Te  Te197  1  0.00281745  0.66689157  0.83288399  1
  Te  Te198  1  0.33344454  0.00621186  0.16465693  1
  Te  Te199  1  0.33215472  0.00402856  0.50255669  1
  Te  Te200  1  0.33393868  -0.00173326  0.83406558  1
  Te  Te201  1  0.33463657  0.32736944  0.17268485  1
  Te  Te202  1  0.33297053  0.33277264  0.50097445  1
  Te  Te203  1  0.33110904  0.33527242  0.83202258  1
  Te  Te204  1  0.33329241  0.66781098  0.17450689  1
  Te  Te205  1  0.33212621  0.66599107  0.49499042  1
  Te  Te206  1  0.32709505  0.67242363  0.83337047  1
  Te  Te207  1  0.66830607  -0.00401853  0.17280841  1
  Te  Te208  1  0.67331003  0.00159732  0.49373688  1
  Te  Te209  1  0.67239053  -0.00205107  0.83361445  1
  Te  Te210  1  0.67244487  0.33363003  0.17372854  1
  Te  Te211  1  0.66806026  0.33431199  0.49927144  1
  Te  Te212  1  0.66730035  0.33440729  0.83131009  1
  Te  Te213  1  0.66801483  0.67156779  0.17047122  1
  Te  Te214  1  0.67198567  0.66514944  0.50090795  1
  Te  Te215  1  0.66721152  0.65993794  0.83038315  1
