# generated using pymatgen
data_AgSbTe2
_symmetry_space_group_name_H-M   'P 1'
_cell_length_a   18.31832828
_cell_length_b   18.32835842
_cell_length_c   18.32424995
_cell_angle_alpha   89.99635514
_cell_angle_beta   90.00185002
_cell_angle_gamma   90.00230371
_symmetry_Int_Tables_number   1
_chemical_formula_structural   AgSbTe2
_chemical_formula_sum   'Ag54 Sb54 Te108'
_cell_volume   6152.27319479
_cell_formula_units_Z   54
loop_
 _symmetry_equiv_pos_site_id
 _symmetry_equiv_pos_as_xyz
  1  'x, y, z'
loop_
 _atom_site_type_symbol
 _atom_site_label
 _atom_site_symmetry_multiplicity
 _atom_site_fract_x
 _atom_site_fract_y
 _atom_site_fract_z
 _atom_site_occupancy
  Ag  Ag0  1  0.84988456  0.00089438  0.83157947  1
  Ag  Ag1  1  0.49429210  0.84028299  0.66958049  1
  Ag  Ag2  1  0.83177854  0.66854189  0.50270268  1
  Ag  Ag3  1  0.66992732  0.66312567  0.66139059  1
  Ag  Ag4  1  0.16654809  0.15884632  0.66751050  1
  Ag  Ag5  1  0.83268840  0.50154217  0.66975347  1
  Ag  Ag6  1  0.48838201  0.16917021  0.34640335  1
  Ag  Ag7  1  0.49512657  -0.00048087  0.82592755  1
  Ag  Ag8  1  0.65297194  0.16982613  0.50098862  1
  Ag  Ag9  1  0.33410277  0.50402784  0.16615477  1
  Ag  Ag10  1  0.00990130  -0.00060354  -0.01435768  1
  Ag  Ag11  1  0.33719202  0.66015382  0.32623985  1
  Ag  Ag12  1  0.66451347  0.50006676  0.50213768  1
  Ag  Ag13  1  0.50009984  0.32158103  0.50343652  1
  Ag  Ag14  1  0.83357557  0.16658638  0.66708375  1
  Ag  Ag15  1  0.32787125  0.00115088  0.00089502  1
  Ag  Ag16  1  0.49030444  0.00898119  0.50647744  1
  Ag  Ag17  1  0.00928817  0.32849114  0.33310751  1
  Ag  Ag18  1  0.33179725  0.33214705  0.32911438  1
  Ag  Ag19  1  0.33114344  0.84037946  0.49698014  1
  Ag  Ag20  1  0.34057067  0.16013757  0.49385454  1
  Ag  Ag21  1  0.49289102  0.66864339  0.83461916  1
  Ag  Ag22  1  0.33398854  0.83103324  0.16824779  1
  Ag  Ag23  1  0.00830104  0.33200431  -0.00326121  1
  Ag  Ag24  1  0.16928317  0.00172411  0.15920152  1
  Ag  Ag25  1  0.16550237  0.84095835  0.66723826  1
  Ag  Ag26  1  0.17038825  0.00096891  0.50539586  1
  Ag  Ag27  1  0.16783590  0.16046305  -0.00241911  1
  Ag  Ag28  1  0.17226022  0.16557422  0.33513129  1
  Ag  Ag29  1  0.49189850  0.49857117  0.33537485  1
  Ag  Ag30  1  0.00385003  0.83991202  0.82804300  1
  Ag  Ag31  1  0.32988116  0.33237394  0.00375929  1
  Ag  Ag32  1  0.65578536  0.66552005  0.34129779  1
  Ag  Ag33  1  0.16454622  0.67130438  0.83325871  1
  Ag  Ag34  1  0.33227531  0.66796737  0.00232694  1
  Ag  Ag35  1  0.00532541  0.00195473  0.33721261  1
  Ag  Ag36  1  0.33156052  0.50354967  0.83918238  1
  Ag  Ag37  1  0.00452092  0.50401913  0.83561655  1
  Ag  Ag38  1  0.17597285  0.49553941  0.33416889  1
  Ag  Ag39  1  0.00587960  0.83680578  0.50962743  1
  Ag  Ag40  1  0.00514049  -0.00512285  0.67198820  1
  Ag  Ag41  1  0.49891783  0.15949780  0.65816316  1
  Ag  Ag42  1  0.16343463  -0.00143114  0.83064565  1
  Ag  Ag43  1  0.49552813  0.33007633  0.82705629  1
  Ag  Ag44  1  0.33332941  0.16614569  0.17450175  1
  Ag  Ag45  1  0.66334551  0.33298255  0.66413672  1
  Ag  Ag46  1  0.49442823  0.66832540  0.16625908  1
  Ag  Ag47  1  0.49366679  0.83189603  -0.01043565  1
  Ag  Ag48  1  0.00993462  0.66765063  -0.01013206  1
  Ag  Ag49  1  0.84092638  0.50129407  -0.00829188  1
  Ag  Ag50  1  -0.00129446  0.67632071  0.67252341  1
  Ag  Ag51  1  0.83743387  0.83220750  0.33591643  1
  Ag  Ag52  1  0.65464099  0.16599307  0.17574272  1
  Ag  Ag53  1  0.00453094  0.15524834  0.83104232  1
  Sb  Sb54  1  0.83541180  0.83023334  0.00054599  1
  Sb  Sb55  1  0.16491272  0.67228181  0.50418327  1
  Sb  Sb56  1  0.50179384  0.66854852  0.50101607  1
  Sb  Sb57  1  0.83692261  -0.00303397  0.50484248  1
  Sb  Sb58  1  0.33358462  0.66854142  0.66884979  1
  Sb  Sb59  1  0.66840258  -0.00131941  0.33605652  1
  Sb  Sb60  1  0.00668844  0.16546121  0.16400427  1
  Sb  Sb61  1  0.49743775  0.83433117  0.33771497  1
  Sb  Sb62  1  0.00824153  0.83463619  0.16405893  1
  Sb  Sb63  1  0.17225316  0.83960234  -0.00689017  1
  Sb  Sb64  1  0.66457305  0.83317699  0.50131234  1
  Sb  Sb65  1  0.65985724  0.49749187  0.17251271  1
  Sb  Sb66  1  0.17448874  0.67201988  0.16200367  1
  Sb  Sb67  1  0.32968235  0.16696670  0.83313027  1
  Sb  Sb68  1  0.33103403  0.83130849  0.83441069  1
  Sb  Sb69  1  0.32768749  0.00416571  0.33306344  1
  Sb  Sb70  1  0.16239143  0.49969524  0.66549176  1
  Sb  Sb71  1  0.83840415  0.83282839  0.66400957  1
  Sb  Sb72  1  0.66387722  0.00216945  -0.00054851  1
  Sb  Sb73  1  0.83297341  0.33186814  0.83172904  1
  Sb  Sb74  1  0.17019305  0.32765757  0.16722498  1
  Sb  Sb75  1  0.83371607  0.33291355  0.16602057  1
  Sb  Sb76  1  0.66519673  0.50125701  0.82717318  1
  Sb  Sb77  1  0.00344041  0.16105383  0.50435230  1
  Sb  Sb78  1  0.66681487  0.00050531  0.66573371  1
  Sb  Sb79  1  0.83548709  0.16301589  0.33917902  1
  Sb  Sb80  1  0.00762487  0.50097784  0.16290450  1
  Sb  Sb81  1  0.16624111  0.83793184  0.33972838  1
  Sb  Sb82  1  0.50390699  0.49942376  0.66311684  1
  Sb  Sb83  1  0.66641465  0.83179994  0.83041445  1
  Sb  Sb84  1  0.49033698  -0.00230566  0.16686148  1
  Sb  Sb85  1  0.00373013  0.66749303  0.33461907  1
  Sb  Sb86  1  0.83335322  0.50354088  0.33635205  1
  Sb  Sb87  1  0.65861314  0.83603108  0.16895544  1
  Sb  Sb88  1  0.66056552  0.33597841  0.33969830  1
  Sb  Sb89  1  0.16919814  0.33084058  0.83427956  1
  Sb  Sb90  1  0.83996582  0.66869250  0.82803235  1
  Sb  Sb91  1  -0.00322284  0.33032545  0.66891146  1
  Sb  Sb92  1  0.84055402  0.00063823  0.16242682  1
  Sb  Sb93  1  0.66741620  0.16688450  0.82806231  1
  Sb  Sb94  1  0.33740742  0.49907882  0.49715212  1
  Sb  Sb95  1  0.66298845  0.33256376  -0.00492573  1
  Sb  Sb96  1  0.16727039  0.49789402  0.00191352  1
  Sb  Sb97  1  0.82900029  0.66658664  0.16955124  1
  Sb  Sb98  1  0.49734273  0.50283487  0.00091740  1
  Sb  Sb99  1  0.66236968  0.66471727  -0.00178691  1
  Sb  Sb100  1  0.82915347  0.33569587  0.50131945  1
  Sb  Sb101  1  0.49111713  0.16307312  -0.00115254  1
  Sb  Sb102  1  -0.00347909  0.50382463  0.50270069  1
  Sb  Sb103  1  0.33877536  0.33102153  0.66626432  1
  Sb  Sb104  1  0.84174204  0.16925487  -0.00569231  1
  Sb  Sb105  1  0.49534824  0.33450823  0.16840011  1
  Sb  Sb106  1  0.17350306  0.32504499  0.49700769  1
  Sb  Sb107  1  0.32767484  -0.00039802  0.66920425  1
  Te  Te108  1  0.17145180  0.16110096  0.16901192  1
  Te  Te109  1  0.16884527  0.16131690  0.49939021  1
  Te  Te110  1  0.16442882  0.16469032  0.83163929  1
  Te  Te111  1  0.17482759  0.50245899  0.17285149  1
  Te  Te112  1  0.16628957  0.49893430  0.49556669  1
  Te  Te113  1  0.16772174  0.50208145  0.83308196  1
  Te  Te114  1  0.17491982  0.84050276  0.16852743  1
  Te  Te115  1  0.16694704  0.83804782  0.50610213  1
  Te  Te116  1  0.16462014  0.83351080  0.82797119  1
  Te  Te117  1  0.49593020  0.16632918  0.16663810  1
  Te  Te118  1  0.49802091  0.16567412  0.50101605  1
  Te  Te119  1  0.49890745  0.16592391  0.83078031  1
  Te  Te120  1  0.49480226  0.50431155  0.17176768  1
  Te  Te121  1  0.50423178  0.49920371  0.49557580  1
  Te  Te122  1  0.49720558  0.50234508  0.83297651  1
  Te  Te123  1  0.49343558  0.82980217  0.16589144  1
  Te  Te124  1  0.49630362  0.83717785  0.50510991  1
  Te  Te125  1  0.49948357  0.83286634  0.83057124  1
  Te  Te126  1  0.82852683  0.16571354  0.16747870  1
  Te  Te127  1  0.83170906  0.16590652  0.50715028  1
  Te  Te128  1  0.83685668  0.16376416  0.82776358  1
  Te  Te129  1  0.83289408  0.50040460  0.16320149  1
  Te  Te130  1  0.82864557  0.50491155  0.50458405  1
  Te  Te131  1  0.83514607  0.50057147  0.83137952  1
  Te  Te132  1  0.83240834  0.83390985  0.17222843  1
  Te  Te133  1  0.83569305  0.83048871  0.49721488  1
  Te  Te134  1  0.83790437  0.83932149  0.83475595  1
  Te  Te135  1  0.16694200  0.00007882  -0.00395273  1
  Te  Te136  1  0.16383118  0.00333257  0.33999765  1
  Te  Te137  1  0.16555459  0.00091721  0.66892771  1
  Te  Te138  1  0.16813279  0.32807408  0.00069936  1
  Te  Te139  1  0.16939955  0.33071222  0.33284123  1
  Te  Te140  1  0.16644282  0.32568289  0.66523898  1
  Te  Te141  1  0.16847114  0.66613417  -0.00472228  1
  Te  Te142  1  0.17211691  0.66428163  0.33354446  1
  Te  Te143  1  0.16135819  0.66758908  0.67157964  1
  Te  Te144  1  0.49595520  -0.00472349  -0.00094595  1
  Te  Te145  1  0.50129648  0.00548170  0.33735107  1
  Te  Te146  1  0.50070800  0.00045103  0.66587410  1
  Te  Te147  1  0.49451313  0.33374411  -0.00566019  1
  Te  Te148  1  0.49696795  0.33115554  0.33493004  1
  Te  Te149  1  0.50319902  0.33280495  0.66615813  1
  Te  Te150  1  0.49683881  0.66880494  -0.00216571  1
  Te  Te151  1  0.49737602  0.66829560  0.33366190  1
  Te  Te152  1  0.50152586  0.66726177  0.67009622  1
  Te  Te153  1  0.83706431  -0.00012571  -0.00598678  1
  Te  Te154  1  0.83963605  -0.00499517  0.33258649  1
  Te  Te155  1  0.83645858  0.00237455  0.67115278  1
  Te  Te156  1  0.83700666  0.33849810  -0.00079431  1
  Te  Te157  1  0.84111607  0.33354574  0.33304145  1
  Te  Te158  1  0.82747220  0.33333884  0.66656918  1
  Te  Te159  1  0.83306114  0.66232659  0.00057562  1
  Te  Te160  1  0.83480105  0.66985142  0.33734640  1
  Te  Te161  1  0.83351371  0.66629342  0.66430378  1
  Te  Te162  1  0.00488905  0.16599528  -0.00322633  1
  Te  Te163  1  0.00237734  0.16725048  0.33317470  1
  Te  Te164  1  0.00106098  0.16596466  0.67013314  1
  Te  Te165  1  0.00169125  0.49965373  -0.00190141  1
  Te  Te166  1  0.00333272  0.49634444  0.33258821  1
  Te  Te167  1  -0.00504305  0.49978080  0.67023430  1
  Te  Te168  1  0.00001833  0.83368053  -0.00369104  1
  Te  Te169  1  -0.00108425  0.83497205  0.33262616  1
  Te  Te170  1  -0.00005642  0.83410994  0.66738714  1
  Te  Te171  1  0.32772850  0.16809113  0.00014335  1
  Te  Te172  1  0.33231290  0.16690573  0.33340637  1
  Te  Te173  1  0.33433523  0.16672403  0.66210072  1
  Te  Te174  1  0.33309123  0.49985909  0.00011408  1
  Te  Te175  1  0.33462312  0.49857875  0.33480472  1
  Te  Te176  1  0.33135524  0.49951914  0.67350552  1
  Te  Te177  1  0.33553573  0.82972904  0.00122845  1
  Te  Te178  1  0.33358153  0.82923793  0.33434182  1
  Te  Te179  1  0.33320793  0.83292334  0.65948397  1
  Te  Te180  1  0.66862268  0.16823412  0.00419616  1
  Te  Te181  1  0.66732399  0.16747714  0.33589982  1
  Te  Te182  1  0.66420509  0.16735481  0.66380603  1
  Te  Te183  1  0.67465417  0.49825381  0.00230813  1
  Te  Te184  1  0.66422225  0.50429119  0.33811042  1
  Te  Te185  1  0.67082589  0.50153891  0.66234217  1
  Te  Te186  1  0.65895959  0.83341296  0.00151464  1
  Te  Te187  1  0.67070695  0.82715082  0.33367202  1
  Te  Te188  1  0.66017831  0.82730883  0.66551481  1
  Te  Te189  1  0.00771865  -0.00050383  0.17191456  1
  Te  Te190  1  0.00187999  -0.00405270  0.49914864  1
  Te  Te191  1  0.00569862  -0.00031486  0.83012830  1
  Te  Te192  1  0.00035857  0.33376290  0.16416710  1
  Te  Te193  1  0.00065674  0.33400452  0.49509658  1
  Te  Te194  1  0.00050706  0.34117277  0.83697935  1
  Te  Te195  1  -0.00074297  0.66810106  0.15844620  1
  Te  Te196  1  -0.00348751  0.67199851  0.50366257  1
  Te  Te197  1  0.00000695  0.66400524  0.83295639  1
  Te  Te198  1  0.32884317  0.00190446  0.16335099  1
  Te  Te199  1  0.33145270  -0.00005287  0.49873502  1
  Te  Te200  1  0.33566164  -0.00033214  0.84066868  1
  Te  Te201  1  0.33427441  0.33341983  0.16591327  1
  Te  Te202  1  0.33969201  0.33168305  0.49522466  1
  Te  Te203  1  0.33633488  0.33739560  0.83621106  1
  Te  Te204  1  0.33514287  0.66591953  0.16479624  1
  Te  Te205  1  0.33246261  0.66826157  0.49654967  1
  Te  Te206  1  0.33219913  0.66510256  0.83511447  1
  Te  Te207  1  0.66751361  0.00651450  0.16733498  1
  Te  Te208  1  0.66380113  0.00546631  0.49977376  1
  Te  Te209  1  0.65580508  -0.00005313  0.83419334  1
  Te  Te210  1  0.66555318  0.32647276  0.16670715  1
  Te  Te211  1  0.66265981  0.33331052  0.50332896  1
  Te  Te212  1  0.65864077  0.33392712  0.82698281  1
  Te  Te213  1  0.65870733  0.66690494  0.17040541  1
  Te  Te214  1  0.66866917  0.66688748  0.50033233  1
  Te  Te215  1  0.66017015  0.66614550  0.82906899  1
