# generated using pymatgen
data_AgSbTe2
_symmetry_space_group_name_H-M   'P 1'
_cell_length_a   18.33751110
_cell_length_b   18.33533962
_cell_length_c   18.33468579
_cell_angle_alpha   90.00290774
_cell_angle_beta   89.99813976
_cell_angle_gamma   90.00109934
_symmetry_Int_Tables_number   1
_chemical_formula_structural   AgSbTe2
_chemical_formula_sum   'Ag54 Sb54 Te108'
_cell_volume   6164.57044004
_cell_formula_units_Z   54
loop_
 _symmetry_equiv_pos_site_id
 _symmetry_equiv_pos_as_xyz
  1  'x, y, z'
loop_
 _atom_site_type_symbol
 _atom_site_label
 _atom_site_symmetry_multiplicity
 _atom_site_fract_x
 _atom_site_fract_y
 _atom_site_fract_z
 _atom_site_occupancy
  Ag  Ag0  1  0.32790997  0.32512192  0.33358541  1
  Ag  Ag1  1  0.16557123  0.50498516  0.66734647  1
  Ag  Ag2  1  0.83638563  0.49910233  0.33680579  1
  Ag  Ag3  1  0.48957556  0.50785151  0.66553865  1
  Ag  Ag4  1  0.33074950  0.82373016  0.82834754  1
  Ag  Ag5  1  0.83791882  0.66917277  0.17097678  1
  Ag  Ag6  1  0.32971676  0.66884465  0.33270378  1
  Ag  Ag7  1  0.83392899  -0.00838295  0.83244175  1
  Ag  Ag8  1  0.48596907  0.33113598  0.17687315  1
  Ag  Ag9  1  0.16685215  0.00481133  0.49293590  1
  Ag  Ag10  1  0.00516624  0.17359439  0.82851935  1
  Ag  Ag11  1  0.00172425  0.83194818  0.49832315  1
  Ag  Ag12  1  0.16961592  0.32739563  0.17871060  1
  Ag  Ag13  1  0.49871696  0.82545121  0.66190139  1
  Ag  Ag14  1  0.67123778  0.16276893  0.49364692  1
  Ag  Ag15  1  0.83656193  0.66859084  0.50154730  1
  Ag  Ag16  1  0.00004300  0.49017878  0.50368259  1
  Ag  Ag17  1  0.32450350  0.16866706  0.83179969  1
  Ag  Ag18  1  0.66580811  0.67221814  -0.00266134  1
  Ag  Ag19  1  0.00260930  0.17745354  0.49517307  1
  Ag  Ag20  1  0.16070519  0.32796843  0.49506406  1
  Ag  Ag21  1  0.67015572  0.83648469  0.17378414  1
  Ag  Ag22  1  0.32495724  0.17243829  0.17702683  1
  Ag  Ag23  1  0.67155216  0.66964920  0.66876872  1
  Ag  Ag24  1  0.32983958  0.49832292  0.16980407  1
  Ag  Ag25  1  0.16621215  0.33258699  0.82978417  1
  Ag  Ag26  1  0.00489808  0.34349640  0.65177011  1
  Ag  Ag27  1  0.01001016  0.32907682  0.34048266  1
  Ag  Ag28  1  0.33281584  0.66685289  0.66964446  1
  Ag  Ag29  1  0.00827737  0.49807604  0.82197130  1
  Ag  Ag30  1  0.66828180  -0.00859042  0.01218084  1
  Ag  Ag31  1  0.83680206  0.82776644  0.66380454  1
  Ag  Ag32  1  0.66374171  0.00000828  0.33180017  1
  Ag  Ag33  1  0.32556329  0.00411261  0.33289539  1
  Ag  Ag34  1  0.84655547  0.33716405  0.49603099  1
  Ag  Ag35  1  0.67128214  0.83627859  0.49613795  1
  Ag  Ag36  1  0.48938416  0.83135937  0.33648160  1
  Ag  Ag37  1  0.49093563  0.66761477  0.82691033  1
  Ag  Ag38  1  0.16544092  0.82615367  0.66146285  1
  Ag  Ag39  1  0.83251371  0.66845944  0.81981174  1
  Ag  Ag40  1  0.49587365  0.33214150  0.49660525  1
  Ag  Ag41  1  0.32049378  0.17083451  0.49198570  1
  Ag  Ag42  1  0.16931831  0.84224030  0.33464260  1
  Ag  Ag43  1  0.16677859  -0.00280747  0.17549844  1
  Ag  Ag44  1  0.84729383  0.16878437  0.33589734  1
  Ag  Ag45  1  0.00722132  0.16550128  0.17861920  1
  Ag  Ag46  1  0.16756473  0.67322628  0.16987089  1
  Ag  Ag47  1  0.66783338  0.15940826  0.17593182  1
  Ag  Ag48  1  0.33310852  0.66853579  -0.00660184  1
  Ag  Ag49  1  0.00234497  0.66386007  0.66377596  1
  Ag  Ag50  1  0.00853163  0.83333558  0.17398662  1
  Ag  Ag51  1  0.16694748  0.16563030  0.33391188  1
  Ag  Ag52  1  0.16844594  0.83121350  0.01144245  1
  Ag  Ag53  1  0.32741467  0.50699899  0.82966142  1
  Sb  Sb54  1  0.50116154  -0.00570778  0.83252009  1
  Sb  Sb55  1  0.49368586  0.16467312  0.33407045  1
  Sb  Sb56  1  0.83433185  0.16497680  0.00635290  1
  Sb  Sb57  1  0.66537882  0.32585601  0.33580068  1
  Sb  Sb58  1  0.33051994  0.83459189  0.50081253  1
  Sb  Sb59  1  0.16862699  0.50518018  -0.00308674  1
  Sb  Sb60  1  0.33124123  -0.00466045  0.66219023  1
  Sb  Sb61  1  0.84087341  0.50865320  0.66128713  1
  Sb  Sb62  1  0.00606553  0.50007610  0.17043843  1
  Sb  Sb63  1  0.49743445  0.83024218  0.00214027  1
  Sb  Sb64  1  0.66683582  0.50380052  0.83047599  1
  Sb  Sb65  1  0.00413216  0.00560169  0.33407668  1
  Sb  Sb66  1  -0.00144326  -0.00222512  0.00155047  1
  Sb  Sb67  1  0.16813258  0.66499361  0.83150262  1
  Sb  Sb68  1  0.83527416  -0.00314368  0.16740442  1
  Sb  Sb69  1  0.16718506  0.16239115  0.00837384  1
  Sb  Sb70  1  0.84386810  0.33701457  0.82284114  1
  Sb  Sb71  1  0.67087080  0.33978790  0.66318890  1
  Sb  Sb72  1  0.49816804  0.00197614  0.17064128  1
  Sb  Sb73  1  0.16476721  0.49638723  0.33788359  1
  Sb  Sb74  1  0.49732501  0.16868359  0.66301022  1
  Sb  Sb75  1  0.16247914  0.66680093  0.49876495  1
  Sb  Sb76  1  0.83797812  -0.00129907  0.50006729  1
  Sb  Sb77  1  0.49694307  0.50304000  -0.00388137  1
  Sb  Sb78  1  0.66546678  0.33315696  0.00334673  1
  Sb  Sb79  1  0.49828968  0.16635578  0.00239023  1
  Sb  Sb80  1  0.66273721  0.50238010  0.16887476  1
  Sb  Sb81  1  0.48911468  0.33947408  0.82954746  1
  Sb  Sb82  1  0.32763813  0.49655101  0.50042728  1
  Sb  Sb83  1  0.83759782  0.83531416  0.33672910  1
  Sb  Sb84  1  0.83572257  0.16315981  0.65980450  1
  Sb  Sb85  1  0.00382297  0.83138950  0.82889493  1
  Sb  Sb86  1  0.49964513  0.50269306  0.33795238  1
  Sb  Sb87  1  0.66845852  -0.00768406  0.66189864  1
  Sb  Sb88  1  0.00114011  -0.00222264  0.66462096  1
  Sb  Sb89  1  0.33482262  -0.00422739  0.00489543  1
  Sb  Sb90  1  0.00231302  0.33310349  0.00316283  1
  Sb  Sb91  1  0.66944478  0.16332481  0.83208736  1
  Sb  Sb92  1  0.16404231  0.00291685  0.83246010  1
  Sb  Sb93  1  0.66537218  0.67363803  0.33458937  1
  Sb  Sb94  1  0.83446102  0.50417838  0.00337628  1
  Sb  Sb95  1  0.33096271  0.33701022  0.00717199  1
  Sb  Sb96  1  0.83595826  0.83169216  -0.00220417  1
  Sb  Sb97  1  0.00237858  0.66437930  0.33818036  1
  Sb  Sb98  1  0.32564713  0.33797246  0.66114870  1
  Sb  Sb99  1  0.49589903  0.00128005  0.49733049  1
  Sb  Sb100  1  0.49551506  0.66508277  0.16472140  1
  Sb  Sb101  1  0.66423324  0.82993638  0.83150727  1
  Sb  Sb102  1  0.50326932  0.66580797  0.50735215  1
  Sb  Sb103  1  0.32919158  0.83156378  0.16870385  1
  Sb  Sb104  1  0.00274040  0.66855812  -0.00308512  1
  Sb  Sb105  1  0.67239391  0.50260338  0.50072145  1
  Sb  Sb106  1  0.83799717  0.33554519  0.17635652  1
  Sb  Sb107  1  0.16529140  0.16818960  0.65972581  1
  Te  Te108  1  0.16619030  0.16718860  0.16916758  1
  Te  Te109  1  0.16371309  0.16678402  0.49878640  1
  Te  Te110  1  0.16504730  0.16749553  0.83338191  1
  Te  Te111  1  0.17019065  0.49982837  0.16542842  1
  Te  Te112  1  0.16104556  0.49506452  0.50493020  1
  Te  Te113  1  0.16793713  0.49885857  0.83076788  1
  Te  Te114  1  0.16807667  0.83381534  0.17151226  1
  Te  Te115  1  0.16594956  0.83290123  0.49792511  1
  Te  Te116  1  0.17026439  0.83514118  0.82651789  1
  Te  Te117  1  0.50226498  0.17120614  0.16702069  1
  Te  Te118  1  0.50446358  0.17048242  0.50108047  1
  Te  Te119  1  0.49747391  0.16853678  0.83217434  1
  Te  Te120  1  0.49460768  0.49416784  0.16837775  1
  Te  Te121  1  0.50142973  0.49519678  0.50434677  1
  Te  Te122  1  0.49471570  0.50474767  0.82723931  1
  Te  Te123  1  0.50642075  0.83322632  0.17193758  1
  Te  Te124  1  0.50335208  0.83328681  0.49896176  1
  Te  Te125  1  0.49458832  0.82847956  0.83090018  1
  Te  Te126  1  0.83276030  0.16671298  0.17358120  1
  Te  Te127  1  0.83548284  0.16532149  0.49570598  1
  Te  Te128  1  0.83744740  0.16765884  0.83331277  1
  Te  Te129  1  0.83490434  0.50534228  0.17244343  1
  Te  Te130  1  0.83762667  0.50086222  0.49704048  1
  Te  Te131  1  0.83710523  0.50547417  0.83394953  1
  Te  Te132  1  0.83296692  0.82972972  0.16685252  1
  Te  Te133  1  0.83319310  0.83267892  0.50205499  1
  Te  Te134  1  0.83504662  0.82952953  0.82984248  1
  Te  Te135  1  0.16736386  -0.00832876  0.00386592  1
  Te  Te136  1  0.16685725  0.00193881  0.33258598  1
  Te  Te137  1  0.16679498  -0.00916172  0.66321739  1
  Te  Te138  1  0.16687707  0.33250894  -0.00547415  1
  Te  Te139  1  0.16915337  0.33446539  0.33444557  1
  Te  Te140  1  0.16238539  0.33369354  0.66875138  1
  Te  Te141  1  0.17048075  0.67171679  0.00566473  1
  Te  Te142  1  0.16930357  0.66556861  0.33022411  1
  Te  Te143  1  0.16619812  0.66561935  0.66493795  1
  Te  Te144  1  0.50970966  -0.00172265  -0.00030519  1
  Te  Te145  1  0.49967546  -0.01042176  0.33375758  1
  Te  Te146  1  0.50019603  -0.01081278  0.66633393  1
  Te  Te147  1  0.49993614  0.33475955  0.00687152  1
  Te  Te148  1  0.49501480  0.33617480  0.33484298  1
  Te  Te149  1  0.50067935  0.33749052  0.66245670  1
  Te  Te150  1  0.49914529  0.66765663  -0.00692834  1
  Te  Te151  1  0.49532894  0.67091807  0.33410052  1
  Te  Te152  1  0.49512265  0.66841208  0.66790340  1
  Te  Te153  1  0.82684379  -0.00074088  -0.00601547  1
  Te  Te154  1  0.82586932  0.00666835  0.33311558  1
  Te  Te155  1  0.83343338  -0.00780847  0.67226589  1
  Te  Te156  1  0.83217784  0.33474953  -0.00164257  1
  Te  Te157  1  0.83150416  0.32955031  0.33867962  1
  Te  Te158  1  0.83927767  0.33342011  0.65760743  1
  Te  Te159  1  0.82999584  0.66726236  0.00739089  1
  Te  Te160  1  0.83375934  0.66598019  0.33416753  1
  Te  Te161  1  0.83386437  0.66834532  0.66329705  1
  Te  Te162  1  -0.00052337  0.16560317  -0.00525774  1
  Te  Te163  1  0.00357553  0.16820822  0.33501725  1
  Te  Te164  1  -0.00048288  0.16869920  0.66692551  1
  Te  Te165  1  0.00057706  0.50060151  -0.01005497  1
  Te  Te166  1  -0.00338315  0.49478322  0.33711246  1
  Te  Te167  1  0.00113546  0.50193080  0.66438032  1
  Te  Te168  1  0.00764803  0.83302927  0.00816384  1
  Te  Te169  1  0.00409814  0.83197657  0.33278453  1
  Te  Te170  1  0.00119627  0.82984519  0.66510916  1
  Te  Te171  1  0.33303689  0.16511958  -0.00518038  1
  Te  Te172  1  0.33120650  0.16576507  0.33364799  1
  Te  Te173  1  0.33326467  0.16636907  0.67027854  1
  Te  Te174  1  0.33346373  0.50739556  -0.00080087  1
  Te  Te175  1  0.33369977  0.50468445  0.33056916  1
  Te  Te176  1  0.32891659  0.50308428  0.66744553  1
  Te  Te177  1  0.33015509  0.82954577  -0.00376418  1
  Te  Te178  1  0.33060436  0.83363909  0.33425689  1
  Te  Te179  1  0.33209647  0.83012806  0.66686348  1
  Te  Te180  1  0.66646962  0.16367104  0.00391074  1
  Te  Te181  1  0.65867678  0.16221508  0.33387462  1
  Te  Te182  1  0.66635628  0.16630458  0.66016067  1
  Te  Te183  1  0.66590582  0.50901836  -0.00009314  1
  Te  Te184  1  0.67334935  0.50018482  0.33347946  1
  Te  Te185  1  0.65992624  0.50782170  0.66627663  1
  Te  Te186  1  0.66684351  0.83138204  0.00219719  1
  Te  Te187  1  0.67168296  0.83687539  0.33469741  1
  Te  Te188  1  0.66641726  0.82859818  0.66437922  1
  Te  Te189  1  0.00335950  0.00117318  0.16662429  1
  Te  Te190  1  0.00589913  -0.00874311  0.49990197  1
  Te  Te191  1  -0.00527129  0.00299678  0.83365741  1
  Te  Te192  1  0.00545181  0.33006126  0.17054844  1
  Te  Te193  1  0.00143667  0.33267508  0.49713572  1
  Te  Te194  1  0.00476593  0.33445915  0.83498035  1
  Te  Te195  1  0.00156614  0.66756171  0.16618703  1
  Te  Te196  1  -0.00303566  0.67314863  0.50349508  1
  Te  Te197  1  -0.00300186  0.66485645  0.82929165  1
  Te  Te198  1  0.32989037  0.00533818  0.16992647  1
  Te  Te199  1  0.32859530  0.00722389  0.49493742  1
  Te  Te200  1  0.33360747  0.00488499  0.83521091  1
  Te  Te201  1  0.32939169  0.33244749  0.16843962  1
  Te  Te202  1  0.33320125  0.33021115  0.49647683  1
  Te  Te203  1  0.32832826  0.33298615  0.83417431  1
  Te  Te204  1  0.33161411  0.66542837  0.16906687  1
  Te  Te205  1  0.33315472  0.66564419  0.49872140  1
  Te  Te206  1  0.33087157  0.66619277  0.83134347  1
  Te  Te207  1  0.66746702  -0.00054817  0.16922977  1
  Te  Te208  1  0.66713456  -0.00098364  0.49576322  1
  Te  Te209  1  0.67194348  -0.00020881  0.83389115  1
  Te  Te210  1  0.66695570  0.33010173  0.16675538  1
  Te  Te211  1  0.66147698  0.32944129  0.50135523  1
  Te  Te212  1  0.66564277  0.33288144  0.83370902  1
  Te  Te213  1  0.66578955  0.66943620  0.16539721  1
  Te  Te214  1  0.67182782  0.67081132  0.50315707  1
  Te  Te215  1  0.67174808  0.66678672  0.83272798  1
