# generated using pymatgen
data_AgSbTe2
_symmetry_space_group_name_H-M   'P 1'
_cell_length_a   18.32070398
_cell_length_b   18.32313970
_cell_length_c   18.32661420
_cell_angle_alpha   90.00083854
_cell_angle_beta   89.99807844
_cell_angle_gamma   89.99579064
_symmetry_Int_Tables_number   1
_chemical_formula_structural   AgSbTe2
_chemical_formula_sum   'Ag54 Sb54 Te108'
_cell_volume   6152.11275338
_cell_formula_units_Z   54
loop_
 _symmetry_equiv_pos_site_id
 _symmetry_equiv_pos_as_xyz
  1  'x, y, z'
loop_
 _atom_site_type_symbol
 _atom_site_label
 _atom_site_symmetry_multiplicity
 _atom_site_fract_x
 _atom_site_fract_y
 _atom_site_fract_z
 _atom_site_occupancy
  Ag  Ag0  1  0.83657985  0.49864810  0.00608855  1
  Ag  Ag1  1  0.83974974  0.65729048  0.83104136  1
  Ag  Ag2  1  0.67055084  0.66101802  0.66589440  1
  Ag  Ag3  1  0.50118834  0.83287055  0.01251864  1
  Ag  Ag4  1  -0.00229936  0.17216259  0.83155533  1
  Ag  Ag5  1  0.32795493  0.17366955  0.49579660  1
  Ag  Ag6  1  0.83503781  0.33777521  0.17237391  1
  Ag  Ag7  1  0.32399096  0.83143005  0.49101425  1
  Ag  Ag8  1  0.67595568  0.66807263  0.33119352  1
  Ag  Ag9  1  0.16543088  0.66752374  0.50103429  1
  Ag  Ag10  1  0.00033983  0.16561943  0.49567076  1
  Ag  Ag11  1  0.50351446  0.17049304  0.65988160  1
  Ag  Ag12  1  0.00461186  0.83446414  0.49061006  1
  Ag  Ag13  1  0.15714222  0.66811301  0.82751829  1
  Ag  Ag14  1  0.67036054  0.33670477  -0.00053613  1
  Ag  Ag15  1  0.83629575  0.33355484  0.49602664  1
  Ag  Ag16  1  -0.00229670  0.66332841  0.32850088  1
  Ag  Ag17  1  0.15691334  0.33721197  0.17141168  1
  Ag  Ag18  1  -0.00434776  0.49936728  0.83636924  1
  Ag  Ag19  1  0.48963734  0.83627297  0.32823543  1
  Ag  Ag20  1  0.50320646  0.33102538  0.16821668  1
  Ag  Ag21  1  0.67392052  0.33779247  0.67153648  1
  Ag  Ag22  1  0.83523039  0.17591077  0.66089059  1
  Ag  Ag23  1  0.16250014  -0.00879840  0.83145676  1
  Ag  Ag24  1  0.33605567  0.33480901  0.65556784  1
  Ag  Ag25  1  0.83253262  0.33941448  0.83006662  1
  Ag  Ag26  1  0.83931441  0.17583682  0.33353786  1
  Ag  Ag27  1  -0.00126417  0.83130243  0.17269201  1
  Ag  Ag28  1  -0.00319908  0.34011046  0.32872407  1
  Ag  Ag29  1  -0.00063629  -0.00534097  0.00204545  1
  Ag  Ag30  1  0.33518805  0.83003578  0.17422654  1
  Ag  Ag31  1  0.32725368  0.49625978  0.49114478  1
  Ag  Ag32  1  0.83768105  0.00053020  0.16871644  1
  Ag  Ag33  1  0.50924723  0.33202715  0.83427694  1
  Ag  Ag34  1  0.16421428  0.82545977  0.65951199  1
  Ag  Ag35  1  0.16085002  0.50296119  0.33359951  1
  Ag  Ag36  1  0.67974064  0.50007518  0.16952405  1
  Ag  Ag37  1  0.32574048  0.66649855  0.00156064  1
  Ag  Ag38  1  0.00065201  0.66676902  0.00609061  1
  Ag  Ag39  1  0.49931434  0.16599948  0.33409353  1
  Ag  Ag40  1  0.66825761  0.82934769  0.83901274  1
  Ag  Ag41  1  -0.00322301  0.49667341  0.17278700  1
  Ag  Ag42  1  0.66523327  0.82790084  0.16938100  1
  Ag  Ag43  1  0.16287281  0.82654272  0.33640894  1
  Ag  Ag44  1  0.15985935  0.50352859  0.66029194  1
  Ag  Ag45  1  0.00123505  0.00209908  0.67111622  1
  Ag  Ag46  1  0.84171420  0.82882837  0.32968908  1
  Ag  Ag47  1  0.83827831  0.49316557  0.66812211  1
  Ag  Ag48  1  0.33507015  -0.00673455  0.33245407  1
  Ag  Ag49  1  0.32824014  0.33467876  0.33477584  1
  Ag  Ag50  1  0.32930755  0.49920358  0.17236771  1
  Ag  Ag51  1  0.84270761  0.49497745  0.32712798  1
  Ag  Ag52  1  0.50208455  -0.00525390  0.16891991  1
  Ag  Ag53  1  -0.00405489  0.17389249  0.17441210  1
  Sb  Sb54  1  0.49752389  0.83865943  0.66328879  1
  Sb  Sb55  1  0.32896739  -0.00588476  0.00788213  1
  Sb  Sb56  1  0.83582744  0.66292915  0.16809710  1
  Sb  Sb57  1  0.32802248  0.66659099  0.32994132  1
  Sb  Sb58  1  0.00255430  0.49999455  0.49531343  1
  Sb  Sb59  1  -0.00010585  0.66736981  0.66573314  1
  Sb  Sb60  1  0.16241284  0.00052017  0.16653572  1
  Sb  Sb61  1  0.49961882  0.33178233  0.49743174  1
  Sb  Sb62  1  -0.00381773  0.33167970  0.66152438  1
  Sb  Sb63  1  0.67203481  0.17108040  0.16918027  1
  Sb  Sb64  1  0.16441620  0.66311966  0.17017429  1
  Sb  Sb65  1  0.67289940  0.00103109  0.66970040  1
  Sb  Sb66  1  0.15956635  0.50279671  0.00523090  1
  Sb  Sb67  1  0.67254419  0.16818461  0.83169025  1
  Sb  Sb68  1  0.16115245  0.16902502  0.66400094  1
  Sb  Sb69  1  0.66956725  0.82969301  0.49332142  1
  Sb  Sb70  1  0.32732388  0.00416972  0.65971113  1
  Sb  Sb71  1  0.67191299  0.66418468  0.00164350  1
  Sb  Sb72  1  0.50488950  0.50280016  0.00346547  1
  Sb  Sb73  1  0.00216354  -0.00206921  0.33064413  1
  Sb  Sb74  1  0.49447620  0.66766626  0.49756746  1
  Sb  Sb75  1  0.83784275  0.00483041  0.49345565  1
  Sb  Sb76  1  0.49533016  0.00347121  0.83798422  1
  Sb  Sb77  1  0.33872564  0.33956206  0.00772714  1
  Sb  Sb78  1  0.33246766  0.66269749  0.66787074  1
  Sb  Sb79  1  0.16053559  0.33736760  0.83447885  1
  Sb  Sb80  1  0.16391899  0.16901073  0.33436058  1
  Sb  Sb81  1  0.66628240  0.49912780  0.49656979  1
  Sb  Sb82  1  0.67085377  0.33837216  0.33094799  1
  Sb  Sb83  1  0.16428702  -0.00824179  0.50087756  1
  Sb  Sb84  1  0.50089900  0.49293597  0.66801841  1
  Sb  Sb85  1  0.49922441  0.66993319  0.16759922  1
  Sb  Sb86  1  0.16431694  0.33879124  0.49531589  1
  Sb  Sb87  1  0.83954040  0.66189338  0.49983805  1
  Sb  Sb88  1  0.32586052  0.49916399  0.83441957  1
  Sb  Sb89  1  0.16725787  0.82977963  0.00387648  1
  Sb  Sb90  1  0.49658276  0.00163267  0.49265222  1
  Sb  Sb91  1  0.16287692  0.16663415  0.00016629  1
  Sb  Sb92  1  0.67236671  0.00094760  0.00348396  1
  Sb  Sb93  1  0.50007127  0.16522630  0.00464128  1
  Sb  Sb94  1  0.67044732  0.17016275  0.49865913  1
  Sb  Sb95  1  0.33099963  0.16895932  0.17413314  1
  Sb  Sb96  1  0.32848331  0.16992512  0.82507053  1
  Sb  Sb97  1  0.83841765  0.83249724  0.66283295  1
  Sb  Sb98  1  0.84034661  0.00087113  0.83795693  1
  Sb  Sb99  1  -0.00565271  0.33784868  0.00711537  1
  Sb  Sb100  1  0.83702645  0.17352589  0.00359611  1
  Sb  Sb101  1  0.67591611  0.50042379  0.83594583  1
  Sb  Sb102  1  0.83250503  0.82734711  0.00635751  1
  Sb  Sb103  1  0.33368428  0.83222700  0.83488700  1
  Sb  Sb104  1  0.66440715  -0.00568647  0.32973533  1
  Sb  Sb105  1  0.50237231  0.66244809  0.83441977  1
  Sb  Sb106  1  -0.00244912  0.83067201  0.83469114  1
  Sb  Sb107  1  0.49810486  0.50002871  0.33016587  1
  Te  Te108  1  0.15857220  0.17280375  0.16701375  1
  Te  Te109  1  0.16551199  0.16628033  0.50034281  1
  Te  Te110  1  0.15815417  0.16620316  0.83229847  1
  Te  Te111  1  0.16621701  0.49758546  0.17115748  1
  Te  Te112  1  0.16816952  0.50372514  0.49933693  1
  Te  Te113  1  0.15881069  0.50420628  0.83091289  1
  Te  Te114  1  0.16657635  0.83339158  0.17140254  1
  Te  Te115  1  0.16510734  0.83057279  0.49934417  1
  Te  Te116  1  0.16656875  0.82991790  0.83080694  1
  Te  Te117  1  0.50020845  0.16760261  0.17182813  1
  Te  Te118  1  0.49607051  0.16664571  0.49665348  1
  Te  Te119  1  0.50036778  0.17185908  0.83251281  1
  Te  Te120  1  0.49351833  0.49404128  0.16610990  1
  Te  Te121  1  0.48900454  0.50006007  0.49969132  1
  Te  Te122  1  0.49911484  0.49155652  0.83503271  1
  Te  Te123  1  0.49927527  0.83263056  0.17010996  1
  Te  Te124  1  0.49528022  0.83463387  0.49346996  1
  Te  Te125  1  0.50427433  0.83419447  0.83214868  1
  Te  Te126  1  0.83671585  0.16802559  0.17010548  1
  Te  Te127  1  0.83682447  0.17029345  0.49730907  1
  Te  Te128  1  0.83839102  0.16810795  0.83129605  1
  Te  Te129  1  0.83573621  0.49894398  0.16819675  1
  Te  Te130  1  0.83343660  0.49473535  0.50292972  1
  Te  Te131  1  0.83532912  0.49957429  0.82890651  1
  Te  Te132  1  0.83522027  0.83249961  0.16962662  1
  Te  Te133  1  0.83863706  0.83420395  0.49352922  1
  Te  Te134  1  0.82900681  0.83262442  0.83288115  1
  Te  Te135  1  0.16068569  -0.00226960  -0.00552572  1
  Te  Te136  1  0.17451375  -0.00579214  0.33264676  1
  Te  Te137  1  0.16264415  -0.00077595  0.67097079  1
  Te  Te138  1  0.16938591  0.33448722  0.00778977  1
  Te  Te139  1  0.16684417  0.33603172  0.33098893  1
  Te  Te140  1  0.17166044  0.33989864  0.66670371  1
  Te  Te141  1  0.16262166  0.66659991  -0.00773803  1
  Te  Te142  1  0.16238731  0.66552098  0.33601945  1
  Te  Te143  1  0.16735701  0.66483812  0.66670541  1
  Te  Te144  1  0.49998235  -0.00518490  0.00602554  1
  Te  Te145  1  0.49721351  0.00020891  0.32751732  1
  Te  Te146  1  0.49933978  0.00915075  0.66859362  1
  Te  Te147  1  0.50571233  0.33327090  0.00153489  1
  Te  Te148  1  0.50095936  0.33201934  0.33007542  1
  Te  Te149  1  0.49860792  0.32885417  0.66625072  1
  Te  Te150  1  0.49850559  0.67324647  -0.00188194  1
  Te  Te151  1  0.50890824  0.67195069  0.33406550  1
  Te  Te152  1  0.50756699  0.66788468  0.66688773  1
  Te  Te153  1  0.83978487  0.00005552  0.00652235  1
  Te  Te154  1  0.83245347  0.00134355  0.32722925  1
  Te  Te155  1  0.83956317  0.00418626  0.66763183  1
  Te  Te156  1  0.83036404  0.33812684  -0.00165391  1
  Te  Te157  1  0.83291088  0.33489135  0.33296065  1
  Te  Te158  1  0.83560740  0.33305922  0.66864032  1
  Te  Te159  1  0.83784671  0.66089408  -0.00768971  1
  Te  Te160  1  0.83699848  0.66571190  0.33500538  1
  Te  Te161  1  0.83075794  0.66543882  0.66874620  1
  Te  Te162  1  -0.00094608  0.16218284  -0.00210932  1
  Te  Te163  1  -0.00176738  0.16440729  0.33327560  1
  Te  Te164  1  -0.00356834  0.16553498  0.66574674  1
  Te  Te165  1  -0.00388530  0.50387916  0.00055504  1
  Te  Te166  1  0.00086773  0.49944590  0.33384377  1
  Te  Te167  1  -0.00001371  0.49976707  0.66683518  1
  Te  Te168  1  -0.00025699  0.82972127  0.00556972  1
  Te  Te169  1  0.00128383  0.83680950  0.33272552  1
  Te  Te170  1  0.00492934  0.83621079  0.66479593  1
  Te  Te171  1  0.33240975  0.16569680  -0.00123988  1
  Te  Te172  1  0.33286332  0.17231122  0.33680349  1
  Te  Te173  1  0.33547693  0.17185870  0.65914704  1
  Te  Te174  1  0.33304610  0.50625554  0.00435230  1
  Te  Te175  1  0.33186823  0.49962127  0.33217995  1
  Te  Te176  1  0.33212503  0.49486993  0.66661476  1
  Te  Te177  1  0.33754369  0.82907824  0.00376734  1
  Te  Te178  1  0.33223439  0.82799021  0.33244358  1
  Te  Te179  1  0.32780523  0.83385332  0.66251141  1
  Te  Te180  1  0.66670086  0.17437927  -0.00035230  1
  Te  Te181  1  0.66341095  0.16577492  0.33389725  1
  Te  Te182  1  0.66888159  0.17001798  0.66637462  1
  Te  Te183  1  0.67200778  0.49755584  0.00706890  1
  Te  Te184  1  0.66857980  0.50610272  0.32965049  1
  Te  Te185  1  0.66897371  0.49907527  0.66601108  1
  Te  Te186  1  0.66380607  0.83246158  0.00407053  1
  Te  Te187  1  0.67179279  0.82850224  0.32943162  1
  Te  Te188  1  0.66651506  0.83175997  0.66534910  1
  Te  Te189  1  -0.00103133  -0.00176252  0.16430582  1
  Te  Te190  1  -0.00037256  0.00258087  0.50585643  1
  Te  Te191  1  0.00316664  -0.00201709  0.83405292  1
  Te  Te192  1  -0.00288368  0.33458647  0.16829574  1
  Te  Te193  1  -0.00225226  0.32915641  0.49277538  1
  Te  Te194  1  -0.00433193  0.33472347  0.83611128  1
  Te  Te195  1  0.00108304  0.66719081  0.16771662  1
  Te  Te196  1  0.00523661  0.67121171  0.49519323  1
  Te  Te197  1  -0.00174418  0.66442526  0.83200524  1
  Te  Te198  1  0.33502355  -0.00199848  0.17173018  1
  Te  Te199  1  0.33151298  -0.00194153  0.49292041  1
  Te  Te200  1  0.32543267  0.00142309  0.83370222  1
  Te  Te201  1  0.33836504  0.33554297  0.17128681  1
  Te  Te202  1  0.33258428  0.33419320  0.49648400  1
  Te  Te203  1  0.33411998  0.33321143  0.83448006  1
  Te  Te204  1  0.33207142  0.66606192  0.16252573  1
  Te  Te205  1  0.32747314  0.66746032  0.50102253  1
  Te  Te206  1  0.33088056  0.66610339  0.83890326  1
  Te  Te207  1  0.66738520  -0.00533647  0.16523857  1
  Te  Te208  1  0.66645042  -0.00081545  0.50188446  1
  Te  Te209  1  0.66540756  -0.00816892  0.83606093  1
  Te  Te210  1  0.66847482  0.33639646  0.16611119  1
  Te  Te211  1  0.67310791  0.33487618  0.50815063  1
  Te  Te212  1  0.66919793  0.33396724  0.83195802  1
  Te  Te213  1  0.66664121  0.66579610  0.16887986  1
  Te  Te214  1  0.66681561  0.66548004  0.50271050  1
  Te  Te215  1  0.66898253  0.66913370  0.83186906  1
