# generated using pymatgen
data_AgSbTe2
_symmetry_space_group_name_H-M   'P 1'
_cell_length_a   18.32434307
_cell_length_b   18.32470380
_cell_length_c   18.32700283
_cell_angle_alpha   90.00452747
_cell_angle_beta   89.99803833
_cell_angle_gamma   89.99820655
_symmetry_Int_Tables_number   1
_chemical_formula_structural   AgSbTe2
_chemical_formula_sum   'Ag54 Sb54 Te108'
_cell_volume   6153.99051418
_cell_formula_units_Z   54
loop_
 _symmetry_equiv_pos_site_id
 _symmetry_equiv_pos_as_xyz
  1  'x, y, z'
loop_
 _atom_site_type_symbol
 _atom_site_label
 _atom_site_symmetry_multiplicity
 _atom_site_fract_x
 _atom_site_fract_y
 _atom_site_fract_z
 _atom_site_occupancy
  Ag  Ag0  1  0.83203758  0.82018551  0.65695179  1
  Ag  Ag1  1  -0.00672009  0.17373567  0.83754966  1
  Ag  Ag2  1  0.50110746  0.17185358  0.66915160  1
  Ag  Ag3  1  0.83069366  0.00133155  0.82656317  1
  Ag  Ag4  1  0.33680222  0.34231630  0.66096824  1
  Ag  Ag5  1  0.50207250  0.50008844  -0.00503405  1
  Ag  Ag6  1  0.66924700  0.00148583  -0.00002217  1
  Ag  Ag7  1  0.33528769  0.66651103  -0.00317488  1
  Ag  Ag8  1  0.16210177  0.82448042  0.33167226  1
  Ag  Ag9  1  0.50964735  0.82484485  0.33332458  1
  Ag  Ag10  1  0.16025055  -0.00523030  0.49961799  1
  Ag  Ag11  1  0.16567552  0.66389134  0.82905704  1
  Ag  Ag12  1  0.16123081  0.65849851  0.49659965  1
  Ag  Ag13  1  0.67032763  0.50297806  0.82650871  1
  Ag  Ag14  1  0.17004505  0.34573177  0.49491461  1
  Ag  Ag15  1  0.16388512  0.50313415  0.65696029  1
  Ag  Ag16  1  0.83454456  0.32929929  0.17140813  1
  Ag  Ag17  1  0.32358700  0.82603993  0.16864996  1
  Ag  Ag18  1  0.67012591  0.49992510  0.50231914  1
  Ag  Ag19  1  0.67085025  -0.00038428  0.33680880  1
  Ag  Ag20  1  0.66890250  0.66385675  0.33542819  1
  Ag  Ag21  1  0.17135190  0.50678906  0.34527775  1
  Ag  Ag22  1  0.00323271  0.83049961  0.17401303  1
  Ag  Ag23  1  0.82730915  0.16686554  0.00809579  1
  Ag  Ag24  1  0.00684453  0.50382490  0.50362096  1
  Ag  Ag25  1  0.82843713  0.33823473  0.83035163  1
  Ag  Ag26  1  0.66591412  0.66629559  -0.00701758  1
  Ag  Ag27  1  0.49487766  0.33737443  0.50366971  1
  Ag  Ag28  1  0.83329560  0.83198692  0.33799479  1
  Ag  Ag29  1  0.67443504  0.16794456  0.16694329  1
  Ag  Ag30  1  0.67070916  -0.00280573  0.66396874  1
  Ag  Ag31  1  0.50734559  0.17314750  -0.00175800  1
  Ag  Ag32  1  0.31990754  0.49599248  0.50219461  1
  Ag  Ag33  1  0.50224218  0.50230232  0.33780389  1
  Ag  Ag34  1  0.82968661  0.16758222  0.32963843  1
  Ag  Ag35  1  0.83138900  0.34240584  0.49926068  1
  Ag  Ag36  1  -0.01063115  0.49960933  0.82536641  1
  Ag  Ag37  1  0.51123736  0.65922822  0.83422037  1
  Ag  Ag38  1  -0.00923480  0.16700656  0.16416475  1
  Ag  Ag39  1  0.16661589  0.82857527  0.01265487  1
  Ag  Ag40  1  0.16392524  0.66814655  0.17255684  1
  Ag  Ag41  1  0.16288293  0.33847249  0.17389994  1
  Ag  Ag42  1  0.50743378  0.34029559  0.82756163  1
  Ag  Ag43  1  0.33511597  0.66143972  0.66799110  1
  Ag  Ag44  1  -0.00361412  0.82386782  0.49372895  1
  Ag  Ag45  1  0.83430538  0.66264622  0.50460365  1
  Ag  Ag46  1  0.83299505  0.66473686  0.17082303  1
  Ag  Ag47  1  0.33279348  0.17696143  0.49755084  1
  Ag  Ag48  1  0.66870604  0.33906573  0.33633193  1
  Ag  Ag49  1  0.66895945  0.66408536  0.66783241  1
  Ag  Ag50  1  0.83280852  -0.00789859  0.50160807  1
  Ag  Ag51  1  0.82950822  0.65821196  0.82386701  1
  Ag  Ag52  1  0.33256229  0.16891704  0.16946479  1
  Ag  Ag53  1  0.83290379  0.50331189  0.66336056  1
  Sb  Sb54  1  0.16587394  -0.00438947  0.17261327  1
  Sb  Sb55  1  0.33729089  -0.00152103  0.33458780  1
  Sb  Sb56  1  0.67419535  0.82631089  0.49785743  1
  Sb  Sb57  1  0.83237641  0.00185717  0.17104230  1
  Sb  Sb58  1  -0.00090647  0.50124808  0.17052092  1
  Sb  Sb59  1  0.66618311  0.17165835  0.49676986  1
  Sb  Sb60  1  -0.00403243  0.82887778  0.83181409  1
  Sb  Sb61  1  -0.00804646  -0.00024702  0.66504018  1
  Sb  Sb62  1  0.83556856  0.83497051  0.00324983  1
  Sb  Sb63  1  0.67202611  0.17229206  0.83722443  1
  Sb  Sb64  1  0.17135990  0.17250972  0.66425748  1
  Sb  Sb65  1  -0.00184563  0.33334696  0.00050756  1
  Sb  Sb66  1  -0.00530355  0.66391577  0.66497568  1
  Sb  Sb67  1  0.49809085  0.82948795  0.00429019  1
  Sb  Sb68  1  0.82879518  0.17020661  0.66536287  1
  Sb  Sb69  1  0.33660402  0.33342283  0.33997512  1
  Sb  Sb70  1  0.32646692  0.82815218  0.49569381  1
  Sb  Sb71  1  0.16495220  0.34091254  0.83020094  1
  Sb  Sb72  1  0.50987237  0.00123227  0.83355756  1
  Sb  Sb73  1  0.50229982  0.65991608  0.50241401  1
  Sb  Sb74  1  -0.00534744  0.66713426  0.33601595  1
  Sb  Sb75  1  0.83076488  0.50178338  0.34244325  1
  Sb  Sb76  1  0.15905811  -0.00449618  0.82816481  1
  Sb  Sb77  1  0.16232952  0.16724079  0.33374306  1
  Sb  Sb78  1  -0.00558128  0.33424013  0.33401812  1
  Sb  Sb79  1  0.50679354  0.16948351  0.33295891  1
  Sb  Sb80  1  0.50179516  0.49729585  0.66448051  1
  Sb  Sb81  1  0.33115297  0.82714137  0.83654025  1
  Sb  Sb82  1  -0.00129557  0.66666966  -0.00002755  1
  Sb  Sb83  1  0.00057531  0.33570899  0.66555090  1
  Sb  Sb84  1  0.33529531  0.33831888  -0.00211843  1
  Sb  Sb85  1  0.33818298  -0.00317334  0.00189093  1
  Sb  Sb86  1  0.50564644  0.83198745  0.66131025  1
  Sb  Sb87  1  0.16577185  0.16249407  0.00368419  1
  Sb  Sb88  1  0.33185681  0.50015482  0.17181651  1
  Sb  Sb89  1  0.66711180  0.33477197  0.00290003  1
  Sb  Sb90  1  0.33381996  0.66627679  0.33440511  1
  Sb  Sb91  1  0.66402735  0.33654927  0.66256214  1
  Sb  Sb92  1  0.66899114  0.49867453  0.16873805  1
  Sb  Sb93  1  0.16020301  0.82300100  0.66094714  1
  Sb  Sb94  1  0.50120518  0.66630328  0.16437563  1
  Sb  Sb95  1  -0.00628350  -0.00021879  -0.00036731  1
  Sb  Sb96  1  0.33315800  0.16964793  0.83296385  1
  Sb  Sb97  1  -0.00003942  0.16922096  0.49912133  1
  Sb  Sb98  1  0.50593785  0.00440880  0.49884232  1
  Sb  Sb99  1  0.33729691  -0.00057870  0.66291724  1
  Sb  Sb100  1  0.33702840  0.50226186  0.82633246  1
  Sb  Sb101  1  -0.00585087  -0.00265840  0.33452606  1
  Sb  Sb102  1  0.50277250  0.00076556  0.16731876  1
  Sb  Sb103  1  0.82809190  0.49896087  -0.00705355  1
  Sb  Sb104  1  0.67020359  0.83443591  0.17023426  1
  Sb  Sb105  1  0.50193937  0.33226497  0.16948058  1
  Sb  Sb106  1  0.17129919  0.50759464  -0.00089659  1
  Sb  Sb107  1  0.66911346  0.82531833  0.83289826  1
  Te  Te108  1  0.16802944  0.16836550  0.16710114  1
  Te  Te109  1  0.16967210  0.16619565  0.50014488  1
  Te  Te110  1  0.15896794  0.16617792  0.83418169  1
  Te  Te111  1  0.16557279  0.50016711  0.16742179  1
  Te  Te112  1  0.16400455  0.50134437  0.50114363  1
  Te  Te113  1  0.16423290  0.50403372  0.83175685  1
  Te  Te114  1  0.16457714  0.83270258  0.17094171  1
  Te  Te115  1  0.16156568  0.83233459  0.49574465  1
  Te  Te116  1  0.16299798  0.82660950  0.83255389  1
  Te  Te117  1  0.49738976  0.16791432  0.16256599  1
  Te  Te118  1  0.49596295  0.17198825  0.50061549  1
  Te  Te119  1  0.50068650  0.16962761  0.83490371  1
  Te  Te120  1  0.49988444  0.49851121  0.17010672  1
  Te  Te121  1  0.50889515  0.49632325  0.49797770  1
  Te  Te122  1  0.50221519  0.50042325  0.83313311  1
  Te  Te123  1  0.49400006  0.83315661  0.17322972  1
  Te  Te124  1  0.49616985  0.83488635  0.49245470  1
  Te  Te125  1  0.49898784  0.82678663  0.83348882  1
  Te  Te126  1  0.83276554  0.16641708  0.16761901  1
  Te  Te127  1  0.83503105  0.17078287  0.49559908  1
  Te  Te128  1  0.83499639  0.17096101  0.83213229  1
  Te  Te129  1  0.83609636  0.50062853  0.16459469  1
  Te  Te130  1  0.83107392  0.50215475  0.50176080  1
  Te  Te131  1  0.83126736  0.49911561  0.83190430  1
  Te  Te132  1  0.83775870  0.82990367  0.17084174  1
  Te  Te133  1  0.83473552  0.83127986  0.49888981  1
  Te  Te134  1  0.83519173  0.83383185  0.83214380  1
  Te  Te135  1  0.16825344  -0.00852823  -0.00301116  1
  Te  Te136  1  0.16794630  -0.00178416  0.34063240  1
  Te  Te137  1  0.16753244  -0.00211306  0.66066385  1
  Te  Te138  1  0.16844318  0.33304917  0.00538179  1
  Te  Te139  1  0.16695297  0.33392629  0.33345922  1
  Te  Te140  1  0.17347062  0.34001471  0.66254564  1
  Te  Te141  1  0.16767714  0.66981731  0.00286529  1
  Te  Te142  1  0.16925955  0.66569503  0.33366587  1
  Te  Te143  1  0.16991820  0.66301791  0.66604742  1
  Te  Te144  1  0.50731873  0.00378574  -0.00131320  1
  Te  Te145  1  0.50910590  -0.00449183  0.33423863  1
  Te  Te146  1  0.50806114  0.00274465  0.66702581  1
  Te  Te147  1  0.50013321  0.33463490  -0.00329047  1
  Te  Te148  1  0.50633285  0.33691419  0.33750947  1
  Te  Te149  1  0.49831607  0.33137374  0.66575712  1
  Te  Te150  1  0.50235104  0.66508216  -0.00264938  1
  Te  Te151  1  0.50420690  0.66533819  0.33324119  1
  Te  Te152  1  0.50219622  0.66871851  0.67194069  1
  Te  Te153  1  0.82788102  0.00327163  -0.00344845  1
  Te  Te154  1  0.82885227  -0.00256142  0.33727629  1
  Te  Te155  1  0.82777832  0.00359526  0.66385697  1
  Te  Te156  1  0.83206329  0.32809720  -0.00022988  1
  Te  Te157  1  0.82920591  0.33520617  0.33332224  1
  Te  Te158  1  0.83173819  0.33810706  0.66575122  1
  Te  Te159  1  0.82807808  0.66743339  0.00218214  1
  Te  Te160  1  0.82924598  0.66732183  0.33335498  1
  Te  Te161  1  0.83046268  0.66433017  0.66532855  1
  Te  Te162  1  -0.00381439  0.16614198  0.00152636  1
  Te  Te163  1  -0.00806197  0.16596941  0.32756046  1
  Te  Te164  1  0.00183936  0.16737031  0.67358530  1
  Te  Te165  1  0.00173737  0.50018066  -0.00726775  1
  Te  Te166  1  0.01027026  0.50029703  0.33839130  1
  Te  Te167  1  -0.00116768  0.49902923  0.66573297  1
  Te  Te168  1  0.00531970  0.83414831  0.00469178  1
  Te  Te169  1  -0.00139310  0.83285911  0.33402474  1
  Te  Te170  1  -0.00831132  0.83402556  0.66034819  1
  Te  Te171  1  0.33730196  0.16608015  0.00309638  1
  Te  Te172  1  0.33470229  0.16598007  0.33249129  1
  Te  Te173  1  0.33965283  0.16750876  0.66413077  1
  Te  Te174  1  0.34021187  0.50646840  0.00071310  1
  Te  Te175  1  0.33579807  0.49984030  0.33977832  1
  Te  Te176  1  0.33321656  0.50218950  0.66220016  1
  Te  Te177  1  0.33046677  0.82919798  0.00629303  1
  Te  Te178  1  0.32874819  0.83318386  0.32788413  1
  Te  Te179  1  0.33457382  0.82699291  0.66552346  1
  Te  Te180  1  0.66717329  0.16786149  0.00302408  1
  Te  Te181  1  0.66985804  0.16497428  0.32975678  1
  Te  Te182  1  0.66060804  0.16345956  0.66688503  1
  Te  Te183  1  0.66117219  0.50465069  -0.00078304  1
  Te  Te184  1  0.66546232  0.50141036  0.33435426  1
  Te  Te185  1  0.66926670  0.50240484  0.66625265  1
  Te  Te186  1  0.66607581  0.83257741  0.00257258  1
  Te  Te187  1  0.66888519  0.83197575  0.33282982  1
  Te  Te188  1  0.67240285  0.83239586  0.66635489  1
  Te  Te189  1  0.00059422  0.00275737  0.16615883  1
  Te  Te190  1  -0.00219523  0.00091694  0.50022713  1
  Te  Te191  1  -0.00807029  0.00314499  0.83255871  1
  Te  Te192  1  -0.00089796  0.33037692  0.16706000  1
  Te  Te193  1  -0.00054967  0.33750407  0.50042341  1
  Te  Te194  1  -0.00393908  0.33543126  0.83322004  1
  Te  Te195  1  -0.00022338  0.66894847  0.16654637  1
  Te  Te196  1  -0.00060141  0.66550301  0.50041578  1
  Te  Te197  1  -0.00319005  0.66175462  0.83320764  1
  Te  Te198  1  0.33306553  0.00604690  0.16674243  1
  Te  Te199  1  0.33185516  0.00422596  0.50059365  1
  Te  Te200  1  0.33248816  -0.00122314  0.83242722  1
  Te  Te201  1  0.32906723  0.33031543  0.16621197  1
  Te  Te202  1  0.33314859  0.33470724  0.50156853  1
  Te  Te203  1  0.33670232  0.33401136  0.82642111  1
  Te  Te204  1  0.32965631  0.66734795  0.16369740  1
  Te  Te205  1  0.33207414  0.66179279  0.50410898  1
  Te  Te206  1  0.32801818  0.66622936  0.83430330  1
  Te  Te207  1  0.66747913  0.00465429  0.16500134  1
  Te  Te208  1  0.67202317  0.00141617  0.49937897  1
  Te  Te209  1  0.67232214  -0.00002475  0.83409545  1
  Te  Te210  1  0.67059516  0.32900901  0.17193446  1
  Te  Te211  1  0.67077392  0.33680745  0.49750740  1
  Te  Te212  1  0.66669961  0.33944290  0.83352097  1
  Te  Te213  1  0.67128101  0.66676870  0.17029939  1
  Te  Te214  1  0.66833556  0.66185120  0.49987268  1
  Te  Te215  1  0.66918323  0.66365203  0.83294946  1
