# generated using pymatgen
data_AgSbTe2
_symmetry_space_group_name_H-M   'P 1'
_cell_length_a   18.31715120
_cell_length_b   18.31031251
_cell_length_c   18.31242983
_cell_angle_alpha   89.99858748
_cell_angle_beta   89.99991655
_cell_angle_gamma   89.99948889
_symmetry_Int_Tables_number   1
_chemical_formula_structural   AgSbTe2
_chemical_formula_sum   'Ag54 Sb54 Te108'
_cell_volume   6141.85643015
_cell_formula_units_Z   54
loop_
 _symmetry_equiv_pos_site_id
 _symmetry_equiv_pos_as_xyz
  1  'x, y, z'
loop_
 _atom_site_type_symbol
 _atom_site_label
 _atom_site_symmetry_multiplicity
 _atom_site_fract_x
 _atom_site_fract_y
 _atom_site_fract_z
 _atom_site_occupancy
  Ag  Ag0  1  0.66795609  0.16444209  0.16461978  1
  Ag  Ag1  1  0.83710061  0.33110225  0.83075799  1
  Ag  Ag2  1  0.67119547  0.66689611  0.33369191  1
  Ag  Ag3  1  0.33699691  0.50413175  0.50001600  1
  Ag  Ag4  1  0.67214212  -0.00393285  0.67157199  1
  Ag  Ag5  1  0.16626204  0.16920924  0.33109364  1
  Ag  Ag6  1  0.33519762  0.33073668  0.33456831  1
  Ag  Ag7  1  -0.00202389  0.32804555  0.33328150  1
  Ag  Ag8  1  -0.00846935  0.00628233  -0.00368831  1
  Ag  Ag9  1  0.83760443  0.16175038  -0.00388533  1
  Ag  Ag10  1  0.16666895  0.33474955  0.83421216  1
  Ag  Ag11  1  0.49910182  0.66234778  0.82705729  1
  Ag  Ag12  1  0.66478252  0.49779671  0.83018366  1
  Ag  Ag13  1  -0.00347322  0.16703539  0.50608217  1
  Ag  Ag14  1  0.49914128  0.33377082  0.83018109  1
  Ag  Ag15  1  0.50012647  0.16633257  0.32795833  1
  Ag  Ag16  1  0.66720085  0.33448505  0.67058123  1
  Ag  Ag17  1  0.33892608  0.00229801  0.66690729  1
  Ag  Ag18  1  0.66651877  0.83328129  0.16815655  1
  Ag  Ag19  1  0.66826619  0.50289151  0.16767382  1
  Ag  Ag20  1  0.32776491  0.66800195  -0.00106548  1
  Ag  Ag21  1  0.83380925  -0.00613079  0.50634254  1
  Ag  Ag22  1  0.82756078  0.83772638  0.66369451  1
  Ag  Ag23  1  0.83634080  0.83745408  0.00091309  1
  Ag  Ag24  1  0.83246421  0.67083089  0.17020850  1
  Ag  Ag25  1  0.82782926  0.82764541  0.33193934  1
  Ag  Ag26  1  0.82742441  0.67235000  0.49778438  1
  Ag  Ag27  1  0.16922978  0.83200405  0.32626409  1
  Ag  Ag28  1  -0.00659835  0.16870146  0.16050329  1
  Ag  Ag29  1  0.33689290  0.83202551  0.17042298  1
  Ag  Ag30  1  0.50540109  0.67019010  0.50661622  1
  Ag  Ag31  1  0.33709567  0.32917804  0.67481761  1
  Ag  Ag32  1  -0.00900930  0.66882018  0.67186821  1
  Ag  Ag33  1  0.32977032  0.33179219  -0.00889712  1
  Ag  Ag34  1  0.66654647  0.67025184  0.66315860  1
  Ag  Ag35  1  0.50570228  0.16650531  0.00288927  1
  Ag  Ag36  1  0.16285676  0.82814778  0.00505412  1
  Ag  Ag37  1  0.00025504  0.17200864  0.83466561  1
  Ag  Ag38  1  0.33682856  0.82996901  0.49682105  1
  Ag  Ag39  1  0.50744375  0.82849495  0.66209129  1
  Ag  Ag40  1  0.33095845  0.17404072  0.83323206  1
  Ag  Ag41  1  0.50094731  0.83355709  0.33397730  1
  Ag  Ag42  1  0.50299131  0.50641985  0.66777579  1
  Ag  Ag43  1  0.83649510  0.16140947  0.67063017  1
  Ag  Ag44  1  0.50355983  -0.00058181  0.16637199  1
  Ag  Ag45  1  0.66786585  0.33658181  0.33339933  1
  Ag  Ag46  1  0.16854493  0.66316841  0.83979341  1
  Ag  Ag47  1  0.67332668  0.00224541  -0.00021913  1
  Ag  Ag48  1  0.82903029  0.50391577  0.33288432  1
  Ag  Ag49  1  0.00414544  0.67266438  -0.00353949  1
  Ag  Ag50  1  0.16137971  0.67180268  0.15901968  1
  Ag  Ag51  1  -0.01074919  0.00647621  0.67039015  1
  Ag  Ag52  1  0.00060539  0.32404642  -0.00822118  1
  Ag  Ag53  1  -0.00705671  0.32632382  0.67436416  1
  Sb  Sb54  1  -0.00222373  0.00460838  0.33217924  1
  Sb  Sb55  1  -0.00534898  0.49468036  0.83252625  1
  Sb  Sb56  1  0.66741972  0.67165095  0.00028834  1
  Sb  Sb57  1  0.50164587  0.32848086  0.16383276  1
  Sb  Sb58  1  -0.00746251  0.66517330  0.33236083  1
  Sb  Sb59  1  0.33745391  0.66760991  0.33150480  1
  Sb  Sb60  1  0.33023943  0.16541468  0.50312766  1
  Sb  Sb61  1  -0.00574002  0.49803313  0.16667981  1
  Sb  Sb62  1  0.50176110  0.83639100  0.00102807  1
  Sb  Sb63  1  0.67068983  0.16578298  0.49753082  1
  Sb  Sb64  1  0.15920076  0.16790435  0.66715247  1
  Sb  Sb65  1  0.33514226  0.16355143  0.16471039  1
  Sb  Sb66  1  0.16190833  0.00018236  0.50050032  1
  Sb  Sb67  1  0.17181425  0.49965686  0.66820115  1
  Sb  Sb68  1  0.16624737  0.83216834  0.66808755  1
  Sb  Sb69  1  0.83410364  0.00627390  0.83013777  1
  Sb  Sb70  1  0.66719190  0.82912377  0.83354976  1
  Sb  Sb71  1  -0.00074561  0.83544246  0.83467442  1
  Sb  Sb72  1  0.50405074  0.67305263  0.16765617  1
  Sb  Sb73  1  0.83327008  0.66223518  0.83250521  1
  Sb  Sb74  1  0.66420681  0.50254056  0.50076807  1
  Sb  Sb75  1  0.33949181  0.50399335  0.16919929  1
  Sb  Sb76  1  0.16627779  0.66970771  0.50118267  1
  Sb  Sb77  1  0.33935018  0.66622202  0.66960632  1
  Sb  Sb78  1  0.16528915  0.00160120  0.83458718  1
  Sb  Sb79  1  0.83240633  0.16620193  0.33244160  1
  Sb  Sb80  1  0.33481916  0.00017832  0.33742143  1
  Sb  Sb81  1  -0.00170212  0.83669117  0.50095515  1
  Sb  Sb82  1  0.16677173  0.50543244  -0.00098993  1
  Sb  Sb83  1  0.00121650  0.49723190  0.50138551  1
  Sb  Sb84  1  0.16848108  -0.00393418  0.16546551  1
  Sb  Sb85  1  0.33368603  0.83308875  0.83356991  1
  Sb  Sb86  1  0.66752991  -0.00205501  0.33059615  1
  Sb  Sb87  1  0.16172762  0.16457736  0.00175576  1
  Sb  Sb88  1  0.50496644  -0.00528115  0.49871548  1
  Sb  Sb89  1  0.50123674  0.49602140  -0.00572463  1
  Sb  Sb90  1  0.50041447  0.00199398  0.83486319  1
  Sb  Sb91  1  0.66876274  0.17198565  0.83634700  1
  Sb  Sb92  1  0.82699034  0.50053055  0.66325415  1
  Sb  Sb93  1  0.50453455  0.16604543  0.66751514  1
  Sb  Sb94  1  0.33934434  0.49466491  0.82921746  1
  Sb  Sb95  1  0.16571458  0.33540710  0.16313991  1
  Sb  Sb96  1  0.83237601  0.33379936  0.16444014  1
  Sb  Sb97  1  -0.00197462  0.83569988  0.16444405  1
  Sb  Sb98  1  0.16689813  0.33157924  0.50349975  1
  Sb  Sb99  1  0.33322380  0.00100503  -0.00336654  1
  Sb  Sb100  1  0.83244334  0.50059574  0.00270861  1
  Sb  Sb101  1  0.49871813  0.33667809  0.50442813  1
  Sb  Sb102  1  0.16373599  0.50017645  0.33215632  1
  Sb  Sb103  1  0.83376644  0.33322211  0.50297117  1
  Sb  Sb104  1  0.82926550  -0.00346758  0.16540375  1
  Sb  Sb105  1  0.66546990  0.83170960  0.49556520  1
  Sb  Sb106  1  0.66817576  0.32754896  -0.00234071  1
  Sb  Sb107  1  0.50568188  0.50083231  0.33820340  1
  Te  Te108  1  0.16449847  0.16706576  0.17217365  1
  Te  Te109  1  0.15950074  0.16620572  0.49024147  1
  Te  Te110  1  0.16647337  0.17107872  0.83413716  1
  Te  Te111  1  0.16805712  0.51079912  0.16746169  1
  Te  Te112  1  0.17572353  0.50101766  0.49973207  1
  Te  Te113  1  0.16708655  0.49968465  0.83329006  1
  Te  Te114  1  0.16628844  0.83024564  0.16669459  1
  Te  Te115  1  0.17368682  0.83391397  0.49450977  1
  Te  Te116  1  0.16683086  0.82684694  0.83841900  1
  Te  Te117  1  0.50161252  0.16261879  0.16676307  1
  Te  Te118  1  0.49913579  0.16507827  0.49127894  1
  Te  Te119  1  0.49760547  0.16985921  0.83539846  1
  Te  Te120  1  0.50837872  0.50104209  0.16716937  1
  Te  Te121  1  0.49599542  0.50595437  0.50542379  1
  Te  Te122  1  0.50426664  0.49934148  0.82826852  1
  Te  Te123  1  0.50182371  0.83684663  0.16804269  1
  Te  Te124  1  0.49726519  0.83044676  0.49941790  1
  Te  Te125  1  0.49927984  0.82926012  0.82834081  1
  Te  Te126  1  0.83181999  0.16545372  0.16319799  1
  Te  Te127  1  0.83782957  0.16479391  0.50293553  1
  Te  Te128  1  0.83530028  0.17190223  0.83364177  1
  Te  Te129  1  0.82730368  0.50468860  0.17114911  1
  Te  Te130  1  0.83475329  0.50762912  0.49336273  1
  Te  Te131  1  0.82528215  0.49148862  0.83378399  1
  Te  Te132  1  0.83151414  0.83194292  0.16593329  1
  Te  Te133  1  0.83397431  0.83172241  0.50353906  1
  Te  Te134  1  0.83369449  0.83086596  0.83488776  1
  Te  Te135  1  0.16189340  -0.00963975  -0.00004351  1
  Te  Te136  1  0.16665848  -0.00303987  0.33273560  1
  Te  Te137  1  0.16740425  -0.00079727  0.66716625  1
  Te  Te138  1  0.16634901  0.33234100  -0.00409014  1
  Te  Te139  1  0.16570768  0.33237412  0.33200601  1
  Te  Te140  1  0.16816058  0.33305791  0.67232056  1
  Te  Te141  1  0.16620035  0.66901981  -0.00050684  1
  Te  Te142  1  0.16558871  0.67027677  0.33092910  1
  Te  Te143  1  0.15960990  0.66693377  0.67053727  1
  Te  Te144  1  0.50187509  0.00521826  0.00268331  1
  Te  Te145  1  0.50106080  -0.00166565  0.33024327  1
  Te  Te146  1  0.50211511  -0.00352062  0.66669253  1
  Te  Te147  1  0.49713489  0.32820234  -0.00417959  1
  Te  Te148  1  0.50208087  0.33218502  0.33420845  1
  Te  Te149  1  0.50161771  0.33098224  0.66970659  1
  Te  Te150  1  0.49671428  0.66644826  -0.00517206  1
  Te  Te151  1  0.50558982  0.67071222  0.33654606  1
  Te  Te152  1  0.50099778  0.66849673  0.66708016  1
  Te  Te153  1  0.83337041  0.00006909  0.00009562  1
  Te  Te154  1  0.83332200  -0.00733439  0.34070707  1
  Te  Te155  1  0.83256500  -0.00050293  0.66687633  1
  Te  Te156  1  0.83728902  0.32984112  -0.00343598  1
  Te  Te157  1  0.83079176  0.33484926  0.33383271  1
  Te  Te158  1  0.83220324  0.33378027  0.66813300  1
  Te  Te159  1  0.83646844  0.66961034  0.00147546  1
  Te  Te160  1  0.83169583  0.66915068  0.33323569  1
  Te  Te161  1  0.83144744  0.66768658  0.66659003  1
  Te  Te162  1  -0.00026524  0.16590245  -0.00064542  1
  Te  Te163  1  -0.00033765  0.16943950  0.33033337  1
  Te  Te164  1  -0.00167002  0.16706232  0.66823731  1
  Te  Te165  1  -0.00084529  0.49908847  0.00086652  1
  Te  Te166  1  -0.00563856  0.49129325  0.33392224  1
  Te  Te167  1  0.00001839  0.49923427  0.66565874  1
  Te  Te168  1  -0.00310363  0.83167053  0.00020298  1
  Te  Te169  1  0.00053912  0.83447863  0.33271342  1
  Te  Te170  1  -0.00331934  0.83338043  0.66746063  1
  Te  Te171  1  0.33252352  0.16955134  -0.00326461  1
  Te  Te172  1  0.33409717  0.16938918  0.33401682  1
  Te  Te173  1  0.33291025  0.16883033  0.66905908  1
  Te  Te174  1  0.33411906  0.49726171  0.00228562  1
  Te  Te175  1  0.33358191  0.49487699  0.33705521  1
  Te  Te176  1  0.33915950  0.49558852  0.66233908  1
  Te  Te177  1  0.33242114  0.83189670  0.00246445  1
  Te  Te178  1  0.33604175  0.83344155  0.33196675  1
  Te  Te179  1  0.33429310  0.83544844  0.66507088  1
  Te  Te180  1  0.66698217  0.16313651  0.00297011  1
  Te  Te181  1  0.66372749  0.16817919  0.32888971  1
  Te  Te182  1  0.67238216  0.16959716  0.66649745  1
  Te  Te183  1  0.66690220  0.49951542  0.00477529  1
  Te  Te184  1  0.66979162  0.50033071  0.33207400  1
  Te  Te185  1  0.66263837  0.49758689  0.66760998  1
  Te  Te186  1  0.67050607  0.83978822  0.00399110  1
  Te  Te187  1  0.66681027  0.83116460  0.32918448  1
  Te  Te188  1  0.66762175  0.83128361  0.66797951  1
  Te  Te189  1  0.00024007  0.00734923  0.16083805  1
  Te  Te190  1  -0.00483526  0.00466341  0.50510072  1
  Te  Te191  1  0.00108256  0.00696629  0.83287882  1
  Te  Te192  1  0.00000446  0.32963567  0.16670774  1
  Te  Te193  1  0.00047744  0.32937354  0.50017594  1
  Te  Te194  1  0.00052727  0.33238001  0.83313555  1
  Te  Te195  1  -0.00267531  0.66575755  0.16367152  1
  Te  Te196  1  -0.00302690  0.66615398  0.50531170  1
  Te  Te197  1  0.00184892  0.66437148  0.83379704  1
  Te  Te198  1  0.33903676  -0.00666996  0.16606837  1
  Te  Te199  1  0.33369214  -0.00454242  0.50766056  1
  Te  Te200  1  0.33253515  0.00717661  0.82694798  1
  Te  Te201  1  0.33305753  0.33413396  0.16894238  1
  Te  Te202  1  0.33286600  0.33396236  0.49739888  1
  Te  Te203  1  0.33455533  0.33347683  0.83352357  1
  Te  Te204  1  0.33304303  0.67072638  0.16302792  1
  Te  Te205  1  0.33462037  0.66852870  0.50032531  1
  Te  Te206  1  0.33319737  0.66501326  0.83770452  1
  Te  Te207  1  0.66421727  0.00113168  0.16436089  1
  Te  Te208  1  0.67317917  -0.00045154  0.50992442  1
  Te  Te209  1  0.66578566  0.00014805  0.83274442  1
  Te  Te210  1  0.66671327  0.33002853  0.17011807  1
  Te  Te211  1  0.66611969  0.33423225  0.49934142  1
  Te  Te212  1  0.66231063  0.33657459  0.83170580  1
  Te  Te213  1  0.67027366  0.67002894  0.16797913  1
  Te  Te214  1  0.66665722  0.66637825  0.50149096  1
  Te  Te215  1  0.66292677  0.66119588  0.83124531  1
