# generated using pymatgen
data_AgSbTe2
_symmetry_space_group_name_H-M   'P 1'
_cell_length_a   18.34139632
_cell_length_b   18.34598527
_cell_length_c   18.32470896
_cell_angle_alpha   90.00218446
_cell_angle_beta   89.99972121
_cell_angle_gamma   90.00167728
_symmetry_Int_Tables_number   1
_chemical_formula_structural   AgSbTe2
_chemical_formula_sum   'Ag54 Sb54 Te108'
_cell_volume   6166.09939304
_cell_formula_units_Z   54
loop_
 _symmetry_equiv_pos_site_id
 _symmetry_equiv_pos_as_xyz
  1  'x, y, z'
loop_
 _atom_site_type_symbol
 _atom_site_label
 _atom_site_symmetry_multiplicity
 _atom_site_fract_x
 _atom_site_fract_y
 _atom_site_fract_z
 _atom_site_occupancy
  Ag  Ag0  1  0.65702742  0.17913851  0.49780843  1
  Ag  Ag1  1  0.83408455  0.83301775  0.66215833  1
  Ag  Ag2  1  0.83390018  0.49503437  0.33406116  1
  Ag  Ag3  1  -0.00531320  0.00362545  0.33358038  1
  Ag  Ag4  1  0.17004055  -0.00674252  0.50062481  1
  Ag  Ag5  1  0.16843304  0.83054356  0.65818231  1
  Ag  Ag6  1  0.66198118  0.33694453  0.65349549  1
  Ag  Ag7  1  0.66082447  0.65897088  0.66022911  1
  Ag  Ag8  1  0.49654816  0.49215283  0.66031343  1
  Ag  Ag9  1  0.82789216  0.00596917  0.83249484  1
  Ag  Ag10  1  0.66229709  0.83285398  0.49969490  1
  Ag  Ag11  1  0.66504543  0.00667757  0.33429876  1
  Ag  Ag12  1  0.33483761  0.00709349  0.65969488  1
  Ag  Ag13  1  0.01022529  0.83067854  0.49622823  1
  Ag  Ag14  1  0.00395608  0.49476108  0.17484101  1
  Ag  Ag15  1  0.33494672  0.66671321  0.33744871  1
  Ag  Ag16  1  0.49578068  0.66766562  0.16822617  1
  Ag  Ag17  1  -0.00235165  0.33423757  0.65464604  1
  Ag  Ag18  1  0.33319010  0.50116051  0.50118374  1
  Ag  Ag19  1  0.82052209  0.17020154  0.00313944  1
  Ag  Ag20  1  0.50268204  0.17120001  0.00507374  1
  Ag  Ag21  1  0.17420287  0.66145361  0.17213130  1
  Ag  Ag22  1  0.00373856  0.17879129  0.17040456  1
  Ag  Ag23  1  0.83113172  0.33001206  0.82994181  1
  Ag  Ag24  1  0.49850180  0.00316375  0.16923818  1
  Ag  Ag25  1  0.17853219  0.49766376  0.66014704  1
  Ag  Ag26  1  0.83224068  0.66114873  0.16836008  1
  Ag  Ag27  1  0.50587777  0.00287516  0.83454523  1
  Ag  Ag28  1  0.33837353  0.17268376  0.50162472  1
  Ag  Ag29  1  0.33545697  0.17147099  0.17251333  1
  Ag  Ag30  1  0.33115141  0.49914060  0.17513111  1
  Ag  Ag31  1  0.50115170  0.16514514  0.33579942  1
  Ag  Ag32  1  0.49929137  0.83953556  0.33363830  1
  Ag  Ag33  1  0.66358662  0.33130332  0.00253477  1
  Ag  Ag34  1  0.67000977  0.32992548  0.34097448  1
  Ag  Ag35  1  0.17296262  0.66943718  0.49858557  1
  Ag  Ag36  1  -0.00786323  0.33353990  0.33515051  1
  Ag  Ag37  1  0.65951196  0.49045801  0.50157759  1
  Ag  Ag38  1  0.66358084  0.66240520  0.00487095  1
  Ag  Ag39  1  0.34336534  0.33296287  0.00432474  1
  Ag  Ag40  1  0.66361078  0.00927907  0.00539837  1
  Ag  Ag41  1  0.16586656  0.33813590  0.16648308  1
  Ag  Ag42  1  0.33146150  0.82646504  0.49824658  1
  Ag  Ag43  1  0.81988971  0.33523083  0.49708414  1
  Ag  Ag44  1  0.00074256  0.49635092  0.49498025  1
  Ag  Ag45  1  0.50033811  0.48920293  0.00127426  1
  Ag  Ag46  1  0.83725328  0.33599185  0.17457889  1
  Ag  Ag47  1  0.33799396  0.33359290  0.65893914  1
  Ag  Ag48  1  0.00409761  0.83164516  0.17740257  1
  Ag  Ag49  1  0.33383911  0.82321993  0.17543132  1
  Ag  Ag50  1  0.49677611  0.17370879  0.65303426  1
  Ag  Ag51  1  0.50623239  0.33100816  0.50323395  1
  Ag  Ag52  1  0.17933212  0.17451444  0.66130365  1
  Ag  Ag53  1  0.33594400  0.66027576  0.65642380  1
  Sb  Sb54  1  0.17200704  0.16816892  -0.00000680  1
  Sb  Sb55  1  0.66607563  0.83575752  0.82726330  1
  Sb  Sb56  1  0.34154137  0.00645537  -0.00000438  1
  Sb  Sb57  1  0.33443917  0.83565988  0.82633391  1
  Sb  Sb58  1  0.17077202  0.16778275  0.33760109  1
  Sb  Sb59  1  0.17186336  0.83287707  0.33953379  1
  Sb  Sb60  1  0.66483555  0.83304748  0.17217563  1
  Sb  Sb61  1  0.66324051  0.16859708  0.16914857  1
  Sb  Sb62  1  0.66183347  0.66441936  0.33588073  1
  Sb  Sb63  1  0.33572962  0.33561601  0.33493607  1
  Sb  Sb64  1  0.66138788  0.00312689  0.66243462  1
  Sb  Sb65  1  0.66548598  0.49623409  0.82777398  1
  Sb  Sb66  1  -0.00645902  0.66470659  0.00979106  1
  Sb  Sb67  1  0.16467714  0.33289915  0.83156559  1
  Sb  Sb68  1  0.66505129  0.16740434  0.83154929  1
  Sb  Sb69  1  0.49446496  0.66187145  0.49677281  1
  Sb  Sb70  1  0.50098606  0.83575033  0.00906762  1
  Sb  Sb71  1  0.82593971  0.49265869  0.00907865  1
  Sb  Sb72  1  -0.00386979  0.33257965  0.00712521  1
  Sb  Sb73  1  0.33594834  0.49814470  0.82739002  1
  Sb  Sb74  1  0.66483166  0.49795425  0.17201957  1
  Sb  Sb75  1  0.50063094  0.67025833  0.83568667  1
  Sb  Sb76  1  0.82955414  0.00256909  0.16602616  1
  Sb  Sb77  1  0.83029846  0.83657695  -0.00063433  1
  Sb  Sb78  1  0.82896037  0.17359427  0.32899917  1
  Sb  Sb79  1  0.49809290  0.83426533  0.65752398  1
  Sb  Sb80  1  0.50169526  0.49699503  0.33485432  1
  Sb  Sb81  1  0.16361612  0.49876498  0.33774588  1
  Sb  Sb82  1  -0.00618827  0.00224178  0.00877983  1
  Sb  Sb83  1  0.83410191  0.00242446  0.50202089  1
  Sb  Sb84  1  0.33961403  0.66103597  0.00795633  1
  Sb  Sb85  1  -0.00312017  0.16802138  0.83559846  1
  Sb  Sb86  1  0.00322868  0.00422711  0.66003893  1
  Sb  Sb87  1  0.82921816  0.16873170  0.66802269  1
  Sb  Sb88  1  0.16879731  0.66623545  0.82742292  1
  Sb  Sb89  1  0.50486597  0.32830262  0.82940067  1
  Sb  Sb90  1  0.00478662  0.66482537  0.33367527  1
  Sb  Sb91  1  0.00143047  0.66244691  0.66260061  1
  Sb  Sb92  1  0.16878921  0.33579472  0.49959950  1
  Sb  Sb93  1  0.83084237  0.82930400  0.33692441  1
  Sb  Sb94  1  -0.00189293  0.49672529  0.82935617  1
  Sb  Sb95  1  0.16834653  0.00107062  0.82293030  1
  Sb  Sb96  1  0.17068209  -0.00083749  0.17253366  1
  Sb  Sb97  1  0.17290565  0.49819210  0.00283415  1
  Sb  Sb98  1  0.00158943  0.17045138  0.49512401  1
  Sb  Sb99  1  0.83004173  0.49883011  0.65875819  1
  Sb  Sb100  1  -0.00218597  0.83608075  0.82733055  1
  Sb  Sb101  1  0.16813460  0.83179983  0.00197458  1
  Sb  Sb102  1  0.83007330  0.66420148  0.83495648  1
  Sb  Sb103  1  0.33706107  -0.00209979  0.33829029  1
  Sb  Sb104  1  0.33763647  0.16824324  0.82619044  1
  Sb  Sb105  1  0.49960139  0.33297941  0.16863706  1
  Sb  Sb106  1  0.83433016  0.66276694  0.49603718  1
  Sb  Sb107  1  0.49673476  0.00641148  0.49761604  1
  Te  Te108  1  0.16904926  0.16808256  0.16690493  1
  Te  Te109  1  0.16951282  0.16515433  0.50386417  1
  Te  Te110  1  0.16520849  0.16643402  0.82341963  1
  Te  Te111  1  0.16857155  0.50024497  0.16606545  1
  Te  Te112  1  0.16915026  0.50179193  0.50257388  1
  Te  Te113  1  0.16579208  0.49991732  0.82360534  1
  Te  Te114  1  0.16779513  0.83017224  0.16677818  1
  Te  Te115  1  0.16934903  0.83099628  0.50152598  1
  Te  Te116  1  0.16533065  0.83390366  0.82411135  1
  Te  Te117  1  0.49727790  0.16671154  0.16661966  1
  Te  Te118  1  0.49896663  0.16828038  0.49747392  1
  Te  Te119  1  0.49978427  0.16073096  0.84419122  1
  Te  Te120  1  0.49597253  0.50163691  0.16529399  1
  Te  Te121  1  0.49859747  0.49657620  0.50160657  1
  Te  Te122  1  0.50047026  0.50129938  0.83732945  1
  Te  Te123  1  0.49685307  0.83195430  0.17314625  1
  Te  Te124  1  0.49658689  0.83282457  0.49464568  1
  Te  Te125  1  0.49968946  0.84263290  0.83433357  1
  Te  Te126  1  0.83826158  0.16877906  0.16328423  1
  Te  Te127  1  0.83002523  0.17214340  0.49965790  1
  Te  Te128  1  0.83278770  0.16779338  0.83920541  1
  Te  Te129  1  0.83389305  0.49956582  0.17151629  1
  Te  Te130  1  0.83867721  0.49684751  0.49562675  1
  Te  Te131  1  0.83329708  0.49305957  0.83575446  1
  Te  Te132  1  0.83800119  0.82993959  0.16718053  1
  Te  Te133  1  0.83430726  0.83251828  0.50290620  1
  Te  Te134  1  0.83377186  0.83611870  0.82690057  1
  Te  Te135  1  0.16618272  -0.00023357  -0.00448249  1
  Te  Te136  1  0.15839120  0.00045692  0.33948496  1
  Te  Te137  1  0.17049249  -0.00080424  0.66081887  1
  Te  Te138  1  0.17080285  0.33310120  0.00417335  1
  Te  Te139  1  0.15962833  0.33232142  0.32578166  1
  Te  Te140  1  0.16976447  0.33443969  0.66710903  1
  Te  Te141  1  0.16801277  0.66576093  0.00376177  1
  Te  Te142  1  0.17333480  0.66655527  0.33212742  1
  Te  Te143  1  0.16904681  0.66450640  0.66268772  1
  Te  Te144  1  0.50463051  0.00194937  0.00425259  1
  Te  Te145  1  0.50243111  0.00225939  0.33107654  1
  Te  Te146  1  0.49641507  0.00363297  0.66864805  1
  Te  Te147  1  0.50077363  0.33234287  -0.00140060  1
  Te  Te148  1  0.50508452  0.32934683  0.33659357  1
  Te  Te149  1  0.50081897  0.33277471  0.66820203  1
  Te  Te150  1  0.50465853  0.66682604  0.00355524  1
  Te  Te151  1  0.49615297  0.66731862  0.32814877  1
  Te  Te152  1  0.50079341  0.66565582  0.66806781  1
  Te  Te153  1  0.82655090  0.00422517  -0.00300058  1
  Te  Te154  1  0.83098486  -0.00090171  0.33348522  1
  Te  Te155  1  0.83296135  -0.00202430  0.67111445  1
  Te  Te156  1  0.83141095  0.32954290  0.00218762  1
  Te  Te157  1  0.83231384  0.33424186  0.33412120  1
  Te  Te158  1  0.82960151  0.33342810  0.66327388  1
  Te  Te159  1  0.82540111  0.66603577  0.00433823  1
  Te  Te160  1  0.83138571  0.66079231  0.32790463  1
  Te  Te161  1  0.82891005  0.67100107  0.66753796  1
  Te  Te162  1  0.00214280  0.16607201  0.00841909  1
  Te  Te163  1  0.00074787  0.16762517  0.32943726  1
  Te  Te164  1  -0.00089798  0.17295716  0.66611778  1
  Te  Te165  1  0.00135199  0.49968586  0.00429557  1
  Te  Te166  1  -0.00257822  0.49851584  0.33280590  1
  Te  Te167  1  -0.00105607  0.49487659  0.66133447  1
  Te  Te168  1  -0.00054699  0.83320843  0.00399405  1
  Te  Te169  1  -0.00166472  0.83370597  0.33596250  1
  Te  Te170  1  0.00082236  0.83419875  0.66030000  1
  Te  Te171  1  0.33737236  0.17136694  0.00480648  1
  Te  Te172  1  0.33783037  0.16664249  0.33491905  1
  Te  Te173  1  0.33656582  0.16974485  0.66374341  1
  Te  Te174  1  0.33882287  0.49527514  0.00197597  1
  Te  Te175  1  0.33406230  0.50288629  0.33500703  1
  Te  Te176  1  0.33677736  0.49826828  0.66441752  1
  Te  Te177  1  0.33277372  0.83354816  0.00449673  1
  Te  Te178  1  0.33741891  0.83223538  0.33363915  1
  Te  Te179  1  0.33112875  0.83139183  0.66173662  1
  Te  Te180  1  0.66403208  0.16590119  0.00117825  1
  Te  Te181  1  0.66384584  0.16727196  0.33576109  1
  Te  Te182  1  0.66142297  0.17169029  0.66167899  1
  Te  Te183  1  0.66117990  0.49977313  -0.00027385  1
  Te  Te184  1  0.66945250  0.49583828  0.34048942  1
  Te  Te185  1  0.66363154  0.49875744  0.66181104  1
  Te  Te186  1  0.66691126  0.83112862  -0.00053548  1
  Te  Te187  1  0.66247775  0.83436304  0.33831076  1
  Te  Te188  1  0.66725148  0.83390585  0.66059402  1
  Te  Te189  1  0.00080220  -0.00664162  0.17346543  1
  Te  Te190  1  0.00240869  -0.00136297  0.49503804  1
  Te  Te191  1  -0.00756525  0.00062457  0.83495739  1
  Te  Te192  1  -0.00102245  0.33582858  0.16825640  1
  Te  Te193  1  0.00364921  0.33550441  0.49647153  1
  Te  Te194  1  -0.00674386  0.33292529  0.82827903  1
  Te  Te195  1  0.00086820  0.66672804  0.16929771  1
  Te  Te196  1  0.00498733  0.66642558  0.49987994  1
  Te  Te197  1  -0.00063148  0.66657643  0.83671198  1
  Te  Te198  1  0.33709241  0.00446064  0.16784752  1
  Te  Te199  1  0.33060703  0.00059047  0.50170379  1
  Te  Te200  1  0.33727383  0.00076367  0.82767173  1
  Te  Te201  1  0.33353033  0.33433913  0.16869853  1
  Te  Te202  1  0.33389410  0.33403562  0.50075985  1
  Te  Te203  1  0.33327338  0.33307858  0.83784702  1
  Te  Te204  1  0.33384412  0.66561521  0.16806217  1
  Te  Te205  1  0.33334787  0.66474010  0.49916278  1
  Te  Te206  1  0.33421491  0.66758803  0.82544923  1
  Te  Te207  1  0.66173688  -0.00037726  0.16869668  1
  Te  Te208  1  0.66708404  -0.00616224  0.49549102  1
  Te  Te209  1  0.66721691  0.00107223  0.83551925  1
  Te  Te210  1  0.67163287  0.33414537  0.16204880  1
  Te  Te211  1  0.66424865  0.33469540  0.49800856  1
  Te  Te212  1  0.67265097  0.33269056  0.84319837  1
  Te  Te213  1  0.66554909  0.66639828  0.16633578  1
  Te  Te214  1  0.66674525  0.67040242  0.50177618  1
  Te  Te215  1  0.66632359  0.66704097  0.83287834  1
