# generated using pymatgen
data_AgSbTe2
_symmetry_space_group_name_H-M   'P 1'
_cell_length_a   18.31386170
_cell_length_b   18.31685416
_cell_length_c   18.30873490
_cell_angle_alpha   90.00096818
_cell_angle_beta   89.99892867
_cell_angle_gamma   89.99928345
_symmetry_Int_Tables_number   1
_chemical_formula_structural   AgSbTe2
_chemical_formula_sum   'Ag54 Sb54 Te108'
_cell_volume   6141.70784962
_cell_formula_units_Z   54
loop_
 _symmetry_equiv_pos_site_id
 _symmetry_equiv_pos_as_xyz
  1  'x, y, z'
loop_
 _atom_site_type_symbol
 _atom_site_label
 _atom_site_symmetry_multiplicity
 _atom_site_fract_x
 _atom_site_fract_y
 _atom_site_fract_z
 _atom_site_occupancy
  Ag  Ag0  1  0.66372265  0.34009545  0.33060795  1
  Ag  Ag1  1  0.50219033  0.66898058  0.82387600  1
  Ag  Ag2  1  0.66386034  0.65946189  0.33512089  1
  Ag  Ag3  1  0.16599766  0.15841262  0.00372328  1
  Ag  Ag4  1  0.50434560  0.66371007  0.50329665  1
  Ag  Ag5  1  0.83259763  0.82610881  0.66773592  1
  Ag  Ag6  1  0.16215499  0.00080615  0.50019253  1
  Ag  Ag7  1  0.33059136  0.17196279  0.49619244  1
  Ag  Ag8  1  0.33154488  0.33666924  0.65722707  1
  Ag  Ag9  1  0.83180854  0.66448540  0.16075659  1
  Ag  Ag10  1  0.50077897  0.50325490  0.66260976  1
  Ag  Ag11  1  0.49160429  0.16902827  0.33735080  1
  Ag  Ag12  1  0.83413991  -0.00484532  0.15579069  1
  Ag  Ag13  1  0.33140451  0.49501307  0.50161295  1
  Ag  Ag14  1  -0.00412854  0.49655363  0.50264286  1
  Ag  Ag15  1  0.00239980  0.34296120  0.65655195  1
  Ag  Ag16  1  0.67382063  0.66037963  0.00407068  1
  Ag  Ag17  1  0.83848082  -0.00915563  0.83657651  1
  Ag  Ag18  1  0.16070660  0.50132264  -0.00245207  1
  Ag  Ag19  1  0.16460836  -0.00596632  0.83871271  1
  Ag  Ag20  1  0.83459760  0.50674905  0.00001544  1
  Ag  Ag21  1  0.33780729  0.66919876  0.33668950  1
  Ag  Ag22  1  0.49947130  0.33326499  0.17196584  1
  Ag  Ag23  1  0.15838729  0.49954553  0.66527335  1
  Ag  Ag24  1  -0.00756463  0.66111183  0.66320469  1
  Ag  Ag25  1  0.17244901  0.83839579  0.33315924  1
  Ag  Ag26  1  0.49883896  0.16697204  0.00111946  1
  Ag  Ag27  1  -0.00678829  0.49880948  0.16921580  1
  Ag  Ag28  1  0.00093303  0.33386799  0.33852624  1
  Ag  Ag29  1  0.17275442  0.16565934  0.33455033  1
  Ag  Ag30  1  0.83854924  0.83255734  -0.00676061  1
  Ag  Ag31  1  0.83255149  0.66066287  0.50698448  1
  Ag  Ag32  1  0.67414743  0.50108887  0.49682118  1
  Ag  Ag33  1  0.00199492  0.16994743  0.49909975  1
  Ag  Ag34  1  0.83925731  0.34236855  0.50066006  1
  Ag  Ag35  1  0.83569463  0.16080757  0.00004145  1
  Ag  Ag36  1  0.16782747  0.33492646  0.16864409  1
  Ag  Ag37  1  0.33018486  0.83281724  0.83228253  1
  Ag  Ag38  1  0.66979644  0.33980296  0.00902540  1
  Ag  Ag39  1  0.49740970  0.16917910  0.66092838  1
  Ag  Ag40  1  0.83323921  0.67064476  0.83068840  1
  Ag  Ag41  1  0.49262763  0.83023010  0.33970115  1
  Ag  Ag42  1  0.67264493  0.49975821  0.17077942  1
  Ag  Ag43  1  0.00205597  0.00048893  0.00058331  1
  Ag  Ag44  1  -0.00249790  0.83526122  0.49975903  1
  Ag  Ag45  1  0.50310488  0.82545827  0.66234132  1
  Ag  Ag46  1  0.32221053  0.00149798  0.00231902  1
  Ag  Ag47  1  0.84004190  -0.00184519  0.50331851  1
  Ag  Ag48  1  0.83846099  0.50784364  0.65972761  1
  Ag  Ag49  1  0.16177049  0.83871337  -0.00168031  1
  Ag  Ag50  1  0.33237624  0.32879256  0.33872003  1
  Ag  Ag51  1  0.67022490  -0.00039511  0.66403996  1
  Ag  Ag52  1  0.16565875  0.67213195  0.83391985  1
  Ag  Ag53  1  0.33054941  0.00309980  0.33385783  1
  Sb  Sb54  1  0.66673456  0.16558069  0.83391170  1
  Sb  Sb55  1  -0.00138961  0.82914836  0.17024471  1
  Sb  Sb56  1  0.33408993  0.66282904  0.66209911  1
  Sb  Sb57  1  0.16908809  0.17076046  0.66342883  1
  Sb  Sb58  1  0.49942646  -0.00457651  0.83140445  1
  Sb  Sb59  1  0.83358745  0.33629480  0.83050641  1
  Sb  Sb60  1  0.49978559  -0.00284896  0.50032597  1
  Sb  Sb61  1  0.50623363  0.66095748  0.17060588  1
  Sb  Sb62  1  0.66745560  0.17401661  0.16573450  1
  Sb  Sb63  1  0.83157800  0.16570346  0.66742982  1
  Sb  Sb64  1  0.33448052  0.32785970  0.00332186  1
  Sb  Sb65  1  0.83188020  0.50129127  0.33699406  1
  Sb  Sb66  1  0.00026176  0.17147494  0.17056379  1
  Sb  Sb67  1  0.33253427  0.16735067  0.17501552  1
  Sb  Sb68  1  -0.00420628  -0.00134199  0.66532903  1
  Sb  Sb69  1  0.16710162  0.33355717  0.83610152  1
  Sb  Sb70  1  0.66983678  0.66686632  0.66349127  1
  Sb  Sb71  1  0.83462657  0.83191190  0.33712813  1
  Sb  Sb72  1  0.49952400  0.33651542  0.83370099  1
  Sb  Sb73  1  0.67264792  0.00000661  -0.00259569  1
  Sb  Sb74  1  0.16259018  0.00346383  0.16513630  1
  Sb  Sb75  1  0.00127410  0.83328740  0.82930141  1
  Sb  Sb76  1  0.33236723  0.16147850  0.83061204  1
  Sb  Sb77  1  0.33529540  0.00217363  0.66392592  1
  Sb  Sb78  1  -0.00584686  0.66847529  -0.00491802  1
  Sb  Sb79  1  -0.00129955  0.66257658  0.33972977  1
  Sb  Sb80  1  0.16636565  0.49751758  0.33668707  1
  Sb  Sb81  1  0.66812219  0.83122726  0.83192575  1
  Sb  Sb82  1  0.33231123  0.83348748  0.16720047  1
  Sb  Sb83  1  0.00068037  0.16395326  0.83014362  1
  Sb  Sb84  1  0.16236455  0.32906765  0.49469704  1
  Sb  Sb85  1  0.16468565  0.83018412  0.66775580  1
  Sb  Sb86  1  -0.00300644  0.33259175  0.00240451  1
  Sb  Sb87  1  0.50229110  0.49764720  -0.00440380  1
  Sb  Sb88  1  0.66632579  0.33404446  0.66279415  1
  Sb  Sb89  1  0.50115796  0.49940521  0.33990144  1
  Sb  Sb90  1  0.83337613  0.33872453  0.17023990  1
  Sb  Sb91  1  0.00486902  0.00400761  0.33328711  1
  Sb  Sb92  1  0.49918127  0.33765809  0.49614845  1
  Sb  Sb93  1  0.33065971  0.83318073  0.50076010  1
  Sb  Sb94  1  0.33363579  0.49839920  0.17151570  1
  Sb  Sb95  1  0.66695804  0.17226670  0.49865398  1
  Sb  Sb96  1  0.66350443  -0.00012601  0.33753183  1
  Sb  Sb97  1  0.83394503  0.16746444  0.33200204  1
  Sb  Sb98  1  0.16459021  0.66829469  0.50281545  1
  Sb  Sb99  1  0.66836583  0.50354831  0.83161470  1
  Sb  Sb100  1  0.16080254  0.66156795  0.16397532  1
  Sb  Sb101  1  0.33358044  0.66902808  0.00163786  1
  Sb  Sb102  1  0.50419883  0.00483409  0.16761129  1
  Sb  Sb103  1  -0.00006569  0.50234763  0.82853454  1
  Sb  Sb104  1  0.67162510  0.82680313  0.50067983  1
  Sb  Sb105  1  0.33156977  0.50576616  0.82664374  1
  Sb  Sb106  1  0.50027596  0.83581476  -0.00182077  1
  Sb  Sb107  1  0.66904749  0.82620115  0.16778165  1
  Te  Te108  1  0.16569986  0.17180485  0.16597556  1
  Te  Te109  1  0.16678341  0.16248398  0.49823628  1
  Te  Te110  1  0.16692896  0.16086896  0.83976667  1
  Te  Te111  1  0.16483211  0.49664499  0.16292153  1
  Te  Te112  1  0.16716729  0.50075888  0.50477942  1
  Te  Te113  1  0.16683632  0.50371222  0.83544455  1
  Te  Te114  1  0.16539640  0.83161961  0.16517659  1
  Te  Te115  1  0.16302238  0.83806162  0.49859835  1
  Te  Te116  1  0.16738221  0.83362256  0.83503211  1
  Te  Te117  1  0.50065788  0.17203511  0.16553002  1
  Te  Te118  1  0.49801001  0.16618987  0.49972538  1
  Te  Te119  1  0.49914367  0.16640262  0.83435559  1
  Te  Te120  1  0.50422663  0.49302708  0.16413633  1
  Te  Te121  1  0.49747345  0.50350174  0.50424422  1
  Te  Te122  1  0.49943724  0.50783552  0.82590201  1
  Te  Te123  1  0.50090624  0.83315616  0.17310436  1
  Te  Te124  1  0.50048385  0.82928874  0.50058125  1
  Te  Te125  1  0.49597403  0.82819086  0.83052209  1
  Te  Te126  1  0.83434045  0.16197046  0.16137116  1
  Te  Te127  1  0.83594100  0.16288721  0.50037846  1
  Te  Te128  1  0.83405718  0.16384743  0.83909258  1
  Te  Te129  1  0.83281515  0.50277728  0.16323339  1
  Te  Te130  1  0.83480206  0.50120620  0.50115683  1
  Te  Te131  1  0.83321667  0.50454160  0.83731457  1
  Te  Te132  1  0.83442377  0.83121989  0.16376505  1
  Te  Te133  1  0.83675649  0.83429525  0.50300683  1
  Te  Te134  1  0.83434955  0.83162253  0.83143412  1
  Te  Te135  1  0.16466932  -0.00091928  0.00228791  1
  Te  Te136  1  0.17006888  0.00073116  0.33148694  1
  Te  Te137  1  0.16585631  0.00059990  0.66769130  1
  Te  Te138  1  0.16599133  0.33478204  0.00388604  1
  Te  Te139  1  0.16901238  0.33158692  0.32945773  1
  Te  Te140  1  0.16756663  0.33786766  0.66897611  1
  Te  Te141  1  0.16608689  0.66742516  -0.00397449  1
  Te  Te142  1  0.17019616  0.67106575  0.33255747  1
  Te  Te143  1  0.16628237  0.66241584  0.67158351  1
  Te  Te144  1  0.49908871  0.00561984  -0.00027124  1
  Te  Te145  1  0.49539536  0.00230135  0.33281406  1
  Te  Te146  1  0.50369377  0.00151608  0.66702766  1
  Te  Te147  1  0.50268301  0.32895972  0.00172630  1
  Te  Te148  1  0.50003829  0.33173966  0.33212751  1
  Te  Te149  1  0.49753848  0.33298938  0.66622640  1
  Te  Te150  1  0.50395109  0.66745453  -0.00068796  1
  Te  Te151  1  0.50089081  0.66790561  0.33545698  1
  Te  Te152  1  0.50173464  0.66669753  0.66467596  1
  Te  Te153  1  0.83382274  -0.00185168  -0.00302184  1
  Te  Te154  1  0.83275371  -0.00046239  0.33867381  1
  Te  Te155  1  0.83172011  -0.00031696  0.66656350  1
  Te  Te156  1  0.83041970  0.33408761  -0.00060719  1
  Te  Te157  1  0.83325925  0.33090866  0.33886265  1
  Te  Te158  1  0.83517436  0.33461289  0.66289423  1
  Te  Te159  1  0.83397223  0.66703864  -0.00263720  1
  Te  Te160  1  0.82900824  0.66911236  0.33504270  1
  Te  Te161  1  0.83100443  0.66692380  0.66677326  1
  Te  Te162  1  0.00042507  0.16458369  -0.00023191  1
  Te  Te163  1  0.00443951  0.17215471  0.33853930  1
  Te  Te164  1  0.00035395  0.17051453  0.65890261  1
  Te  Te165  1  0.00022385  0.49945515  0.00191981  1
  Te  Te166  1  0.00042140  0.49473307  0.33568454  1
  Te  Te167  1  -0.00160940  0.50084454  0.66479199  1
  Te  Te168  1  -0.00028486  0.83613664  0.00257933  1
  Te  Te169  1  0.00614766  0.83328409  0.33932176  1
  Te  Te170  1  -0.00373044  0.82995740  0.65994335  1
  Te  Te171  1  0.33206881  0.16261022  -0.00166795  1
  Te  Te172  1  0.33277832  0.16691472  0.33713877  1
  Te  Te173  1  0.33687695  0.17051580  0.66124968  1
  Te  Te174  1  0.32777259  0.49853362  0.00029415  1
  Te  Te175  1  0.33320641  0.49722932  0.33892094  1
  Te  Te176  1  0.33496482  0.49709687  0.66176491  1
  Te  Te177  1  0.33137643  0.83735088  -0.00283160  1
  Te  Te178  1  0.33218896  0.83516407  0.33424392  1
  Te  Te179  1  0.33756657  0.83343387  0.67044753  1
  Te  Te180  1  0.66634481  0.16887588  0.00041339  1
  Te  Te181  1  0.66000471  0.17032342  0.33293086  1
  Te  Te182  1  0.65927804  0.16463028  0.66653468  1
  Te  Te183  1  0.66765579  0.50011140  0.00020212  1
  Te  Te184  1  0.66635359  0.49996987  0.33467901  1
  Te  Te185  1  0.66705603  0.49839853  0.66111726  1
  Te  Te186  1  0.67076340  0.82913002  0.00055007  1
  Te  Te187  1  0.65952653  0.83071644  0.33374229  1
  Te  Te188  1  0.66599178  0.83820032  0.66600998  1
  Te  Te189  1  -0.00700532  0.00002955  0.16263544  1
  Te  Te190  1  0.00157833  0.00064562  0.49910985  1
  Te  Te191  1  0.00051563  -0.00104533  0.83834778  1
  Te  Te192  1  0.00229285  0.33926106  0.17074799  1
  Te  Te193  1  -0.00001500  0.33458497  0.49913284  1
  Te  Te194  1  0.00060029  0.33184837  0.82272948  1
  Te  Te195  1  -0.00713032  0.65851085  0.16953340  1
  Te  Te196  1  -0.00310705  0.66295640  0.50339145  1
  Te  Te197  1  -0.00055944  0.66777371  0.82591027  1
  Te  Te198  1  0.33500240  -0.00003711  0.16554107  1
  Te  Te199  1  0.32939321  0.00309503  0.49620972  1
  Te  Te200  1  0.33000746  -0.00511305  0.83570335  1
  Te  Te201  1  0.33404815  0.33405988  0.17223654  1
  Te  Te202  1  0.33316733  0.33342589  0.49921411  1
  Te  Te203  1  0.33321274  0.33381044  0.82590689  1
  Te  Te204  1  0.33370136  0.66529671  0.17554330  1
  Te  Te205  1  0.33553739  0.66385848  0.49535378  1
  Te  Te206  1  0.33207959  0.67216002  0.83480136  1
  Te  Te207  1  0.67519193  0.00003450  0.16807976  1
  Te  Te208  1  0.67174497  0.00073079  0.50353343  1
  Te  Te209  1  0.67217835  -0.00111867  0.82748113  1
  Te  Te210  1  0.66662599  0.33949335  0.16941524  1
  Te  Te211  1  0.67176139  0.33939154  0.49501186  1
  Te  Te212  1  0.66630988  0.33386253  0.84310647  1
  Te  Te213  1  0.67144517  0.66001497  0.16798254  1
  Te  Te214  1  0.66742593  0.66209774  0.49730070  1
  Te  Te215  1  0.66841977  0.66676470  0.83950609  1
