# generated using pymatgen
data_AgSbTe2
_symmetry_space_group_name_H-M   'P 1'
_cell_length_a   18.36144001
_cell_length_b   18.35729710
_cell_length_c   18.34667293
_cell_angle_alpha   89.99816870
_cell_angle_beta   89.99863151
_cell_angle_gamma   90.00154166
_symmetry_Int_Tables_number   1
_chemical_formula_structural   AgSbTe2
_chemical_formula_sum   'Ag54 Sb54 Te108'
_cell_volume   6184.04716255
_cell_formula_units_Z   54
loop_
 _symmetry_equiv_pos_site_id
 _symmetry_equiv_pos_as_xyz
  1  'x, y, z'
loop_
 _atom_site_type_symbol
 _atom_site_label
 _atom_site_symmetry_multiplicity
 _atom_site_fract_x
 _atom_site_fract_y
 _atom_site_fract_z
 _atom_site_occupancy
  Ag  Ag0  1  0.15668148  0.82636273  0.66795483  1
  Ag  Ag1  1  0.17253710  0.66764162  0.15370964  1
  Ag  Ag2  1  0.33193916  -0.01478252  0.66626053  1
  Ag  Ag3  1  0.83205621  0.00133909  0.16604505  1
  Ag  Ag4  1  0.83456635  0.50082497  0.67070756  1
  Ag  Ag5  1  0.84144784  0.16848448  0.00229240  1
  Ag  Ag6  1  -0.00014731  0.16108316  0.51538607  1
  Ag  Ag7  1  0.84285973  0.15296133  0.66883713  1
  Ag  Ag8  1  0.00224552  0.49803586  0.15742457  1
  Ag  Ag9  1  0.49399485  0.33675781  0.16711698  1
  Ag  Ag10  1  -0.00203730  0.83508399  0.51037467  1
  Ag  Ag11  1  0.48730091  0.50673060  0.66299743  1
  Ag  Ag12  1  0.17137419  0.66916460  0.50853786  1
  Ag  Ag13  1  0.83905370  0.83635955  0.34688540  1
  Ag  Ag14  1  0.49766398  0.17475826  0.32758599  1
  Ag  Ag15  1  0.65813806  0.16830757  0.16583947  1
  Ag  Ag16  1  -0.00929632  -0.00886588  0.66516432  1
  Ag  Ag17  1  0.83561957  -0.00468202  0.51064857  1
  Ag  Ag18  1  0.49017792  0.83056811  0.00027092  1
  Ag  Ag19  1  0.00072693  0.16861800  0.16058887  1
  Ag  Ag20  1  0.00767665  0.34075680  -0.00119664  1
  Ag  Ag21  1  0.16484161  0.83024373  0.33992546  1
  Ag  Ag22  1  0.33336099  0.82104643  0.16284217  1
  Ag  Ag23  1  0.00063292  0.32906289  0.67263609  1
  Ag  Ag24  1  0.32543297  0.66036716  0.00542119  1
  Ag  Ag25  1  -0.00071524  0.83046382  0.82263847  1
  Ag  Ag26  1  0.15941195  0.16217266  0.67009840  1
  Ag  Ag27  1  0.33504383  0.50351829  0.16336880  1
  Ag  Ag28  1  0.67318734  0.33275238  0.66709299  1
  Ag  Ag29  1  0.83424251  -0.00248186  0.82211514  1
  Ag  Ag30  1  0.32651180  0.34272953  0.00388440  1
  Ag  Ag31  1  0.16167133  0.16879060  0.00097067  1
  Ag  Ag32  1  0.67230307  0.83453345  0.82461046  1
  Ag  Ag33  1  0.32767372  0.66682033  0.66904416  1
  Ag  Ag34  1  0.33293538  0.50372826  0.83443028  1
  Ag  Ag35  1  0.33094434  0.34330404  0.67000706  1
  Ag  Ag36  1  0.16493871  0.50903074  0.00315792  1
  Ag  Ag37  1  0.01229366  0.66277109  -0.00168994  1
  Ag  Ag38  1  0.65233959  0.49679584  0.16385492  1
  Ag  Ag39  1  0.33476889  0.17042794  0.16440340  1
  Ag  Ag40  1  0.67906062  -0.00889081  0.66695744  1
  Ag  Ag41  1  0.49529086  0.49821580  0.32375921  1
  Ag  Ag42  1  0.48935995  0.66364302  0.16796842  1
  Ag  Ag43  1  0.49235969  0.66620397  0.50561522  1
  Ag  Ag44  1  0.84470975  0.49666822  -0.00110561  1
  Ag  Ag45  1  0.49984012  0.82958819  0.66764728  1
  Ag  Ag46  1  0.33485627  0.50395253  0.50967786  1
  Ag  Ag47  1  0.84485056  0.84222050  0.66505113  1
  Ag  Ag48  1  0.00964820  0.67988949  0.67051191  1
  Ag  Ag49  1  0.49944160  0.00454429  0.16721902  1
  Ag  Ag50  1  0.67692624  0.83367498  0.50832018  1
  Ag  Ag51  1  0.16928053  0.82058892  -0.00215626  1
  Ag  Ag52  1  0.16778993  0.66829723  0.83883497  1
  Ag  Ag53  1  0.33657869  0.33587224  0.32007929  1
  Sb  Sb54  1  0.49715273  0.82945082  0.33190676  1
  Sb  Sb55  1  0.49851696  0.16676177  0.66056363  1
  Sb  Sb56  1  0.66809094  0.00002555  -0.00205754  1
  Sb  Sb57  1  0.83095068  0.16152671  0.33201510  1
  Sb  Sb58  1  0.16731026  0.50596122  0.67276331  1
  Sb  Sb59  1  0.66564789  0.33373700  -0.00117401  1
  Sb  Sb60  1  0.50270363  -0.00432523  0.83425651  1
  Sb  Sb61  1  0.00399846  0.50575250  0.83587863  1
  Sb  Sb62  1  0.00498440  0.83268295  0.16516334  1
  Sb  Sb63  1  0.83603882  0.66925531  0.16328948  1
  Sb  Sb64  1  0.32979442  0.82721538  0.50027936  1
  Sb  Sb65  1  -0.00091037  -0.00063881  -0.00436929  1
  Sb  Sb66  1  0.16954013  0.16262545  0.33175828  1
  Sb  Sb67  1  0.49263712  0.50385873  0.00227348  1
  Sb  Sb68  1  0.49278323  0.66825194  0.83275773  1
  Sb  Sb69  1  0.83398991  0.32695055  0.50553427  1
  Sb  Sb70  1  0.16228371  -0.00524386  0.50573464  1
  Sb  Sb71  1  0.84009812  0.67106363  0.83106490  1
  Sb  Sb72  1  0.82926778  0.50539317  0.33016006  1
  Sb  Sb73  1  0.83611827  0.67320204  0.50523771  1
  Sb  Sb74  1  0.33012790  0.82908148  0.83314171  1
  Sb  Sb75  1  0.00329436  0.66796757  0.33325547  1
  Sb  Sb76  1  0.66370494  0.66617144  0.00186611  1
  Sb  Sb77  1  0.49834986  0.16412437  0.00774884  1
  Sb  Sb78  1  0.16211563  -0.00672269  0.83014091  1
  Sb  Sb79  1  0.66400242  0.66778832  0.33327446  1
  Sb  Sb80  1  0.00759850  0.33309408  0.32861813  1
  Sb  Sb81  1  -0.00123893  -0.00011953  0.33833517  1
  Sb  Sb82  1  0.16726487  0.33937832  0.50587258  1
  Sb  Sb83  1  0.33250534  -0.00208189  -0.00188784  1
  Sb  Sb84  1  0.83726608  0.83422339  -0.00452041  1
  Sb  Sb85  1  0.17397202  0.50569160  0.32707646  1
  Sb  Sb86  1  0.00388810  0.50304199  0.50299408  1
  Sb  Sb87  1  0.33091624  0.17139805  0.83566874  1
  Sb  Sb88  1  0.50374291  -0.00679005  0.49898558  1
  Sb  Sb89  1  0.66675693  -0.00096304  0.33567046  1
  Sb  Sb90  1  0.83476571  0.32998965  0.83253546  1
  Sb  Sb91  1  0.66398126  0.50528392  0.83398587  1
  Sb  Sb92  1  0.33239459  0.66171994  0.33057655  1
  Sb  Sb93  1  0.49741941  0.33520552  0.83567139  1
  Sb  Sb94  1  0.66139367  0.33298483  0.33478356  1
  Sb  Sb95  1  0.49764912  0.33948681  0.49768242  1
  Sb  Sb96  1  0.66146746  0.83440938  0.16686772  1
  Sb  Sb97  1  0.16644886  0.33891094  0.83533632  1
  Sb  Sb98  1  0.66485833  0.67138105  0.66657167  1
  Sb  Sb99  1  0.67049919  0.16226056  0.83443694  1
  Sb  Sb100  1  0.17379552  0.33829630  0.16318271  1
  Sb  Sb101  1  0.66142816  0.50520448  0.50156874  1
  Sb  Sb102  1  0.32854791  0.17268943  0.50010890  1
  Sb  Sb103  1  0.33456236  0.00235856  0.33474620  1
  Sb  Sb104  1  0.67000520  0.16168050  0.49982791  1
  Sb  Sb105  1  0.16825923  -0.00382845  0.16467183  1
  Sb  Sb106  1  0.00024466  0.16113130  0.83270423  1
  Sb  Sb107  1  0.83121861  0.32967168  0.16523408  1
  Te  Te108  1  0.16653519  0.16468535  0.16680643  1
  Te  Te109  1  0.16015075  0.16646657  0.50119317  1
  Te  Te110  1  0.16748675  0.16542766  0.83127569  1
  Te  Te111  1  0.16537449  0.50416242  0.16344379  1
  Te  Te112  1  0.17184076  0.50682204  0.49611677  1
  Te  Te113  1  0.17195918  0.50561143  0.84128397  1
  Te  Te114  1  0.17041746  0.83077946  0.15860173  1
  Te  Te115  1  0.16414104  0.83002477  0.50546969  1
  Te  Te116  1  0.16431061  0.82963682  0.83183389  1
  Te  Te117  1  0.49887092  0.16647713  0.16789995  1
  Te  Te118  1  0.50059087  0.16540945  0.49077530  1
  Te  Te119  1  0.50149286  0.16533570  0.83436893  1
  Te  Te120  1  0.49571923  0.50084848  0.16333153  1
  Te  Te121  1  0.49689575  0.50547596  0.50379509  1
  Te  Te122  1  0.49621578  0.50127191  0.82412101  1
  Te  Te123  1  0.49662613  0.82897078  0.16695545  1
  Te  Te124  1  0.49872728  0.82817569  0.49997000  1
  Te  Te125  1  0.50333936  0.83331364  0.83459530  1
  Te  Te126  1  0.83679391  0.16478589  0.16651392  1
  Te  Te127  1  0.83788871  0.15978340  0.50210423  1
  Te  Te128  1  0.83302773  0.16001037  0.83267139  1
  Te  Te129  1  0.84098406  0.50077391  0.16469128  1
  Te  Te130  1  0.83203889  0.50098530  0.49991335  1
  Te  Te131  1  0.83137320  0.50014763  0.83423414  1
  Te  Te132  1  0.83145073  0.83794697  0.16422308  1
  Te  Te133  1  0.83598966  0.83484764  0.50470075  1
  Te  Te134  1  0.83423777  0.83655927  0.83033534  1
  Te  Te135  1  0.16654006  0.01077063  -0.00258358  1
  Te  Te136  1  0.16702155  -0.01026677  0.33394402  1
  Te  Te137  1  0.17183868  0.00252817  0.66733864  1
  Te  Te138  1  0.16683599  0.32780710  -0.00027590  1
  Te  Te139  1  0.17606545  0.33277152  0.33568090  1
  Te  Te140  1  0.16547871  0.32907069  0.66873157  1
  Te  Te141  1  0.16850546  0.66538916  -0.00087973  1
  Te  Te142  1  0.16620551  0.67305141  0.33904590  1
  Te  Te143  1  0.16649482  0.66663350  0.66810081  1
  Te  Te144  1  0.50032882  -0.00696221  0.00550284  1
  Te  Te145  1  0.49961093  -0.00018094  0.32810135  1
  Te  Te146  1  0.49397390  -0.00230240  0.66637270  1
  Te  Te147  1  0.49651435  0.33268475  0.00398958  1
  Te  Te148  1  0.49615270  0.33659534  0.33060803  1
  Te  Te149  1  0.49557136  0.33520675  0.66681956  1
  Te  Te150  1  0.49638693  0.67074033  0.00319955  1
  Te  Te151  1  0.49905332  0.66177290  0.33075392  1
  Te  Te152  1  0.49889915  0.66625586  0.66680225  1
  Te  Te153  1  0.83350124  0.00445164  0.00592508  1
  Te  Te154  1  0.83287383  -0.00540430  0.32618175  1
  Te  Te155  1  0.83403367  -0.00192533  0.66650500  1
  Te  Te156  1  0.83552190  0.33302939  -0.00070838  1
  Te  Te157  1  0.83331816  0.33473828  0.33608756  1
  Te  Te158  1  0.83492064  0.33881499  0.66794318  1
  Te  Te159  1  0.83597777  0.66157249  -0.00124668  1
  Te  Te160  1  0.83428653  0.67526995  0.33348073  1
  Te  Te161  1  0.83849982  0.66120461  0.66728074  1
  Te  Te162  1  -0.00031514  0.16521123  -0.00045568  1
  Te  Te163  1  0.00014933  0.16787000  0.32455264  1
  Te  Te164  1  -0.00117870  0.17099092  0.67075350  1
  Te  Te165  1  0.00260159  0.50012500  -0.00160038  1
  Te  Te166  1  -0.00098965  0.49900353  0.32862431  1
  Te  Te167  1  -0.00127628  0.48957207  0.66598484  1
  Te  Te168  1  0.00482971  0.82959178  -0.00109397  1
  Te  Te169  1  0.00116299  0.83363027  0.33412672  1
  Te  Te170  1  0.00093927  0.83518950  0.66630321  1
  Te  Te171  1  0.33128957  0.16809267  0.00298730  1
  Te  Te172  1  0.33615268  0.17122250  0.33097916  1
  Te  Te173  1  0.33174978  0.17425660  0.66715902  1
  Te  Te174  1  0.33331517  0.50110384  0.00136782  1
  Te  Te175  1  0.33721706  0.49571238  0.32597588  1
  Te  Te176  1  0.32863766  0.50482695  0.66843718  1
  Te  Te177  1  0.33071080  0.83291939  0.00028495  1
  Te  Te178  1  0.32905682  0.83538504  0.32719202  1
  Te  Te179  1  0.33879900  0.82734785  0.66655069  1
  Te  Te180  1  0.67126062  0.16790570  0.00545374  1
  Te  Te181  1  0.66191074  0.16721578  0.32726936  1
  Te  Te182  1  0.66761241  0.16814487  0.66629743  1
  Te  Te183  1  0.67173432  0.49870258  0.00265822  1
  Te  Te184  1  0.66088611  0.49917994  0.32735794  1
  Te  Te185  1  0.67165216  0.49838935  0.66746966  1
  Te  Te186  1  0.66552573  0.83241106  -0.00219407  1
  Te  Te187  1  0.67008463  0.83382020  0.33689072  1
  Te  Te188  1  0.66068170  0.83279983  0.66560405  1
  Te  Te189  1  -0.00123687  0.00413849  0.16645251  1
  Te  Te190  1  -0.00310723  0.00025886  0.50399908  1
  Te  Te191  1  -0.00438016  -0.00787557  0.82706907  1
  Te  Te192  1  -0.00006823  0.33292504  0.16188458  1
  Te  Te193  1  0.00034173  0.32971603  0.49964698  1
  Te  Te194  1  -0.00028005  0.33523560  0.83686612  1
  Te  Te195  1  0.00383044  0.66442831  0.16312615  1
  Te  Te196  1  0.00347703  0.66959010  0.50460859  1
  Te  Te197  1  0.00472724  0.67054054  0.83254165  1
  Te  Te198  1  0.33672220  0.00745549  0.16672000  1
  Te  Te199  1  0.33469551  0.00219569  0.50547087  1
  Te  Te200  1  0.33455589  0.00117787  0.82628077  1
  Te  Te201  1  0.33424167  0.33164001  0.16239411  1
  Te  Te202  1  0.33326174  0.34081884  0.50954613  1
  Te  Te203  1  0.33311231  0.33964117  0.83233646  1
  Te  Te204  1  0.33202251  0.66491998  0.16645110  1
  Te  Te205  1  0.33339583  0.66438369  0.50055742  1
  Te  Te206  1  0.32942465  0.66418946  0.83286222  1
  Te  Te207  1  0.66433627  0.00294057  0.16695573  1
  Te  Te208  1  0.67135022  -0.00477340  0.50551084  1
  Te  Te209  1  0.67086958  -0.00459086  0.82790506  1
  Te  Te210  1  0.66132846  0.33376355  0.16683965  1
  Te  Te211  1  0.66601522  0.33304647  0.50704520  1
  Te  Te212  1  0.66535398  0.33440992  0.82661402  1
  Te  Te213  1  0.66489483  0.66049308  0.16677821  1
  Te  Te214  1  0.66071737  0.67285894  0.49957332  1
  Te  Te215  1  0.66671234  0.67411751  0.83470828  1
