# generated using pymatgen
data_AgSbTe2
_symmetry_space_group_name_H-M   'P 1'
_cell_length_a   18.32220819
_cell_length_b   18.32617115
_cell_length_c   18.32556042
_cell_angle_alpha   89.99681882
_cell_angle_beta   90.00245575
_cell_angle_gamma   90.00130239
_symmetry_Int_Tables_number   1
_chemical_formula_structural   AgSbTe2
_chemical_formula_sum   'Ag54 Sb54 Te108'
_cell_volume   6153.28194785
_cell_formula_units_Z   54
loop_
 _symmetry_equiv_pos_site_id
 _symmetry_equiv_pos_as_xyz
  1  'x, y, z'
loop_
 _atom_site_type_symbol
 _atom_site_label
 _atom_site_symmetry_multiplicity
 _atom_site_fract_x
 _atom_site_fract_y
 _atom_site_fract_z
 _atom_site_occupancy
  Ag  Ag0  1  0.83176524  -0.00372759  0.50192650  1
  Ag  Ag1  1  0.16744727  0.83410791  -0.00466206  1
  Ag  Ag2  1  0.01149286  0.83463997  0.50056328  1
  Ag  Ag3  1  0.49069254  0.15932124  0.34550233  1
  Ag  Ag4  1  0.33409266  0.16265412  0.49824322  1
  Ag  Ag5  1  0.17380945  0.16702991  0.00343797  1
  Ag  Ag6  1  0.01216313  0.67091692  0.66857323  1
  Ag  Ag7  1  0.00446038  0.83775701  0.17174444  1
  Ag  Ag8  1  0.66967063  0.50263062  0.83577597  1
  Ag  Ag9  1  0.49838038  0.50282549  0.66737107  1
  Ag  Ag10  1  0.66391641  0.00074097  -0.01002514  1
  Ag  Ag11  1  0.83696631  0.34078223  0.83395153  1
  Ag  Ag12  1  0.32888632  0.16785398  0.17097537  1
  Ag  Ag13  1  0.49092270  0.84257998  0.34522728  1
  Ag  Ag14  1  0.33596947  0.50547946  0.50329743  1
  Ag  Ag15  1  0.32919140  0.66532981  0.66310754  1
  Ag  Ag16  1  -0.00279651  0.50304340  0.83553029  1
  Ag  Ag17  1  0.49298851  0.16890782  -0.00114090  1
  Ag  Ag18  1  0.16619464  0.33285100  0.83291701  1
  Ag  Ag19  1  0.33008593  0.66254380  -0.00598477  1
  Ag  Ag20  1  0.32840595  0.00359226  0.33640147  1
  Ag  Ag21  1  0.83767801  0.00034947  0.17110048  1
  Ag  Ag22  1  0.33277029  0.33249877  -0.00506114  1
  Ag  Ag23  1  0.49173783  0.67608420  0.50498176  1
  Ag  Ag24  1  0.83061999  0.50089247  -0.00909127  1
  Ag  Ag25  1  0.00123639  0.50396672  0.15889998  1
  Ag  Ag26  1  0.16982776  0.84060411  0.34610068  1
  Ag  Ag27  1  0.49262015  0.84001360  0.66245190  1
  Ag  Ag28  1  0.65168184  0.16275895  0.50251017  1
  Ag  Ag29  1  0.66507804  0.66023278  -0.00547957  1
  Ag  Ag30  1  0.33168995  0.33476263  0.66669392  1
  Ag  Ag31  1  0.49682229  0.50084749  0.34450717  1
  Ag  Ag32  1  0.83072589  0.50138816  0.67393631  1
  Ag  Ag33  1  0.50034479  -0.00169667  0.50483174  1
  Ag  Ag34  1  0.17245920  0.16031862  0.33387705  1
  Ag  Ag35  1  0.16528432  0.66908248  0.82756001  1
  Ag  Ag36  1  0.17111434  0.33144275  0.50742866  1
  Ag  Ag37  1  0.32993662  0.83245705  0.50116387  1
  Ag  Ag38  1  0.65675255  -0.00028488  0.66936731  1
  Ag  Ag39  1  0.66329721  0.83166143  0.83340046  1
  Ag  Ag40  1  0.49223847  0.15656218  0.66056463  1
  Ag  Ag41  1  0.00489250  -0.00675109  0.66166135  1
  Ag  Ag42  1  0.17285826  0.16138194  0.66424748  1
  Ag  Ag43  1  0.83430227  0.67250224  0.50400120  1
  Ag  Ag44  1  0.17264301  0.67567331  0.50901611  1
  Ag  Ag45  1  0.65868822  0.33636333  -0.00437418  1
  Ag  Ag46  1  0.00492494  0.66370464  -0.00654531  1
  Ag  Ag47  1  0.50302959  0.49844050  -0.00516727  1
  Ag  Ag48  1  0.16751375  0.32657135  0.16091065  1
  Ag  Ag49  1  0.00899990  -0.00321963  0.33937749  1
  Ag  Ag50  1  0.17041611  -0.00237694  0.83047141  1
  Ag  Ag51  1  0.17056494  0.83209718  0.66400720  1
  Ag  Ag52  1  0.01051426  0.16318156  0.16598162  1
  Ag  Ag53  1  0.49707505  -0.00025608  0.82249318  1
  Sb  Sb54  1  0.33350948  0.67171568  0.33994479  1
  Sb  Sb55  1  0.49211329  0.32991823  0.50301010  1
  Sb  Sb56  1  0.49782114  0.66588642  0.16762279  1
  Sb  Sb57  1  0.00002128  -0.00361151  -0.00049330  1
  Sb  Sb58  1  0.49627861  0.66937842  0.82798794  1
  Sb  Sb59  1  0.83590736  0.83529206  0.33554500  1
  Sb  Sb60  1  0.66291945  0.66834873  0.33301225  1
  Sb  Sb61  1  0.50267546  0.00146802  0.16871518  1
  Sb  Sb62  1  0.66028912  0.33031441  0.67147971  1
  Sb  Sb63  1  0.32998904  0.49464389  0.16800163  1
  Sb  Sb64  1  0.65967736  0.49750001  0.50678297  1
  Sb  Sb65  1  0.00433393  0.32700952  0.33251407  1
  Sb  Sb66  1  0.49545104  0.83406218  -0.00316126  1
  Sb  Sb67  1  0.66390096  0.16622030  0.83071444  1
  Sb  Sb68  1  0.83718511  0.82931499  -0.00115608  1
  Sb  Sb69  1  0.16571740  0.66556294  0.16395449  1
  Sb  Sb70  1  0.00970540  0.33573999  0.66866481  1
  Sb  Sb71  1  0.49322319  0.33192615  0.16327722  1
  Sb  Sb72  1  0.66395831  0.67035829  0.67050731  1
  Sb  Sb73  1  0.16181948  0.00550755  0.16692209  1
  Sb  Sb74  1  0.83351378  0.16961664  -0.00013524  1
  Sb  Sb75  1  0.33351849  0.50038679  0.82930527  1
  Sb  Sb76  1  0.17164370  -0.00191513  0.50378164  1
  Sb  Sb77  1  0.49685738  0.33060368  0.83441187  1
  Sb  Sb78  1  0.00822864  0.15709765  0.49724301  1
  Sb  Sb79  1  0.83615171  0.82974955  0.66512058  1
  Sb  Sb80  1  0.83800757  0.66108521  0.82939954  1
  Sb  Sb81  1  0.83303137  0.00294291  0.82961600  1
  Sb  Sb82  1  0.83084591  0.50139086  0.33408129  1
  Sb  Sb83  1  0.33460225  0.00360882  0.00430807  1
  Sb  Sb84  1  0.17037266  0.50402854  0.66687735  1
  Sb  Sb85  1  0.83928938  0.33033805  0.15869098  1
  Sb  Sb86  1  0.00461799  0.50851140  0.50400987  1
  Sb  Sb87  1  0.83933824  0.33293516  0.50783511  1
  Sb  Sb88  1  0.66891941  0.83641948  0.16161324  1
  Sb  Sb89  1  0.33155555  0.32662682  0.33764704  1
  Sb  Sb90  1  0.66086571  0.83721304  0.50585338  1
  Sb  Sb91  1  0.00369668  0.67302180  0.33648108  1
  Sb  Sb92  1  0.83657399  0.66957704  0.16715278  1
  Sb  Sb93  1  0.00211755  0.82946480  0.83039084  1
  Sb  Sb94  1  0.83627481  0.16356887  0.33447705  1
  Sb  Sb95  1  0.66224857  0.33156909  0.33111076  1
  Sb  Sb96  1  0.33181054  0.16644735  0.82929808  1
  Sb  Sb97  1  0.32699248  0.83743845  0.17140815  1
  Sb  Sb98  1  0.66931669  0.49939618  0.15692681  1
  Sb  Sb99  1  0.16787163  0.49940051  -0.00237304  1
  Sb  Sb100  1  0.33300390  0.00047585  0.66006589  1
  Sb  Sb101  1  0.83487813  0.16796025  0.66591345  1
  Sb  Sb102  1  0.17056020  0.50025165  0.33587495  1
  Sb  Sb103  1  0.33278204  0.83244777  0.82566553  1
  Sb  Sb104  1  0.00591233  0.33799223  -0.00116948  1
  Sb  Sb105  1  0.00598428  0.16829408  0.83550268  1
  Sb  Sb106  1  0.66441552  0.00085816  0.33897835  1
  Sb  Sb107  1  0.66386442  0.16443572  0.16792637  1
  Te  Te108  1  0.16809679  0.16655678  0.16518638  1
  Te  Te109  1  0.17135962  0.16687998  0.50158324  1
  Te  Te110  1  0.16632657  0.16664288  0.83210617  1
  Te  Te111  1  0.16116857  0.49386729  0.16858985  1
  Te  Te112  1  0.17243614  0.49626742  0.49927660  1
  Te  Te113  1  0.16293380  0.50004615  0.83248716  1
  Te  Te114  1  0.16230183  0.83314502  0.16208680  1
  Te  Te115  1  0.16857712  0.83416780  0.50234593  1
  Te  Te116  1  0.16658006  0.83309831  0.83230019  1
  Te  Te117  1  0.49574493  0.16645540  0.16057196  1
  Te  Te118  1  0.49603469  0.16668595  0.50208876  1
  Te  Te119  1  0.50021816  0.16085182  0.83606512  1
  Te  Te120  1  0.50011605  0.49967292  0.16211194  1
  Te  Te121  1  0.49678831  0.49765462  0.50333704  1
  Te  Te122  1  0.50248739  0.50075301  0.83398046  1
  Te  Te123  1  0.49856133  0.83276624  0.17401639  1
  Te  Te124  1  0.50011695  0.83400089  0.50164900  1
  Te  Te125  1  0.50235158  0.83833072  0.82958493  1
  Te  Te126  1  0.83729912  0.16187991  0.16791519  1
  Te  Te127  1  0.83252680  0.16310356  0.49970449  1
  Te  Te128  1  0.83532878  0.17681699  0.83342744  1
  Te  Te129  1  0.84082303  0.49954172  0.16559886  1
  Te  Te130  1  0.83229987  0.50131636  0.50291830  1
  Te  Te131  1  0.83330084  0.50033624  0.83392518  1
  Te  Te132  1  0.84077329  0.83854326  0.16744831  1
  Te  Te133  1  0.83384264  0.83453889  0.49979086  1
  Te  Te134  1  0.82423532  0.83337967  0.83297556  1
  Te  Te135  1  0.16657056  0.00044671  -0.00580584  1
  Te  Te136  1  0.16617135  -0.00011192  0.33253064  1
  Te  Te137  1  0.16689527  -0.00052232  0.66874006  1
  Te  Te138  1  0.17058324  0.33116202  -0.00320599  1
  Te  Te139  1  0.16662359  0.32810997  0.33293668  1
  Te  Te140  1  0.17180348  0.33109001  0.66880554  1
  Te  Te141  1  0.16646897  0.66698148  -0.00136724  1
  Te  Te142  1  0.16761290  0.67264717  0.33771509  1
  Te  Te143  1  0.16854256  0.66774105  0.66684968  1
  Te  Te144  1  0.50311553  0.00161305  0.00049980  1
  Te  Te145  1  0.49926365  0.00119665  0.33555569  1
  Te  Te146  1  0.49724819  0.00030828  0.66635527  1
  Te  Te147  1  0.49738239  0.33201704  -0.00160955  1
  Te  Te148  1  0.49915200  0.33618742  0.33161388  1
  Te  Te149  1  0.49316550  0.33715072  0.66954099  1
  Te  Te150  1  0.49840987  0.66527072  -0.00101448  1
  Te  Te151  1  0.50003911  0.66286673  0.33919363  1
  Te  Te152  1  0.49735604  0.66443845  0.66398659  1
  Te  Te153  1  0.82824203  -0.00054780  -0.00131865  1
  Te  Te154  1  0.83509668  0.00023553  0.33597487  1
  Te  Te155  1  0.83685887  0.00034482  0.66221704  1
  Te  Te156  1  0.83147933  0.33833662  -0.00487452  1
  Te  Te157  1  0.83196945  0.33298416  0.33367920  1
  Te  Te158  1  0.83288169  0.33868173  0.67181602  1
  Te  Te159  1  0.83431152  0.66155806  0.00037651  1
  Te  Te160  1  0.83187119  0.66694460  0.34263698  1
  Te  Te161  1  0.83263649  0.66250853  0.66287640  1
  Te  Te162  1  0.00370543  0.16585753  0.00516222  1
  Te  Te163  1  0.00532716  0.15979423  0.32881983  1
  Te  Te164  1  0.00533252  0.16314379  0.66607073  1
  Te  Te165  1  0.00042477  0.50321748  -0.00117491  1
  Te  Te166  1  -0.00057181  0.50014076  0.32982975  1
  Te  Te167  1  -0.00382200  0.50408294  0.66905533  1
  Te  Te168  1  0.00428947  0.82800494  0.00030300  1
  Te  Te169  1  0.00278390  0.83771056  0.33450406  1
  Te  Te170  1  0.00254039  0.83185083  0.66423650  1
  Te  Te171  1  0.33278402  0.16787863  0.00056834  1
  Te  Te172  1  0.33305301  0.16608806  0.33493631  1
  Te  Te173  1  0.33304310  0.16802643  0.66351518  1
  Te  Te174  1  0.33808679  0.49878311  0.00013902  1
  Te  Te175  1  0.33832632  0.50037981  0.33712355  1
  Te  Te176  1  0.33645936  0.50169164  0.66382422  1
  Te  Te177  1  0.32752615  0.83111930  0.00259579  1
  Te  Te178  1  0.33149164  0.83727758  0.33696565  1
  Te  Te179  1  0.33278841  0.82970896  0.66227239  1
  Te  Te180  1  0.66501948  0.16526387  0.00044529  1
  Te  Te181  1  0.65847506  0.16751988  0.33815447  1
  Te  Te182  1  0.66445164  0.16228388  0.66304317  1
  Te  Te183  1  0.66472962  0.49980533  -0.00309114  1
  Te  Te184  1  0.65943202  0.49934171  0.33200490  1
  Te  Te185  1  0.66487018  0.49867794  0.67249136  1
  Te  Te186  1  0.66520110  0.83554182  -0.00365442  1
  Te  Te187  1  0.65895669  0.83342355  0.33106642  1
  Te  Te188  1  0.66344409  0.83817926  0.67135812  1
  Te  Te189  1  -0.00313971  -0.00158097  0.16549944  1
  Te  Te190  1  -0.00250354  -0.00442040  0.50057310  1
  Te  Te191  1  0.00294810  -0.00086739  0.82691022  1
  Te  Te192  1  0.00588598  0.32943031  0.16608510  1
  Te  Te193  1  0.00792607  0.33409829  0.50023756  1
  Te  Te194  1  0.00212380  0.33940173  0.83305866  1
  Te  Te195  1  -0.00074599  0.66690690  0.16424984  1
  Te  Te196  1  0.00304635  0.67212852  0.50352067  1
  Te  Te197  1  0.00355196  0.66388943  0.83154693  1
  Te  Te198  1  0.33452306  0.00583532  0.17499082  1
  Te  Te199  1  0.33835552  -0.00053516  0.49545611  1
  Te  Te200  1  0.33279492  -0.00149912  0.83641570  1
  Te  Te201  1  0.32707916  0.32846910  0.16099197  1
  Te  Te202  1  0.32892419  0.33228346  0.50350547  1
  Te  Te203  1  0.32789794  0.33452419  0.83289362  1
  Te  Te204  1  0.33250114  0.66445707  0.15746079  1
  Te  Te205  1  0.33335439  0.66798846  0.50161136  1
  Te  Te206  1  0.32712464  0.66639192  0.83396075  1
  Te  Te207  1  0.67501522  0.00010038  0.16223340  1
  Te  Te208  1  0.66493476  0.00237158  0.50419878  1
  Te  Te209  1  0.66668299  -0.00029661  0.83027436  1
  Te  Te210  1  0.66887966  0.33193189  0.15726825  1
  Te  Te211  1  0.67012803  0.32686760  0.50061399  1
  Te  Te212  1  0.66708363  0.33710969  0.83713211  1
  Te  Te213  1  0.66773137  0.66798320  0.15734296  1
  Te  Te214  1  0.66821222  0.66592706  0.50102511  1
  Te  Te215  1  0.66595030  0.66645998  0.83690781  1
