# generated using pymatgen
data_AgSbTe2
_symmetry_space_group_name_H-M   'P 1'
_cell_length_a   18.32346821
_cell_length_b   18.32083229
_cell_length_c   18.32359518
_cell_angle_alpha   89.99807849
_cell_angle_beta   89.99913026
_cell_angle_gamma   89.99787716
_symmetry_Int_Tables_number   1
_chemical_formula_structural   AgSbTe2
_chemical_formula_sum   'Ag54 Sb54 Te108'
_cell_volume   6151.25266080
_cell_formula_units_Z   54
loop_
 _symmetry_equiv_pos_site_id
 _symmetry_equiv_pos_as_xyz
  1  'x, y, z'
loop_
 _atom_site_type_symbol
 _atom_site_label
 _atom_site_symmetry_multiplicity
 _atom_site_fract_x
 _atom_site_fract_y
 _atom_site_fract_z
 _atom_site_occupancy
  Ag  Ag0  1  0.00020148  0.83192496  0.16862894  1
  Ag  Ag1  1  0.50331216  0.50039623  -0.00388331  1
  Ag  Ag2  1  0.16279292  0.66988078  0.16459363  1
  Ag  Ag3  1  -0.00504823  0.00526428  0.66632894  1
  Ag  Ag4  1  0.83979466  0.16286104  0.33577761  1
  Ag  Ag5  1  0.83753596  -0.00530399  0.16456630  1
  Ag  Ag6  1  0.15575338  0.16164735  0.66417400  1
  Ag  Ag7  1  -0.00343981  0.16489032  0.82889293  1
  Ag  Ag8  1  0.33820575  0.67333243  0.67347233  1
  Ag  Ag9  1  0.83993075  0.67311685  0.16100598  1
  Ag  Ag10  1  0.67808439  0.33409381  -0.00035211  1
  Ag  Ag11  1  0.49903370  0.49526254  0.33439551  1
  Ag  Ag12  1  0.49666821  0.83068280  0.66630775  1
  Ag  Ag13  1  0.33498473  0.83540073  0.83160468  1
  Ag  Ag14  1  0.50499086  -0.00480007  0.50668745  1
  Ag  Ag15  1  0.83654004  0.16733089  -0.00722864  1
  Ag  Ag16  1  0.15632584  0.17061802  0.33924037  1
  Ag  Ag17  1  0.50104068  0.51043117  0.67032665  1
  Ag  Ag18  1  0.33075885  0.67267536  -0.00126482  1
  Ag  Ag19  1  0.67469121  0.33254970  0.33284821  1
  Ag  Ag20  1  0.15935108  0.50531291  0.00106948  1
  Ag  Ag21  1  0.83784135  0.84241165  0.34209011  1
  Ag  Ag22  1  0.82870535  0.66920688  0.83579227  1
  Ag  Ag23  1  -0.00583721  0.00594070  0.33775215  1
  Ag  Ag24  1  0.83871413  0.15832503  0.67294871  1
  Ag  Ag25  1  0.17008270  0.83111345  -0.00114613  1
  Ag  Ag26  1  -0.00322660  0.32471677  0.65964680  1
  Ag  Ag27  1  0.67657127  0.83521075  0.50371149  1
  Ag  Ag28  1  0.15544036  0.33248621  0.49801417  1
  Ag  Ag29  1  0.83849718  0.32634048  0.50039728  1
  Ag  Ag30  1  0.50095601  0.67030694  0.82951576  1
  Ag  Ag31  1  -0.00188797  0.50419703  0.16710068  1
  Ag  Ag32  1  0.33280075  0.33208160  0.33515583  1
  Ag  Ag33  1  0.83552145  0.49176114  -0.00216265  1
  Ag  Ag34  1  0.33067531  0.83323324  0.50755012  1
  Ag  Ag35  1  0.83835178  0.83945932  0.66266934  1
  Ag  Ag36  1  0.83367698  0.00252521  0.83532659  1
  Ag  Ag37  1  0.16795394  0.83619005  0.66734190  1
  Ag  Ag38  1  0.83483602  0.32539371  0.83809869  1
  Ag  Ag39  1  0.32964415  0.15792687  0.83339424  1
  Ag  Ag40  1  0.83517787  -0.00113049  0.50171300  1
  Ag  Ag41  1  -0.00331368  0.83512246  0.50001014  1
  Ag  Ag42  1  0.32533931  0.83077610  0.15878641  1
  Ag  Ag43  1  0.50071414  -0.00567835  0.83055963  1
  Ag  Ag44  1  -0.00589145  0.00323451  -0.00236879  1
  Ag  Ag45  1  -0.00368176  0.32597607  0.34270523  1
  Ag  Ag46  1  0.49995931  0.16987373  0.33566828  1
  Ag  Ag47  1  0.66269606  0.67021088  0.66922421  1
  Ag  Ag48  1  0.66797456  0.50176158  0.83521638  1
  Ag  Ag49  1  0.33189776  -0.00954587  -0.00439394  1
  Ag  Ag50  1  -0.00173953  0.48821679  0.49663972  1
  Ag  Ag51  1  0.33473619  0.66921323  0.33073703  1
  Ag  Ag52  1  -0.00504885  0.33136515  -0.00113931  1
  Ag  Ag53  1  0.67933858  0.00155397  -0.00345784  1
  Sb  Sb54  1  0.49871737  0.66711718  0.16113248  1
  Sb  Sb55  1  0.00257939  0.66729209  0.00114621  1
  Sb  Sb56  1  0.67394512  0.00393142  0.33247665  1
  Sb  Sb57  1  0.16776168  0.50184986  0.67047528  1
  Sb  Sb58  1  0.16444560  -0.00036128  0.83318789  1
  Sb  Sb59  1  -0.00239472  0.16663141  0.50512072  1
  Sb  Sb60  1  -0.00026061  0.67053687  0.66749999  1
  Sb  Sb61  1  0.33209681  0.16134827  0.50244532  1
  Sb  Sb62  1  0.16037901  0.00148438  0.50106349  1
  Sb  Sb63  1  0.00137604  0.66714427  0.33093827  1
  Sb  Sb64  1  0.34004009  0.50357026  0.83477330  1
  Sb  Sb65  1  0.83823130  0.83680152  -0.00225386  1
  Sb  Sb66  1  0.66500563  0.66702118  -0.00583447  1
  Sb  Sb67  1  0.49300528  0.83123702  -0.00778683  1
  Sb  Sb68  1  0.83691534  0.33130869  0.16450963  1
  Sb  Sb69  1  0.33068961  -0.00144643  0.33132681  1
  Sb  Sb70  1  0.67428620  -0.00540968  0.67043095  1
  Sb  Sb71  1  0.67130651  0.16106995  0.49885666  1
  Sb  Sb72  1  0.49827120  0.67170003  0.50812487  1
  Sb  Sb73  1  0.67059291  0.16633033  0.16717632  1
  Sb  Sb74  1  0.50122720  0.83401812  0.34109678  1
  Sb  Sb75  1  0.15913173  0.33193469  0.83009789  1
  Sb  Sb76  1  0.16748256  0.66552078  0.49687777  1
  Sb  Sb77  1  0.16034225  0.16524294  -0.00149956  1
  Sb  Sb78  1  0.33139866  0.50306791  0.49822359  1
  Sb  Sb79  1  0.50034779  0.16152500  0.66594458  1
  Sb  Sb80  1  -0.00702933  0.49495635  0.83575283  1
  Sb  Sb81  1  0.32927952  -0.00643169  0.67107710  1
  Sb  Sb82  1  0.50595059  0.33364682  0.83268952  1
  Sb  Sb83  1  0.16759083  0.49652927  0.33036481  1
  Sb  Sb84  1  0.67495065  0.33791352  0.66733255  1
  Sb  Sb85  1  0.83286663  0.49736738  0.32908867  1
  Sb  Sb86  1  0.66361544  0.66344440  0.33771689  1
  Sb  Sb87  1  -0.00183679  0.16363604  0.16600027  1
  Sb  Sb88  1  0.50414038  0.16760630  0.00105881  1
  Sb  Sb89  1  0.67222395  0.50035969  0.16106366  1
  Sb  Sb90  1  0.83437755  0.67106710  0.50202267  1
  Sb  Sb91  1  0.33115956  0.33453775  0.00204451  1
  Sb  Sb92  1  0.32818791  0.50710591  0.16650875  1
  Sb  Sb93  1  0.16857283  0.66883898  0.83687606  1
  Sb  Sb94  1  0.83251812  0.50166105  0.67128603  1
  Sb  Sb95  1  0.49942202  0.33507634  0.16869575  1
  Sb  Sb96  1  0.16183128  0.83627279  0.33401538  1
  Sb  Sb97  1  0.15839124  -0.00662633  0.16552715  1
  Sb  Sb98  1  0.33097018  0.16012917  0.16421149  1
  Sb  Sb99  1  0.67019543  0.50235186  0.50300492  1
  Sb  Sb100  1  0.66495616  0.83122129  0.82928534  1
  Sb  Sb101  1  0.00096250  0.83936236  0.83312950  1
  Sb  Sb102  1  0.50327526  0.32976439  0.49810744  1
  Sb  Sb103  1  0.67307387  0.83419345  0.17061510  1
  Sb  Sb104  1  0.16247366  0.33817375  0.17099596  1
  Sb  Sb105  1  0.50352174  -0.00272142  0.16422536  1
  Sb  Sb106  1  0.32880461  0.33503690  0.66314890  1
  Sb  Sb107  1  0.67296975  0.16747978  0.83439206  1
  Te  Te108  1  0.16671195  0.16622055  0.17315695  1
  Te  Te109  1  0.16823912  0.17077932  0.50180553  1
  Te  Te110  1  0.16534484  0.16682056  0.82921441  1
  Te  Te111  1  0.16104860  0.50665120  0.16117608  1
  Te  Te112  1  0.16090136  0.49478844  0.50092104  1
  Te  Te113  1  0.16711642  0.50033011  0.84101744  1
  Te  Te114  1  0.16517281  0.82926070  0.16718164  1
  Te  Te115  1  0.16537977  0.83374802  0.50334050  1
  Te  Te116  1  0.17207077  0.83258852  0.83254521  1
  Te  Te117  1  0.49893922  0.16582765  0.17452805  1
  Te  Te118  1  0.50087184  0.15851011  0.49717383  1
  Te  Te119  1  0.49633587  0.16191475  0.83333959  1
  Te  Te120  1  0.50012931  0.50182314  0.16561190  1
  Te  Te121  1  0.50099167  0.49926629  0.49936489  1
  Te  Te122  1  0.50493727  0.50034276  0.83294956  1
  Te  Te123  1  0.49650045  0.83276915  0.16867721  1
  Te  Te124  1  0.49633027  0.83753754  0.50549397  1
  Te  Te125  1  0.49839719  0.83339964  0.82743663  1
  Te  Te126  1  0.83409647  0.15788462  0.16947948  1
  Te  Te127  1  0.83248035  0.16574058  0.49760150  1
  Te  Te128  1  0.83455073  0.16533258  0.83297241  1
  Te  Te129  1  0.83819233  0.50574582  0.16140003  1
  Te  Te130  1  0.83790993  0.49790860  0.49896655  1
  Te  Te131  1  0.82933655  0.50207020  0.83735405  1
  Te  Te132  1  0.83731302  0.83379520  0.16599986  1
  Te  Te133  1  0.83625404  0.83378370  0.50147038  1
  Te  Te134  1  0.83286476  0.83541076  0.82866526  1
  Te  Te135  1  0.16855162  -0.00310243  0.00073970  1
  Te  Te136  1  0.16031624  0.00748753  0.33318106  1
  Te  Te137  1  0.15901553  0.00001854  0.66565142  1
  Te  Te138  1  0.16162742  0.33585495  0.00034617  1
  Te  Te139  1  0.16288587  0.33107182  0.33703625  1
  Te  Te140  1  0.16137632  0.33282521  0.66166975  1
  Te  Te141  1  0.16940194  0.66848753  0.00242450  1
  Te  Te142  1  0.17366996  0.66554106  0.32738589  1
  Te  Te143  1  0.17197412  0.67159869  0.66709512  1
  Te  Te144  1  0.49474279  0.00194012  -0.00398898  1
  Te  Te145  1  0.50186945  0.00348924  0.33372095  1
  Te  Te146  1  0.50178499  -0.00269562  0.66810366  1
  Te  Te147  1  0.50189171  0.33825976  0.00053884  1
  Te  Te148  1  0.49824783  0.33280472  0.33451079  1
  Te  Te149  1  0.49990147  0.33542712  0.66549052  1
  Te  Te150  1  0.49709070  0.66156114  -0.00607032  1
  Te  Te151  1  0.49581443  0.66376006  0.33147892  1
  Te  Te152  1  0.49804686  0.66851409  0.66989251  1
  Te  Te153  1  0.83587833  -0.00088842  -0.00402093  1
  Te  Te154  1  0.83435235  0.00080173  0.33658863  1
  Te  Te155  1  0.83483551  -0.00052531  0.66598548  1
  Te  Te156  1  0.83450685  0.33156902  0.00190440  1
  Te  Te157  1  0.83552677  0.33137513  0.33135989  1
  Te  Te158  1  0.83758546  0.33451181  0.66640208  1
  Te  Te159  1  0.83246902  0.66794208  -0.00217577  1
  Te  Te160  1  0.83162838  0.66898945  0.32964222  1
  Te  Te161  1  0.83177418  0.67026287  0.67025876  1
  Te  Te162  1  -0.00304142  0.16477357  -0.00101982  1
  Te  Te163  1  -0.00156319  0.16657744  0.33091940  1
  Te  Te164  1  -0.00136852  0.16640791  0.66816653  1
  Te  Te165  1  -0.00252682  0.49971629  0.00094453  1
  Te  Te166  1  0.00004880  0.49736539  0.33273805  1
  Te  Te167  1  0.00149248  0.49774308  0.66276137  1
  Te  Te168  1  0.00661111  0.83801036  0.00142804  1
  Te  Te169  1  -0.00253489  0.83367321  0.33277460  1
  Te  Te170  1  0.00025879  0.83538313  0.66611316  1
  Te  Te171  1  0.33221309  0.16542845  -0.00463922  1
  Te  Te172  1  0.33520545  0.16782258  0.33275549  1
  Te  Te173  1  0.33051845  0.16688347  0.67241019  1
  Te  Te174  1  0.33524871  0.50116397  0.00102212  1
  Te  Te175  1  0.33756993  0.49946439  0.33287271  1
  Te  Te176  1  0.33776968  0.50561324  0.66645326  1
  Te  Te177  1  0.33141961  0.83259655  -0.00220599  1
  Te  Te178  1  0.33200046  0.83130725  0.33576311  1
  Te  Te179  1  0.33084324  0.83310041  0.66795066  1
  Te  Te180  1  0.67238368  0.16880696  0.00047567  1
  Te  Te181  1  0.66654823  0.17311222  0.33314958  1
  Te  Te182  1  0.67388837  0.16864854  0.66640641  1
  Te  Te183  1  0.66843551  0.49960081  -0.00320273  1
  Te  Te184  1  0.66081989  0.49508989  0.33377620  1
  Te  Te185  1  0.66212563  0.50535293  0.66983857  1
  Te  Te186  1  0.66309750  0.83915041  0.00204306  1
  Te  Te187  1  0.67261314  0.83264244  0.33956204  1
  Te  Te188  1  0.66697895  0.83020003  0.66350272  1
  Te  Te189  1  -0.00440249  -0.00405666  0.16587298  1
  Te  Te190  1  -0.00359114  -0.00409330  0.49930450  1
  Te  Te191  1  -0.00328919  0.00373782  0.83378334  1
  Te  Te192  1  -0.00006375  0.33940675  0.16129311  1
  Te  Te193  1  -0.00371186  0.33130123  0.49955504  1
  Te  Te194  1  -0.00596317  0.32861632  0.83705454  1
  Te  Te195  1  -0.00005494  0.66887142  0.16645015  1
  Te  Te196  1  0.00130977  0.67131245  0.49903683  1
  Te  Te197  1  -0.00838988  0.66637765  0.83314505  1
  Te  Te198  1  0.33420428  -0.00798058  0.16137758  1
  Te  Te199  1  0.33648748  -0.00664606  0.49966316  1
  Te  Te200  1  0.33469500  -0.00213950  0.83451441  1
  Te  Te201  1  0.33079059  0.33276355  0.17414448  1
  Te  Te202  1  0.33289102  0.33305233  0.49468739  1
  Te  Te203  1  0.33344592  0.32992643  0.83316596  1
  Te  Te204  1  0.33257071  0.67178722  0.16390776  1
  Te  Te205  1  0.33240805  0.67132556  0.49707598  1
  Te  Te206  1  0.33557487  0.66917863  0.83485590  1
  Te  Te207  1  0.67340949  -0.00060930  0.15780529  1
  Te  Te208  1  0.66857615  -0.00572301  0.49966002  1
  Te  Te209  1  0.66634366  0.00060423  0.83754013  1
  Te  Te210  1  0.66710626  0.33401525  0.16614005  1
  Te  Te211  1  0.67344243  0.33379257  0.49620661  1
  Te  Te212  1  0.67318503  0.33765026  0.83680500  1
  Te  Te213  1  0.67458355  0.66773137  0.16789880  1
  Te  Te214  1  0.66643495  0.67235084  0.50632121  1
  Te  Te215  1  0.66644882  0.66491433  0.82990199  1
