# generated using pymatgen
data_AgSbTe2
_symmetry_space_group_name_H-M   'P 1'
_cell_length_a   18.33674373
_cell_length_b   18.34270823
_cell_length_c   18.34285090
_cell_angle_alpha   90.00156749
_cell_angle_beta   89.99977728
_cell_angle_gamma   90.00202783
_symmetry_Int_Tables_number   1
_chemical_formula_structural   AgSbTe2
_chemical_formula_sum   'Ag54 Sb54 Te108'
_cell_volume   6169.53608640
_cell_formula_units_Z   54
loop_
 _symmetry_equiv_pos_site_id
 _symmetry_equiv_pos_as_xyz
  1  'x, y, z'
loop_
 _atom_site_type_symbol
 _atom_site_label
 _atom_site_symmetry_multiplicity
 _atom_site_fract_x
 _atom_site_fract_y
 _atom_site_fract_z
 _atom_site_occupancy
  Ag  Ag0  1  0.66141231  0.16329375  0.16429663  1
  Ag  Ag1  1  0.18137220  0.66370037  0.83324599  1
  Ag  Ag2  1  0.00073276  0.32990152  0.66365141  1
  Ag  Ag3  1  0.34427866  0.33264950  0.33622965  1
  Ag  Ag4  1  0.65937880  0.67270841  -0.00373519  1
  Ag  Ag5  1  0.34190788  0.33617782  0.66891698  1
  Ag  Ag6  1  -0.00431717  0.01038454  0.66092470  1
  Ag  Ag7  1  0.16044442  0.00084568  0.49632484  1
  Ag  Ag8  1  0.82500228  0.32812385  0.82886883  1
  Ag  Ag9  1  0.17086439  0.83848220  0.33365852  1
  Ag  Ag10  1  0.84058909  0.00356310  0.51128220  1
  Ag  Ag11  1  0.00132519  0.49873075  0.16966103  1
  Ag  Ag12  1  0.50400251  0.16437335  -0.00319715  1
  Ag  Ag13  1  0.50001048  0.17218942  0.32869989  1
  Ag  Ag14  1  0.50353200  0.83185563  -0.00051732  1
  Ag  Ag15  1  0.00620203  0.00788477  0.34179071  1
  Ag  Ag16  1  0.49416985  0.48817365  0.67276982  1
  Ag  Ag17  1  0.50020827  0.65767403  0.83812365  1
  Ag  Ag18  1  0.66218609  0.83866676  0.15579961  1
  Ag  Ag19  1  0.82759721  0.00583061  0.82958674  1
  Ag  Ag20  1  0.33507676  0.65544383  0.67704985  1
  Ag  Ag21  1  0.00017023  0.50111292  0.82971033  1
  Ag  Ag22  1  0.49938843  0.33363107  0.82971090  1
  Ag  Ag23  1  0.66506658  0.82733933  0.83713381  1
  Ag  Ag24  1  0.50089121  0.00635123  0.16067895  1
  Ag  Ag25  1  -0.00261981  0.66518754  -0.00470941  1
  Ag  Ag26  1  0.83315653  0.84674704  0.67068614  1
  Ag  Ag27  1  0.33362313  0.83350524  0.49773074  1
  Ag  Ag28  1  0.34207768  0.17753448  0.82945982  1
  Ag  Ag29  1  0.82583837  0.66255151  0.83393011  1
  Ag  Ag30  1  0.49978108  0.17491069  0.67673600  1
  Ag  Ag31  1  0.00066600  0.48848139  0.50630739  1
  Ag  Ag32  1  0.65704384  0.50339121  0.83287137  1
  Ag  Ag33  1  0.65355265  0.33223597  0.67205544  1
  Ag  Ag34  1  0.66176961  -0.00246232  -0.00193527  1
  Ag  Ag35  1  0.33054019  0.00161679  0.33403217  1
  Ag  Ag36  1  0.00270223  0.32865231  0.34400987  1
  Ag  Ag37  1  -0.00209172  0.16705461  0.50395985  1
  Ag  Ag38  1  0.83470241  0.16616017  0.66882572  1
  Ag  Ag39  1  0.50059209  0.66566415  0.15471262  1
  Ag  Ag40  1  0.83071051  0.16511829  0.33723005  1
  Ag  Ag41  1  0.49771044  0.33206440  0.51549660  1
  Ag  Ag42  1  0.82360614  0.16577068  -0.01396516  1
  Ag  Ag43  1  0.50440517  0.00913196  0.83989219  1
  Ag  Ag44  1  0.49860572  0.32644831  0.16582059  1
  Ag  Ag45  1  0.33954851  0.33534377  -0.01492950  1
  Ag  Ag46  1  0.17349310  -0.00012660  0.17687191  1
  Ag  Ag47  1  0.33889542  0.49749710  0.82944893  1
  Ag  Ag48  1  0.65537228  0.66672826  0.32377220  1
  Ag  Ag49  1  0.16183036  0.17189973  0.66640664  1
  Ag  Ag50  1  0.49723858  0.49087070  0.33560454  1
  Ag  Ag51  1  0.33947086  0.66532282  0.33195191  1
  Ag  Ag52  1  0.17305110  0.49223072  0.66950500  1
  Ag  Ag53  1  0.34291332  0.66266365  -0.00800517  1
  Sb  Sb54  1  0.17143914  0.50253869  0.33877996  1
  Sb  Sb55  1  0.65946246  0.33179379  -0.00649354  1
  Sb  Sb56  1  0.82899919  0.00158217  0.16428209  1
  Sb  Sb57  1  0.33377240  0.49935913  0.16334100  1
  Sb  Sb58  1  0.34004549  0.16695412  0.16423457  1
  Sb  Sb59  1  -0.00381716  0.83090757  0.16658965  1
  Sb  Sb60  1  0.66191602  0.66214985  0.67369756  1
  Sb  Sb61  1  0.17248229  0.66925112  0.16260780  1
  Sb  Sb62  1  0.66719253  0.49828164  0.50470717  1
  Sb  Sb63  1  0.00428513  0.83920096  0.50060490  1
  Sb  Sb64  1  0.83143212  0.49567087  0.33476144  1
  Sb  Sb65  1  0.00400016  0.66104690  0.67348235  1
  Sb  Sb66  1  0.83371505  0.32774934  0.50548096  1
  Sb  Sb67  1  0.33139943  0.16645991  0.50415823  1
  Sb  Sb68  1  0.66305577  0.49931303  0.16238084  1
  Sb  Sb69  1  0.17107923  0.32927391  0.16990689  1
  Sb  Sb70  1  0.17489081  0.83276779  0.00324499  1
  Sb  Sb71  1  0.16704244  0.50117204  -0.00663423  1
  Sb  Sb72  1  -0.00767057  0.82876891  0.83216822  1
  Sb  Sb73  1  0.00189538  0.33575971  -0.00421815  1
  Sb  Sb74  1  0.34030274  0.83013549  0.82965345  1
  Sb  Sb75  1  0.17101530  0.16558828  -0.00626915  1
  Sb  Sb76  1  0.00144438  0.66347517  0.32993640  1
  Sb  Sb77  1  0.82403043  0.83636568  -0.00655625  1
  Sb  Sb78  1  0.49825497  0.66160635  0.50188756  1
  Sb  Sb79  1  0.82673535  0.66642543  0.15903159  1
  Sb  Sb80  1  0.66227833  0.16679234  0.83711972  1
  Sb  Sb81  1  0.34175861  0.00009159  0.00278732  1
  Sb  Sb82  1  0.49963003  0.00679768  0.49957424  1
  Sb  Sb83  1  -0.00428467  0.16899142  0.17299008  1
  Sb  Sb84  1  0.17124906  0.33867802  0.82933014  1
  Sb  Sb85  1  0.33147468  0.50091908  0.50636288  1
  Sb  Sb86  1  0.33142436  0.00341520  0.66402941  1
  Sb  Sb87  1  0.49630363  0.83380838  0.32850537  1
  Sb  Sb88  1  0.16893415  0.66940913  0.50460603  1
  Sb  Sb89  1  0.16897807  0.16189726  0.33804970  1
  Sb  Sb90  1  0.66328255  0.33434838  0.33588205  1
  Sb  Sb91  1  0.82843290  0.33049136  0.16279549  1
  Sb  Sb92  1  -0.00611810  -0.00227524  -0.00084914  1
  Sb  Sb93  1  0.50258345  0.83520931  0.67407566  1
  Sb  Sb94  1  0.83455286  0.67155734  0.50743650  1
  Sb  Sb95  1  0.83549796  0.83956312  0.33844862  1
  Sb  Sb96  1  0.67035609  0.00597233  0.67410480  1
  Sb  Sb97  1  0.34104807  0.83383210  0.16977249  1
  Sb  Sb98  1  -0.00096450  0.17154714  0.82643443  1
  Sb  Sb99  1  0.16702550  -0.00349450  0.83046271  1
  Sb  Sb100  1  0.66388494  -0.00126660  0.32762411  1
  Sb  Sb101  1  0.83389432  0.49478896  0.67066263  1
  Sb  Sb102  1  0.16879979  0.32876231  0.50261082  1
  Sb  Sb103  1  0.66952734  0.16655572  0.49811716  1
  Sb  Sb104  1  0.49959835  0.49848114  -0.00499488  1
  Sb  Sb105  1  0.83299610  0.49656822  -0.00471615  1
  Sb  Sb106  1  0.16420188  0.83411784  0.66450421  1
  Sb  Sb107  1  0.66167726  0.83393990  0.50196671  1
  Te  Te108  1  0.16578640  0.16048028  0.16383936  1
  Te  Te109  1  0.16195398  0.16191528  0.50587867  1
  Te  Te110  1  0.17192698  0.16454190  0.82694497  1
  Te  Te111  1  0.16161783  0.49982796  0.16773333  1
  Te  Te112  1  0.16049884  0.50103082  0.50702655  1
  Te  Te113  1  0.16585736  0.50443259  0.82820318  1
  Te  Te114  1  0.16531079  0.83803841  0.17112519  1
  Te  Te115  1  0.17109891  0.83837245  0.49683182  1
  Te  Te116  1  0.16584129  0.82627661  0.83421187  1
  Te  Te117  1  0.50021953  0.16555073  0.16703956  1
  Te  Te118  1  0.50046183  0.17150762  0.49467769  1
  Te  Te119  1  0.50102934  0.16919906  0.83569669  1
  Te  Te120  1  0.50014656  0.50479401  0.17455089  1
  Te  Te121  1  0.49980381  0.49414740  0.49930271  1
  Te  Te122  1  0.49821007  0.49762759  0.83175498  1
  Te  Te123  1  0.50458311  0.83027441  0.16266787  1
  Te  Te124  1  0.49479449  0.83635845  0.50152198  1
  Te  Te125  1  0.50479806  0.83511265  0.83783661  1
  Te  Te126  1  0.82749509  0.16733775  0.17286461  1
  Te  Te127  1  0.83596535  0.16346390  0.49907567  1
  Te  Te128  1  0.83450223  0.16802803  0.82957547  1
  Te  Te129  1  0.84057563  0.49884067  0.16647701  1
  Te  Te130  1  0.83983486  0.50110515  0.50097881  1
  Te  Te131  1  0.83644369  0.49984361  0.83312964  1
  Te  Te132  1  0.82389441  0.83286688  0.16794833  1
  Te  Te133  1  0.83207113  0.83937580  0.50685948  1
  Te  Te134  1  0.82669298  0.83647192  0.83075481  1
  Te  Te135  1  0.16618220  -0.00122376  0.00307052  1
  Te  Te136  1  0.16755259  0.00044223  0.33534872  1
  Te  Te137  1  0.16238052  0.00205686  0.66427775  1
  Te  Te138  1  0.17819752  0.33219373  0.00162438  1
  Te  Te139  1  0.16212931  0.33335385  0.33424768  1
  Te  Te140  1  0.16119973  0.33276137  0.66618004  1
  Te  Te141  1  0.16700302  0.66808199  -0.00498375  1
  Te  Te142  1  0.17075650  0.67185655  0.33237172  1
  Te  Te143  1  0.17211731  0.66593068  0.67194860  1
  Te  Te144  1  0.50166407  0.00313821  0.00044547  1
  Te  Te145  1  0.49721661  0.00398283  0.33128396  1
  Te  Te146  1  0.50088722  0.00501576  0.66968989  1
  Te  Te147  1  0.49722453  0.33126407  0.00284851  1
  Te  Te148  1  0.50282634  0.33296178  0.32504031  1
  Te  Te149  1  0.49752021  0.33208796  0.67063259  1
  Te  Te150  1  0.50007502  0.66210857  -0.00141988  1
  Te  Te151  1  0.49828131  0.66836702  0.33786358  1
  Te  Te152  1  0.49482018  0.66674184  0.66974053  1
  Te  Te153  1  0.82782626  0.00517148  -0.00445475  1
  Te  Te154  1  0.83491385  0.00413805  0.33248427  1
  Te  Te155  1  0.83308919  0.00505570  0.66957843  1
  Te  Te156  1  0.83317443  0.32593670  -0.00558971  1
  Te  Te157  1  0.83566701  0.32773430  0.33341862  1
  Te  Te158  1  0.84182907  0.32905267  0.66974350  1
  Te  Te159  1  0.83461524  0.66767992  -0.00611732  1
  Te  Te160  1  0.83297176  0.66717147  0.33332627  1
  Te  Te161  1  0.83231768  0.66634617  0.67314554  1
  Te  Te162  1  -0.00233353  0.16598191  0.00092975  1
  Te  Te163  1  0.00107705  0.16705010  0.33688593  1
  Te  Te164  1  -0.00081166  0.16754107  0.66598539  1
  Te  Te165  1  0.00006395  0.50293595  -0.00491609  1
  Te  Te166  1  0.00028644  0.49572764  0.33471443  1
  Te  Te167  1  0.00025942  0.49748598  0.66739139  1
  Te  Te168  1  0.00077226  0.82771873  0.00074339  1
  Te  Te169  1  0.00433048  0.83651139  0.33265254  1
  Te  Te170  1  -0.00482188  0.83597621  0.66604288  1
  Te  Te171  1  0.33826561  0.16989199  -0.00658388  1
  Te  Te172  1  0.33588438  0.16754891  0.33441152  1
  Te  Te173  1  0.33824653  0.16964177  0.66874707  1
  Te  Te174  1  0.33213649  0.50084786  -0.00448629  1
  Te  Te175  1  0.33589274  0.49879878  0.33400958  1
  Te  Te176  1  0.33320790  0.49765828  0.66768203  1
  Te  Te177  1  0.34161519  0.82688970  0.00069977  1
  Te  Te178  1  0.33139231  0.83590950  0.33500204  1
  Te  Te179  1  0.33363040  0.83229566  0.66100347  1
  Te  Te180  1  0.66566756  0.16690146  0.00348609  1
  Te  Te181  1  0.66546354  0.16705017  0.32901439  1
  Te  Te182  1  0.66582710  0.17169694  0.66481990  1
  Te  Te183  1  0.66862548  0.50771437  -0.00518605  1
  Te  Te184  1  0.66306051  0.50450092  0.33346138  1
  Te  Te185  1  0.66178449  0.49501917  0.67099831  1
  Te  Te186  1  0.66308555  0.83326966  -0.00178233  1
  Te  Te187  1  0.66696197  0.82856472  0.33333263  1
  Te  Te188  1  0.67114394  0.83150067  0.66975262  1
  Te  Te189  1  0.00070722  -0.00027866  0.16901390  1
  Te  Te190  1  0.00014628  0.00134891  0.50026544  1
  Te  Te191  1  -0.00274419  -0.00096940  0.83011196  1
  Te  Te192  1  0.00082907  0.33772059  0.16444812  1
  Te  Te193  1  -0.00028770  0.32961989  0.50118374  1
  Te  Te194  1  0.00079740  0.33882667  0.83238121  1
  Te  Te195  1  0.00014725  0.66216873  0.16104177  1
  Te  Te196  1  0.00037162  0.66388220  0.49953796  1
  Te  Te197  1  -0.00724011  0.66273011  0.83586252  1
  Te  Te198  1  0.33533085  0.00037480  0.17046115  1
  Te  Te199  1  0.33168740  -0.00156914  0.49574240  1
  Te  Te200  1  0.33711493  -0.00023067  0.83358464  1
  Te  Te201  1  0.33726731  0.33352327  0.17726076  1
  Te  Te202  1  0.33642291  0.33378702  0.49712671  1
  Te  Te203  1  0.33416089  0.33581523  0.82838712  1
  Te  Te204  1  0.33838746  0.66608133  0.17065657  1
  Te  Te205  1  0.33230284  0.66982720  0.49142511  1
  Te  Te206  1  0.33800309  0.66726319  0.83349914  1
  Te  Te207  1  0.66204377  0.00038457  0.16247578  1
  Te  Te208  1  0.67307226  -0.00127867  0.49833160  1
  Te  Te209  1  0.66574628  -0.00105955  0.83671626  1
  Te  Te210  1  0.66094051  0.33092527  0.16525958  1
  Te  Te211  1  0.66214300  0.33398379  0.50695293  1
  Te  Te212  1  0.66607753  0.33731884  0.83179543  1
  Te  Te213  1  0.66250296  0.66546402  0.16365873  1
  Te  Te214  1  0.66764934  0.66610430  0.49258066  1
  Te  Te215  1  0.66375060  0.66499726  0.83427559  1
