# generated using pymatgen
data_AgSbTe2
_symmetry_space_group_name_H-M   'P 1'
_cell_length_a   18.33447213
_cell_length_b   18.33956963
_cell_length_c   18.32831947
_cell_angle_alpha   90.00133021
_cell_angle_beta   89.99821677
_cell_angle_gamma   90.00114827
_symmetry_Int_Tables_number   1
_chemical_formula_structural   AgSbTe2
_chemical_formula_sum   'Ag54 Sb54 Te108'
_cell_volume   6162.83012014
_cell_formula_units_Z   54
loop_
 _symmetry_equiv_pos_site_id
 _symmetry_equiv_pos_as_xyz
  1  'x, y, z'
loop_
 _atom_site_type_symbol
 _atom_site_label
 _atom_site_symmetry_multiplicity
 _atom_site_fract_x
 _atom_site_fract_y
 _atom_site_fract_z
 _atom_site_occupancy
  Ag  Ag0  1  0.32977307  0.33329420  0.66617474  1
  Ag  Ag1  1  0.83998552  0.16491867  0.00148428  1
  Ag  Ag2  1  0.50090304  0.65865409  0.51076501  1
  Ag  Ag3  1  0.32827574  0.17817394  0.16202344  1
  Ag  Ag4  1  0.00058218  -0.00017842  0.34524659  1
  Ag  Ag5  1  0.00062005  0.33470063  0.34131529  1
  Ag  Ag6  1  0.66747009  0.50033668  0.17146051  1
  Ag  Ag7  1  0.84346385  0.00768608  0.50385262  1
  Ag  Ag8  1  0.32954490  0.83641234  0.50650773  1
  Ag  Ag9  1  -0.00096324  0.83031757  0.83375541  1
  Ag  Ag10  1  0.00437003  0.32993195  0.65932147  1
  Ag  Ag11  1  0.48846881  0.33804089  0.17026787  1
  Ag  Ag12  1  0.33872514  -0.00213703  0.66324078  1
  Ag  Ag13  1  0.50104491  -0.00265952  0.82058131  1
  Ag  Ag14  1  0.00051774  0.00007969  0.65948591  1
  Ag  Ag15  1  -0.00035347  0.66474452  0.32460574  1
  Ag  Ag16  1  0.84352175  0.83165167  -0.00736021  1
  Ag  Ag17  1  0.34183623  0.66748111  0.66653363  1
  Ag  Ag18  1  0.83155457  0.50678101  0.66290391  1
  Ag  Ag19  1  0.83821159  0.16745714  0.34319706  1
  Ag  Ag20  1  0.00304315  0.50947433  0.17202646  1
  Ag  Ag21  1  0.49633536  0.16857087  -0.00092528  1
  Ag  Ag22  1  0.00269629  0.82337077  0.15975576  1
  Ag  Ag23  1  0.50321960  0.33733361  0.50122082  1
  Ag  Ag24  1  0.16476447  0.16654881  0.66900943  1
  Ag  Ag25  1  0.16957806  0.33643378  0.15897266  1
  Ag  Ag26  1  0.50341726  0.51297074  0.66087227  1
  Ag  Ag27  1  0.84714377  0.66457270  0.16104005  1
  Ag  Ag28  1  0.66009819  -0.00225772  0.66436124  1
  Ag  Ag29  1  0.50108235  0.82515185  0.66548387  1
  Ag  Ag30  1  0.16530327  0.49873694  0.00463978  1
  Ag  Ag31  1  0.50080730  0.00024564  0.50491187  1
  Ag  Ag32  1  0.00155310  0.84501541  0.50277793  1
  Ag  Ag33  1  0.84215857  0.32745328  0.50240936  1
  Ag  Ag34  1  0.50063399  0.66951823  0.82294310  1
  Ag  Ag35  1  -0.00474113  0.15952798  0.50052512  1
  Ag  Ag36  1  0.66517105  0.49497536  0.50268740  1
  Ag  Ag37  1  0.16414947  0.00307775  0.16654662  1
  Ag  Ag38  1  -0.00445853  0.49762206  0.49819751  1
  Ag  Ag39  1  0.15849563  0.66541985  0.83675302  1
  Ag  Ag40  1  0.66700775  0.16564060  0.82359398  1
  Ag  Ag41  1  0.16114846  0.82413156  0.00123760  1
  Ag  Ag42  1  0.50145144  0.49853026  0.34438834  1
  Ag  Ag43  1  0.00307606  0.67084251  0.01061903  1
  Ag  Ag44  1  0.16579585  0.17088299  -0.00018670  1
  Ag  Ag45  1  0.32817518  0.33109022  0.00745998  1
  Ag  Ag46  1  0.16633012  0.33477336  0.83848477  1
  Ag  Ag47  1  0.15819659  0.65818663  0.15582282  1
  Ag  Ag48  1  0.67433875  0.16955234  0.50531857  1
  Ag  Ag49  1  0.15512044  0.00059631  0.50330228  1
  Ag  Ag50  1  0.84001227  0.67001902  0.83159881  1
  Ag  Ag51  1  0.83656270  0.82928957  0.66899894  1
  Ag  Ag52  1  0.65645768  0.66817186  0.66604925  1
  Ag  Ag53  1  0.32392421  0.49515706  0.16563656  1
  Sb  Sb54  1  0.32763010  0.00074805  0.34022889  1
  Sb  Sb55  1  0.16164755  0.83354834  0.32938422  1
  Sb  Sb56  1  0.49433311  0.49731379  -0.00110086  1
  Sb  Sb57  1  0.16088360  0.16668945  0.33321071  1
  Sb  Sb58  1  0.67069799  0.33483046  0.33637087  1
  Sb  Sb59  1  0.32900373  0.33375386  0.33341380  1
  Sb  Sb60  1  0.32566394  0.66157603  -0.00474613  1
  Sb  Sb61  1  0.66788059  0.00302899  -0.00640077  1
  Sb  Sb62  1  0.67569874  0.82729649  0.16372584  1
  Sb  Sb63  1  0.49702310  0.83602579  -0.00728568  1
  Sb  Sb64  1  0.16679518  0.67085539  0.50358418  1
  Sb  Sb65  1  0.00702954  0.33587460  -0.00036771  1
  Sb  Sb66  1  0.83111518  -0.00340660  0.82579470  1
  Sb  Sb67  1  0.83864658  0.83429154  0.33815767  1
  Sb  Sb68  1  0.50430486  0.17221553  0.33413173  1
  Sb  Sb69  1  0.33462124  0.50163976  0.49911834  1
  Sb  Sb70  1  0.83956196  0.33484213  0.82676406  1
  Sb  Sb71  1  0.33035028  0.00536785  -0.00446427  1
  Sb  Sb72  1  0.33249412  0.49970435  0.83383337  1
  Sb  Sb73  1  -0.00186914  0.16205672  0.82898204  1
  Sb  Sb74  1  0.66468752  0.17068236  0.16816914  1
  Sb  Sb75  1  0.67128337  0.66328721  0.33905480  1
  Sb  Sb76  1  0.67124244  0.83447521  0.82873336  1
  Sb  Sb77  1  0.49299853  0.00491002  0.16931284  1
  Sb  Sb78  1  0.16476571  0.83714281  0.66901891  1
  Sb  Sb79  1  0.32557816  0.83078944  0.16949967  1
  Sb  Sb80  1  0.66631779  0.33276960  0.66313277  1
  Sb  Sb81  1  0.83737762  0.33653893  0.17007174  1
  Sb  Sb82  1  0.49720794  0.65964914  0.16651330  1
  Sb  Sb83  1  0.66900209  0.83402432  0.50506240  1
  Sb  Sb84  1  0.33213751  0.16386636  0.50025668  1
  Sb  Sb85  1  0.83962207  0.50064768  -0.00131946  1
  Sb  Sb86  1  0.00074231  0.66857374  0.66548908  1
  Sb  Sb87  1  0.33467470  0.16736462  0.83519813  1
  Sb  Sb88  1  0.49888542  0.82849521  0.34432921  1
  Sb  Sb89  1  0.00133962  0.50508135  0.83154952  1
  Sb  Sb90  1  0.83670647  0.16471684  0.66372980  1
  Sb  Sb91  1  0.16234243  0.32899098  0.50172242  1
  Sb  Sb92  1  0.84076845  -0.00350954  0.17079233  1
  Sb  Sb93  1  0.16889454  0.00045928  0.83021083  1
  Sb  Sb94  1  0.66133071  0.33277106  0.00067438  1
  Sb  Sb95  1  0.83463568  0.49727738  0.33950774  1
  Sb  Sb96  1  0.49693493  0.16389210  0.66830825  1
  Sb  Sb97  1  0.49482841  0.33267329  0.82966071  1
  Sb  Sb98  1  0.00435174  0.16747006  0.17057303  1
  Sb  Sb99  1  0.83266738  0.66605333  0.50416859  1
  Sb  Sb100  1  0.66620526  0.49731898  0.82852712  1
  Sb  Sb101  1  0.16608066  0.49684095  0.66941285  1
  Sb  Sb102  1  0.32863546  0.66348001  0.33652679  1
  Sb  Sb103  1  0.67278024  0.00256849  0.34353890  1
  Sb  Sb104  1  0.32803627  0.83199470  0.82726705  1
  Sb  Sb105  1  0.16460965  0.49919795  0.32774281  1
  Sb  Sb106  1  0.00153611  -0.00580623  -0.00178716  1
  Sb  Sb107  1  0.67300103  0.66511257  -0.00635881  1
  Te  Te108  1  0.16828355  0.16632942  0.16584381  1
  Te  Te109  1  0.16424316  0.16165558  0.50276293  1
  Te  Te110  1  0.16617669  0.16837169  0.83345924  1
  Te  Te111  1  0.16420888  0.49882751  0.16601829  1
  Te  Te112  1  0.16205759  0.50101210  0.49922768  1
  Te  Te113  1  0.16648141  0.50133003  0.83894283  1
  Te  Te114  1  0.16331754  0.83580728  0.16249707  1
  Te  Te115  1  0.16489979  0.83802993  0.50039118  1
  Te  Te116  1  0.16156759  0.83183716  0.83883368  1
  Te  Te117  1  0.49709565  0.17200043  0.16364571  1
  Te  Te118  1  0.50094462  0.17001397  0.49863236  1
  Te  Te119  1  0.50372167  0.16539302  0.83782617  1
  Te  Te120  1  0.50236700  0.49631298  0.16290392  1
  Te  Te121  1  0.49716850  0.49886727  0.50263603  1
  Te  Te122  1  0.50094292  0.50396062  0.82770453  1
  Te  Te123  1  0.49827909  0.83320395  0.16513571  1
  Te  Te124  1  0.50144774  0.83453039  0.50590235  1
  Te  Te125  1  0.50021703  0.83441736  0.82898134  1
  Te  Te126  1  0.83192011  0.16667219  0.16151489  1
  Te  Te127  1  0.83445697  0.16796184  0.50302660  1
  Te  Te128  1  0.82925788  0.16679748  0.83893239  1
  Te  Te129  1  0.83496445  0.50321944  0.16693633  1
  Te  Te130  1  0.83281409  0.49900768  0.50290089  1
  Te  Te131  1  0.83284678  0.50499343  0.82734631  1
  Te  Te132  1  0.84009884  0.82834604  0.16338307  1
  Te  Te133  1  0.83695609  0.83514194  0.50576752  1
  Te  Te134  1  0.83692570  0.83088867  0.83180501  1
  Te  Te135  1  0.16729913  0.00845500  0.00098600  1
  Te  Te136  1  0.16091253  0.00008922  0.33617752  1
  Te  Te137  1  0.16559800  0.00291201  0.66503752  1
  Te  Te138  1  0.16837820  0.33214481  -0.00034299  1
  Te  Te139  1  0.16049926  0.33303133  0.32761716  1
  Te  Te140  1  0.16673872  0.33127384  0.66736625  1
  Te  Te141  1  0.16454329  0.66535441  -0.00302430  1
  Te  Te142  1  0.16083320  0.66634958  0.33033616  1
  Te  Te143  1  0.17221335  0.66617369  0.67252762  1
  Te  Te144  1  0.49938737  0.00543838  -0.00004445  1
  Te  Te145  1  0.50036253  -0.00078291  0.33875743  1
  Te  Te146  1  0.49985400  0.00393584  0.66489511  1
  Te  Te147  1  0.49305452  0.32998192  -0.00076435  1
  Te  Te148  1  0.49979938  0.33748370  0.33416731  1
  Te  Te149  1  0.49625625  0.33165381  0.66381945  1
  Te  Te150  1  0.50006609  0.66866463  -0.00636843  1
  Te  Te151  1  0.50011207  0.66106403  0.33654148  1
  Te  Te152  1  0.49948706  0.66920329  0.66642847  1
  Te  Te153  1  0.83363410  0.00017347  0.00105841  1
  Te  Te154  1  0.83936690  0.00385035  0.33880898  1
  Te  Te155  1  0.83474698  -0.00190763  0.66314590  1
  Te  Te156  1  0.83333314  0.32904626  -0.00226818  1
  Te  Te157  1  0.83991982  0.32941269  0.33797902  1
  Te  Te158  1  0.83658512  0.33761452  0.66216091  1
  Te  Te159  1  0.83765933  0.66784501  -0.00258891  1
  Te  Te160  1  0.83804446  0.66664979  0.32779985  1
  Te  Te161  1  0.83453820  0.66816144  0.66889126  1
  Te  Te162  1  0.00104933  0.16639362  -0.00160341  1
  Te  Te163  1  -0.00345158  0.16648974  0.33714680  1
  Te  Te164  1  0.00278162  0.16689265  0.66385138  1
  Te  Te165  1  0.00435395  0.50490350  0.00326666  1
  Te  Te166  1  -0.00071390  0.49966186  0.33372152  1
  Te  Te167  1  -0.00134776  0.49692918  0.66409664  1
  Te  Te168  1  0.00067384  0.83228368  0.00026775  1
  Te  Te169  1  -0.00132340  0.83456365  0.34012918  1
  Te  Te170  1  -0.00096169  0.83494124  0.66384789  1
  Te  Te171  1  0.33078662  0.17059468  0.00157292  1
  Te  Te172  1  0.33495356  0.16599047  0.32366825  1
  Te  Te173  1  0.32661168  0.16818723  0.66662185  1
  Te  Te174  1  0.32774383  0.49370914  0.00439847  1
  Te  Te175  1  0.34097469  0.50013747  0.32651841  1
  Te  Te176  1  0.33660181  0.49852712  0.66639590  1
  Te  Te177  1  0.32726692  0.83441342  0.00004559  1
  Te  Te178  1  0.33256822  0.83215340  0.34403948  1
  Te  Te179  1  0.33329815  0.83476754  0.66438283  1
  Te  Te180  1  0.66429127  0.16725587  0.00043387  1
  Te  Te181  1  0.67565452  0.16734080  0.34002538  1
  Te  Te182  1  0.66740487  0.16381765  0.66403742  1
  Te  Te183  1  0.66730870  0.49944493  0.00480473  1
  Te  Te184  1  0.66241190  0.50075456  0.33615863  1
  Te  Te185  1  0.66600006  0.49973056  0.66349834  1
  Te  Te186  1  0.67342441  0.83427060  -0.00128109  1
  Te  Te187  1  0.66749286  0.83312318  0.33208296  1
  Te  Te188  1  0.66632059  0.83351284  0.66712320  1
  Te  Te189  1  0.00504957  -0.00173994  0.16758338  1
  Te  Te190  1  -0.00066558  0.00168997  0.50154481  1
  Te  Te191  1  0.00016602  -0.00696006  0.82606460  1
  Te  Te192  1  0.00395947  0.33583609  0.16752782  1
  Te  Te193  1  0.00121578  0.33619081  0.50090938  1
  Te  Te194  1  0.00621746  0.33319863  0.82802801  1
  Te  Te195  1  0.00286750  0.66703443  0.16745051  1
  Te  Te196  1  0.00050308  0.65889397  0.49710613  1
  Te  Te197  1  -0.00030447  0.67046281  0.83216075  1
  Te  Te198  1  0.32576691  -0.00042184  0.16876175  1
  Te  Te199  1  0.33945445  -0.00167003  0.50438818  1
  Te  Te200  1  0.33976413  -0.00052627  0.82527384  1
  Te  Te201  1  0.33158590  0.33513464  0.16884690  1
  Te  Te202  1  0.33488022  0.33283122  0.50305967  1
  Te  Te203  1  0.32751100  0.33354301  0.82805233  1
  Te  Te204  1  0.32720534  0.66233239  0.16652848  1
  Te  Te205  1  0.33561180  0.67066442  0.50384257  1
  Te  Te206  1  0.33631309  0.66631749  0.82845119  1
  Te  Te207  1  0.66469632  -0.00114273  0.16874276  1
  Te  Te208  1  0.66266038  0.00172460  0.50514111  1
  Te  Te209  1  0.66168008  0.00439071  0.82694733  1
  Te  Te210  1  0.66445790  0.33974388  0.16814840  1
  Te  Te211  1  0.66471452  0.33441858  0.50030387  1
  Te  Te212  1  0.66757936  0.32651714  0.83268486  1
  Te  Te213  1  0.66696793  0.66098276  0.16635291  1
  Te  Te214  1  0.66370580  0.66246028  0.50531399  1
  Te  Te215  1  0.66605493  0.66473412  0.82695389  1
