# generated using pymatgen
data_AgSbTe2
_symmetry_space_group_name_H-M   'P 1'
_cell_length_a   18.32217525
_cell_length_b   18.32152012
_cell_length_c   18.32463692
_cell_angle_alpha   89.99973974
_cell_angle_beta   89.99931636
_cell_angle_gamma   90.00101726
_symmetry_Int_Tables_number   1
_chemical_formula_structural   AgSbTe2
_chemical_formula_sum   'Ag54 Sb54 Te108'
_cell_volume   6151.39924459
_cell_formula_units_Z   54
loop_
 _symmetry_equiv_pos_site_id
 _symmetry_equiv_pos_as_xyz
  1  'x, y, z'
loop_
 _atom_site_type_symbol
 _atom_site_label
 _atom_site_symmetry_multiplicity
 _atom_site_fract_x
 _atom_site_fract_y
 _atom_site_fract_z
 _atom_site_occupancy
  Ag  Ag0  1  0.00394331  0.83102275  0.15978534  1
  Ag  Ag1  1  0.49573525  0.33890280  0.16550527  1
  Ag  Ag2  1  0.65660622  0.66793671  0.67305838  1
  Ag  Ag3  1  0.83435195  0.51104072  0.67002852  1
  Ag  Ag4  1  0.66393353  0.66377514  -0.00582925  1
  Ag  Ag5  1  0.49763458  0.66304790  0.51408901  1
  Ag  Ag6  1  0.16239625  0.16368472  0.68124182  1
  Ag  Ag7  1  0.50145378  0.66719693  0.82630469  1
  Ag  Ag8  1  0.84245365  0.17047060  -0.00492582  1
  Ag  Ag9  1  0.33690875  0.50428943  0.50146164  1
  Ag  Ag10  1  0.66815370  0.33491325  -0.00025067  1
  Ag  Ag11  1  0.16469376  0.83083100  0.67861336  1
  Ag  Ag12  1  0.49670054  -0.00758014  0.16366982  1
  Ag  Ag13  1  0.16625823  0.49481347  -0.00204259  1
  Ag  Ag14  1  0.50104883  0.34558465  0.49447636  1
  Ag  Ag15  1  0.33335582  0.50410795  0.16638307  1
  Ag  Ag16  1  0.16154354  0.17274095  -0.00127028  1
  Ag  Ag17  1  0.83993679  0.82897614  0.34014646  1
  Ag  Ag18  1  0.16273206  0.32933583  0.84066117  1
  Ag  Ag19  1  0.83878320  0.33434060  0.83533127  1
  Ag  Ag20  1  0.00341567  0.00622115  -0.00122857  1
  Ag  Ag21  1  0.33234329  0.66645794  0.33309810  1
  Ag  Ag22  1  0.32874682  0.50706961  0.83192612  1
  Ag  Ag23  1  0.16895447  0.33701402  0.15795085  1
  Ag  Ag24  1  0.49576390  0.66359255  0.16448248  1
  Ag  Ag25  1  0.16375374  0.83064031  0.32827903  1
  Ag  Ag26  1  0.49659089  0.82815074  -0.00320209  1
  Ag  Ag27  1  0.83946538  0.16732731  0.67694956  1
  Ag  Ag28  1  0.49912745  0.82270706  0.67357042  1
  Ag  Ag29  1  0.83486272  -0.00529545  0.50171906  1
  Ag  Ag30  1  0.16461340  0.83279105  -0.00524389  1
  Ag  Ag31  1  0.66383061  0.33318557  0.32776623  1
  Ag  Ag32  1  0.16689390  0.16378031  0.32278133  1
  Ag  Ag33  1  0.33099800  -0.01017954  0.33117012  1
  Ag  Ag34  1  0.67149269  0.17027090  0.83654117  1
  Ag  Ag35  1  0.00459544  0.50374525  0.50988575  1
  Ag  Ag36  1  0.00491483  0.66819084  0.33346243  1
  Ag  Ag37  1  0.66876536  0.83051105  0.50304746  1
  Ag  Ag38  1  0.16608411  0.00165044  0.83651371  1
  Ag  Ag39  1  0.00757445  0.82610959  0.83601760  1
  Ag  Ag40  1  0.00403046  0.50634219  0.83102475  1
  Ag  Ag41  1  0.32435765  0.82695943  0.83098508  1
  Ag  Ag42  1  0.16674556  0.66713066  0.16747879  1
  Ag  Ag43  1  0.32532424  0.16733577  0.83420199  1
  Ag  Ag44  1  -0.00144172  0.66732377  0.66928825  1
  Ag  Ag45  1  0.34328981  0.66669898  0.66907153  1
  Ag  Ag46  1  0.49844841  0.50997099  0.66308043  1
  Ag  Ag47  1  0.00672564  0.32816466  -0.00179339  1
  Ag  Ag48  1  0.00413668  0.16337745  0.15947223  1
  Ag  Ag49  1  0.83588372  0.82592123  0.66701070  1
  Ag  Ag50  1  0.49626738  0.50303239  0.33871840  1
  Ag  Ag51  1  0.83285521  0.66394788  0.82986694  1
  Ag  Ag52  1  0.84096978  0.66851160  0.16163652  1
  Ag  Ag53  1  0.49975312  0.16610828  -0.00059100  1
  Sb  Sb54  1  0.33593616  0.33870237  0.33194795  1
  Sb  Sb55  1  0.66737507  0.50058361  0.83384567  1
  Sb  Sb56  1  0.33235422  0.34130182  0.66913037  1
  Sb  Sb57  1  0.66742996  0.33867745  0.67076676  1
  Sb  Sb58  1  0.66726582  0.83187975  0.83074016  1
  Sb  Sb59  1  0.83300887  -0.00462283  0.16775361  1
  Sb  Sb60  1  0.00076836  0.17191561  0.49871945  1
  Sb  Sb61  1  0.16939707  -0.00149284  0.16126392  1
  Sb  Sb62  1  0.33635895  0.66764639  -0.00238555  1
  Sb  Sb63  1  0.66805000  0.16894908  0.15922913  1
  Sb  Sb64  1  0.32912576  0.16985216  0.16245938  1
  Sb  Sb65  1  -0.00041687  0.66728074  -0.00160281  1
  Sb  Sb66  1  0.16725514  0.66722094  0.83822324  1
  Sb  Sb67  1  0.66004170  0.50066335  0.16679439  1
  Sb  Sb68  1  0.83818125  0.16372568  0.33085490  1
  Sb  Sb69  1  0.00485136  -0.00770402  0.32897738  1
  Sb  Sb70  1  0.17034896  0.66659974  0.49739699  1
  Sb  Sb71  1  0.32865311  0.82691775  0.16279015  1
  Sb  Sb72  1  0.83606454  0.83286510  -0.00262790  1
  Sb  Sb73  1  0.32868334  -0.00039948  0.00223804  1
  Sb  Sb74  1  0.83503955  0.33863554  0.15884354  1
  Sb  Sb75  1  0.66630885  0.16496096  0.50700500  1
  Sb  Sb76  1  0.83099690  0.50651987  0.33842030  1
  Sb  Sb77  1  0.66300151  0.00255369  0.33315481  1
  Sb  Sb78  1  0.83956226  0.49806356  -0.00685166  1
  Sb  Sb79  1  0.49359979  -0.00625640  0.83833748  1
  Sb  Sb80  1  0.16721016  0.50594354  0.67354922  1
  Sb  Sb81  1  0.50152033  -0.00591119  0.49649797  1
  Sb  Sb82  1  -0.00118004  0.33882906  0.32696981  1
  Sb  Sb83  1  -0.00255867  0.82744927  0.50185913  1
  Sb  Sb84  1  0.16265694  -0.00165324  0.50275389  1
  Sb  Sb85  1  0.33032784  0.33345646  -0.00057999  1
  Sb  Sb86  1  0.00321279  0.16900739  0.83953921  1
  Sb  Sb87  1  0.82970349  0.66955581  0.50813464  1
  Sb  Sb88  1  0.66455704  0.66486422  0.33400266  1
  Sb  Sb89  1  0.82887000  0.33386957  0.50613874  1
  Sb  Sb90  1  0.49894923  0.33812379  0.83701455  1
  Sb  Sb91  1  0.84038842  -0.00036914  0.83140175  1
  Sb  Sb92  1  0.16971833  0.33567168  0.50061640  1
  Sb  Sb93  1  0.66843367  -0.00013669  -0.00176294  1
  Sb  Sb94  1  0.00033855  -0.00590532  0.67279700  1
  Sb  Sb95  1  0.66886564  -0.00723883  0.66798849  1
  Sb  Sb96  1  0.49852822  0.16764041  0.67565804  1
  Sb  Sb97  1  0.17166925  0.50310745  0.32743977  1
  Sb  Sb98  1  0.49774497  0.82539809  0.33128824  1
  Sb  Sb99  1  0.33617249  0.82567950  0.50392593  1
  Sb  Sb100  1  0.00653008  0.50435918  0.16188439  1
  Sb  Sb101  1  0.33143908  -0.00701761  0.66561448  1
  Sb  Sb102  1  0.49472154  0.50229373  -0.00118830  1
  Sb  Sb103  1  0.66100845  0.50491310  0.50204452  1
  Sb  Sb104  1  0.49500733  0.17225097  0.32605799  1
  Sb  Sb105  1  0.00026438  0.33842657  0.67495607  1
  Sb  Sb106  1  0.33367610  0.17119519  0.50353109  1
  Sb  Sb107  1  0.66801260  0.82971020  0.16852114  1
  Te  Te108  1  0.16438669  0.16586925  0.16260824  1
  Te  Te109  1  0.16705327  0.16758948  0.49909800  1
  Te  Te110  1  0.16498702  0.16861620  0.83740236  1
  Te  Te111  1  0.17114440  0.49947365  0.16220556  1
  Te  Te112  1  0.16768316  0.49880000  0.50081849  1
  Te  Te113  1  0.16741375  0.49891051  0.83663491  1
  Te  Te114  1  0.16440296  0.83208338  0.16826661  1
  Te  Te115  1  0.16641482  0.83443630  0.49587364  1
  Te  Te116  1  0.16695167  0.83056709  0.83466501  1
  Te  Te117  1  0.49949323  0.17459007  0.16030844  1
  Te  Te118  1  0.50007378  0.16791282  0.50071544  1
  Te  Te119  1  0.49411919  0.16622525  0.83829674  1
  Te  Te120  1  0.49474625  0.49950359  0.16544320  1
  Te  Te121  1  0.49899946  0.50240362  0.50148335  1
  Te  Te122  1  0.49565410  0.50468972  0.83029460  1
  Te  Te123  1  0.49894148  0.83056115  0.16314331  1
  Te  Te124  1  0.50388829  0.82941650  0.50211514  1
  Te  Te125  1  0.50049337  0.82958174  0.83467727  1
  Te  Te126  1  0.84020274  0.16658522  0.16196958  1
  Te  Te127  1  0.83273695  0.16372641  0.50197435  1
  Te  Te128  1  0.83624372  0.16598284  0.83479456  1
  Te  Te129  1  0.83447828  0.50805765  0.16776728  1
  Te  Te130  1  0.83800798  0.49889412  0.50703844  1
  Te  Te131  1  0.83459640  0.50195996  0.82906266  1
  Te  Te132  1  0.83803204  0.82871187  0.16672718  1
  Te  Te133  1  0.83205674  0.83383267  0.50238028  1
  Te  Te134  1  0.83529473  0.83100810  0.82880430  1
  Te  Te135  1  0.16355753  -0.00518782  -0.00290834  1
  Te  Te136  1  0.17038250  -0.00124583  0.33382397  1
  Te  Te137  1  0.16656182  -0.00125713  0.67122676  1
  Te  Te138  1  0.16655532  0.33183354  0.00077103  1
  Te  Te139  1  0.16529342  0.32938184  0.32961179  1
  Te  Te140  1  0.16598964  0.32600082  0.66936998  1
  Te  Te141  1  0.16637717  0.67281481  0.00691277  1
  Te  Te142  1  0.16726407  0.66803312  0.33047942  1
  Te  Te143  1  0.15879746  0.67148661  0.66493179  1
  Te  Te144  1  0.50002621  -0.00077104  0.00418005  1
  Te  Te145  1  0.49474699  0.00046426  0.32784189  1
  Te  Te146  1  0.49999120  -0.00695109  0.66583373  1
  Te  Te147  1  0.50445136  0.33274882  0.00209170  1
  Te  Te148  1  0.50205627  0.33661728  0.33003727  1
  Te  Te149  1  0.50082251  0.33765977  0.66471636  1
  Te  Te150  1  0.50241636  0.66728833  0.00404955  1
  Te  Te151  1  0.49869514  0.66245157  0.32388596  1
  Te  Te152  1  0.50033034  0.66705838  0.66935099  1
  Te  Te153  1  0.83878356  0.00621665  0.00026350  1
  Te  Te154  1  0.83307870  -0.00581213  0.33675602  1
  Te  Te155  1  0.83435999  0.00228325  0.66357599  1
  Te  Te156  1  0.82964780  0.33125462  -0.00460071  1
  Te  Te157  1  0.82798808  0.33438081  0.33314931  1
  Te  Te158  1  0.83344739  0.32736793  0.67378717  1
  Te  Te159  1  0.82873481  0.66610242  -0.00263743  1
  Te  Te160  1  0.83238862  0.67034968  0.33051330  1
  Te  Te161  1  0.83876631  0.66755700  0.66837296  1
  Te  Te162  1  0.00163500  0.16744035  0.00005648  1
  Te  Te163  1  0.00572547  0.16648360  0.32846394  1
  Te  Te164  1  0.00089896  0.16582376  0.66488694  1
  Te  Te165  1  0.00617431  0.49578044  -0.00541890  1
  Te  Te166  1  0.00023909  0.50738972  0.33414673  1
  Te  Te167  1  -0.00015946  0.50356991  0.66963613  1
  Te  Te168  1  0.00099254  0.83311337  -0.00044572  1
  Te  Te169  1  0.00104662  0.82837168  0.33388929  1
  Te  Te170  1  0.00096010  0.82997535  0.66788469  1
  Te  Te171  1  0.33461064  0.16513447  -0.00472397  1
  Te  Te172  1  0.32648149  0.16719134  0.33414925  1
  Te  Te173  1  0.32890486  0.16492037  0.67174869  1
  Te  Te174  1  0.32642396  0.50079612  -0.00293099  1
  Te  Te175  1  0.33642651  0.50485384  0.33329505  1
  Te  Te176  1  0.33423955  0.50622417  0.66899142  1
  Te  Te177  1  0.33422060  0.83450674  -0.00629320  1
  Te  Te178  1  0.32997005  0.82850820  0.33354389  1
  Te  Te179  1  0.33120970  0.82818796  0.66993387  1
  Te  Te180  1  0.66407571  0.16719645  -0.00401432  1
  Te  Te181  1  0.66755160  0.17200114  0.33431629  1
  Te  Te182  1  0.66884568  0.16731858  0.67413764  1
  Te  Te183  1  0.66814620  0.50011972  -0.00021908  1
  Te  Te184  1  0.66109787  0.49390807  0.33468924  1
  Te  Te185  1  0.66822213  0.50631253  0.66748331  1
  Te  Te186  1  0.66331584  0.82945392  -0.00064387  1
  Te  Te187  1  0.67106921  0.83372828  0.33826863  1
  Te  Te188  1  0.66905579  0.82768248  0.66477212  1
  Te  Te189  1  -0.00033391  -0.00263411  0.16182776  1
  Te  Te190  1  -0.00563735  0.00208828  0.49902347  1
  Te  Te191  1  0.00581126  -0.01061438  0.83828537  1
  Te  Te192  1  0.00342815  0.33245263  0.16100204  1
  Te  Te193  1  -0.00067534  0.34218212  0.49791345  1
  Te  Te194  1  -0.00018529  0.33824900  0.83773377  1
  Te  Te195  1  0.00149704  0.66958377  0.16648918  1
  Te  Te196  1  -0.00066065  0.66171431  0.49764489  1
  Te  Te197  1  -0.00116628  0.66638335  0.83309540  1
  Te  Te198  1  0.33789488  0.00030938  0.17235194  1
  Te  Te199  1  0.33329445  0.00085106  0.49179151  1
  Te  Te200  1  0.32688147  0.00001787  0.83330155  1
  Te  Te201  1  0.33204010  0.33917871  0.16687728  1
  Te  Te202  1  0.34041778  0.34044671  0.50043267  1
  Te  Te203  1  0.32874558  0.33308957  0.83271032  1
  Te  Te204  1  0.33120232  0.66401371  0.16819566  1
  Te  Te205  1  0.33713702  0.66198781  0.49886279  1
  Te  Te206  1  0.33440834  0.66751158  0.83104725  1
  Te  Te207  1  0.65768342  0.00054837  0.16702053  1
  Te  Te208  1  0.67117518  -0.00579035  0.49943068  1
  Te  Te209  1  0.66551343  0.01000265  0.83350978  1
  Te  Te210  1  0.66544099  0.33402444  0.16386458  1
  Te  Te211  1  0.66077256  0.33285552  0.49830318  1
  Te  Te212  1  0.66845138  0.33051965  0.83805268  1
  Te  Te213  1  0.66450527  0.66669237  0.16301411  1
  Te  Te214  1  0.66034996  0.67053183  0.50201115  1
  Te  Te215  1  0.66683458  0.66694591  0.83319347  1
