# generated using pymatgen
data_AgSbTe2
_symmetry_space_group_name_H-M   'P 1'
_cell_length_a   18.30874277
_cell_length_b   18.31352550
_cell_length_c   18.31259168
_cell_angle_alpha   90.00046441
_cell_angle_beta   90.00033947
_cell_angle_gamma   89.99934220
_symmetry_Int_Tables_number   1
_chemical_formula_structural   AgSbTe2
_chemical_formula_sum   'Ag54 Sb54 Te108'
_cell_volume   6140.16854510
_cell_formula_units_Z   54
loop_
 _symmetry_equiv_pos_site_id
 _symmetry_equiv_pos_as_xyz
  1  'x, y, z'
loop_
 _atom_site_type_symbol
 _atom_site_label
 _atom_site_symmetry_multiplicity
 _atom_site_fract_x
 _atom_site_fract_y
 _atom_site_fract_z
 _atom_site_occupancy
  Ag  Ag0  1  0.66721782  0.01046631  0.33599847  1
  Ag  Ag1  1  -0.00089913  0.82549153  0.17244405  1
  Ag  Ag2  1  -0.00036163  0.50594358  0.49552798  1
  Ag  Ag3  1  0.50340365  0.83790266  0.33689058  1
  Ag  Ag4  1  0.82964167  0.33049569  0.49515795  1
  Ag  Ag5  1  0.66631651  0.83565303  0.82903284  1
  Ag  Ag6  1  0.66201558  0.00786969  0.66575145  1
  Ag  Ag7  1  0.83225970  0.16887475  0.01223059  1
  Ag  Ag8  1  -0.01167417  0.16888189  0.16934648  1
  Ag  Ag9  1  0.16482787  -0.00662420  0.50075219  1
  Ag  Ag10  1  0.16672896  0.33344417  0.83226905  1
  Ag  Ag11  1  0.83199811  0.32322123  0.16874925  1
  Ag  Ag12  1  0.16449261  0.16581473  0.33446289  1
  Ag  Ag13  1  0.16683918  0.50350575  0.66215917  1
  Ag  Ag14  1  0.50031510  0.00514919  0.82720279  1
  Ag  Ag15  1  0.16537486  0.83028840  0.00285360  1
  Ag  Ag16  1  0.16150728  0.50171245  0.34021071  1
  Ag  Ag17  1  0.16061133  0.66771895  0.82945523  1
  Ag  Ag18  1  0.66758130  0.66546907  0.66516031  1
  Ag  Ag19  1  0.83762903  0.66777169  0.16524940  1
  Ag  Ag20  1  0.00051944  0.66961963  0.33377243  1
  Ag  Ag21  1  0.17298332  -0.00133784  0.82853101  1
  Ag  Ag22  1  0.15942381  0.66774853  0.50204703  1
  Ag  Ag23  1  0.67679315  0.16735831  0.17882135  1
  Ag  Ag24  1  0.50789138  0.16346794  0.66508547  1
  Ag  Ag25  1  0.51249769  0.16671400  0.33692197  1
  Ag  Ag26  1  0.00211194  0.82344733  0.49150559  1
  Ag  Ag27  1  0.66683984  0.32603728  0.66194386  1
  Ag  Ag28  1  0.66667097  0.32363704  0.34066689  1
  Ag  Ag29  1  0.82938028  0.33051818  0.83320631  1
  Ag  Ag30  1  0.50075418  0.66733090  0.50277169  1
  Ag  Ag31  1  0.83114438  0.01007892  0.16905134  1
  Ag  Ag32  1  0.32582838  0.83281452  0.16879506  1
  Ag  Ag33  1  0.66900518  0.17077785  0.49202055  1
  Ag  Ag34  1  -0.00327801  0.33816849  0.00251706  1
  Ag  Ag35  1  0.50826466  0.33180218  0.16863133  1
  Ag  Ag36  1  0.82488265  0.16945443  0.66555982  1
  Ag  Ag37  1  -0.00141661  0.66545769  0.66032860  1
  Ag  Ag38  1  0.34282631  0.00109638  0.66924434  1
  Ag  Ag39  1  0.33812037  0.32980947  0.33152513  1
  Ag  Ag40  1  0.83877587  0.83621228  0.33086277  1
  Ag  Ag41  1  0.33496821  0.16549014  0.83176676  1
  Ag  Ag42  1  0.00165142  0.66402509  0.00593246  1
  Ag  Ag43  1  0.66974172  0.49293257  0.50237522  1
  Ag  Ag44  1  0.50127107  0.49833588  -0.00552209  1
  Ag  Ag45  1  0.50398922  0.83777359  0.66425557  1
  Ag  Ag46  1  0.15837132  0.83252785  0.33292124  1
  Ag  Ag47  1  0.82527208  0.16634686  0.32422825  1
  Ag  Ag48  1  -0.00167824  0.50642829  0.17159392  1
  Ag  Ag49  1  0.32381201  0.66875557  -0.00025627  1
  Ag  Ag50  1  0.50289736  0.49883685  0.66659468  1
  Ag  Ag51  1  0.50322721  0.32788848  0.83202729  1
  Ag  Ag52  1  0.83920002  0.66497554  0.83384083  1
  Ag  Ag53  1  0.66754533  0.00227907  -0.00174130  1
  Sb  Sb54  1  -0.00477928  -0.00544447  0.33288313  1
  Sb  Sb55  1  0.16005176  0.33599572  0.50146552  1
  Sb  Sb56  1  0.16124112  -0.00297322  0.16906570  1
  Sb  Sb57  1  0.15805394  0.66868303  0.16827452  1
  Sb  Sb58  1  0.67054545  0.67030963  -0.00489376  1
  Sb  Sb59  1  0.32967790  0.83369180  0.49551468  1
  Sb  Sb60  1  -0.00568650  0.16914088  0.49315696  1
  Sb  Sb61  1  0.33492785  0.83659789  0.83455527  1
  Sb  Sb62  1  0.50008688  0.66673337  0.82803515  1
  Sb  Sb63  1  0.67128026  0.49232267  0.17253561  1
  Sb  Sb64  1  0.66567286  0.50123883  0.82704380  1
  Sb  Sb65  1  0.50004311  -0.00302084  0.50557228  1
  Sb  Sb66  1  0.49754033  0.83057675  0.00017474  1
  Sb  Sb67  1  0.00056243  0.50160016  0.83222613  1
  Sb  Sb68  1  0.16131485  0.16350477  0.00174815  1
  Sb  Sb69  1  0.33662598  -0.00324176  -0.00427876  1
  Sb  Sb70  1  0.33335610  0.49704936  0.83327748  1
  Sb  Sb71  1  0.67101171  0.32823502  -0.00115462  1
  Sb  Sb72  1  0.83178760  0.49555822  0.00129614  1
  Sb  Sb73  1  0.67185708  0.66650727  0.33842726  1
  Sb  Sb74  1  0.83414644  0.00450642  0.49475722  1
  Sb  Sb75  1  0.49744958  0.49672531  0.33697646  1
  Sb  Sb76  1  0.83765247  0.83576977  0.00582136  1
  Sb  Sb77  1  0.00002503  0.16842742  0.83681009  1
  Sb  Sb78  1  -0.00365215  0.33650133  0.32844286  1
  Sb  Sb79  1  0.67153626  0.83823130  0.16708767  1
  Sb  Sb80  1  0.82985282  0.00139085  0.83587360  1
  Sb  Sb81  1  0.83840912  0.49703555  0.33375396  1
  Sb  Sb82  1  0.33201188  0.33643044  0.00167932  1
  Sb  Sb83  1  0.50894582  0.33574719  0.50114065  1
  Sb  Sb84  1  0.33633966  0.00235291  0.33693206  1
  Sb  Sb85  1  0.33881143  0.16611304  0.50149110  1
  Sb  Sb86  1  0.83711945  0.66395624  0.50088653  1
  Sb  Sb87  1  0.33195415  0.49965646  0.49976330  1
  Sb  Sb88  1  0.83094289  0.49720050  0.66532527  1
  Sb  Sb89  1  0.33353867  0.67058013  0.66977148  1
  Sb  Sb90  1  -0.00576039  0.33848256  0.66997486  1
  Sb  Sb91  1  0.50640267  0.16969088  -0.00123801  1
  Sb  Sb92  1  0.82864630  0.83507854  0.66282754  1
  Sb  Sb93  1  0.33964691  0.32959937  0.66483172  1
  Sb  Sb94  1  0.66364975  0.16320127  0.82826096  1
  Sb  Sb95  1  -0.00234341  0.83002820  0.83448166  1
  Sb  Sb96  1  0.33519819  0.16393320  0.16616534  1
  Sb  Sb97  1  0.16670793  0.16886392  0.66437498  1
  Sb  Sb98  1  -0.00262688  -0.00387275  0.66471509  1
  Sb  Sb99  1  0.50663361  0.00410269  0.16603135  1
  Sb  Sb100  1  -0.00326102  -0.00246833  0.00217096  1
  Sb  Sb101  1  0.16880426  0.83003456  0.66491585  1
  Sb  Sb102  1  0.50523055  0.66358115  0.17025041  1
  Sb  Sb103  1  0.66951319  0.83477633  0.50221781  1
  Sb  Sb104  1  0.16557818  0.50524977  -0.00128401  1
  Sb  Sb105  1  0.32764056  0.66661917  0.32990755  1
  Sb  Sb106  1  0.32933866  0.50305375  0.16740447  1
  Sb  Sb107  1  0.16178735  0.33306576  0.16538327  1
  Te  Te108  1  0.16627468  0.16484756  0.17206300  1
  Te  Te109  1  0.16509235  0.16709169  0.49568747  1
  Te  Te110  1  0.16929847  0.16760266  0.83325569  1
  Te  Te111  1  0.16023732  0.49971255  0.17104840  1
  Te  Te112  1  0.16397825  0.50285370  0.50101196  1
  Te  Te113  1  0.16695323  0.50050263  0.83012685  1
  Te  Te114  1  0.16343267  0.83406492  0.16962278  1
  Te  Te115  1  0.16370699  0.82987345  0.49792587  1
  Te  Te116  1  0.16651007  0.83152526  0.83401336  1
  Te  Te117  1  0.50073817  0.17179416  0.17006124  1
  Te  Te118  1  0.50588375  0.16568075  0.49960255  1
  Te  Te119  1  0.49800678  0.16748013  0.83242155  1
  Te  Te120  1  0.50023656  0.49417163  0.16721258  1
  Te  Te121  1  0.50217331  0.50497190  0.50439761  1
  Te  Te122  1  0.49969571  0.49620090  0.83002083  1
  Te  Te123  1  0.50108736  0.83336034  0.17056106  1
  Te  Te124  1  0.49995800  0.82955264  0.49869328  1
  Te  Te125  1  0.50334012  0.83584880  0.83149797  1
  Te  Te126  1  0.83236411  0.16624547  0.16749773  1
  Te  Te127  1  0.82990902  0.17040878  0.50208498  1
  Te  Te128  1  0.83397034  0.16947734  0.82861746  1
  Te  Te129  1  0.83858356  0.50488172  0.16686627  1
  Te  Te130  1  0.83371854  0.49429927  0.49992724  1
  Te  Te131  1  0.83302772  0.49985215  0.83381612  1
  Te  Te132  1  0.83685160  0.82930645  0.17112068  1
  Te  Te133  1  0.83955935  0.83530091  0.49268075  1
  Te  Te134  1  0.82894779  0.83221344  0.83405750  1
  Te  Te135  1  0.16739607  -0.00578699  -0.00408944  1
  Te  Te136  1  0.16890270  -0.00215396  0.33641438  1
  Te  Te137  1  0.16549096  0.00019642  0.66772816  1
  Te  Te138  1  0.16255791  0.33417208  -0.00650289  1
  Te  Te139  1  0.16561764  0.33267025  0.33353480  1
  Te  Te140  1  0.16752986  0.33756480  0.67157880  1
  Te  Te141  1  0.16363864  0.66877635  -0.00220362  1
  Te  Te142  1  0.16363805  0.66910100  0.33622322  1
  Te  Te143  1  0.16630499  0.66425629  0.66658378  1
  Te  Te144  1  0.50584050  0.00031578  -0.00650412  1
  Te  Te145  1  0.50386081  0.00109980  0.33409554  1
  Te  Te146  1  0.50195868  0.00110365  0.66688517  1
  Te  Te147  1  0.49944310  0.33727798  -0.00284103  1
  Te  Te148  1  0.50368317  0.33135443  0.33348965  1
  Te  Te149  1  0.50364898  0.33286609  0.66848588  1
  Te  Te150  1  0.50160297  0.66113525  0.00034166  1
  Te  Te151  1  0.49975312  0.66845607  0.33815037  1
  Te  Te152  1  0.50102025  0.66579801  0.66428783  1
  Te  Te153  1  0.82923654  0.00431242  0.00330625  1
  Te  Te154  1  0.82882719  0.00156582  0.33074746  1
  Te  Te155  1  0.82862550  0.00513177  0.66667327  1
  Te  Te156  1  0.83646481  0.33022397  -0.00122406  1
  Te  Te157  1  0.83061739  0.33077851  0.33056593  1
  Te  Te158  1  0.82910740  0.33108321  0.67158904  1
  Te  Te159  1  0.83760325  0.66698296  -0.00384545  1
  Te  Te160  1  0.83826907  0.66953409  0.33146266  1
  Te  Te161  1  0.83342967  0.66745852  0.67105278  1
  Te  Te162  1  -0.00499220  0.16887497  0.00487846  1
  Te  Te163  1  0.00205304  0.16615761  0.32944695  1
  Te  Te164  1  -0.00437604  0.16666042  0.66441471  1
  Te  Te165  1  -0.00054492  0.50227621  0.00462733  1
  Te  Te166  1  0.00313823  0.50312740  0.33363113  1
  Te  Te167  1  0.00309412  0.50526857  0.66299774  1
  Te  Te168  1  0.00497066  0.82932927  0.00450625  1
  Te  Te169  1  -0.00059698  0.83160234  0.33259069  1
  Te  Te170  1  -0.00143140  0.82706090  0.66258414  1
  Te  Te171  1  0.33192508  0.16668262  -0.00562421  1
  Te  Te172  1  0.32861103  0.16999504  0.33364947  1
  Te  Te173  1  0.33523841  0.16260282  0.66949077  1
  Te  Te174  1  0.33829233  0.50633102  0.00137219  1
  Te  Te175  1  0.32546782  0.49450024  0.33205928  1
  Te  Te176  1  0.33499993  0.49909299  0.66641126  1
  Te  Te177  1  0.32949529  0.82926867  0.00473064  1
  Te  Te178  1  0.33664970  0.83437796  0.32849100  1
  Te  Te179  1  0.34145353  0.83932627  0.66575531  1
  Te  Te180  1  0.67143130  0.16191548  0.00419817  1
  Te  Te181  1  0.66871663  0.16728343  0.33525387  1
  Te  Te182  1  0.66507363  0.16730216  0.66745445  1
  Te  Te183  1  0.66016503  0.50088086  0.00170595  1
  Te  Te184  1  0.66679104  0.49770299  0.34119285  1
  Te  Te185  1  0.66421848  0.50216906  0.66238064  1
  Te  Te186  1  0.66650831  0.83918010  -0.00434479  1
  Te  Te187  1  0.66411624  0.83340331  0.33375896  1
  Te  Te188  1  0.66360858  0.83147770  0.66764075  1
  Te  Te189  1  -0.00693337  0.00277822  0.16616636  1
  Te  Te190  1  0.00658821  -0.00355825  0.50036505  1
  Te  Te191  1  0.00717341  -0.00086762  0.83350564  1
  Te  Te192  1  -0.00347106  0.33146875  0.16260263  1
  Te  Te193  1  -0.00846916  0.33916283  0.50076552  1
  Te  Te194  1  -0.00111832  0.33492135  0.83825092  1
  Te  Te195  1  -0.00232443  0.66638656  0.16750069  1
  Te  Te196  1  -0.00037702  0.66439916  0.49993732  1
  Te  Te197  1  -0.00014348  0.66663836  0.83353217  1
  Te  Te198  1  0.33466935  -0.00659361  0.16567632  1
  Te  Te199  1  0.32429524  0.00047839  0.50670658  1
  Te  Te200  1  0.33428312  0.00273848  0.83006137  1
  Te  Te201  1  0.33608205  0.33373178  0.17029347  1
  Te  Te202  1  0.33052835  0.33209275  0.49221786  1
  Te  Te203  1  0.33468442  0.32841149  0.83318459  1
  Te  Te204  1  0.33706549  0.67141334  0.16172724  1
  Te  Te205  1  0.33312612  0.66683364  0.49972177  1
  Te  Te206  1  0.32829050  0.66749208  0.83876103  1
  Te  Te207  1  0.67029005  0.00446740  0.16944614  1
  Te  Te208  1  0.66676996  0.00314741  0.50075570  1
  Te  Te209  1  0.66517310  -0.00273938  0.82965696  1
  Te  Te210  1  0.66852374  0.32988455  0.16592092  1
  Te  Te211  1  0.66935424  0.33266358  0.50118223  1
  Te  Te212  1  0.66683972  0.33404906  0.83058129  1
  Te  Te213  1  0.67452391  0.66438538  0.16626400  1
  Te  Te214  1  0.66645683  0.66472699  0.50499191  1
  Te  Te215  1  0.66928217  0.67067128  0.82753032  1
