# generated using pymatgen
data_AgSbTe2
_symmetry_space_group_name_H-M   'P 1'
_cell_length_a   18.31970219
_cell_length_b   18.31713232
_cell_length_c   18.32375397
_cell_angle_alpha   90.00243152
_cell_angle_beta   89.99872604
_cell_angle_gamma   90.00123437
_symmetry_Int_Tables_number   1
_chemical_formula_structural   AgSbTe2
_chemical_formula_sum   'Ag54 Sb54 Te108'
_cell_volume   6148.79966532
_cell_formula_units_Z   54
loop_
 _symmetry_equiv_pos_site_id
 _symmetry_equiv_pos_as_xyz
  1  'x, y, z'
loop_
 _atom_site_type_symbol
 _atom_site_label
 _atom_site_symmetry_multiplicity
 _atom_site_fract_x
 _atom_site_fract_y
 _atom_site_fract_z
 _atom_site_occupancy
  Ag  Ag0  1  0.00606314  0.16934867  0.50469033  1
  Ag  Ag1  1  0.16455426  0.16221213  0.66518381  1
  Ag  Ag2  1  0.32964380  0.83356267  0.83461201  1
  Ag  Ag3  1  0.84014988  0.33235032  0.50793734  1
  Ag  Ag4  1  0.67068907  0.50327705  0.83368586  1
  Ag  Ag5  1  0.66357007  0.66797944  0.33051703  1
  Ag  Ag6  1  0.83092266  0.83750651  -0.00675345  1
  Ag  Ag7  1  0.83070737  0.33073447  0.16255040  1
  Ag  Ag8  1  0.16696151  0.00252681  0.50152535  1
  Ag  Ag9  1  0.49453138  0.16565117  0.66837856  1
  Ag  Ag10  1  0.33480768  0.83179484  0.15713769  1
  Ag  Ag11  1  0.16796341  0.49428286  -0.00250247  1
  Ag  Ag12  1  0.50393316  0.32877142  0.83641147  1
  Ag  Ag13  1  0.00227187  0.49222380  0.50151970  1
  Ag  Ag14  1  0.33137951  -0.00189991  -0.00205857  1
  Ag  Ag15  1  0.32941609  0.32492626  -0.00018944  1
  Ag  Ag16  1  0.32736478  -0.00419921  0.33729295  1
  Ag  Ag17  1  0.00186875  0.32707618  -0.00179950  1
  Ag  Ag18  1  0.00246929  0.83467392  0.83096709  1
  Ag  Ag19  1  0.65971829  0.82935316  0.15355531  1
  Ag  Ag20  1  0.49575691  0.16839280  -0.00348517  1
  Ag  Ag21  1  0.83481409  0.49266004  0.34047012  1
  Ag  Ag22  1  0.33492921  0.67258581  0.34038768  1
  Ag  Ag23  1  0.49462861  0.66872749  0.50109815  1
  Ag  Ag24  1  0.32521058  0.16778501  0.50407847  1
  Ag  Ag25  1  0.00428758  0.67140910  0.66879760  1
  Ag  Ag26  1  0.16345854  0.67305299  0.83151875  1
  Ag  Ag27  1  0.17163274  0.83614842  -0.01041051  1
  Ag  Ag28  1  0.17183492  0.83507945  0.67048916  1
  Ag  Ag29  1  0.66724441  0.67305235  -0.00308070  1
  Ag  Ag30  1  0.83618259  0.00256943  0.83389976  1
  Ag  Ag31  1  0.84203714  0.16863041  -0.00803136  1
  Ag  Ag32  1  0.83721281  0.17041803  0.33503934  1
  Ag  Ag33  1  0.83107042  0.33100091  0.83041463  1
  Ag  Ag34  1  0.16081525  0.32496211  0.50283259  1
  Ag  Ag35  1  0.48892816  0.83533757  0.67393056  1
  Ag  Ag36  1  0.49862143  0.16703441  0.33582673  1
  Ag  Ag37  1  0.33292403  0.50304132  0.16834196  1
  Ag  Ag38  1  0.50084996  0.33013440  0.15686645  1
  Ag  Ag39  1  0.33145371  -0.00645822  0.66766375  1
  Ag  Ag40  1  0.16951716  0.83537823  0.34070394  1
  Ag  Ag41  1  0.83497960  0.67135150  0.83235799  1
  Ag  Ag42  1  0.83514880  0.49094315  0.66673033  1
  Ag  Ag43  1  0.32655186  0.49870413  0.49835939  1
  Ag  Ag44  1  0.16362700  0.16712362  -0.00713933  1
  Ag  Ag45  1  0.00656325  0.00162689  0.33797310  1
  Ag  Ag46  1  0.49523320  0.83737653  -0.00652962  1
  Ag  Ag47  1  -0.00420004  0.16435942  0.83325629  1
  Ag  Ag48  1  0.84279310  0.17162215  0.67341795  1
  Ag  Ag49  1  0.32991250  0.67546425  0.66341173  1
  Ag  Ag50  1  -0.00268580  0.16864166  0.15885752  1
  Ag  Ag51  1  0.67131840  0.33189726  0.67031142  1
  Ag  Ag52  1  0.00323997  0.83408603  0.51095710  1
  Ag  Ag53  1  0.67236139  0.82699545  0.83722871  1
  Sb  Sb54  1  0.83277112  0.66187338  0.50563354  1
  Sb  Sb55  1  -0.00488888  0.33134386  0.66856895  1
  Sb  Sb56  1  0.66308763  0.00257248  0.66976180  1
  Sb  Sb57  1  0.50203937  0.49982180  0.66718873  1
  Sb  Sb58  1  0.84327775  0.00764272  0.50490056  1
  Sb  Sb59  1  0.00537593  0.00566166  -0.00044505  1
  Sb  Sb60  1  0.66956563  0.16510111  0.16432814  1
  Sb  Sb61  1  0.83597905  0.83587716  0.67433907  1
  Sb  Sb62  1  0.50126754  0.00179306  0.83418413  1
  Sb  Sb63  1  0.66385263  0.50274513  0.16313407  1
  Sb  Sb64  1  0.16491416  0.33321183  0.83184407  1
  Sb  Sb65  1  0.83217902  0.66324048  0.16223214  1
  Sb  Sb66  1  0.66976955  0.33649578  0.33604417  1
  Sb  Sb67  1  0.16709310  0.33099596  0.16569754  1
  Sb  Sb68  1  0.33599737  0.33163369  0.67013690  1
  Sb  Sb69  1  0.32953533  0.16166620  0.83179866  1
  Sb  Sb70  1  -0.00484433  0.50025565  0.82855309  1
  Sb  Sb71  1  0.49900142  0.33300047  0.50279965  1
  Sb  Sb72  1  0.83752838  0.49595606  -0.00376131  1
  Sb  Sb73  1  0.00673892  -0.00147678  0.66464534  1
  Sb  Sb74  1  0.48990934  -0.00175081  0.50114131  1
  Sb  Sb75  1  0.33534168  0.50372161  0.83256654  1
  Sb  Sb76  1  0.50032929  0.67010111  0.83062382  1
  Sb  Sb77  1  0.16533171  0.16143335  0.33892709  1
  Sb  Sb78  1  0.66685822  0.66448103  0.67015142  1
  Sb  Sb79  1  0.83722747  0.83519774  0.32887987  1
  Sb  Sb80  1  0.66415854  -0.00526374  -0.00259852  1
  Sb  Sb81  1  0.32707042  0.83433382  0.50358377  1
  Sb  Sb82  1  0.49352258  0.83579218  0.33261501  1
  Sb  Sb83  1  0.67242516  0.16775242  0.83309196  1
  Sb  Sb84  1  0.67144307  0.83011315  0.50380898  1
  Sb  Sb85  1  0.16330563  -0.00509139  0.82934231  1
  Sb  Sb86  1  0.00201160  0.67135326  0.34150511  1
  Sb  Sb87  1  0.50160865  0.49793190  0.33415806  1
  Sb  Sb88  1  0.66917510  0.16805669  0.50137421  1
  Sb  Sb89  1  -0.00206856  0.32563578  0.33432149  1
  Sb  Sb90  1  0.00289959  0.83912312  0.16216791  1
  Sb  Sb91  1  0.32988276  0.16526453  0.16593098  1
  Sb  Sb92  1  0.49814109  0.66565828  0.16850563  1
  Sb  Sb93  1  0.00214593  0.49308564  0.16990059  1
  Sb  Sb94  1  0.49742650  0.00386485  0.16526415  1
  Sb  Sb95  1  0.16874831  0.66834612  0.16041528  1
  Sb  Sb96  1  0.66906558  0.49997300  0.50389305  1
  Sb  Sb97  1  0.16729015  0.00047782  0.16941661  1
  Sb  Sb98  1  0.83509565  0.00537151  0.16109566  1
  Sb  Sb99  1  0.16478679  0.50491892  0.33343908  1
  Sb  Sb100  1  0.33369939  0.33154826  0.33074035  1
  Sb  Sb101  1  0.66707163  0.33559165  -0.00535378  1
  Sb  Sb102  1  0.49562008  0.49953220  -0.00110322  1
  Sb  Sb103  1  0.66609761  -0.00339428  0.33213187  1
  Sb  Sb104  1  0.16277683  0.50039965  0.66888728  1
  Sb  Sb105  1  0.17078663  0.66887019  0.50607277  1
  Sb  Sb106  1  0.33472799  0.67151572  -0.00239991  1
  Sb  Sb107  1  -0.00149733  0.66656208  -0.00729803  1
  Te  Te108  1  0.16008020  0.16735483  0.15868646  1
  Te  Te109  1  0.16726302  0.16629868  0.50034692  1
  Te  Te110  1  0.16141686  0.16655661  0.83207137  1
  Te  Te111  1  0.17230100  0.49938939  0.16232209  1
  Te  Te112  1  0.16572722  0.49814424  0.50037666  1
  Te  Te113  1  0.16601192  0.50450471  0.83761683  1
  Te  Te114  1  0.17168243  0.83338955  0.16276307  1
  Te  Te115  1  0.16164423  0.83461771  0.50331371  1
  Te  Te116  1  0.16551263  0.83386201  0.83026496  1
  Te  Te117  1  0.50015172  0.17077687  0.16357375  1
  Te  Te118  1  0.49771404  0.16650290  0.50189965  1
  Te  Te119  1  0.50037114  0.16792151  0.83357043  1
  Te  Te120  1  0.49402660  0.49208906  0.16691070  1
  Te  Te121  1  0.49374679  0.50302063  0.49954605  1
  Te  Te122  1  0.50545701  0.49329616  0.83294958  1
  Te  Te123  1  0.49722848  0.83383755  0.16390219  1
  Te  Te124  1  0.50246863  0.83039179  0.50437016  1
  Te  Te125  1  0.49572343  0.83486266  0.83322581  1
  Te  Te126  1  0.83530825  0.17050959  0.16676155  1
  Te  Te127  1  0.83569857  0.17153897  0.49938268  1
  Te  Te128  1  0.83370602  0.16878909  0.83277329  1
  Te  Te129  1  0.83279936  0.49344902  0.16978312  1
  Te  Te130  1  0.83582245  0.49648337  0.50146854  1
  Te  Te131  1  0.83069715  0.49689426  0.83114305  1
  Te  Te132  1  0.83260011  0.83292856  0.15911769  1
  Te  Te133  1  0.84146475  0.83440264  0.49981046  1
  Te  Te134  1  0.83710121  0.82999102  0.83501800  1
  Te  Te135  1  0.17171308  -0.00013739  -0.00044940  1
  Te  Te136  1  0.16858922  -0.00383072  0.33641495  1
  Te  Te137  1  0.17219276  0.00137157  0.66340333  1
  Te  Te138  1  0.16765876  0.32977213  -0.00070098  1
  Te  Te139  1  0.16633241  0.33516788  0.34030591  1
  Te  Te140  1  0.16711783  0.32891059  0.66365143  1
  Te  Te141  1  0.16633112  0.67278901  -0.00681632  1
  Te  Te142  1  0.17139655  0.67341822  0.33296068  1
  Te  Te143  1  0.16743639  0.66758221  0.67129004  1
  Te  Te144  1  0.49329988  -0.00024994  -0.00011667  1
  Te  Te145  1  0.49570501  0.00712547  0.33355993  1
  Te  Te146  1  0.49341940  0.00215227  0.66754989  1
  Te  Te147  1  0.49977045  0.33277957  -0.00200926  1
  Te  Te148  1  0.50232128  0.32677048  0.33239653  1
  Te  Te149  1  0.50438932  0.32981085  0.67045127  1
  Te  Te150  1  0.50498880  0.67132155  0.00013778  1
  Te  Te151  1  0.49734860  0.66696294  0.33676557  1
  Te  Te152  1  0.49738012  0.66903486  0.66330469  1
  Te  Te153  1  0.83526876  0.00242724  -0.00475464  1
  Te  Te154  1  0.83456775  0.00573862  0.33414033  1
  Te  Te155  1  0.83130025  0.00772244  0.67212120  1
  Te  Te156  1  0.83378029  0.33014293  -0.00105014  1
  Te  Te157  1  0.83304792  0.33155862  0.33218685  1
  Te  Te158  1  0.83388788  0.33158320  0.66780216  1
  Te  Te159  1  0.83113228  0.66780877  -0.00515179  1
  Te  Te160  1  0.83210331  0.66522309  0.33380214  1
  Te  Te161  1  0.83481429  0.66645482  0.67122188  1
  Te  Te162  1  0.00030748  0.16654117  -0.00365636  1
  Te  Te163  1  -0.00121664  0.16306128  0.34006979  1
  Te  Te164  1  0.00137433  0.16507959  0.66643704  1
  Te  Te165  1  0.00624137  0.49548619  0.00098885  1
  Te  Te166  1  -0.00430126  0.50241567  0.33896688  1
  Te  Te167  1  -0.00433709  0.50484984  0.66162045  1
  Te  Te168  1  0.00183805  0.83491149  -0.00471280  1
  Te  Te169  1  0.00512895  0.83896205  0.33087732  1
  Te  Te170  1  0.00182747  0.83252847  0.66987423  1
  Te  Te171  1  0.33435947  0.16573789  -0.00059294  1
  Te  Te172  1  0.33418010  0.16369690  0.33473752  1
  Te  Te173  1  0.33220256  0.16662899  0.66580506  1
  Te  Te174  1  0.32850849  0.50199807  0.00150369  1
  Te  Te175  1  0.33318725  0.50285939  0.33461746  1
  Te  Te176  1  0.33271018  0.50302155  0.66227198  1
  Te  Te177  1  0.33329419  0.83272331  -0.00142754  1
  Te  Te178  1  0.33076851  0.83408538  0.33512124  1
  Te  Te179  1  0.33242260  0.83334591  0.66606254  1
  Te  Te180  1  0.66016294  0.16451123  0.00041926  1
  Te  Te181  1  0.66691962  0.16582447  0.33289566  1
  Te  Te182  1  0.66120688  0.17035281  0.66738732  1
  Te  Te183  1  0.66748257  0.50738254  -0.00430994  1
  Te  Te184  1  0.67179296  0.50669819  0.33226796  1
  Te  Te185  1  0.67170719  0.49681114  0.67131951  1
  Te  Te186  1  0.66768361  0.83330092  -0.00254354  1
  Te  Te187  1  0.66628576  0.82830891  0.33403198  1
  Te  Te188  1  0.66304322  0.83342657  0.67244848  1
  Te  Te189  1  -0.00004102  0.00757910  0.17577481  1
  Te  Te190  1  0.00613688  0.00082225  0.49835526  1
  Te  Te191  1  -0.00476233  0.00038020  0.83366732  1
  Te  Te192  1  -0.00357851  0.32830761  0.16216346  1
  Te  Te193  1  -0.00038092  0.33217583  0.50043780  1
  Te  Te194  1  -0.00268185  0.33081630  0.83782287  1
  Te  Te195  1  -0.00027596  0.66475591  0.16809051  1
  Te  Te196  1  0.00054628  0.66953568  0.50696383  1
  Te  Te197  1  -0.00115551  0.66749305  0.82916327  1
  Te  Te198  1  0.33333979  -0.00510236  0.16618887  1
  Te  Te199  1  0.32764022  0.00382231  0.50014094  1
  Te  Te200  1  0.33463741  -0.00565818  0.83349906  1
  Te  Te201  1  0.33532537  0.33484853  0.16256896  1
  Te  Te202  1  0.33182843  0.33244977  0.50004445  1
  Te  Te203  1  0.33611950  0.33437576  0.83935341  1
  Te  Te204  1  0.33385751  0.66663390  0.17145677  1
  Te  Te205  1  0.33373461  0.66635397  0.50093046  1
  Te  Te206  1  0.33224912  0.67078864  0.82786731  1
  Te  Te207  1  0.66763074  -0.01242292  0.16742648  1
  Te  Te208  1  0.66752059  -0.00180547  0.49995693  1
  Te  Te209  1  0.67545565  -0.01097515  0.83330210  1
  Te  Te210  1  0.66663693  0.33430654  0.16642225  1
  Te  Te211  1  0.67218161  0.33500156  0.50659900  1
  Te  Te212  1  0.66801402  0.33403614  0.83094210  1
  Te  Te213  1  0.66551015  0.67045753  0.16691899  1
  Te  Te214  1  0.66128425  0.66522825  0.49550972  1
  Te  Te215  1  0.66753209  0.66682490  0.83457706  1
