# generated using pymatgen
data_AgSbTe2
_symmetry_space_group_name_H-M   'P 1'
_cell_length_a   18.32588911
_cell_length_b   18.32320056
_cell_length_c   18.32393818
_cell_angle_alpha   90.00006413
_cell_angle_beta   89.99966533
_cell_angle_gamma   89.99908861
_symmetry_Int_Tables_number   1
_chemical_formula_structural   AgSbTe2
_chemical_formula_sum   'Ag54 Sb54 Te108'
_cell_volume   6152.97580537
_cell_formula_units_Z   54
loop_
 _symmetry_equiv_pos_site_id
 _symmetry_equiv_pos_as_xyz
  1  'x, y, z'
loop_
 _atom_site_type_symbol
 _atom_site_label
 _atom_site_symmetry_multiplicity
 _atom_site_fract_x
 _atom_site_fract_y
 _atom_site_fract_z
 _atom_site_occupancy
  Ag  Ag0  1  0.66216718  0.66130412  0.65720857  1
  Ag  Ag1  1  0.00560839  -0.00406000  0.00768295  1
  Ag  Ag2  1  0.33656854  0.82725190  0.49604543  1
  Ag  Ag3  1  0.00163433  0.16515908  0.17536871  1
  Ag  Ag4  1  0.17236856  0.67017155  0.84281763  1
  Ag  Ag5  1  0.33203376  0.00371899  0.33136335  1
  Ag  Ag6  1  0.66148010  0.33661929  0.65852429  1
  Ag  Ag7  1  0.32817446  0.00474887  0.00585906  1
  Ag  Ag8  1  0.17372505  0.17099210  0.66260399  1
  Ag  Ag9  1  0.67072820  0.16526814  0.49124408  1
  Ag  Ag10  1  0.01144313  0.33246688  0.65578723  1
  Ag  Ag11  1  0.33206105  0.16631956  0.83724178  1
  Ag  Ag12  1  0.66642140  0.16609232  0.17504593  1
  Ag  Ag13  1  0.66056352  0.83308661  0.49752232  1
  Ag  Ag14  1  0.82264301  0.49990951  0.65598199  1
  Ag  Ag15  1  0.16767899  0.00533186  0.49568853  1
  Ag  Ag16  1  0.66733220  0.00075287  0.00832192  1
  Ag  Ag17  1  0.66595444  0.33006889  0.33600974  1
  Ag  Ag18  1  0.33224844  0.16795163  0.16823979  1
  Ag  Ag19  1  0.33326141  0.33153207  0.00446457  1
  Ag  Ag20  1  0.83261757  0.66988601  0.17250445  1
  Ag  Ag21  1  0.16732794  0.66042875  0.16680821  1
  Ag  Ag22  1  0.66697865  0.00763760  0.33036273  1
  Ag  Ag23  1  0.83474219  0.83387533  0.00244014  1
  Ag  Ag24  1  0.50195930  0.82457400  0.65934295  1
  Ag  Ag25  1  0.49436568  0.50490852  0.33430402  1
  Ag  Ag26  1  0.66167952  0.32980059  0.00662795  1
  Ag  Ag27  1  0.83426035  0.17009012  0.33187102  1
  Ag  Ag28  1  0.00777415  0.67280639  0.00370248  1
  Ag  Ag29  1  0.32638682  0.33629570  0.33559490  1
  Ag  Ag30  1  0.00215570  0.00940858  0.32802384  1
  Ag  Ag31  1  0.16790194  0.33279057  0.49326286  1
  Ag  Ag32  1  0.00950307  0.32852520  0.33649494  1
  Ag  Ag33  1  0.49617779  0.66725487  0.83417021  1
  Ag  Ag34  1  0.83002320  0.49958330  0.33648339  1
  Ag  Ag35  1  0.17014205  0.33579525  0.17591711  1
  Ag  Ag36  1  0.49370525  0.50134412  0.00390898  1
  Ag  Ag37  1  0.16889682  -0.00318572  0.83957371  1
  Ag  Ag38  1  0.16587971  0.82938762  -0.00000248  1
  Ag  Ag39  1  0.65798854  0.66553792  0.33667287  1
  Ag  Ag40  1  0.34027885  0.65846742  0.33499115  1
  Ag  Ag41  1  0.50282500  0.50157510  0.66288544  1
  Ag  Ag42  1  0.00020343  0.16849678  0.49195655  1
  Ag  Ag43  1  0.17526160  0.49856165  0.33214390  1
  Ag  Ag44  1  0.17361349  0.50522877  0.00821723  1
  Ag  Ag45  1  0.66320781  0.83244970  0.83109624  1
  Ag  Ag46  1  0.49887106  0.66468481  0.17518894  1
  Ag  Ag47  1  0.16744176  0.66475768  0.49491074  1
  Ag  Ag48  1  0.83300773  -0.00098770  0.16885525  1
  Ag  Ag49  1  0.33432277  0.33131833  0.65738685  1
  Ag  Ag50  1  0.50008766  0.82536590  0.33833873  1
  Ag  Ag51  1  0.49549491  0.17715989  0.66490665  1
  Ag  Ag52  1  0.83026937  0.66641993  0.48992660  1
  Ag  Ag53  1  0.33100580  0.50235257  0.49562509  1
  Sb  Sb54  1  0.66082647  0.16249507  0.83227350  1
  Sb  Sb55  1  0.83180934  0.17322677  0.65635896  1
  Sb  Sb56  1  0.33247068  0.83592339  0.17200089  1
  Sb  Sb57  1  0.49795688  0.17125780  -0.00224174  1
  Sb  Sb58  1  0.00287399  0.83688533  0.49760186  1
  Sb  Sb59  1  0.33182422  0.49549636  0.17325851  1
  Sb  Sb60  1  0.49879807  0.82895230  0.00179992  1
  Sb  Sb61  1  0.66689523  0.83684389  0.17030094  1
  Sb  Sb62  1  0.33394447  0.49789715  0.83102390  1
  Sb  Sb63  1  0.83228468  0.50461674  0.00448386  1
  Sb  Sb64  1  0.00046863  0.83708850  0.16629481  1
  Sb  Sb65  1  0.66684773  0.66759240  0.00387766  1
  Sb  Sb66  1  0.83637380  0.34002482  0.49668752  1
  Sb  Sb67  1  0.32895026  0.66498709  0.00702018  1
  Sb  Sb68  1  0.17011683  0.33356086  0.83291609  1
  Sb  Sb69  1  0.16418847  0.00330342  0.16852162  1
  Sb  Sb70  1  0.83114991  0.33297574  0.83158060  1
  Sb  Sb71  1  0.00391624  0.33164293  0.00513701  1
  Sb  Sb72  1  0.50280753  -0.00226242  0.16882132  1
  Sb  Sb73  1  0.83526156  0.33185545  0.17198226  1
  Sb  Sb74  1  0.00291512  0.50019489  0.83306764  1
  Sb  Sb75  1  0.33645180  0.83576987  0.82971707  1
  Sb  Sb76  1  0.83616887  -0.00169722  0.84336152  1
  Sb  Sb77  1  0.16238737  0.17203929  0.33677785  1
  Sb  Sb78  1  0.16951410  0.16553614  -0.00073375  1
  Sb  Sb79  1  0.49616516  -0.00405384  0.83431535  1
  Sb  Sb80  1  0.50123999  0.66734746  0.49697366  1
  Sb  Sb81  1  0.00517972  0.49538897  0.49715332  1
  Sb  Sb82  1  0.66183764  0.50004213  0.49809005  1
  Sb  Sb83  1  0.00305360  0.00618282  0.66384898  1
  Sb  Sb84  1  0.17256412  0.83474903  0.66775660  1
  Sb  Sb85  1  0.33043220  0.16798425  0.49660202  1
  Sb  Sb86  1  0.83198559  0.16188425  0.00993422  1
  Sb  Sb87  1  0.50305629  0.16964032  0.33683394  1
  Sb  Sb88  1  0.66577474  0.49636364  0.17143407  1
  Sb  Sb89  1  0.33290157  0.00556731  0.66410721  1
  Sb  Sb90  1  0.83172841  0.66795043  0.83473711  1
  Sb  Sb91  1  0.49552896  0.33738164  0.16873328  1
  Sb  Sb92  1  0.82437841  0.82786626  0.66789030  1
  Sb  Sb93  1  0.16991111  0.49594069  0.66276932  1
  Sb  Sb94  1  0.49598835  -0.00088289  0.49752585  1
  Sb  Sb95  1  0.83532457  -0.00331068  0.49201721  1
  Sb  Sb96  1  0.00732112  0.16486376  0.83265094  1
  Sb  Sb97  1  0.66497981  0.00059605  0.66164227  1
  Sb  Sb98  1  0.00108624  0.66498032  0.32949189  1
  Sb  Sb99  1  0.82699476  0.83246787  0.32950882  1
  Sb  Sb100  1  0.00248367  0.49655619  0.16950376  1
  Sb  Sb101  1  0.33929803  0.66154612  0.65923789  1
  Sb  Sb102  1  0.17251600  0.82891653  0.33089303  1
  Sb  Sb103  1  0.66421021  0.50484307  0.83056327  1
  Sb  Sb104  1  -0.00276210  0.66042867  0.66742413  1
  Sb  Sb105  1  -0.00094879  0.83326155  0.83662168  1
  Sb  Sb106  1  0.49839410  0.33781596  0.83149040  1
  Sb  Sb107  1  0.49548735  0.33357491  0.50016965  1
  Te  Te108  1  0.16869070  0.17110224  0.16643819  1
  Te  Te109  1  0.16527055  0.16785502  0.50240862  1
  Te  Te110  1  0.17194942  0.16329860  0.82761250  1
  Te  Te111  1  0.16647965  0.49925799  0.16835172  1
  Te  Te112  1  0.17072917  0.49943288  0.49708761  1
  Te  Te113  1  0.16756571  0.50731618  0.83696297  1
  Te  Te114  1  0.16697292  0.82506571  0.16037622  1
  Te  Te115  1  0.17081751  0.83093263  0.50015329  1
  Te  Te116  1  0.16752895  0.83295593  0.83539976  1
  Te  Te117  1  0.50104052  0.16706700  0.16636199  1
  Te  Te118  1  0.50805967  0.16583388  0.50588955  1
  Te  Te119  1  0.49294841  0.16567088  0.82623598  1
  Te  Te120  1  0.49980730  0.50576198  0.16720220  1
  Te  Te121  1  0.49246308  0.50005690  0.49916117  1
  Te  Te122  1  0.49982000  0.50729008  0.83163747  1
  Te  Te123  1  0.49979694  0.82495790  0.17144052  1
  Te  Te124  1  0.50007308  0.83378739  0.49903779  1
  Te  Te125  1  0.50332123  0.82836854  0.83166854  1
  Te  Te126  1  0.83104285  0.16449322  0.17307404  1
  Te  Te127  1  0.83307730  0.16438562  0.49194907  1
  Te  Te128  1  0.83318149  0.16500121  0.83245304  1
  Te  Te129  1  0.83368377  0.50687740  0.17205197  1
  Te  Te130  1  0.83520343  0.50663439  0.49821398  1
  Te  Te131  1  0.83377324  0.50084922  0.82869266  1
  Te  Te132  1  0.83340341  0.83220698  0.16120629  1
  Te  Te133  1  0.82972165  0.82688462  0.50087904  1
  Te  Te134  1  0.82545644  0.83301901  0.84011497  1
  Te  Te135  1  0.16830458  -0.00071053  0.00135770  1
  Te  Te136  1  0.16970698  -0.00264202  0.33517562  1
  Te  Te137  1  0.16655995  0.00348399  0.66455143  1
  Te  Te138  1  0.16938095  0.33794536  0.00098389  1
  Te  Te139  1  0.16790636  0.33591602  0.33385565  1
  Te  Te140  1  0.17000674  0.33123576  0.66606062  1
  Te  Te141  1  0.16805001  0.66586240  0.00210170  1
  Te  Te142  1  0.16534109  0.66185112  0.33335470  1
  Te  Te143  1  0.16654471  0.66578936  0.66365098  1
  Te  Te144  1  0.50071301  -0.00083232  0.00081446  1
  Te  Te145  1  0.49995733  -0.00353772  0.33278412  1
  Te  Te146  1  0.49974422  -0.00285986  0.66719386  1
  Te  Te147  1  0.50006436  0.33903040  -0.00024110  1
  Te  Te148  1  0.50387024  0.33952309  0.33346346  1
  Te  Te149  1  0.49973600  0.33649026  0.66634478  1
  Te  Te150  1  0.49831363  0.66199518  -0.00253031  1
  Te  Te151  1  0.49913472  0.66479774  0.33324451  1
  Te  Te152  1  0.50288207  0.66465713  0.66863840  1
  Te  Te153  1  0.83103064  -0.00415803  0.00711290  1
  Te  Te154  1  0.82895465  0.00000030  0.32897165  1
  Te  Te155  1  0.83495240  -0.00071842  0.66844596  1
  Te  Te156  1  0.82893172  0.33509933  0.00053835  1
  Te  Te157  1  0.82594879  0.33413313  0.33322413  1
  Te  Te158  1  0.82369017  0.33935425  0.66540858  1
  Te  Te159  1  0.83682296  0.66954120  0.00354289  1
  Te  Te160  1  0.83618934  0.66592967  0.33213637  1
  Te  Te161  1  0.82894735  0.66023196  0.66673758  1
  Te  Te162  1  -0.00019061  0.16203324  0.00391002  1
  Te  Te163  1  -0.00093536  0.16774858  0.33314655  1
  Te  Te164  1  0.00073310  0.17380923  0.66329082  1
  Te  Te165  1  0.00292737  0.50209851  0.00095098  1
  Te  Te166  1  -0.00528124  0.49370038  0.33355767  1
  Te  Te167  1  -0.00221856  0.49151999  0.66542518  1
  Te  Te168  1  0.00182574  0.83459884  0.00037852  1
  Te  Te169  1  -0.00020240  0.84487618  0.33377384  1
  Te  Te170  1  -0.00135605  0.83281783  0.66754879  1
  Te  Te171  1  0.33359132  0.16735915  0.00156241  1
  Te  Te172  1  0.33588549  0.16775225  0.32968875  1
  Te  Te173  1  0.33400512  0.17119062  0.66338520  1
  Te  Te174  1  0.33313583  0.49719195  -0.00168440  1
  Te  Te175  1  0.33402979  0.49864615  0.33498420  1
  Te  Te176  1  0.33782633  0.49292170  0.66271727  1
  Te  Te177  1  0.32937925  0.83843311  -0.00098663  1
  Te  Te178  1  0.33707118  0.83638136  0.33705245  1
  Te  Te179  1  0.34075005  0.83396298  0.65983810  1
  Te  Te180  1  0.66511482  0.16699404  0.00041736  1
  Te  Te181  1  0.66483397  0.16690545  0.33385119  1
  Te  Te182  1  0.66323443  0.17008998  0.66502733  1
  Te  Te183  1  0.66333199  0.49482520  -0.00025773  1
  Te  Te184  1  0.66782111  0.50198820  0.33448024  1
  Te  Te185  1  0.66413633  0.50012997  0.66527222  1
  Te  Te186  1  0.66646272  0.83661925  -0.00062497  1
  Te  Te187  1  0.66289639  0.82780033  0.33671636  1
  Te  Te188  1  0.66177796  0.83263735  0.66269814  1
  Te  Te189  1  -0.00165434  0.00457314  0.16726784  1
  Te  Te190  1  0.00477485  0.00499937  0.49597202  1
  Te  Te191  1  0.00772417  0.00018106  0.83969919  1
  Te  Te192  1  0.00480980  0.32623493  0.17010925  1
  Te  Te193  1  0.00284502  0.32947554  0.49795778  1
  Te  Te194  1  0.00005822  0.33174418  0.82886812  1
  Te  Te195  1  0.00116687  0.66642434  0.16335545  1
  Te  Te196  1  0.00324212  0.66793306  0.50004191  1
  Te  Te197  1  0.00588356  0.66720630  0.83835862  1
  Te  Te198  1  0.33351346  0.00479362  0.16720502  1
  Te  Te199  1  0.32822837  -0.00083901  0.49543891  1
  Te  Te200  1  0.32896436  0.00365464  0.83575645  1
  Te  Te201  1  0.33078395  0.32949723  0.16637039  1
  Te  Te202  1  0.32923150  0.33392253  0.49702294  1
  Te  Te203  1  0.33340437  0.32734149  0.83852376  1
  Te  Te204  1  0.33212917  0.66870847  0.17403409  1
  Te  Te205  1  0.32895204  0.66680442  0.49558912  1
  Te  Te206  1  0.33287330  0.66725313  0.83161022  1
  Te  Te207  1  0.66860428  0.00338957  0.16811428  1
  Te  Te208  1  0.66770124  -0.00098686  0.49357763  1
  Te  Te209  1  0.66727095  -0.00536841  0.83720919  1
  Te  Te210  1  0.66692052  0.32758183  0.16718309  1
  Te  Te211  1  0.66855184  0.33082409  0.49850667  1
  Te  Te212  1  0.66555942  0.33185209  0.83433205  1
  Te  Te213  1  0.66746715  0.66625378  0.17162272  1
  Te  Te214  1  0.66918914  0.66647605  0.49847376  1
  Te  Te215  1  0.66388854  0.67188442  0.83337001  1
