# generated using pymatgen
data_AgSbTe2
_symmetry_space_group_name_H-M   'P 1'
_cell_length_a   18.34776574
_cell_length_b   18.33573696
_cell_length_c   18.34136817
_cell_angle_alpha   89.99743017
_cell_angle_beta   90.00108050
_cell_angle_gamma   90.00123759
_symmetry_Int_Tables_number   1
_chemical_formula_structural   AgSbTe2
_chemical_formula_sum   'Ag54 Sb54 Te108'
_cell_volume   6170.39951941
_cell_formula_units_Z   54
loop_
 _symmetry_equiv_pos_site_id
 _symmetry_equiv_pos_as_xyz
  1  'x, y, z'
loop_
 _atom_site_type_symbol
 _atom_site_label
 _atom_site_symmetry_multiplicity
 _atom_site_fract_x
 _atom_site_fract_y
 _atom_site_fract_z
 _atom_site_occupancy
  Ag  Ag0  1  0.33638511  0.16729992  0.16613220  1
  Ag  Ag1  1  0.83589585  0.83584463  0.00406346  1
  Ag  Ag2  1  0.82897399  0.65954957  0.17115112  1
  Ag  Ag3  1  0.65609759  -0.00234313  0.00476995  1
  Ag  Ag4  1  0.65586324  0.00598942  0.33154024  1
  Ag  Ag5  1  0.83429615  0.49880982  0.65760040  1
  Ag  Ag6  1  0.17294588  0.16629553  0.00810708  1
  Ag  Ag7  1  0.49308246  0.16173720  0.00290056  1
  Ag  Ag8  1  0.84117005  0.66224435  0.49366666  1
  Ag  Ag9  1  0.65759528  0.16596810  0.16828213  1
  Ag  Ag10  1  0.49529252  0.67303357  0.84605664  1
  Ag  Ag11  1  0.32966765  0.32874623  0.33382624  1
  Ag  Ag12  1  0.00084123  0.49764681  0.17305047  1
  Ag  Ag13  1  0.16710194  0.33317893  0.49531353  1
  Ag  Ag14  1  0.33568029  0.00476130  0.34011924  1
  Ag  Ag15  1  0.00860955  -0.00067486  -0.00026267  1
  Ag  Ag16  1  0.48577713  0.32717406  0.49635800  1
  Ag  Ag17  1  0.65113470  0.00284061  0.65718321  1
  Ag  Ag18  1  0.32739988  0.33061208  0.65576860  1
  Ag  Ag19  1  0.32765330  0.84307708  0.50068864  1
  Ag  Ag20  1  0.16853926  0.49137066  0.00489363  1
  Ag  Ag21  1  0.00689217  0.83523946  0.49481062  1
  Ag  Ag22  1  0.16732536  0.84488731  0.33608760  1
  Ag  Ag23  1  0.66662073  0.49566563  0.16901603  1
  Ag  Ag24  1  0.67186702  0.32580859  0.33277624  1
  Ag  Ag25  1  0.00790254  0.32863976  0.65590455  1
  Ag  Ag26  1  0.65536978  0.67432536  0.00522880  1
  Ag  Ag27  1  0.83900529  -0.00096173  0.49946974  1
  Ag  Ag28  1  0.49381302  -0.00203243  0.83560322  1
  Ag  Ag29  1  0.84480828  0.33511066  0.49355787  1
  Ag  Ag30  1  0.84039051  0.33773523  0.17551106  1
  Ag  Ag31  1  0.33448853  0.00279136  0.66076551  1
  Ag  Ag32  1  0.83675731  0.16959417  0.33260335  1
  Ag  Ag33  1  0.16828363  0.16754849  0.33038865  1
  Ag  Ag34  1  0.49772300  0.00389141  0.16443308  1
  Ag  Ag35  1  0.16867081  0.66867720  0.49880579  1
  Ag  Ag36  1  0.33570089  0.67065784  0.66175344  1
  Ag  Ag37  1  0.33293247  0.49453405  0.17235729  1
  Ag  Ag38  1  0.33526175  -0.00259882  -0.00132446  1
  Ag  Ag39  1  0.49695031  0.16312324  0.66762835  1
  Ag  Ag40  1  0.33602266  0.67421076  0.00050562  1
  Ag  Ag41  1  0.33294910  0.83786377  0.82597346  1
  Ag  Ag42  1  0.16691961  0.33404790  0.17569323  1
  Ag  Ag43  1  0.17034323  -0.00166151  0.49961097  1
  Ag  Ag44  1  0.49741702  0.49412093  0.33242223  1
  Ag  Ag45  1  0.00409764  0.33294758  0.33568881  1
  Ag  Ag46  1  0.16812626  0.32465997  0.83471560  1
  Ag  Ag47  1  0.00651336  0.49140397  0.49526334  1
  Ag  Ag48  1  -0.00048086  0.83280748  0.17535805  1
  Ag  Ag49  1  0.17462243  0.00464545  0.82904267  1
  Ag  Ag50  1  0.50151651  0.66941699  0.16404742  1
  Ag  Ag51  1  0.49141468  0.00445443  0.50073060  1
  Ag  Ag52  1  0.00623337  0.00444208  0.65812525  1
  Ag  Ag53  1  0.32624962  0.48976710  0.49535706  1
  Sb  Sb54  1  0.00173262  0.16888118  0.49911923  1
  Sb  Sb55  1  0.67065058  0.83416972  0.16551714  1
  Sb  Sb56  1  0.16558112  0.83722928  0.00539124  1
  Sb  Sb57  1  0.33175121  0.15908576  0.83887010  1
  Sb  Sb58  1  0.49171992  0.32902345  0.82698565  1
  Sb  Sb59  1  0.83791110  0.83789658  0.33240592  1
  Sb  Sb60  1  0.83922784  0.33357211  0.82909217  1
  Sb  Sb61  1  0.83356054  0.16233750  0.00832555  1
  Sb  Sb62  1  0.83582881  0.83215355  0.66571432  1
  Sb  Sb63  1  0.66712663  0.83812357  0.50010310  1
  Sb  Sb64  1  0.83689234  0.50295816  0.00381477  1
  Sb  Sb65  1  0.16761692  0.66072870  0.17044723  1
  Sb  Sb66  1  0.82719928  0.66783222  0.83504560  1
  Sb  Sb67  1  0.49575396  0.84124978  0.66684396  1
  Sb  Sb68  1  0.49486852  0.83546966  0.33396021  1
  Sb  Sb69  1  0.00470544  0.66671247  0.66042922  1
  Sb  Sb70  1  0.83016570  0.00099828  0.17009689  1
  Sb  Sb71  1  0.00395231  0.00436965  0.33488150  1
  Sb  Sb72  1  0.16679703  0.49641816  0.66428829  1
  Sb  Sb73  1  0.66551501  0.32880838  0.65636537  1
  Sb  Sb74  1  0.49897902  0.49620952  0.66095639  1
  Sb  Sb75  1  0.00238833  0.67010545  0.00322923  1
  Sb  Sb76  1  0.32958481  0.83466282  0.17090043  1
  Sb  Sb77  1  0.00475080  0.16568029  0.83282533  1
  Sb  Sb78  1  0.66377891  0.16549738  0.83963331  1
  Sb  Sb79  1  0.17298585  0.16601335  0.66285521  1
  Sb  Sb80  1  0.17080945  0.49287709  0.33244512  1
  Sb  Sb81  1  0.83027774  0.49138819  0.33475604  1
  Sb  Sb82  1  0.49538831  0.66705595  0.49773839  1
  Sb  Sb83  1  0.00077893  0.66156876  0.33504100  1
  Sb  Sb84  1  0.00292639  0.49871397  0.83219569  1
  Sb  Sb85  1  0.00618235  0.83721351  0.83152076  1
  Sb  Sb86  1  0.66596861  0.33090987  0.00998520  1
  Sb  Sb87  1  0.17261358  0.00584470  0.16951046  1
  Sb  Sb88  1  0.66727873  0.49783774  0.49525847  1
  Sb  Sb89  1  0.33222378  0.66492095  0.33454232  1
  Sb  Sb90  1  0.33320000  0.16730485  0.49359642  1
  Sb  Sb91  1  0.66676049  0.66579489  0.32964323  1
  Sb  Sb92  1  0.17026858  0.83670344  0.65808591  1
  Sb  Sb93  1  0.49544083  0.49900740  0.00670880  1
  Sb  Sb94  1  0.33067152  0.33111105  0.00352941  1
  Sb  Sb95  1  0.83002624  0.16673708  0.65868235  1
  Sb  Sb96  1  0.49969362  0.83918854  0.00077272  1
  Sb  Sb97  1  0.00450330  0.32978937  0.00406943  1
  Sb  Sb98  1  0.49723619  0.16817445  0.33115780  1
  Sb  Sb99  1  0.66569318  0.49994886  0.83986640  1
  Sb  Sb100  1  0.33260102  0.50272717  0.83211700  1
  Sb  Sb101  1  0.66239076  0.66854264  0.66889704  1
  Sb  Sb102  1  0.49716339  0.33089438  0.17336847  1
  Sb  Sb103  1  0.66511777  0.16416601  0.49154470  1
  Sb  Sb104  1  0.17312367  0.66880144  0.83025198  1
  Sb  Sb105  1  0.00308858  0.16767351  0.16831255  1
  Sb  Sb106  1  0.66109668  0.83706709  0.83527199  1
  Sb  Sb107  1  0.83238515  -0.00039229  0.83087163  1
  Te  Te108  1  0.16859024  0.17248863  0.16775125  1
  Te  Te109  1  0.16722042  0.16566356  0.49605572  1
  Te  Te110  1  0.16610472  0.16471393  0.84029711  1
  Te  Te111  1  0.16698922  0.49722713  0.16567527  1
  Te  Te112  1  0.16633204  0.49791643  0.50043995  1
  Te  Te113  1  0.16741206  0.49882931  0.84012783  1
  Te  Te114  1  0.15947510  0.83001023  0.17389246  1
  Te  Te115  1  0.16637523  0.83644166  0.49799271  1
  Te  Te116  1  0.17370617  0.83900742  0.83553516  1
  Te  Te117  1  0.49807753  0.16428305  0.16470207  1
  Te  Te118  1  0.50114562  0.16591683  0.50545810  1
  Te  Te119  1  0.50032317  0.16118978  0.83559819  1
  Te  Te120  1  0.49636958  0.49939850  0.16938768  1
  Te  Te121  1  0.49800141  0.49887132  0.49503133  1
  Te  Te122  1  0.50029139  0.50139718  0.83365047  1
  Te  Te123  1  0.50021949  0.83047903  0.16790781  1
  Te  Te124  1  0.49369613  0.83682447  0.49931536  1
  Te  Te125  1  0.49316218  0.83443681  0.83342462  1
  Te  Te126  1  0.83214322  0.17207838  0.17273625  1
  Te  Te127  1  0.83099786  0.16726689  0.49435733  1
  Te  Te128  1  0.83270516  0.16739104  0.83394031  1
  Te  Te129  1  0.83576667  0.49911917  0.16589988  1
  Te  Te130  1  0.83317336  0.50050339  0.49963631  1
  Te  Te131  1  0.83340496  0.50091493  0.82834929  1
  Te  Te132  1  0.83947102  0.83269426  0.16536793  1
  Te  Te133  1  0.83765693  0.83453415  0.50076660  1
  Te  Te134  1  0.83463892  0.83250130  0.83945499  1
  Te  Te135  1  0.16928060  0.00298246  0.00350706  1
  Te  Te136  1  0.17083989  0.00464135  0.33489120  1
  Te  Te137  1  0.16867383  0.00307933  0.66605635  1
  Te  Te138  1  0.16579847  0.33061042  -0.00105318  1
  Te  Te139  1  0.16806088  0.33285307  0.33362001  1
  Te  Te140  1  0.16660963  0.33156479  0.66144656  1
  Te  Te141  1  0.17384819  0.66699373  -0.00055040  1
  Te  Te142  1  0.16580457  0.67330612  0.34020810  1
  Te  Te143  1  0.17483101  0.66458348  0.66193679  1
  Te  Te144  1  0.49745287  -0.00046913  0.00273409  1
  Te  Te145  1  0.49660361  0.00046930  0.33370251  1
  Te  Te146  1  0.49627820  0.00189645  0.66396998  1
  Te  Te147  1  0.50039060  0.32687266  -0.00540691  1
  Te  Te148  1  0.49481571  0.33403702  0.33748483  1
  Te  Te149  1  0.49755362  0.32782920  0.65918479  1
  Te  Te150  1  0.49703697  0.66347753  0.00323466  1
  Te  Te151  1  0.50141637  0.66425047  0.32728018  1
  Te  Te152  1  0.49546985  0.66467446  0.66643889  1
  Te  Te153  1  0.83324645  -0.00346441  -0.00118975  1
  Te  Te154  1  0.83368480  0.00483027  0.33862636  1
  Te  Te155  1  0.83957508  0.00012771  0.66158008  1
  Te  Te156  1  0.83462779  0.33298872  0.00015044  1
  Te  Te157  1  0.83246951  0.33314251  0.33253489  1
  Te  Te158  1  0.83400636  0.33623909  0.66283299  1
  Te  Te159  1  0.83434918  0.67035514  0.00337156  1
  Te  Te160  1  0.83373853  0.66941491  0.33276719  1
  Te  Te161  1  0.83116570  0.66188668  0.66577603  1
  Te  Te162  1  0.00196698  0.15956802  -0.00024731  1
  Te  Te163  1  0.00083788  0.17329232  0.33321414  1
  Te  Te164  1  -0.00229217  0.16637353  0.66772215  1
  Te  Te165  1  0.00651396  0.49843115  0.00293491  1
  Te  Te166  1  0.00009145  0.49392507  0.33345724  1
  Te  Te167  1  -0.00247568  0.49822324  0.66237400  1
  Te  Te168  1  -0.00235169  0.83775417  0.00010124  1
  Te  Te169  1  0.00438526  0.83411560  0.33511738  1
  Te  Te170  1  0.00027417  0.83822881  0.66019504  1
  Te  Te171  1  0.33282323  0.16569582  0.00540714  1
  Te  Te172  1  0.33154873  0.16544547  0.32667282  1
  Te  Te173  1  0.33620857  0.16543598  0.67078381  1
  Te  Te174  1  0.32867769  0.49825221  0.00307364  1
  Te  Te175  1  0.33596605  0.49950208  0.33471975  1
  Te  Te176  1  0.33525464  0.49580202  0.66113227  1
  Te  Te177  1  0.33307329  0.83349431  0.00161123  1
  Te  Te178  1  0.32812279  0.83904209  0.33876005  1
  Te  Te179  1  0.33307891  0.83488367  0.66369572  1
  Te  Te180  1  0.66529888  0.16264849  0.00837957  1
  Te  Te181  1  0.66481047  0.16546779  0.32620801  1
  Te  Te182  1  0.66260718  0.16055061  0.67080423  1
  Te  Te183  1  0.66730910  0.50183785  0.00857334  1
  Te  Te184  1  0.66081870  0.49932796  0.32697969  1
  Te  Te185  1  0.67090260  0.50019994  0.66846885  1
  Te  Te186  1  0.67165746  0.83353923  -0.00063059  1
  Te  Te187  1  0.66750636  0.84339013  0.33398778  1
  Te  Te188  1  0.66862522  0.84130226  0.66814984  1
  Te  Te189  1  -0.00013435  -0.00350909  0.16479330  1
  Te  Te190  1  0.00180953  0.00060709  0.49976176  1
  Te  Te191  1  0.00349052  -0.00079057  0.83483763  1
  Te  Te192  1  0.00085472  0.33464781  0.16912232  1
  Te  Te193  1  0.00146244  0.33344673  0.49876479  1
  Te  Te194  1  0.00776712  0.33424837  0.82645034  1
  Te  Te195  1  -0.00271011  0.66304581  0.16734955  1
  Te  Te196  1  0.00080843  0.66797291  0.50092621  1
  Te  Te197  1  0.00019072  0.66802736  0.83124016  1
  Te  Te198  1  0.33729041  0.00021257  0.16300195  1
  Te  Te199  1  0.33182116  0.00305545  0.49994888  1
  Te  Te200  1  0.33317146  -0.00144569  0.83629129  1
  Te  Te201  1  0.32998812  0.33433275  0.16868350  1
  Te  Te202  1  0.32986464  0.33178837  0.49778170  1
  Te  Te203  1  0.32686039  0.33440175  0.82758997  1
  Te  Te204  1  0.33593248  0.66460363  0.16540239  1
  Te  Te205  1  0.33072906  0.66579606  0.50117439  1
  Te  Te206  1  0.33672769  0.67049820  0.83360179  1
  Te  Te207  1  0.66426030  0.00109071  0.16696415  1
  Te  Te208  1  0.66703546  -0.00051882  0.49987638  1
  Te  Te209  1  0.66216287  0.00050365  0.83912803  1
  Te  Te210  1  0.66529951  0.33476808  0.17302156  1
  Te  Te211  1  0.67150717  0.33254093  0.49218813  1
  Te  Te212  1  0.66733565  0.33442611  0.83214301  1
  Te  Te213  1  0.66725004  0.66704122  0.16409253  1
  Te  Te214  1  0.67130144  0.66818559  0.50015575  1
  Te  Te215  1  0.65696046  0.66733794  0.83921630  1
