# generated using pymatgen
data_AgSbTe2
_symmetry_space_group_name_H-M   'P 1'
_cell_length_a   18.31956181
_cell_length_b   18.32486209
_cell_length_c   18.32174922
_cell_angle_alpha   89.99949580
_cell_angle_beta   89.99904464
_cell_angle_gamma   89.99911435
_symmetry_Int_Tables_number   1
_chemical_formula_structural   AgSbTe2
_chemical_formula_sum   'Ag54 Sb54 Te108'
_cell_volume   6150.67430732
_cell_formula_units_Z   54
loop_
 _symmetry_equiv_pos_site_id
 _symmetry_equiv_pos_as_xyz
  1  'x, y, z'
loop_
 _atom_site_type_symbol
 _atom_site_label
 _atom_site_symmetry_multiplicity
 _atom_site_fract_x
 _atom_site_fract_y
 _atom_site_fract_z
 _atom_site_occupancy
  Ag  Ag0  1  0.49020381  0.33264890  0.49809049  1
  Ag  Ag1  1  0.67754215  0.67392870  0.33373172  1
  Ag  Ag2  1  0.50040687  -0.00027256  0.83963110  1
  Ag  Ag3  1  0.83448229  0.83225418  0.00257065  1
  Ag  Ag4  1  0.00453692  0.17503836  0.49571625  1
  Ag  Ag5  1  0.32130172  0.49300525  0.50824159  1
  Ag  Ag6  1  0.33456857  0.83224907  0.83698724  1
  Ag  Ag7  1  0.67116315  0.16486015  0.16150478  1
  Ag  Ag8  1  0.50347911  0.00326713  0.16226794  1
  Ag  Ag9  1  -0.00508243  0.65963228  0.32866134  1
  Ag  Ag10  1  0.50363425  0.16454421  0.00145679  1
  Ag  Ag11  1  0.15481613  0.82798792  0.32927243  1
  Ag  Ag12  1  0.51275559  0.83510972  0.33086639  1
  Ag  Ag13  1  0.67109100  -0.00691917  0.32634954  1
  Ag  Ag14  1  0.66864491  0.83276472  0.49354122  1
  Ag  Ag15  1  -0.00325016  0.00289031  0.00583342  1
  Ag  Ag16  1  0.16285858  0.49672522  -0.00156055  1
  Ag  Ag17  1  0.15768646  0.49996994  0.33079396  1
  Ag  Ag18  1  0.83807689  0.49917319  0.67086705  1
  Ag  Ag19  1  0.00132110  0.82897058  0.17047632  1
  Ag  Ag20  1  0.32659981  0.33240320  0.66390281  1
  Ag  Ag21  1  0.32581877  0.17615847  0.50462611  1
  Ag  Ag22  1  0.00152129  0.49700708  0.83369259  1
  Ag  Ag23  1  0.00217929  0.33397462  0.00554840  1
  Ag  Ag24  1  0.00276102  0.49969064  0.17418295  1
  Ag  Ag25  1  0.32295670  0.50026526  0.82888832  1
  Ag  Ag26  1  0.83400878  0.82651974  0.32864291  1
  Ag  Ag27  1  0.66847480  0.33601743  0.66966132  1
  Ag  Ag28  1  0.00443193  0.49301792  0.48701753  1
  Ag  Ag29  1  0.49577075  0.32752692  0.16957672  1
  Ag  Ag30  1  0.67299453  0.66411281  0.66858168  1
  Ag  Ag31  1  0.16830860  0.33603191  0.50759666  1
  Ag  Ag32  1  0.66793821  0.16507219  0.83594414  1
  Ag  Ag33  1  -0.00225272  0.17045588  0.17000336  1
  Ag  Ag34  1  0.16957670  0.00415246  0.83256957  1
  Ag  Ag35  1  0.84475931  0.50770091  0.33714023  1
  Ag  Ag36  1  0.66815120  0.00106709  0.00210637  1
  Ag  Ag37  1  0.00098829  0.34498865  0.32837533  1
  Ag  Ag38  1  0.82988032  0.82637973  0.66994591  1
  Ag  Ag39  1  0.83165716  0.66162687  0.83342713  1
  Ag  Ag40  1  0.67717605  0.49879567  0.82985141  1
  Ag  Ag41  1  0.32725788  0.83232405  0.16366472  1
  Ag  Ag42  1  0.33134556  0.00674604  0.66997042  1
  Ag  Ag43  1  0.67025852  0.83493589  0.83029223  1
  Ag  Ag44  1  0.16142659  0.33907152  0.16821704  1
  Ag  Ag45  1  0.83956503  0.66845653  0.17116227  1
  Ag  Ag46  1  0.16280994  0.33760861  0.82572497  1
  Ag  Ag47  1  0.16075304  0.49633393  0.66850680  1
  Ag  Ag48  1  0.83840604  0.34211290  0.83022797  1
  Ag  Ag49  1  -0.00235351  -0.00448305  0.32504062  1
  Ag  Ag50  1  0.16434905  0.17967931  0.66616805  1
  Ag  Ag51  1  0.83636892  0.17600324  0.66965313  1
  Ag  Ag52  1  0.33104614  0.66718636  -0.00087541  1
  Ag  Ag53  1  0.15711915  0.65969300  0.16857754  1
  Sb  Sb54  1  0.67339853  0.49617136  0.16334154  1
  Sb  Sb55  1  0.66761115  0.67138696  -0.00018266  1
  Sb  Sb56  1  0.50068412  0.49696736  0.66717726  1
  Sb  Sb57  1  0.49932201  0.16750674  0.66987830  1
  Sb  Sb58  1  0.33437108  0.16650255  0.82835041  1
  Sb  Sb59  1  0.16501582  0.00025595  0.16354487  1
  Sb  Sb60  1  0.50368004  0.83883676  0.00277977  1
  Sb  Sb61  1  0.32617059  0.33577526  0.33840221  1
  Sb  Sb62  1  0.84040476  0.50418153  -0.00485665  1
  Sb  Sb63  1  0.67131542  0.32900433  -0.00520011  1
  Sb  Sb64  1  -0.00236633  0.83025114  0.83903698  1
  Sb  Sb65  1  0.67225996  0.33379166  0.33584053  1
  Sb  Sb66  1  0.50164181  0.66245997  0.49833228  1
  Sb  Sb67  1  0.00236032  0.00182346  0.66880423  1
  Sb  Sb68  1  0.50077210  0.66886724  0.16790607  1
  Sb  Sb69  1  0.50503500  0.67027823  0.83426054  1
  Sb  Sb70  1  0.32751159  0.33670224  -0.00385061  1
  Sb  Sb71  1  0.16124830  0.66089646  0.83851153  1
  Sb  Sb72  1  0.66844347  0.16497357  0.50194799  1
  Sb  Sb73  1  0.83901179  0.33508594  0.50585791  1
  Sb  Sb74  1  0.16583353  0.00548031  0.50247252  1
  Sb  Sb75  1  -0.00312303  0.17175050  0.83353548  1
  Sb  Sb76  1  0.49535720  0.49437707  -0.00000489  1
  Sb  Sb77  1  0.83283120  0.66636787  0.49671563  1
  Sb  Sb78  1  0.49946588  0.32991344  0.83333262  1
  Sb  Sb79  1  0.00184869  0.66331602  0.00771247  1
  Sb  Sb80  1  0.83385488  -0.00078252  0.49940995  1
  Sb  Sb81  1  0.32403323  0.50260646  0.16511305  1
  Sb  Sb82  1  0.83275072  -0.00177676  0.83443453  1
  Sb  Sb83  1  0.50160216  0.16379971  0.32927239  1
  Sb  Sb84  1  0.16682248  0.17083104  -0.00423572  1
  Sb  Sb85  1  0.33498513  0.66278228  0.67274180  1
  Sb  Sb86  1  0.33541244  0.83197098  0.50065726  1
  Sb  Sb87  1  0.16301543  0.82986551  0.00437247  1
  Sb  Sb88  1  0.16192491  0.17030408  0.33743086  1
  Sb  Sb89  1  0.33196773  -0.00290883  0.33553193  1
  Sb  Sb90  1  0.83970543  0.33757133  0.16227583  1
  Sb  Sb91  1  0.66955624  0.83791029  0.16812766  1
  Sb  Sb92  1  0.83253330  -0.00472767  0.16692909  1
  Sb  Sb93  1  0.50033519  0.00375407  0.49900860  1
  Sb  Sb94  1  0.50541515  0.83474916  0.66552917  1
  Sb  Sb95  1  0.33354688  -0.00268215  -0.00478116  1
  Sb  Sb96  1  0.83725436  0.16720566  0.33541710  1
  Sb  Sb97  1  0.66467073  0.00090874  0.67086388  1
  Sb  Sb98  1  -0.00418912  0.83199331  0.49136687  1
  Sb  Sb99  1  0.32888726  0.66756574  0.32902927  1
  Sb  Sb100  1  -0.00647879  0.66256041  0.66247391  1
  Sb  Sb101  1  0.83212997  0.16341019  -0.00310511  1
  Sb  Sb102  1  0.67049458  0.50225497  0.50454341  1
  Sb  Sb103  1  0.49983513  0.50224677  0.33343918  1
  Sb  Sb104  1  0.00214914  0.33595726  0.66597580  1
  Sb  Sb105  1  0.33135129  0.16413203  0.17007073  1
  Sb  Sb106  1  0.16529221  0.65658318  0.49365645  1
  Sb  Sb107  1  0.16272473  0.83035026  0.66467152  1
  Te  Te108  1  0.16248838  0.17175998  0.16625376  1
  Te  Te109  1  0.16526853  0.17155549  0.50407309  1
  Te  Te110  1  0.16622310  0.16952033  0.82785098  1
  Te  Te111  1  0.16379213  0.49990746  0.16815473  1
  Te  Te112  1  0.16411535  0.49646134  0.50209837  1
  Te  Te113  1  0.16516714  0.49968041  0.83198071  1
  Te  Te114  1  0.16608014  0.83363746  0.16914731  1
  Te  Te115  1  0.16700711  0.83247371  0.49424212  1
  Te  Te116  1  0.16816934  0.83289904  0.83278819  1
  Te  Te117  1  0.49837740  0.16552407  0.16405843  1
  Te  Te118  1  0.49861066  0.17187799  0.49979077  1
  Te  Te119  1  0.50501705  0.16206295  0.83718311  1
  Te  Te120  1  0.50023501  0.49343162  0.16691216  1
  Te  Te121  1  0.49679296  0.49284720  0.49905985  1
  Te  Te122  1  0.49808559  0.50047560  0.83508755  1
  Te  Te123  1  0.49803571  0.83634565  0.16972958  1
  Te  Te124  1  0.50441406  0.83383234  0.49390041  1
  Te  Te125  1  0.49962035  0.83804003  0.83384176  1
  Te  Te126  1  0.83487728  0.16896511  0.16631849  1
  Te  Te127  1  0.83803771  0.16714342  0.50727194  1
  Te  Te128  1  0.82931664  0.16887794  0.82940919  1
  Te  Te129  1  0.83922890  0.50540172  0.16759555  1
  Te  Te130  1  0.83874139  0.49951666  0.50317611  1
  Te  Te131  1  0.83381498  0.50033248  0.83297022  1
  Te  Te132  1  0.83575843  0.82948893  0.16756308  1
  Te  Te133  1  0.82851295  0.83356709  0.50274133  1
  Te  Te134  1  0.83266699  0.83177556  0.83210434  1
  Te  Te135  1  0.16290999  0.00085142  -0.00605724  1
  Te  Te136  1  0.16300804  -0.00367931  0.33324689  1
  Te  Te137  1  0.17051540  -0.00306270  0.67190465  1
  Te  Te138  1  0.16256453  0.33640438  0.00088138  1
  Te  Te139  1  0.16166086  0.33624387  0.33005953  1
  Te  Te140  1  0.16674446  0.33572399  0.66726840  1
  Te  Te141  1  0.16946464  0.66204087  0.00554619  1
  Te  Te142  1  0.16401995  0.66662210  0.32826215  1
  Te  Te143  1  0.16578337  0.66050997  0.66680290  1
  Te  Te144  1  0.50130017  0.00318125  0.00043938  1
  Te  Te145  1  0.50121054  -0.00388664  0.33007092  1
  Te  Te146  1  0.49340451  0.00026509  0.67080228  1
  Te  Te147  1  0.49967405  0.32691529  0.00504577  1
  Te  Te148  1  0.50274503  0.33325571  0.33114011  1
  Te  Te149  1  0.50136990  0.33203184  0.66405060  1
  Te  Te150  1  0.49340212  0.66665257  0.00188700  1
  Te  Te151  1  0.50472212  0.67246254  0.33271537  1
  Te  Te152  1  0.51224409  0.66673959  0.66611678  1
  Te  Te153  1  0.83381735  -0.00497949  -0.00007658  1
  Te  Te154  1  0.83294786  -0.00302421  0.33360406  1
  Te  Te155  1  0.83328650  -0.00093513  0.66686902  1
  Te  Te156  1  0.83955946  0.33339026  -0.00796092  1
  Te  Te157  1  0.83900382  0.33834338  0.33403618  1
  Te  Te158  1  0.83129081  0.33565558  0.67054503  1
  Te  Te159  1  0.83323097  0.67224833  -0.00116694  1
  Te  Te160  1  0.83398637  0.66575926  0.33280834  1
  Te  Te161  1  0.83086947  0.66461715  0.66944106  1
  Te  Te162  1  -0.00043112  0.16580740  0.00409793  1
  Te  Te163  1  -0.00116038  0.15810561  0.33154600  1
  Te  Te164  1  0.00039446  0.16512885  0.66394297  1
  Te  Te165  1  0.00364723  0.49745325  -0.00392119  1
  Te  Te166  1  0.00096507  0.50113410  0.33138819  1
  Te  Te167  1  -0.00110363  0.50162001  0.67370268  1
  Te  Te168  1  -0.00390288  0.83638781  0.00614453  1
  Te  Te169  1  -0.00360565  0.83611200  0.33129131  1
  Te  Te170  1  -0.00723796  0.83260772  0.66454912  1
  Te  Te171  1  0.33901633  0.16657705  0.00081865  1
  Te  Te172  1  0.33270877  0.16599542  0.34269552  1
  Te  Te173  1  0.33070264  0.16939299  0.66398313  1
  Te  Te174  1  0.32796375  0.50347220  -0.00452723  1
  Te  Te175  1  0.33000035  0.50217954  0.33782307  1
  Te  Te176  1  0.33265502  0.49856418  0.66818211  1
  Te  Te177  1  0.33343692  0.83079148  -0.00157782  1
  Te  Te178  1  0.33080816  0.83260738  0.33081992  1
  Te  Te179  1  0.33274345  0.83159643  0.67116223  1
  Te  Te180  1  0.66621094  0.16267162  0.00029561  1
  Te  Te181  1  0.66949622  0.16250396  0.32980101  1
  Te  Te182  1  0.67050781  0.16902128  0.66938422  1
  Te  Te183  1  0.66508894  0.50049530  -0.00711268  1
  Te  Te184  1  0.66987559  0.50373831  0.33404183  1
  Te  Te185  1  0.66895751  0.49920169  0.66945729  1
  Te  Te186  1  0.67059194  0.83837861  -0.00367481  1
  Te  Te187  1  0.67145306  0.83372309  0.33050264  1
  Te  Te188  1  0.67010521  0.83340885  0.67092293  1
  Te  Te189  1  0.00087384  0.00142321  0.16485987  1
  Te  Te190  1  0.00086908  0.00471654  0.49648617  1
  Te  Te191  1  0.00493072  -0.00041387  0.83748118  1
  Te  Te192  1  0.00060195  0.33381948  0.16675838  1
  Te  Te193  1  0.00395033  0.33318390  0.49681942  1
  Te  Te194  1  0.00138152  0.33505220  0.83526558  1
  Te  Te195  1  0.00015537  0.66761196  0.16797014  1
  Te  Te196  1  0.00022238  0.66065712  0.49078515  1
  Te  Te197  1  -0.00680118  0.66218175  0.83465746  1
  Te  Te198  1  0.33709485  -0.00426565  0.16650578  1
  Te  Te199  1  0.33398473  0.00175211  0.50772710  1
  Te  Te200  1  0.33197074  -0.00103958  0.83085002  1
  Te  Te201  1  0.33260560  0.33322235  0.16666281  1
  Te  Te202  1  0.33070726  0.33506981  0.50126418  1
  Te  Te203  1  0.33085765  0.33665811  0.82863342  1
  Te  Te204  1  0.33343320  0.67102817  0.16203556  1
  Te  Te205  1  0.33432900  0.66083316  0.50236937  1
  Te  Te206  1  0.33394052  0.66776928  0.83682096  1
  Te  Te207  1  0.66493265  0.00344272  0.16525499  1
  Te  Te208  1  0.66490467  -0.00450713  0.49469909  1
  Te  Te209  1  0.66535058  -0.00016979  0.83572474  1
  Te  Te210  1  0.66532437  0.32681735  0.16611918  1
  Te  Te211  1  0.66413233  0.33298323  0.50510228  1
  Te  Te212  1  0.66613676  0.33334066  0.83058767  1
  Te  Te213  1  0.67059425  0.66473303  0.16927632  1
  Te  Te214  1  0.66576691  0.67076496  0.50002508  1
  Te  Te215  1  0.67069259  0.66908890  0.83315504  1
