# generated using pymatgen
data_AgSbTe2
_symmetry_space_group_name_H-M   'P 1'
_cell_length_a   18.32788781
_cell_length_b   18.32372725
_cell_length_c   18.32690865
_cell_angle_alpha   90.00166361
_cell_angle_beta   89.99884695
_cell_angle_gamma   89.99986993
_symmetry_Int_Tables_number   1
_chemical_formula_structural   AgSbTe2
_chemical_formula_sum   'Ag54 Sb54 Te108'
_cell_volume   6154.82134553
_cell_formula_units_Z   54
loop_
 _symmetry_equiv_pos_site_id
 _symmetry_equiv_pos_as_xyz
  1  'x, y, z'
loop_
 _atom_site_type_symbol
 _atom_site_label
 _atom_site_symmetry_multiplicity
 _atom_site_fract_x
 _atom_site_fract_y
 _atom_site_fract_z
 _atom_site_occupancy
  Ag  Ag0  1  0.82146558  0.17322019  0.33796489  1
  Ag  Ag1  1  0.33100287  0.84078287  0.16460403  1
  Ag  Ag2  1  0.00597524  0.83110511  0.16762712  1
  Ag  Ag3  1  0.66003525  0.17173176  0.82384259  1
  Ag  Ag4  1  0.33614969  0.33230880  0.00018425  1
  Ag  Ag5  1  0.66218193  0.32697536  0.67015815  1
  Ag  Ag6  1  0.49997642  0.33024171  0.17283664  1
  Ag  Ag7  1  0.82047273  0.33043496  0.82743621  1
  Ag  Ag8  1  0.66562143  0.66670554  -0.00674624  1
  Ag  Ag9  1  0.16184062  0.66395990  0.49987075  1
  Ag  Ag10  1  0.00446326  0.33913769  0.00931614  1
  Ag  Ag11  1  0.49701657  0.48643258  0.33079709  1
  Ag  Ag12  1  0.65846471  0.01052653  0.66670767  1
  Ag  Ag13  1  0.33522527  0.84005243  0.83257327  1
  Ag  Ag14  1  -0.00354984  0.66810749  0.65700769  1
  Ag  Ag15  1  0.50138856  0.17514776  0.66468315  1
  Ag  Ag16  1  0.66183836  0.66755785  0.67024368  1
  Ag  Ag17  1  0.50354904  0.33421152  0.50163484  1
  Ag  Ag18  1  0.50233213  0.83575447  0.33775404  1
  Ag  Ag19  1  0.33533613  0.16932182  0.49698072  1
  Ag  Ag20  1  0.50094288  0.66059932  0.50567996  1
  Ag  Ag21  1  0.33899959  0.00430265  0.33296121  1
  Ag  Ag22  1  0.00142473  0.50233113  0.49574477  1
  Ag  Ag23  1  0.65924961  0.01265387  0.33352083  1
  Ag  Ag24  1  0.83127613  0.32931070  0.17569745  1
  Ag  Ag25  1  0.34596946  0.32101454  0.67115204  1
  Ag  Ag26  1  0.82205031  0.83186858  0.66145932  1
  Ag  Ag27  1  0.66545899  0.00203285  -0.00295103  1
  Ag  Ag28  1  0.82551778  0.33318505  0.49641055  1
  Ag  Ag29  1  0.66026278  0.16897239  0.17632541  1
  Ag  Ag30  1  0.16962959  0.32828687  0.16924531  1
  Ag  Ag31  1  0.82024518  0.16957406  0.66101744  1
  Ag  Ag32  1  0.34603513  0.67099018  0.66626839  1
  Ag  Ag33  1  0.33718092  0.16608798  0.17304676  1
  Ag  Ag34  1  0.16821510  0.49335884  0.32915006  1
  Ag  Ag35  1  0.50208758  0.17064742  0.33633553  1
  Ag  Ag36  1  0.50200981  0.66148092  0.82402344  1
  Ag  Ag37  1  0.17917906  0.17172752  0.33012439  1
  Ag  Ag38  1  0.50393421  0.33452811  0.82510555  1
  Ag  Ag39  1  0.00011075  0.65967999  0.34012737  1
  Ag  Ag40  1  0.34056642  0.16591779  0.82731508  1
  Ag  Ag41  1  -0.00552374  0.33655530  0.32889173  1
  Ag  Ag42  1  0.34134407  0.00421701  0.66807339  1
  Ag  Ag43  1  0.00055570  0.66087026  0.00120352  1
  Ag  Ag44  1  0.66180144  0.48917088  0.83400082  1
  Ag  Ag45  1  0.17111927  0.00516237  0.16547575  1
  Ag  Ag46  1  0.66547531  0.33036541  0.33535822  1
  Ag  Ag47  1  0.50206307  0.82907591  0.66397756  1
  Ag  Ag48  1  0.49810094  0.49588598  0.00046412  1
  Ag  Ag49  1  0.17341911  0.00072776  0.83860449  1
  Ag  Ag50  1  0.82853117  0.83637538  0.33791310  1
  Ag  Ag51  1  0.16846397  0.49935241  0.00453851  1
  Ag  Ag52  1  0.83493226  0.66323252  0.50241166  1
  Ag  Ag53  1  0.16852287  0.83027948  0.00320587  1
  Sb  Sb54  1  0.66053971  0.83542638  0.83027705  1
  Sb  Sb55  1  0.00447351  0.83069699  0.83588425  1
  Sb  Sb56  1  0.16812288  0.83410298  0.32774778  1
  Sb  Sb57  1  0.00175169  0.49972486  0.17099011  1
  Sb  Sb58  1  0.17194626  0.66823621  0.83081138  1
  Sb  Sb59  1  0.00010320  0.00022336  0.00217393  1
  Sb  Sb60  1  0.66494162  0.83091385  0.50169932  1
  Sb  Sb61  1  0.65941931  0.17048989  0.50008624  1
  Sb  Sb62  1  0.33278630  0.49478848  0.16734700  1
  Sb  Sb63  1  0.49978798  0.00541514  0.50072976  1
  Sb  Sb64  1  0.83174888  0.00476928  0.83118821  1
  Sb  Sb65  1  0.66427667  0.49261710  0.16294714  1
  Sb  Sb66  1  0.33170853  0.67235509  0.33856864  1
  Sb  Sb67  1  0.66671934  0.49774705  0.50376207  1
  Sb  Sb68  1  0.33410159  0.66377681  -0.00369753  1
  Sb  Sb69  1  0.16579773  0.66610130  0.16927688  1
  Sb  Sb70  1  0.66352703  0.33231625  -0.00201860  1
  Sb  Sb71  1  0.49582359  0.00669713  0.17017004  1
  Sb  Sb72  1  0.17347116  0.32956885  0.83971029  1
  Sb  Sb73  1  0.50027059  0.66424532  0.16892839  1
  Sb  Sb74  1  0.33897173  0.32473537  0.33203284  1
  Sb  Sb75  1  0.16981270  0.33755171  0.49298939  1
  Sb  Sb76  1  0.50068459  0.49835006  0.66605657  1
  Sb  Sb77  1  0.82986725  0.17078805  0.00159337  1
  Sb  Sb78  1  0.00105819  0.16897474  0.16912226  1
  Sb  Sb79  1  0.83472807  0.66407788  0.17227738  1
  Sb  Sb80  1  0.83098738  0.00438180  0.49924627  1
  Sb  Sb81  1  0.17120498  -0.00286989  0.49737082  1
  Sb  Sb82  1  0.50040979  0.17359682  -0.00058253  1
  Sb  Sb83  1  0.83427782  0.00466320  0.16919412  1
  Sb  Sb84  1  0.33689111  0.00412571  -0.00029340  1
  Sb  Sb85  1  0.82624057  0.66351775  0.82624744  1
  Sb  Sb86  1  0.33409819  0.49570063  0.49842947  1
  Sb  Sb87  1  0.34031552  0.49643302  0.83350868  1
  Sb  Sb88  1  0.00353427  0.17468348  0.49735838  1
  Sb  Sb89  1  0.16745162  0.50084931  0.66599635  1
  Sb  Sb90  1  -0.00093563  0.16944915  0.83219244  1
  Sb  Sb91  1  -0.00580916  0.33678761  0.66337043  1
  Sb  Sb92  1  0.00109517  0.00112047  0.33170963  1
  Sb  Sb93  1  0.66793213  0.66350398  0.33586216  1
  Sb  Sb94  1  0.17564991  0.16658687  0.66297708  1
  Sb  Sb95  1  0.17272228  0.83268972  0.67022026  1
  Sb  Sb96  1  0.83204243  0.49825278  -0.00105239  1
  Sb  Sb97  1  0.83030690  0.49873833  0.66475102  1
  Sb  Sb98  1  0.16924998  0.16861953  0.00542282  1
  Sb  Sb99  1  -0.00160121  0.82380370  0.49379042  1
  Sb  Sb100  1  0.83610783  0.83098823  0.00078357  1
  Sb  Sb101  1  0.49663483  0.00427114  0.82999464  1
  Sb  Sb102  1  0.49626030  0.82847835  -0.00163165  1
  Sb  Sb103  1  0.83276907  0.49457317  0.33586545  1
  Sb  Sb104  1  0.66384065  0.83978473  0.16810889  1
  Sb  Sb105  1  -0.00135493  -0.00524429  0.66759921  1
  Sb  Sb106  1  0.33681192  0.83516669  0.50244241  1
  Sb  Sb107  1  -0.00350153  0.49994080  0.83204771  1
  Te  Te108  1  0.16788455  0.16709048  0.17038526  1
  Te  Te109  1  0.17279747  0.16620830  0.49260749  1
  Te  Te110  1  0.17041102  0.16123987  0.83249110  1
  Te  Te111  1  0.16723881  0.49487412  0.16706495  1
  Te  Te112  1  0.16405161  0.50466088  0.49584516  1
  Te  Te113  1  0.16596352  0.49924891  0.84157587  1
  Te  Te114  1  0.16926482  0.83269927  0.16397166  1
  Te  Te115  1  0.16716328  0.82480384  0.49955108  1
  Te  Te116  1  0.17231045  0.83610713  0.83877764  1
  Te  Te117  1  0.49888130  0.17052418  0.16671972  1
  Te  Te118  1  0.49433967  0.17105046  0.50088077  1
  Te  Te119  1  0.49998264  0.17003237  0.83178438  1
  Te  Te120  1  0.49866579  0.49416386  0.16773691  1
  Te  Te121  1  0.50014068  0.49762110  0.49154018  1
  Te  Te122  1  0.50288119  0.49879584  0.83699500  1
  Te  Te123  1  0.49523240  0.83351489  0.16901025  1
  Te  Te124  1  0.49932022  0.82616131  0.50108465  1
  Te  Te125  1  0.49437717  0.82903415  0.83058607  1
  Te  Te126  1  0.83093293  0.17100727  0.17241436  1
  Te  Te127  1  0.83670131  0.17156434  0.49888641  1
  Te  Te128  1  0.83066286  0.17127630  0.82813675  1
  Te  Te129  1  0.83231476  0.49032527  0.16723534  1
  Te  Te130  1  0.83755698  0.49968860  0.49961148  1
  Te  Te131  1  0.82593731  0.49236710  0.83224147  1
  Te  Te132  1  0.83474711  0.83386411  0.17093712  1
  Te  Te133  1  0.83352848  0.83156663  0.50018994  1
  Te  Te134  1  0.83461917  0.83433108  0.82721222  1
  Te  Te135  1  0.16672170  -0.00282981  0.00240280  1
  Te  Te136  1  0.17034415  0.00424547  0.32967151  1
  Te  Te137  1  0.17100670  -0.00065902  0.66908840  1
  Te  Te138  1  0.16674159  0.33502261  0.00419648  1
  Te  Te139  1  0.16737775  0.33342296  0.33023490  1
  Te  Te140  1  0.16678928  0.33374308  0.66666003  1
  Te  Te141  1  0.16490688  0.66466442  -0.00084308  1
  Te  Te142  1  0.16306736  0.66417847  0.33652700  1
  Te  Te143  1  0.15942764  0.66625333  0.66281048  1
  Te  Te144  1  0.50738425  -0.00262735  0.00022757  1
  Te  Te145  1  0.50028385  -0.00196502  0.33493839  1
  Te  Te146  1  0.49990110  -0.00340984  0.66628177  1
  Te  Te147  1  0.49790804  0.33705844  0.00074326  1
  Te  Te148  1  0.50015235  0.33055163  0.33381100  1
  Te  Te149  1  0.50163197  0.33430377  0.66526762  1
  Te  Te150  1  0.50246799  0.66025663  0.00035538  1
  Te  Te151  1  0.50077070  0.67406417  0.33699902  1
  Te  Te152  1  0.50200948  0.66247153  0.66511322  1
  Te  Te153  1  0.82611223  -0.00063599  0.00020655  1
  Te  Te154  1  0.82952089  -0.00248047  0.33363576  1
  Te  Te155  1  0.82973109  -0.00116343  0.66645953  1
  Te  Te156  1  0.83779460  0.33386840  0.00108186  1
  Te  Te157  1  0.83139461  0.33283096  0.33502751  1
  Te  Te158  1  0.83055895  0.33040837  0.66496906  1
  Te  Te159  1  0.83410682  0.66633794  -0.00027633  1
  Te  Te160  1  0.83613078  0.66972540  0.33789757  1
  Te  Te161  1  0.83338697  0.66939618  0.66334024  1
  Te  Te162  1  -0.00089260  0.17472436  0.00011060  1
  Te  Te163  1  -0.00366514  0.17069336  0.33359056  1
  Te  Te164  1  -0.00473794  0.16556104  0.66539594  1
  Te  Te165  1  0.00355337  0.49964356  -0.00022790  1
  Te  Te166  1  0.00095930  0.49968787  0.33508019  1
  Te  Te167  1  0.00004158  0.50689388  0.66246804  1
  Te  Te168  1  0.00415048  0.83138116  0.00440664  1
  Te  Te169  1  -0.00250056  0.83278536  0.32804066  1
  Te  Te170  1  -0.00215145  0.82799308  0.66725021  1
  Te  Te171  1  0.33340357  0.17194479  -0.00112072  1
  Te  Te172  1  0.33728066  0.16441590  0.33187142  1
  Te  Te173  1  0.33695692  0.16497658  0.66816814  1
  Te  Te174  1  0.33234741  0.49532362  0.00051302  1
  Te  Te175  1  0.33304798  0.50343622  0.33284507  1
  Te  Te176  1  0.33163817  0.50645920  0.66639986  1
  Te  Te177  1  0.32931786  0.83329762  -0.00101331  1
  Te  Te178  1  0.33628157  0.84028048  0.33119487  1
  Te  Te179  1  0.33784705  0.83425186  0.66946527  1
  Te  Te180  1  0.66691156  0.16199394  -0.00037955  1
  Te  Te181  1  0.66335425  0.16911692  0.33571683  1
  Te  Te182  1  0.66379830  0.16772182  0.66438203  1
  Te  Te183  1  0.66297897  0.50423905  -0.00434968  1
  Te  Te184  1  0.65966702  0.49517022  0.33217124  1
  Te  Te185  1  0.66631122  0.50300118  0.67298328  1
  Te  Te186  1  0.66671557  0.83279576  -0.00018158  1
  Te  Te187  1  0.66613804  0.83251242  0.33213455  1
  Te  Te188  1  0.66347224  0.82975559  0.66752198  1
  Te  Te189  1  0.00714964  -0.00610795  0.16568777  1
  Te  Te190  1  0.00200479  -0.00055657  0.50080879  1
  Te  Te191  1  0.00952002  0.00028573  0.83477208  1
  Te  Te192  1  0.00173120  0.33347128  0.16904301  1
  Te  Te193  1  -0.00041259  0.34065923  0.49516579  1
  Te  Te194  1  -0.00089502  0.33417122  0.83505274  1
  Te  Te195  1  -0.00107935  0.67063721  0.16352909  1
  Te  Te196  1  -0.00221458  0.66349147  0.49782153  1
  Te  Te197  1  -0.00081753  0.66539115  0.83882897  1
  Te  Te198  1  0.33075346  0.00268244  0.16628756  1
  Te  Te199  1  0.33324308  0.00591334  0.50046800  1
  Te  Te200  1  0.33242536  0.00115894  0.83303884  1
  Te  Te201  1  0.33384289  0.32939339  0.16467964  1
  Te  Te202  1  0.33688300  0.33013535  0.50661107  1
  Te  Te203  1  0.33761028  0.33008422  0.83159033  1
  Te  Te204  1  0.33363222  0.67563852  0.16690514  1
  Te  Te205  1  0.33769913  0.66635469  0.50605585  1
  Te  Te206  1  0.33874615  0.66817229  0.82844424  1
  Te  Te207  1  0.66630518  0.00707293  0.17196655  1
  Te  Te208  1  0.66663350  -0.00115255  0.50068683  1
  Te  Te209  1  0.66640231  0.00647694  0.82962017  1
  Te  Te210  1  0.66439829  0.32826256  0.16526603  1
  Te  Te211  1  0.66615622  0.33546120  0.50032735  1
  Te  Te212  1  0.66464448  0.33135167  0.83432769  1
  Te  Te213  1  0.66806088  0.66682073  0.16027262  1
  Te  Te214  1  0.66723720  0.66366494  0.50429396  1
  Te  Te215  1  0.66256748  0.66933357  0.83277090  1
