# generated using pymatgen
data_AgSbTe2
_symmetry_space_group_name_H-M   'P 1'
_cell_length_a   18.33869380
_cell_length_b   18.34153344
_cell_length_c   18.33187081
_cell_angle_alpha   89.99914562
_cell_angle_beta   89.99737153
_cell_angle_gamma   89.99604287
_symmetry_Int_Tables_number   1
_chemical_formula_structural   AgSbTe2
_chemical_formula_sum   'Ag54 Sb54 Te108'
_cell_volume   6166.10374791
_cell_formula_units_Z   54
loop_
 _symmetry_equiv_pos_site_id
 _symmetry_equiv_pos_as_xyz
  1  'x, y, z'
loop_
 _atom_site_type_symbol
 _atom_site_label
 _atom_site_symmetry_multiplicity
 _atom_site_fract_x
 _atom_site_fract_y
 _atom_site_fract_z
 _atom_site_occupancy
  Ag  Ag0  1  0.32918930  0.16682516  0.16838960  1
  Ag  Ag1  1  0.49410878  0.83360996  0.33213670  1
  Ag  Ag2  1  0.16403217  0.83512917  0.67246155  1
  Ag  Ag3  1  0.00377869  0.32774776  0.67460153  1
  Ag  Ag4  1  0.32239040  0.83125644  0.83744473  1
  Ag  Ag5  1  0.83488588  0.49879317  -0.00255652  1
  Ag  Ag6  1  0.00425964  0.48642927  0.83267305  1
  Ag  Ag7  1  0.16344142  0.00083184  0.83331783  1
  Ag  Ag8  1  0.32955534  0.50091379  0.50071414  1
  Ag  Ag9  1  0.49971852  0.66936656  0.16875381  1
  Ag  Ag10  1  0.15750102  0.33636714  0.50704516  1
  Ag  Ag11  1  0.82748846  0.66587946  0.16175590  1
  Ag  Ag12  1  0.00249410  0.17204978  0.83466196  1
  Ag  Ag13  1  0.01131912  0.49034029  0.50959081  1
  Ag  Ag14  1  0.00702862  0.83827851  0.83708919  1
  Ag  Ag15  1  0.00419705  0.66858617  -0.00078971  1
  Ag  Ag16  1  0.50240131  0.33333003  0.83539178  1
  Ag  Ag17  1  0.84525889  0.17233374  -0.00162779  1
  Ag  Ag18  1  0.32784072  0.50120703  0.83738273  1
  Ag  Ag19  1  0.49803055  -0.00638428  0.16580642  1
  Ag  Ag20  1  0.32946447  0.66397582  0.00385455  1
  Ag  Ag21  1  0.84236403  0.33181536  0.50264869  1
  Ag  Ag22  1  0.15746011  0.16284550  -0.01041578  1
  Ag  Ag23  1  0.00303665  0.16654035  0.14966172  1
  Ag  Ag24  1  0.66020188  0.50417377  0.15636622  1
  Ag  Ag25  1  0.00544333  0.01128666  0.67555048  1
  Ag  Ag26  1  0.84271912  0.83070576  -0.00151432  1
  Ag  Ag27  1  0.33513638  0.66982187  0.33056543  1
  Ag  Ag28  1  0.00255358  0.00875421  -0.00794828  1
  Ag  Ag29  1  -0.00097971  0.32129240  -0.01219224  1
  Ag  Ag30  1  0.50284789  0.50194298  -0.00202194  1
  Ag  Ag31  1  0.16003446  0.83599887  -0.01016802  1
  Ag  Ag32  1  0.66751986  0.33298077  0.33806011  1
  Ag  Ag33  1  0.66558253  0.49385706  0.50128011  1
  Ag  Ag34  1  0.00421671  0.83437800  0.50757683  1
  Ag  Ag35  1  0.48992931  0.66742326  0.49190491  1
  Ag  Ag36  1  0.15560008  0.32775664  0.82773860  1
  Ag  Ag37  1  0.67107921  0.17402566  0.50358804  1
  Ag  Ag38  1  0.16868061  0.66176055  0.49911641  1
  Ag  Ag39  1  0.33542423  -0.00641428  0.33393071  1
  Ag  Ag40  1  0.16437382  0.49123948  0.66726360  1
  Ag  Ag41  1  0.33785766  0.50297869  0.15950326  1
  Ag  Ag42  1  0.66401827  0.82497551  0.16189382  1
  Ag  Ag43  1  0.67455824  0.17375816  0.83132842  1
  Ag  Ag44  1  0.16187844  0.17120216  0.67138454  1
  Ag  Ag45  1  0.83526418  0.16941234  0.33177695  1
  Ag  Ag46  1  0.00463830  0.17211991  0.50644271  1
  Ag  Ag47  1  0.49737405  -0.00151031  0.49756964  1
  Ag  Ag48  1  0.17291409  0.83407395  0.33663718  1
  Ag  Ag49  1  0.66758591  0.83733070  0.83849745  1
  Ag  Ag50  1  0.32697131  0.16984226  0.49523042  1
  Ag  Ag51  1  0.84337842  0.33300905  0.83381425  1
  Ag  Ag52  1  0.49536908  0.00050382  0.83510807  1
  Ag  Ag53  1  0.66667228  0.49420070  0.83702667  1
  Sb  Sb54  1  0.66740364  0.66529564  0.00142689  1
  Sb  Sb55  1  0.66020998  0.00321377  0.33312569  1
  Sb  Sb56  1  0.49805081  0.16975301  -0.00222538  1
  Sb  Sb57  1  0.16847095  0.00171330  0.50623165  1
  Sb  Sb58  1  0.50121701  0.33657863  0.16225010  1
  Sb  Sb59  1  0.66980260  -0.00075336  -0.00224722  1
  Sb  Sb60  1  0.16364807  0.16321389  0.33625613  1
  Sb  Sb61  1  0.66118666  0.66216955  0.33103062  1
  Sb  Sb62  1  0.16822166  0.50320626  0.34178757  1
  Sb  Sb63  1  0.32717785  0.33718419  -0.00281018  1
  Sb  Sb64  1  0.32698883  0.83153399  0.49964811  1
  Sb  Sb65  1  0.84201677  0.83301720  0.67661088  1
  Sb  Sb66  1  0.84192242  0.16909177  0.67027716  1
  Sb  Sb67  1  0.32427023  0.33330804  0.66703971  1
  Sb  Sb68  1  0.66734783  0.16823626  0.16513386  1
  Sb  Sb69  1  0.83365177  0.33540324  0.16294971  1
  Sb  Sb70  1  0.00068016  0.49690469  0.16027486  1
  Sb  Sb71  1  0.33700541  0.33439711  0.33534893  1
  Sb  Sb72  1  0.49505560  0.83429047  0.66550985  1
  Sb  Sb73  1  0.49890342  0.82898258  0.00213309  1
  Sb  Sb74  1  -0.00271119  0.83687680  0.15983178  1
  Sb  Sb75  1  0.67320079  0.33268612  0.66666383  1
  Sb  Sb76  1  0.00433617  0.66424466  0.67159061  1
  Sb  Sb77  1  0.17083665  -0.00041431  0.16081306  1
  Sb  Sb78  1  0.50121212  0.16156933  0.33429397  1
  Sb  Sb79  1  0.83600355  0.66180771  0.84164234  1
  Sb  Sb80  1  0.83011723  -0.00145973  0.16306628  1
  Sb  Sb81  1  0.66730004  0.83286091  0.49963367  1
  Sb  Sb82  1  0.17044544  0.66717857  0.16772418  1
  Sb  Sb83  1  0.84086942  0.00567356  0.83584327  1
  Sb  Sb84  1  0.83043471  0.49455283  0.32977772  1
  Sb  Sb85  1  0.32693298  0.16768525  0.83404494  1
  Sb  Sb86  1  0.00687255  0.00104044  0.33297367  1
  Sb  Sb87  1  0.49449627  0.49935028  0.67035673  1
  Sb  Sb88  1  0.83225137  0.00814841  0.49816135  1
  Sb  Sb89  1  0.83814960  0.65956467  0.49104958  1
  Sb  Sb90  1  0.67063137  0.00194707  0.66936555  1
  Sb  Sb91  1  0.49961283  0.50514391  0.33015335  1
  Sb  Sb92  1  0.67315301  0.33570079  -0.00153117  1
  Sb  Sb93  1  -0.00320425  0.33184508  0.33725069  1
  Sb  Sb94  1  0.32925273  -0.00285163  0.00137148  1
  Sb  Sb95  1  0.49379130  0.16638200  0.66688865  1
  Sb  Sb96  1  0.32993685  0.66620112  0.66582576  1
  Sb  Sb97  1  0.00595465  0.66857526  0.32982845  1
  Sb  Sb98  1  0.83928203  0.49800770  0.67208711  1
  Sb  Sb99  1  0.66474448  0.66517891  0.66740669  1
  Sb  Sb100  1  0.50003515  0.33415029  0.50480656  1
  Sb  Sb101  1  0.49816520  0.66681443  0.83651883  1
  Sb  Sb102  1  0.33714430  0.83108466  0.16554082  1
  Sb  Sb103  1  0.83405779  0.83762455  0.33012560  1
  Sb  Sb104  1  0.16633184  0.66775993  0.83097482  1
  Sb  Sb105  1  0.32691285  0.00002623  0.66494199  1
  Sb  Sb106  1  0.16429599  0.50038695  -0.00718181  1
  Sb  Sb107  1  0.16574430  0.33162063  0.16418935  1
  Te  Te108  1  0.16680709  0.16654310  0.16593132  1
  Te  Te109  1  0.16666023  0.16765029  0.50117421  1
  Te  Te110  1  0.16633391  0.16771201  0.83191817  1
  Te  Te111  1  0.17264592  0.49911155  0.16817314  1
  Te  Te112  1  0.16800757  0.49858423  0.50294175  1
  Te  Te113  1  0.16543643  0.50060199  0.82923898  1
  Te  Te114  1  0.16626194  0.83300266  0.17024181  1
  Te  Te115  1  0.16436218  0.83541155  0.49947909  1
  Te  Te116  1  0.16609176  0.83083738  0.83382494  1
  Te  Te117  1  0.49629915  0.16459940  0.16578705  1
  Te  Te118  1  0.49917706  0.16382679  0.50050828  1
  Te  Te119  1  0.49858999  0.16421021  0.83362909  1
  Te  Te120  1  0.49920856  0.50189254  0.16321526  1
  Te  Te121  1  0.49819836  0.50206703  0.50125831  1
  Te  Te122  1  0.50127693  0.50135582  0.83628005  1
  Te  Te123  1  0.50263860  0.83256103  0.16861204  1
  Te  Te124  1  0.50103004  0.83364772  0.49756186  1
  Te  Te125  1  0.50552411  0.83561887  0.83372423  1
  Te  Te126  1  0.83591084  0.16679499  0.16286557  1
  Te  Te127  1  0.83025824  0.17071817  0.50153764  1
  Te  Te128  1  0.83403753  0.17051069  0.83626407  1
  Te  Te129  1  0.83182683  0.50329496  0.16195866  1
  Te  Te130  1  0.82760393  0.49525493  0.49883597  1
  Te  Te131  1  0.83416062  0.49600581  0.83705620  1
  Te  Te132  1  0.82756894  0.83004846  0.16287075  1
  Te  Te133  1  0.83853159  0.83266075  0.49964201  1
  Te  Te134  1  0.82852236  0.83219943  0.83993307  1
  Te  Te135  1  0.16338260  -0.00113518  -0.00517007  1
  Te  Te136  1  0.17445685  -0.00526840  0.33265110  1
  Te  Te137  1  0.16245926  -0.00307458  0.67215454  1
  Te  Te138  1  0.15992057  0.33006268  -0.00407838  1
  Te  Te139  1  0.16808854  0.33251243  0.33993448  1
  Te  Te140  1  0.16244876  0.33247875  0.66749822  1
  Te  Te141  1  0.16823718  0.67018988  0.00069493  1
  Te  Te142  1  0.17249919  0.67232517  0.33761250  1
  Te  Te143  1  0.16682816  0.67253679  0.65710087  1
  Te  Te144  1  0.49948363  0.00014205  -0.00230596  1
  Te  Te145  1  0.49523632  -0.00451216  0.33382037  1
  Te  Te146  1  0.50021441  -0.00080594  0.66920861  1
  Te  Te147  1  0.50007121  0.33971024  -0.00524630  1
  Te  Te148  1  0.50642818  0.33265283  0.33417200  1
  Te  Te149  1  0.50102014  0.33299224  0.67606929  1
  Te  Te150  1  0.49370518  0.66197247  0.00371647  1
  Te  Te151  1  0.49589712  0.67092396  0.33147543  1
  Te  Te152  1  0.49807137  0.66697084  0.65370488  1
  Te  Te153  1  0.83980070  -0.00221213  0.00003182  1
  Te  Te154  1  0.83297552  0.00758324  0.33142145  1
  Te  Te155  1  0.84471682  -0.00111138  0.66519659  1
  Te  Te156  1  0.83821247  0.33413681  -0.00315091  1
  Te  Te157  1  0.82935569  0.32807241  0.33718432  1
  Te  Te158  1  0.84175712  0.33440401  0.66686319  1
  Te  Te159  1  0.83443496  0.66606301  0.00416059  1
  Te  Te160  1  0.83389407  0.66823804  0.32286833  1
  Te  Te161  1  0.83299972  0.66627434  0.66284010  1
  Te  Te162  1  0.00095571  0.16524741  -0.00567913  1
  Te  Te163  1  -0.00431027  0.16513801  0.34523599  1
  Te  Te164  1  0.00367883  0.16794084  0.66668339  1
  Te  Te165  1  -0.00258555  0.50665553  -0.00260056  1
  Te  Te166  1  -0.00081810  0.50099248  0.33801280  1
  Te  Te167  1  0.00411985  0.49838976  0.66860945  1
  Te  Te168  1  0.00076773  0.83043779  -0.00031065  1
  Te  Te169  1  0.00376733  0.83468819  0.33658368  1
  Te  Te170  1  0.00414837  0.83093841  0.66799782  1
  Te  Te171  1  0.32966785  0.16734348  0.00518385  1
  Te  Te172  1  0.33300873  0.16606862  0.33359552  1
  Te  Te173  1  0.32465533  0.16628134  0.65912227  1
  Te  Te174  1  0.33143504  0.50231956  -0.00105233  1
  Te  Te175  1  0.33451278  0.50385814  0.33654001  1
  Te  Te176  1  0.32657277  0.50021657  0.66668206  1
  Te  Te177  1  0.33044192  0.82943052  -0.00278146  1
  Te  Te178  1  0.33442983  0.83205137  0.33324942  1
  Te  Te179  1  0.32748432  0.83325645  0.67653177  1
  Te  Te180  1  0.66987132  0.16776177  -0.00581643  1
  Te  Te181  1  0.67131738  0.17017052  0.33476097  1
  Te  Te182  1  0.66496823  0.16653369  0.66844802  1
  Te  Te183  1  0.66732064  0.49944753  -0.00145983  1
  Te  Te184  1  0.66597573  0.49528610  0.33931373  1
  Te  Te185  1  0.66630418  0.49946139  0.66835232  1
  Te  Te186  1  0.66821020  0.83255237  0.00033697  1
  Te  Te187  1  0.66440662  0.83413026  0.33014672  1
  Te  Te188  1  0.66778926  0.83359691  0.67323474  1
  Te  Te189  1  -0.00038870  0.00680280  0.16417395  1
  Te  Te190  1  -0.00014386  -0.00072146  0.50046088  1
  Te  Te191  1  0.00183054  -0.00239063  0.83428461  1
  Te  Te192  1  0.00021134  0.32724085  0.16594584  1
  Te  Te193  1  -0.00066803  0.33376481  0.49904745  1
  Te  Te194  1  0.00066753  0.33237126  0.83360515  1
  Te  Te195  1  -0.00181667  0.66621755  0.16135397  1
  Te  Te196  1  0.00389823  0.66748711  0.49831277  1
  Te  Te197  1  -0.00042604  0.67636455  0.83890040  1
  Te  Te198  1  0.33802714  0.00254612  0.16982219  1
  Te  Te199  1  0.33712182  0.00094443  0.49789265  1
  Te  Te200  1  0.33275023  -0.00092730  0.83330268  1
  Te  Te201  1  0.33380726  0.33456888  0.16741514  1
  Te  Te202  1  0.33250101  0.33414313  0.49996192  1
  Te  Te203  1  0.33872462  0.33823060  0.83319648  1
  Te  Te204  1  0.33651678  0.66428562  0.16727550  1
  Te  Te205  1  0.33122452  0.66579463  0.49800971  1
  Te  Te206  1  0.33392128  0.66375426  0.83722432  1
  Te  Te207  1  0.65813470  -0.00212987  0.16581009  1
  Te  Te208  1  0.66058219  0.00339763  0.50164857  1
  Te  Te209  1  0.66295439  -0.00029063  0.83238153  1
  Te  Te210  1  0.66657270  0.33936888  0.17249676  1
  Te  Te211  1  0.66524770  0.33259796  0.50047422  1
  Te  Te212  1  0.66534595  0.33344146  0.83264356  1
  Te  Te213  1  0.66226956  0.66409890  0.16714253  1
  Te  Te214  1  0.66669424  0.66251929  0.49934954  1
  Te  Te215  1  0.66686662  0.66282712  0.83297069  1
