# generated using pymatgen
data_AgSbTe2
_symmetry_space_group_name_H-M   'P 1'
_cell_length_a   18.33422449
_cell_length_b   18.33713704
_cell_length_c   18.33445230
_cell_angle_alpha   90.00257114
_cell_angle_beta   90.00498243
_cell_angle_gamma   90.00112522
_symmetry_Int_Tables_number   1
_chemical_formula_structural   AgSbTe2
_chemical_formula_sum   'Ag54 Sb54 Te108'
_cell_volume   6163.99125668
_cell_formula_units_Z   54
loop_
 _symmetry_equiv_pos_site_id
 _symmetry_equiv_pos_as_xyz
  1  'x, y, z'
loop_
 _atom_site_type_symbol
 _atom_site_label
 _atom_site_symmetry_multiplicity
 _atom_site_fract_x
 _atom_site_fract_y
 _atom_site_fract_z
 _atom_site_occupancy
  Ag  Ag0  1  0.16372811  0.50067193  -0.00768365  1
  Ag  Ag1  1  -0.00021665  0.82362290  0.83420111  1
  Ag  Ag2  1  0.50323802  -0.00134075  0.17091471  1
  Ag  Ag3  1  0.15754829  0.34458637  0.83007679  1
  Ag  Ag4  1  0.50178717  0.49513945  0.33165208  1
  Ag  Ag5  1  -0.00446771  0.33320630  0.33630194  1
  Ag  Ag6  1  0.50873008  0.33998459  0.17598785  1
  Ag  Ag7  1  0.16482264  0.33587557  0.50043850  1
  Ag  Ag8  1  0.17797508  0.83330433  0.32974127  1
  Ag  Ag9  1  0.33722176  0.66632322  0.33062160  1
  Ag  Ag10  1  0.16072003  0.49765246  0.67455711  1
  Ag  Ag11  1  0.33536420  0.83389653  0.49041727  1
  Ag  Ag12  1  0.83245176  0.82810383  0.66736225  1
  Ag  Ag13  1  0.83619921  0.33941430  0.82786600  1
  Ag  Ag14  1  0.66734695  0.65315645  0.66856063  1
  Ag  Ag15  1  0.66835185  0.48894643  0.51128935  1
  Ag  Ag16  1  0.82350927  0.33288226  0.49983907  1
  Ag  Ag17  1  0.83572589  0.16853332  0.00086645  1
  Ag  Ag18  1  0.66577242  0.17619705  0.49885885  1
  Ag  Ag19  1  0.50458151  0.66638293  0.83732710  1
  Ag  Ag20  1  0.15972513  0.17280376  -0.00132711  1
  Ag  Ag21  1  0.51088231  0.33301112  0.49277914  1
  Ag  Ag22  1  0.50396775  -0.00291410  0.83125449  1
  Ag  Ag23  1  -0.00669793  0.00421814  0.33773364  1
  Ag  Ag24  1  0.66611345  0.34252756  0.65360912  1
  Ag  Ag25  1  0.82597363  0.00818270  0.50322013  1
  Ag  Ag26  1  0.50281075  0.66358557  0.16611471  1
  Ag  Ag27  1  0.00191941  0.66592382  -0.00444318  1
  Ag  Ag28  1  0.34496440  0.50319688  0.17017479  1
  Ag  Ag29  1  -0.00209692  0.17239789  0.83757382  1
  Ag  Ag30  1  0.16942308  0.82958208  0.00175089  1
  Ag  Ag31  1  0.49630172  0.82934919  0.32793237  1
  Ag  Ag32  1  -0.00974692  0.00118578  0.66508232  1
  Ag  Ag33  1  0.66604850  0.33302769  0.34067240  1
  Ag  Ag34  1  0.66622672  0.17519615  0.17170353  1
  Ag  Ag35  1  0.67565769  0.50021439  0.82343157  1
  Ag  Ag36  1  0.66274368  0.49207911  0.16826786  1
  Ag  Ag37  1  0.50566322  0.16307012  0.00055054  1
  Ag  Ag38  1  0.15413765  0.65904271  0.83613392  1
  Ag  Ag39  1  -0.00655767  0.49502875  0.50849930  1
  Ag  Ag40  1  0.33924254  0.82621540  0.17159728  1
  Ag  Ag41  1  0.82503255  0.33650648  0.16920444  1
  Ag  Ag42  1  0.83571522  0.65841255  0.83398684  1
  Ag  Ag43  1  0.49538240  0.83543180  0.00853976  1
  Ag  Ag44  1  0.82728165  0.50037953  0.67042176  1
  Ag  Ag45  1  0.50574789  0.17022124  0.66892946  1
  Ag  Ag46  1  0.66555923  0.00774641  0.34033735  1
  Ag  Ag47  1  0.50990325  0.00600986  0.49853521  1
  Ag  Ag48  1  -0.00429042  0.49980586  0.82837380  1
  Ag  Ag49  1  0.34992638  0.34059976  0.33352497  1
  Ag  Ag50  1  0.82509360  0.65881819  0.16114333  1
  Ag  Ag51  1  0.51276938  0.49675806  0.66105387  1
  Ag  Ag52  1  -0.00897894  0.16849254  0.15950857  1
  Ag  Ag53  1  0.66810086  0.00339980  0.65882836  1
  Sb  Sb54  1  0.83685924  0.49576734  -0.00545995  1
  Sb  Sb55  1  0.50383268  0.16899214  0.33133688  1
  Sb  Sb56  1  -0.00056896  0.00054241  -0.00184567  1
  Sb  Sb57  1  0.33169776  0.83120479  0.83506217  1
  Sb  Sb58  1  0.83012251  0.83370723  0.33687075  1
  Sb  Sb59  1  0.33283904  0.33489127  0.00552519  1
  Sb  Sb60  1  0.82729253  0.17093128  0.66958108  1
  Sb  Sb61  1  0.49804205  0.50072246  0.00284041  1
  Sb  Sb62  1  0.82659577  0.49783565  0.33713905  1
  Sb  Sb63  1  0.33946880  0.33626425  0.66115126  1
  Sb  Sb64  1  0.16676496  0.17406844  0.67088976  1
  Sb  Sb65  1  -0.00055728  0.33509349  -0.00100940  1
  Sb  Sb66  1  0.16692131  0.66077434  0.50477894  1
  Sb  Sb67  1  0.17103134  0.50084513  0.33302810  1
  Sb  Sb68  1  0.00298563  0.83651880  0.16352861  1
  Sb  Sb69  1  0.50444225  0.33578268  0.83210327  1
  Sb  Sb70  1  0.65975420  0.83271455  0.16779095  1
  Sb  Sb71  1  0.16984012  -0.00010073  0.16785732  1
  Sb  Sb72  1  0.33625224  -0.00112766  0.00160365  1
  Sb  Sb73  1  0.83136914  0.66194073  0.50352900  1
  Sb  Sb74  1  0.83069198  0.00131990  0.82666868  1
  Sb  Sb75  1  0.66925327  0.82839888  0.83017419  1
  Sb  Sb76  1  -0.00405738  0.49516033  0.16545879  1
  Sb  Sb77  1  0.50558222  0.83174558  0.66549929  1
  Sb  Sb78  1  0.66454029  0.00170685  0.00052467  1
  Sb  Sb79  1  0.16955025  0.66590357  0.16161271  1
  Sb  Sb80  1  0.33223694  0.50047452  0.83702287  1
  Sb  Sb81  1  0.33922421  0.66466850  0.66385140  1
  Sb  Sb82  1  0.33101009  0.66646879  0.00468213  1
  Sb  Sb83  1  0.50126978  0.66377064  0.49755806  1
  Sb  Sb84  1  0.66861721  0.66510596  -0.00340344  1
  Sb  Sb85  1  0.83385697  0.83436873  -0.00447699  1
  Sb  Sb86  1  0.34266098  0.16602816  0.49799589  1
  Sb  Sb87  1  0.16248438  0.16571975  0.32951649  1
  Sb  Sb88  1  0.16090285  0.82829642  0.66848382  1
  Sb  Sb89  1  0.66965374  0.17227997  0.83202534  1
  Sb  Sb90  1  0.34046393  -0.00216958  0.33280627  1
  Sb  Sb91  1  0.66248993  0.83631924  0.50025511  1
  Sb  Sb92  1  -0.00645441  0.17153363  0.50113476  1
  Sb  Sb93  1  0.34018285  0.16867693  0.16736145  1
  Sb  Sb94  1  0.66714330  0.33316262  0.00318556  1
  Sb  Sb95  1  0.16515317  0.33319697  0.16765717  1
  Sb  Sb96  1  0.16584500  -0.00055654  0.83286492  1
  Sb  Sb97  1  -0.00720611  0.33335841  0.66549200  1
  Sb  Sb98  1  -0.00677323  0.66454551  0.67368023  1
  Sb  Sb99  1  0.00190135  0.83129428  0.50284499  1
  Sb  Sb100  1  0.33872625  0.50054535  0.49493253  1
  Sb  Sb101  1  0.83105617  0.17060933  0.32889350  1
  Sb  Sb102  1  0.82781324  0.00296083  0.17288623  1
  Sb  Sb103  1  0.00368385  0.66506509  0.32782747  1
  Sb  Sb104  1  0.66137665  0.66259405  0.33561749  1
  Sb  Sb105  1  0.16488721  0.00438945  0.49893040  1
  Sb  Sb106  1  0.33898336  -0.00136368  0.66445325  1
  Sb  Sb107  1  0.33224690  0.16843280  0.83504190  1
  Te  Te108  1  0.16417969  0.16575336  0.15989987  1
  Te  Te109  1  0.16750614  0.17317211  0.50086535  1
  Te  Te110  1  0.16223065  0.16661215  0.83805888  1
  Te  Te111  1  0.16539097  0.49971945  0.16343241  1
  Te  Te112  1  0.16606218  0.49619680  0.50074058  1
  Te  Te113  1  0.16883276  0.50113960  0.83443451  1
  Te  Te114  1  0.17137100  0.83363719  0.16547789  1
  Te  Te115  1  0.16997911  0.83324183  0.49849973  1
  Te  Te116  1  0.16339622  0.83069645  0.83701801  1
  Te  Te117  1  0.50277142  0.16613606  0.16327336  1
  Te  Te118  1  0.50496122  0.16809123  0.50289879  1
  Te  Te119  1  0.50031932  0.16605551  0.83514425  1
  Te  Te120  1  0.50130363  0.49947081  0.16498777  1
  Te  Te121  1  0.50321272  0.49660645  0.50042527  1
  Te  Te122  1  0.50012812  0.50323386  0.83457411  1
  Te  Te123  1  0.49868892  0.83175645  0.16720998  1
  Te  Te124  1  0.49642438  0.83417076  0.49716010  1
  Te  Te125  1  0.50031229  0.83180871  0.83381950  1
  Te  Te126  1  0.83106408  0.16800750  0.16239813  1
  Te  Te127  1  0.82752824  0.16912912  0.50206610  1
  Te  Te128  1  0.83723984  0.16931220  0.83781337  1
  Te  Te129  1  0.83004018  0.49821455  0.16504096  1
  Te  Te130  1  0.83243455  0.49676086  0.50311818  1
  Te  Te131  1  0.83452754  0.49929125  0.83299429  1
  Te  Te132  1  0.83283980  0.82907139  0.16545434  1
  Te  Te133  1  0.83471620  0.83327482  0.50554215  1
  Te  Te134  1  0.83831251  0.83142226  0.82949727  1
  Te  Te135  1  0.16733218  -0.00471060  -0.00007991  1
  Te  Te136  1  0.16157439  -0.00570033  0.33411652  1
  Te  Te137  1  0.16443999  0.00066208  0.66578507  1
  Te  Te138  1  0.16606324  0.33331130  -0.00306582  1
  Te  Te139  1  0.15608144  0.33314609  0.33603827  1
  Te  Te140  1  0.16892350  0.33699961  0.66675383  1
  Te  Te141  1  0.16492866  0.66846472  -0.00431141  1
  Te  Te142  1  0.17160517  0.67237491  0.33367424  1
  Te  Te143  1  0.16819115  0.66070129  0.67389103  1
  Te  Te144  1  0.50018495  0.00010772  0.00034952  1
  Te  Te145  1  0.50330670  0.00093818  0.33482259  1
  Te  Te146  1  0.50276719  -0.00000123  0.66426307  1
  Te  Te147  1  0.49792120  0.32704415  0.00151817  1
  Te  Te148  1  0.50470893  0.33351056  0.33312118  1
  Te  Te149  1  0.50482677  0.33523179  0.66710591  1
  Te  Te150  1  0.49996653  0.66871118  0.00170719  1
  Te  Te151  1  0.49714372  0.66734195  0.32997953  1
  Te  Te152  1  0.50593783  0.66272475  0.66921192  1
  Te  Te153  1  0.83249200  0.00574803  0.00011134  1
  Te  Te154  1  0.83195733  -0.00130865  0.34035913  1
  Te  Te155  1  0.83231552  0.00322859  0.66328781  1
  Te  Te156  1  0.83417957  0.32827916  0.00273672  1
  Te  Te157  1  0.83279865  0.33518304  0.33442268  1
  Te  Te158  1  0.82819079  0.33704373  0.66612633  1
  Te  Te159  1  0.83714035  0.66839226  -0.00103845  1
  Te  Te160  1  0.83398914  0.66684867  0.32475809  1
  Te  Te161  1  0.82874297  0.66431543  0.67015231  1
  Te  Te162  1  0.00028939  0.16633226  -0.00069514  1
  Te  Te163  1  -0.00141164  0.16572262  0.33221464  1
  Te  Te164  1  0.00029982  0.16224660  0.67093365  1
  Te  Te165  1  0.00389148  0.50398223  -0.00355303  1
  Te  Te166  1  0.00134789  0.49660501  0.33476862  1
  Te  Te167  1  0.00079925  0.49975791  0.66757458  1
  Te  Te168  1  0.00219769  0.83140627  -0.00451028  1
  Te  Te169  1  0.00120849  0.83507300  0.33309303  1
  Te  Te170  1  -0.00488373  0.83731994  0.67062246  1
  Te  Te171  1  0.32955310  0.16679292  0.00105110  1
  Te  Te172  1  0.32949882  0.17609379  0.33268906  1
  Te  Te173  1  0.34296639  0.16689883  0.66662266  1
  Te  Te174  1  0.32527838  0.49994414  0.00854414  1
  Te  Te175  1  0.33778730  0.50097626  0.32987257  1
  Te  Te176  1  0.32984704  0.50099343  0.66484724  1
  Te  Te177  1  0.33366898  0.83277361  0.00350521  1
  Te  Te178  1  0.33575521  0.83596214  0.33071419  1
  Te  Te179  1  0.33184488  0.83177011  0.66195302  1
  Te  Te180  1  0.66478458  0.16626336  0.00303910  1
  Te  Te181  1  0.66712247  0.16795192  0.33397372  1
  Te  Te182  1  0.66353914  0.16224850  0.66580631  1
  Te  Te183  1  0.66649333  0.50056819  0.00687421  1
  Te  Te184  1  0.66141842  0.49750660  0.32786809  1
  Te  Te185  1  0.66793314  0.49714726  0.66800122  1
  Te  Te186  1  0.65915312  0.83377594  -0.00138864  1
  Te  Te187  1  0.66068956  0.83588490  0.33431558  1
  Te  Te188  1  0.67309119  0.84217667  0.66599170  1
  Te  Te189  1  -0.00198136  0.00536413  0.17145569  1
  Te  Te190  1  -0.00269800  0.00074996  0.49996113  1
  Te  Te191  1  -0.00096800  0.00220788  0.83006814  1
  Te  Te192  1  -0.00295482  0.32814754  0.17035579  1
  Te  Te193  1  0.00001537  0.33499164  0.49918940  1
  Te  Te194  1  -0.00202177  0.33504395  0.83175804  1
  Te  Te195  1  -0.00295693  0.66680894  0.16014930  1
  Te  Te196  1  0.00006431  0.65804869  0.49895285  1
  Te  Te197  1  -0.00297246  0.66389034  0.83393035  1
  Te  Te198  1  0.34140210  -0.00353880  0.16804653  1
  Te  Te199  1  0.33684827  -0.00402035  0.49897577  1
  Te  Te200  1  0.34428692  -0.00050070  0.83203056  1
  Te  Te201  1  0.33486321  0.33670740  0.17313614  1
  Te  Te202  1  0.32984342  0.33323133  0.49386721  1
  Te  Te203  1  0.32393175  0.33407200  0.83241061  1
  Te  Te204  1  0.33575115  0.66598910  0.17031801  1
  Te  Te205  1  0.33328266  0.67204231  0.49364236  1
  Te  Te206  1  0.34331845  0.66757964  0.83242545  1
  Te  Te207  1  0.66245306  0.00305084  0.17087531  1
  Te  Te208  1  0.66673841  -0.00237710  0.49837320  1
  Te  Te209  1  0.66282120  0.00088555  0.82949403  1
  Te  Te210  1  0.66756093  0.33134054  0.16613835  1
  Te  Te211  1  0.66656089  0.33234162  0.49769549  1
  Te  Te212  1  0.67115047  0.33943909  0.83190162  1
  Te  Te213  1  0.66490764  0.66477527  0.16710468  1
  Te  Te214  1  0.66734058  0.65942268  0.50549235  1
  Te  Te215  1  0.66744767  0.66213496  0.83062466  1
