# generated using pymatgen
data_AgSbTe2
_symmetry_space_group_name_H-M   'P 1'
_cell_length_a   18.30299630
_cell_length_b   18.29892070
_cell_length_c   18.30307604
_cell_angle_alpha   90.00092320
_cell_angle_beta   89.99841614
_cell_angle_gamma   89.99956511
_symmetry_Int_Tables_number   1
_chemical_formula_structural   AgSbTe2
_chemical_formula_sum   'Ag54 Sb54 Te108'
_cell_volume   6130.15916868
_cell_formula_units_Z   54
loop_
 _symmetry_equiv_pos_site_id
 _symmetry_equiv_pos_as_xyz
  1  'x, y, z'
loop_
 _atom_site_type_symbol
 _atom_site_label
 _atom_site_symmetry_multiplicity
 _atom_site_fract_x
 _atom_site_fract_y
 _atom_site_fract_z
 _atom_site_occupancy
  Ag  Ag0  1  0.00083068  0.16961513  0.50568148  1
  Ag  Ag1  1  0.00016841  0.16777612  0.16377167  1
  Ag  Ag2  1  -0.00053139  0.00465725  -0.00320594  1
  Ag  Ag3  1  0.66136590  0.67103791  0.33073195  1
  Ag  Ag4  1  0.49354533  0.16212019  0.66937727  1
  Ag  Ag5  1  0.83946873  0.33043095  0.49546877  1
  Ag  Ag6  1  -0.00405676  0.49457183  0.16809724  1
  Ag  Ag7  1  0.33432765  0.16519815  0.16225592  1
  Ag  Ag8  1  -0.00267987  0.66552101  0.66727684  1
  Ag  Ag9  1  0.33264581  0.16265292  0.82922210  1
  Ag  Ag10  1  0.66658110  -0.00383889  0.33835967  1
  Ag  Ag11  1  0.49846297  0.50213402  0.33769480  1
  Ag  Ag12  1  0.33045603  0.33461968  0.33737710  1
  Ag  Ag13  1  0.00219337  0.16434163  0.83114341  1
  Ag  Ag14  1  -0.00239160  0.83562498  0.16640498  1
  Ag  Ag15  1  0.33322786  0.83715478  0.83590614  1
  Ag  Ag16  1  0.16177044  0.16410772  0.00038296  1
  Ag  Ag17  1  0.49999368  0.50036371  0.65839128  1
  Ag  Ag18  1  0.66477309  0.16352231  0.16257901  1
  Ag  Ag19  1  0.50219222  0.33220984  0.16983803  1
  Ag  Ag20  1  0.16420616  0.00075748  0.50127761  1
  Ag  Ag21  1  0.66559408  0.67031602  0.66507430  1
  Ag  Ag22  1  0.65928938  -0.00082450  0.66006349  1
  Ag  Ag23  1  0.66289115  0.50200141  0.50011047  1
  Ag  Ag24  1  0.83503237  0.00540507  0.50018550  1
  Ag  Ag25  1  0.16585944  0.67044575  0.49926818  1
  Ag  Ag26  1  0.33239372  0.32342070  0.66057200  1
  Ag  Ag27  1  0.83585441  0.83363162  0.33088543  1
  Ag  Ag28  1  -0.00058937  0.49214776  0.50209605  1
  Ag  Ag29  1  0.49712993  0.83578858  0.00147296  1
  Ag  Ag30  1  0.50076514  0.66703097  0.16745691  1
  Ag  Ag31  1  0.66669251  0.16402352  0.83670809  1
  Ag  Ag32  1  -0.00365936  0.49953138  0.82869802  1
  Ag  Ag33  1  0.49975738  0.83892493  0.66991708  1
  Ag  Ag34  1  0.33989408  0.83319048  0.16400176  1
  Ag  Ag35  1  0.83474768  0.66695763  0.83369922  1
  Ag  Ag36  1  0.33826093  0.66431757  0.33009286  1
  Ag  Ag37  1  0.00153999  0.00660171  0.66527877  1
  Ag  Ag38  1  0.16455984  0.83689676  0.33325214  1
  Ag  Ag39  1  0.16602477  0.16389148  0.66585536  1
  Ag  Ag40  1  0.33603630  0.49897440  0.49850266  1
  Ag  Ag41  1  0.00198171  0.33038474  0.33773534  1
  Ag  Ag42  1  0.16491859  0.16318736  0.33513307  1
  Ag  Ag43  1  0.83471334  0.32993409  0.17103626  1
  Ag  Ag44  1  0.66293239  0.66943101  0.00519037  1
  Ag  Ag45  1  0.83768306  0.16875473  0.00246972  1
  Ag  Ag46  1  0.49979029  0.16033687  -0.00010488  1
  Ag  Ag47  1  0.00241446  0.32718975  0.65905041  1
  Ag  Ag48  1  0.33928251  0.00667878  0.66486804  1
  Ag  Ag49  1  0.66420304  0.83305726  0.16892650  1
  Ag  Ag50  1  0.83573227  0.49761950  0.00152241  1
  Ag  Ag51  1  0.50142369  0.00187094  0.50460250  1
  Ag  Ag52  1  0.00163374  0.83629478  0.83362617  1
  Ag  Ag53  1  0.33911504  0.67111564  0.00630188  1
  Sb  Sb54  1  0.33418816  0.83198653  0.49876491  1
  Sb  Sb55  1  -0.00168361  0.32564925  0.00319946  1
  Sb  Sb56  1  0.16895611  0.83954345  0.66229957  1
  Sb  Sb57  1  0.67072726  0.49958192  0.82935240  1
  Sb  Sb58  1  0.66733569  0.33290061  0.33264826  1
  Sb  Sb59  1  0.49577493  0.16914758  0.33229250  1
  Sb  Sb60  1  0.49987214  0.00184408  0.82555481  1
  Sb  Sb61  1  -0.00244731  0.00380922  0.33695927  1
  Sb  Sb62  1  0.83511600  0.66574068  0.50216302  1
  Sb  Sb63  1  0.83155568  0.50183335  0.33180103  1
  Sb  Sb64  1  0.50320411  0.50214893  0.00232032  1
  Sb  Sb65  1  0.83770667  0.16599138  0.67022615  1
  Sb  Sb66  1  0.66923151  0.50150987  0.17022625  1
  Sb  Sb67  1  0.66658513  0.33037425  0.66406761  1
  Sb  Sb68  1  0.49972010  0.32902054  0.83382617  1
  Sb  Sb69  1  0.32788939  0.16981431  0.50314589  1
  Sb  Sb70  1  0.33088340  -0.00010280  -0.00474544  1
  Sb  Sb71  1  0.49966405  0.82996947  0.33018145  1
  Sb  Sb72  1  0.00061751  0.83613491  0.50085446  1
  Sb  Sb73  1  0.33561017  0.00058048  0.33840192  1
  Sb  Sb74  1  0.66769554  0.33278340  0.00228848  1
  Sb  Sb75  1  0.83146744  0.83429394  0.66380526  1
  Sb  Sb76  1  0.33455479  0.66843586  0.66474006  1
  Sb  Sb77  1  0.66625725  0.83637274  0.83568706  1
  Sb  Sb78  1  0.83694226  0.33402881  0.83345840  1
  Sb  Sb79  1  0.66914290  0.00014880  0.00072872  1
  Sb  Sb80  1  0.16580341  0.49550495  0.66241069  1
  Sb  Sb81  1  0.16559183  0.00221307  0.17343968  1
  Sb  Sb82  1  0.16419317  0.32869249  0.83067817  1
  Sb  Sb83  1  0.16951478  0.83911178  0.00483139  1
  Sb  Sb84  1  0.49882866  0.66601708  0.49704071  1
  Sb  Sb85  1  0.50082449  -0.00023933  0.17013187  1
  Sb  Sb86  1  0.33264731  0.49932881  0.17163723  1
  Sb  Sb87  1  0.82962067  0.66479508  0.16426315  1
  Sb  Sb88  1  0.50335687  0.66804614  0.83599471  1
  Sb  Sb89  1  0.16177863  0.49768047  0.00144887  1
  Sb  Sb90  1  0.67106068  0.16530694  0.49947449  1
  Sb  Sb91  1  0.32995783  0.49923959  0.82776103  1
  Sb  Sb92  1  0.83620448  -0.00129576  0.82846772  1
  Sb  Sb93  1  0.15994309  0.32886124  0.49964779  1
  Sb  Sb94  1  0.50081800  0.33245115  0.49733558  1
  Sb  Sb95  1  -0.00109158  0.66955029  -0.00330796  1
  Sb  Sb96  1  0.83391674  0.00457081  0.17174543  1
  Sb  Sb97  1  0.33526278  0.33099488  0.00263363  1
  Sb  Sb98  1  0.16889541  0.49938255  0.33700041  1
  Sb  Sb99  1  0.83833600  0.16528957  0.32975367  1
  Sb  Sb100  1  0.66569672  0.83276041  0.49480778  1
  Sb  Sb101  1  0.16508951  0.00223503  0.82572715  1
  Sb  Sb102  1  0.83189557  0.83497718  0.00385669  1
  Sb  Sb103  1  0.17120195  0.66932793  0.17136134  1
  Sb  Sb104  1  0.16399874  0.32905505  0.17017549  1
  Sb  Sb105  1  0.00112311  0.66488712  0.33631539  1
  Sb  Sb106  1  0.83421421  0.50002874  0.66690196  1
  Sb  Sb107  1  0.16228795  0.66871789  0.82800925  1
  Te  Te108  1  0.16625968  0.16574150  0.16785173  1
  Te  Te109  1  0.16198942  0.16320036  0.50018101  1
  Te  Te110  1  0.16527011  0.16591254  0.83215609  1
  Te  Te111  1  0.15601573  0.50086147  0.16717965  1
  Te  Te112  1  0.16471556  0.50573485  0.50009732  1
  Te  Te113  1  0.15667399  0.50048695  0.83334569  1
  Te  Te114  1  0.16528159  0.83447008  0.17262473  1
  Te  Te115  1  0.16733447  0.83387612  0.49406575  1
  Te  Te116  1  0.16613167  0.83372420  0.83429686  1
  Te  Te117  1  0.49895531  0.16689417  0.16601609  1
  Te  Te118  1  0.50139634  0.16397383  0.50405993  1
  Te  Te119  1  0.49680522  0.16726407  0.83449013  1
  Te  Te120  1  0.50059096  0.49951986  0.16945374  1
  Te  Te121  1  0.49988457  0.49927665  0.49934046  1
  Te  Te122  1  0.50018252  0.49844977  0.82760132  1
  Te  Te123  1  0.49939029  0.83210296  0.16350817  1
  Te  Te124  1  0.49979709  0.83825449  0.50774614  1
  Te  Te125  1  0.49690884  0.83336761  0.83571382  1
  Te  Te126  1  0.83522845  0.16964295  0.16373708  1
  Te  Te127  1  0.83884546  0.16702202  0.49815535  1
  Te  Te128  1  0.83631429  0.16638038  0.84016807  1
  Te  Te129  1  0.83683007  0.49523786  0.16332549  1
  Te  Te130  1  0.83751453  0.49721183  0.49981422  1
  Te  Te131  1  0.83780382  0.50251811  0.83830138  1
  Te  Te132  1  0.83318632  0.83379977  0.17055278  1
  Te  Te133  1  0.83324738  0.83776049  0.49286078  1
  Te  Te134  1  0.83860457  0.82871185  0.83501346  1
  Te  Te135  1  0.16108783  0.00651695  0.00069438  1
  Te  Te136  1  0.16771386  0.00067943  0.34163080  1
  Te  Te137  1  0.16296763  0.00417771  0.65998288  1
  Te  Te138  1  0.16798680  0.32387161  0.00038211  1
  Te  Te139  1  0.16807034  0.32794391  0.33432329  1
  Te  Te140  1  0.16799898  0.32600311  0.66508997  1
  Te  Te141  1  0.17341239  0.66710806  0.00028225  1
  Te  Te142  1  0.16961113  0.67043358  0.33805750  1
  Te  Te143  1  0.16366861  0.66826132  0.66041897  1
  Te  Te144  1  0.50039569  -0.00006173  0.00068182  1
  Te  Te145  1  0.50527495  -0.00039973  0.34197894  1
  Te  Te146  1  0.50014193  0.00089151  0.66399252  1
  Te  Te147  1  0.50071728  0.33040110  0.00843557  1
  Te  Te148  1  0.49683904  0.33734440  0.32961890  1
  Te  Te149  1  0.49742068  0.33221077  0.66595799  1
  Te  Te150  1  0.50079387  0.66786004  0.00322467  1
  Te  Te151  1  0.49999584  0.66370532  0.33084604  1
  Te  Te152  1  0.50314191  0.66650906  0.66667682  1
  Te  Te153  1  0.83774320  0.00557505  -0.00017868  1
  Te  Te154  1  0.82826693  -0.00376324  0.33857269  1
  Te  Te155  1  0.83498824  -0.00018558  0.65971004  1
  Te  Te156  1  0.83312132  0.33329250  0.00481370  1
  Te  Te157  1  0.83755932  0.33425683  0.33258359  1
  Te  Te158  1  0.83828228  0.33332175  0.66067488  1
  Te  Te159  1  0.83057799  0.66528625  -0.00353162  1
  Te  Te160  1  0.82814344  0.67242509  0.33338017  1
  Te  Te161  1  0.83252192  0.66705673  0.67022245  1
  Te  Te162  1  -0.00015552  0.16525430  0.00054068  1
  Te  Te163  1  0.00316788  0.16914420  0.33056017  1
  Te  Te164  1  -0.00045137  0.16639897  0.66742369  1
  Te  Te165  1  -0.00270743  0.49992583  0.00033214  1
  Te  Te166  1  0.00029728  0.49641674  0.33453459  1
  Te  Te167  1  0.00034931  0.50097898  0.66498823  1
  Te  Te168  1  0.00076546  0.83833498  0.00122564  1
  Te  Te169  1  0.00034992  0.83344996  0.33005646  1
  Te  Te170  1  0.00012834  0.83258875  0.66981095  1
  Te  Te171  1  0.33733304  0.16677858  0.00162247  1
  Te  Te172  1  0.32827716  0.16909576  0.33038611  1
  Te  Te173  1  0.33335200  0.16656206  0.66612227  1
  Te  Te174  1  0.33192257  0.50514999  -0.00182423  1
  Te  Te175  1  0.33550092  0.50010062  0.33598740  1
  Te  Te176  1  0.33662591  0.49874457  0.66329480  1
  Te  Te177  1  0.33560179  0.83275499  0.00132627  1
  Te  Te178  1  0.33086798  0.83116562  0.32834688  1
  Te  Te179  1  0.33702780  0.83634463  0.67087312  1
  Te  Te180  1  0.66308971  0.16578197  0.00244702  1
  Te  Te181  1  0.66619091  0.16257566  0.32878522  1
  Te  Te182  1  0.66389629  0.16342925  0.66795508  1
  Te  Te183  1  0.67196842  0.50673916  -0.00130688  1
  Te  Te184  1  0.66310390  0.50329639  0.33800092  1
  Te  Te185  1  0.66309720  0.50156838  0.66338799  1
  Te  Te186  1  0.66268666  0.83111430  0.00395256  1
  Te  Te187  1  0.66572496  0.83202253  0.32889879  1
  Te  Te188  1  0.66290493  0.83331182  0.66792477  1
  Te  Te189  1  -0.00058402  0.00003324  0.16618566  1
  Te  Te190  1  -0.00052345  0.00285301  0.50259871  1
  Te  Te191  1  -0.00070173  0.00155344  0.82981692  1
  Te  Te192  1  -0.00205041  0.33032437  0.16940217  1
  Te  Te193  1  -0.00157467  0.33190627  0.49931791  1
  Te  Te194  1  -0.00091348  0.33110400  0.82629894  1
  Te  Te195  1  -0.00023790  0.67019241  0.16648072  1
  Te  Te196  1  0.00236059  0.66546827  0.50436169  1
  Te  Te197  1  -0.00301906  0.66820470  0.82994570  1
  Te  Te198  1  0.33336764  0.00049195  0.16748670  1
  Te  Te199  1  0.33299281  0.00024235  0.50573199  1
  Te  Te200  1  0.33244838  0.00067512  0.82712067  1
  Te  Te201  1  0.33606553  0.33084089  0.17043563  1
  Te  Te202  1  0.33339044  0.33797513  0.49856022  1
  Te  Te203  1  0.33275448  0.32960903  0.82804470  1
  Te  Te204  1  0.33735279  0.66660021  0.16880069  1
  Te  Te205  1  0.33058860  0.66215801  0.49620168  1
  Te  Te206  1  0.33219292  0.66917198  0.83558333  1
  Te  Te207  1  0.66724795  -0.00070577  0.16971214  1
  Te  Te208  1  0.66831657  -0.00016074  0.50076063  1
  Te  Te209  1  0.66915102  0.00529412  0.82677213  1
  Te  Te210  1  0.66734335  0.32922054  0.16812261  1
  Te  Te211  1  0.67478378  0.33934442  0.49862013  1
  Te  Te212  1  0.66869962  0.32390149  0.83304985  1
  Te  Te213  1  0.66333044  0.66821112  0.16785143  1
  Te  Te214  1  0.66692982  0.66254364  0.50217084  1
  Te  Te215  1  0.67178380  0.66765912  0.82936061  1
