# generated using pymatgen
data_AgSbTe2
_symmetry_space_group_name_H-M   'P 1'
_cell_length_a   18.33867864
_cell_length_b   18.33852594
_cell_length_c   18.33070651
_cell_angle_alpha   89.99658839
_cell_angle_beta   89.99884078
_cell_angle_gamma   89.99837755
_symmetry_Int_Tables_number   1
_chemical_formula_structural   AgSbTe2
_chemical_formula_sum   'Ag54 Sb54 Te108'
_cell_volume   6164.69602735
_cell_formula_units_Z   54
loop_
 _symmetry_equiv_pos_site_id
 _symmetry_equiv_pos_as_xyz
  1  'x, y, z'
loop_
 _atom_site_type_symbol
 _atom_site_label
 _atom_site_symmetry_multiplicity
 _atom_site_fract_x
 _atom_site_fract_y
 _atom_site_fract_z
 _atom_site_occupancy
  Ag  Ag0  1  0.83107489  -0.00427516  0.84096467  1
  Ag  Ag1  1  0.65581011  0.32469868  0.32871379  1
  Ag  Ag2  1  0.83616674  0.15820572  0.33086936  1
  Ag  Ag3  1  0.66520760  0.67673576  -0.00478369  1
  Ag  Ag4  1  0.33142127  0.50213554  0.83823574  1
  Ag  Ag5  1  0.16161789  -0.00182093  0.48630615  1
  Ag  Ag6  1  0.50344300  0.67060374  0.83259091  1
  Ag  Ag7  1  0.00146192  0.33592632  0.00087743  1
  Ag  Ag8  1  0.49630771  0.16203366  0.33352532  1
  Ag  Ag9  1  0.49659273  0.82678764  0.66845312  1
  Ag  Ag10  1  0.50313347  -0.00780644  0.83795072  1
  Ag  Ag11  1  0.17481018  0.84146739  0.32937262  1
  Ag  Ag12  1  0.66582165  0.16285842  0.83686115  1
  Ag  Ag13  1  0.49713074  0.66973446  0.16726404  1
  Ag  Ag14  1  0.16629400  0.16003716  0.00833900  1
  Ag  Ag15  1  0.48951902  0.83483997  0.33109153  1
  Ag  Ag16  1  0.33734817  0.33689254  0.32902222  1
  Ag  Ag17  1  0.00883558  0.67910027  0.33036201  1
  Ag  Ag18  1  0.32872218  0.83130492  0.17113203  1
  Ag  Ag19  1  0.00856557  -0.00541397  0.33199850  1
  Ag  Ag20  1  0.32996796  0.67365153  0.33199834  1
  Ag  Ag21  1  0.16222037  -0.00321551  0.17237958  1
  Ag  Ag22  1  0.16857774  0.15340739  0.33009792  1
  Ag  Ag23  1  0.00278042  0.15359430  0.16767519  1
  Ag  Ag24  1  0.00552252  0.83910012  0.48875532  1
  Ag  Ag25  1  0.00341459  0.50218599  0.83677793  1
  Ag  Ag26  1  0.84172473  -0.00142229  0.16963136  1
  Ag  Ag27  1  0.49046951  0.49974185  0.33351837  1
  Ag  Ag28  1  0.16963755  0.83999333  0.01066618  1
  Ag  Ag29  1  0.00135086  -0.00362378  0.65850512  1
  Ag  Ag30  1  0.49825557  0.83356433  0.00266255  1
  Ag  Ag31  1  0.33777640  0.66524428  0.66440777  1
  Ag  Ag32  1  0.16896105  0.50111512  0.66372482  1
  Ag  Ag33  1  0.83311180  0.83520023  0.00106880  1
  Ag  Ag34  1  0.66512850  0.33153190  0.00306963  1
  Ag  Ag35  1  0.00739089  0.50300309  0.16537427  1
  Ag  Ag36  1  0.33241291  0.33401986  0.00699075  1
  Ag  Ag37  1  0.33141630  -0.00574681  0.00588046  1
  Ag  Ag38  1  0.83564610  0.50494120  -0.00008711  1
  Ag  Ag39  1  0.32884222  0.50614665  0.17211623  1
  Ag  Ag40  1  0.82846045  0.66985302  0.83681165  1
  Ag  Ag41  1  0.16400321  0.16564788  0.66539675  1
  Ag  Ag42  1  0.32003003  -0.01481846  0.32540422  1
  Ag  Ag43  1  0.00810871  0.83679556  0.17034043  1
  Ag  Ag44  1  0.66782511  0.00346245  0.32614345  1
  Ag  Ag45  1  0.66557725  -0.00269106  0.00181259  1
  Ag  Ag46  1  0.65261939  0.66681855  0.67591111  1
  Ag  Ag47  1  0.17253628  0.50179170  0.33070934  1
  Ag  Ag48  1  0.32894142  0.83412045  0.48457928  1
  Ag  Ag49  1  0.49004159  0.50993325  0.66624263  1
  Ag  Ag50  1  0.49823423  0.33459604  0.49200537  1
  Ag  Ag51  1  0.00342916  0.66759325  0.66697665  1
  Ag  Ag52  1  0.84340999  -0.00135894  0.48518588  1
  Ag  Ag53  1  0.00315357  0.33600693  0.66969108  1
  Sb  Sb54  1  0.00042230  0.00056252  0.00480394  1
  Sb  Sb55  1  0.49746617  0.16171623  0.00597529  1
  Sb  Sb56  1  0.16528145  0.50013974  0.00400144  1
  Sb  Sb57  1  0.00163574  0.15952756  0.49404157  1
  Sb  Sb58  1  0.67015783  0.16386401  0.16603097  1
  Sb  Sb59  1  -0.00082848  0.83022335  0.83600013  1
  Sb  Sb60  1  0.66568831  0.83484289  0.49757163  1
  Sb  Sb61  1  0.66629709  0.50129988  0.83585827  1
  Sb  Sb62  1  0.16694647  0.32735973  0.16779954  1
  Sb  Sb63  1  0.83645727  0.16247894  0.00430312  1
  Sb  Sb64  1  0.49830422  0.66619824  0.50129607  1
  Sb  Sb65  1  0.66581515  0.16467819  0.49893564  1
  Sb  Sb66  1  0.33834861  0.66901339  0.00351431  1
  Sb  Sb67  1  0.00447326  0.32975094  0.33145395  1
  Sb  Sb68  1  0.17037064  0.67327191  0.16851014  1
  Sb  Sb69  1  0.83399482  0.33391575  0.83635550  1
  Sb  Sb70  1  0.66995761  -0.00413172  0.67025093  1
  Sb  Sb71  1  0.66474884  0.83582427  0.83657653  1
  Sb  Sb72  1  0.83724755  0.67386329  0.50398423  1
  Sb  Sb73  1  0.33206915  0.16049639  0.49425147  1
  Sb  Sb74  1  0.33259235  0.50542427  0.49334749  1
  Sb  Sb75  1  0.16824893  0.83228756  0.66294945  1
  Sb  Sb76  1  0.33604815  0.82869202  0.83757624  1
  Sb  Sb77  1  0.83626742  0.49620072  0.32607940  1
  Sb  Sb78  1  0.49672796  0.33836260  0.17162035  1
  Sb  Sb79  1  0.32969160  0.34165497  0.66479194  1
  Sb  Sb80  1  0.16566661  -0.00044112  0.83689249  1
  Sb  Sb81  1  0.66784954  0.33738769  0.66808560  1
  Sb  Sb82  1  0.16625543  0.33428182  0.83444466  1
  Sb  Sb83  1  0.83956744  0.16319922  0.66481107  1
  Sb  Sb84  1  0.66083518  0.66840048  0.33073757  1
  Sb  Sb85  1  0.00256671  0.50503892  0.49984483  1
  Sb  Sb86  1  0.32877116  0.16260154  0.16908623  1
  Sb  Sb87  1  -0.00275218  0.16797631  0.83736551  1
  Sb  Sb88  1  0.83855657  0.50364911  0.67358715  1
  Sb  Sb89  1  0.66544868  0.49994413  0.16481018  1
  Sb  Sb90  1  0.16735794  0.67281139  0.49627007  1
  Sb  Sb91  1  0.66387243  0.83556601  0.16537770  1
  Sb  Sb92  1  0.49508176  0.16494359  0.66428304  1
  Sb  Sb93  1  0.17048398  0.32786717  0.49756111  1
  Sb  Sb94  1  -0.00422769  0.66438338  0.00199905  1
  Sb  Sb95  1  0.83208149  0.32762996  0.49669614  1
  Sb  Sb96  1  0.83168922  0.67242837  0.16173292  1
  Sb  Sb97  1  0.49836556  -0.00028570  0.49637660  1
  Sb  Sb98  1  0.83592129  0.32912314  0.16571070  1
  Sb  Sb99  1  0.32927720  -0.00558659  0.66668240  1
  Sb  Sb100  1  0.83900400  0.83995304  0.32745184  1
  Sb  Sb101  1  0.33546274  0.16937288  0.83621903  1
  Sb  Sb102  1  0.83152043  0.83375105  0.67086545  1
  Sb  Sb103  1  0.16847920  0.66531209  0.83180583  1
  Sb  Sb104  1  0.49641384  -0.00627353  0.16614078  1
  Sb  Sb105  1  0.66338472  0.50015801  0.49965459  1
  Sb  Sb106  1  0.50119831  0.50488154  0.00128445  1
  Sb  Sb107  1  0.49957384  0.33652293  0.83206335  1
  Te  Te108  1  0.16337459  0.16143846  0.16829639  1
  Te  Te109  1  0.16709059  0.15951012  0.49844101  1
  Te  Te110  1  0.16681118  0.16671658  0.83170103  1
  Te  Te111  1  0.16807626  0.50045175  0.16846444  1
  Te  Te112  1  0.16630082  0.49748263  0.50359328  1
  Te  Te113  1  0.16623026  0.50056049  0.83018756  1
  Te  Te114  1  0.16789097  0.83524321  0.16881279  1
  Te  Te115  1  0.16609015  0.83840798  0.49724064  1
  Te  Te116  1  0.16758660  0.83313816  0.84269634  1
  Te  Te117  1  0.49934435  0.16578614  0.17445476  1
  Te  Te118  1  0.49898867  0.17124115  0.49523299  1
  Te  Te119  1  0.50353662  0.16393351  0.83295212  1
  Te  Te120  1  0.49622413  0.50635466  0.16989196  1
  Te  Te121  1  0.49880070  0.49599743  0.49992327  1
  Te  Te122  1  0.49673923  0.50385731  0.83024511  1
  Te  Te123  1  0.49672277  0.83050404  0.16560796  1
  Te  Te124  1  0.49613995  0.83409303  0.49818509  1
  Te  Te125  1  0.49939943  0.83211343  0.83397709  1
  Te  Te126  1  0.84032146  0.16175599  0.17136694  1
  Te  Te127  1  0.83276613  0.15895960  0.49360576  1
  Te  Te128  1  0.82888541  0.16130497  0.83363292  1
  Te  Te129  1  0.83756076  0.50129893  0.15986926  1
  Te  Te130  1  0.83288091  0.49857212  0.49824218  1
  Te  Te131  1  0.83733903  0.50357739  0.83934449  1
  Te  Te132  1  0.83748638  0.83755587  0.16127120  1
  Te  Te133  1  0.83853140  0.84015260  0.50128575  1
  Te  Te134  1  0.83300881  0.83278379  0.83923593  1
  Te  Te135  1  0.16878489  0.00053561  0.00115886  1
  Te  Te136  1  0.16603152  -0.00203121  0.33110596  1
  Te  Te137  1  0.16226737  0.00077827  0.66905850  1
  Te  Te138  1  0.16771163  0.33079028  0.00077783  1
  Te  Te139  1  0.17253208  0.34228971  0.33411420  1
  Te  Te140  1  0.16253766  0.33358226  0.66501801  1
  Te  Te141  1  0.16727977  0.67425459  -0.00059626  1
  Te  Te142  1  0.16571740  0.66083509  0.33329254  1
  Te  Te143  1  0.16413404  0.66404140  0.66526226  1
  Te  Te144  1  0.50211233  -0.00260776  -0.00037906  1
  Te  Te145  1  0.50428360  -0.00035850  0.33296749  1
  Te  Te146  1  0.50000684  -0.00276371  0.67024509  1
  Te  Te147  1  0.49996324  0.33252621  0.00038969  1
  Te  Te148  1  0.49886806  0.33680533  0.33216974  1
  Te  Te149  1  0.50033060  0.33510687  0.66266442  1
  Te  Te150  1  0.50416974  0.66989283  -0.00433987  1
  Te  Te151  1  0.49970841  0.66682491  0.33313720  1
  Te  Te152  1  0.49763753  0.66666886  0.66606872  1
  Te  Te153  1  0.83289169  -0.00216168  0.00001989  1
  Te  Te154  1  0.82989016  0.00055054  0.32956895  1
  Te  Te155  1  0.83863801  -0.00015307  0.67178169  1
  Te  Te156  1  0.83371728  0.33492639  -0.00011584  1
  Te  Te157  1  0.82753135  0.32684299  0.33350413  1
  Te  Te158  1  0.83964331  0.33352085  0.66559823  1
  Te  Te159  1  0.82833639  0.66849777  -0.00290591  1
  Te  Te160  1  0.83225976  0.66626484  0.33422131  1
  Te  Te161  1  0.84058790  0.66734936  0.67291428  1
  Te  Te162  1  0.00421098  0.17272602  0.00432008  1
  Te  Te163  1  0.00439475  0.16612287  0.32802194  1
  Te  Te164  1  0.00411918  0.16682010  0.66891585  1
  Te  Te165  1  0.00023992  0.49780079  -0.00053766  1
  Te  Te166  1  0.00173663  0.49868568  0.33104469  1
  Te  Te167  1  0.00283138  0.50298490  0.66688400  1
  Te  Te168  1  0.00020722  0.83240578  0.00439847  1
  Te  Te169  1  -0.00049829  0.83515970  0.33113663  1
  Te  Te170  1  0.00095684  0.83253576  0.66767555  1
  Te  Te171  1  0.32857390  0.16963495  0.00152458  1
  Te  Te172  1  0.33068606  0.17319725  0.33230260  1
  Te  Te173  1  0.32548880  0.16786213  0.66707571  1
  Te  Te174  1  0.33289243  0.49825764  0.00084746  1
  Te  Te175  1  0.33346196  0.50063495  0.33241022  1
  Te  Te176  1  0.33157983  0.50376903  0.66597418  1
  Te  Te177  1  0.33603898  0.83522436  0.00364057  1
  Te  Te178  1  0.33369705  0.83073810  0.32915704  1
  Te  Te179  1  0.33602609  0.82747862  0.66946362  1
  Te  Te180  1  0.66631888  0.16464994  -0.00072788  1
  Te  Te181  1  0.66366662  0.16528335  0.33272040  1
  Te  Te182  1  0.66582679  0.16798685  0.67268722  1
  Te  Te183  1  0.67087932  0.49345534  -0.00011344  1
  Te  Te184  1  0.66476967  0.49736181  0.33167653  1
  Te  Te185  1  0.66365708  0.50471846  0.66764281  1
  Te  Te186  1  0.66520911  0.83603635  0.00152137  1
  Te  Te187  1  0.66080773  0.83742911  0.33299545  1
  Te  Te188  1  0.66015669  0.82732395  0.66501760  1
  Te  Te189  1  0.00138744  -0.00296688  0.16668173  1
  Te  Te190  1  0.00110342  -0.00154807  0.49828533  1
  Te  Te191  1  -0.00421944  -0.00061917  0.83017046  1
  Te  Te192  1  0.00076436  0.34308713  0.16263328  1
  Te  Te193  1  -0.00041536  0.33245066  0.50590589  1
  Te  Te194  1  -0.00025556  0.33824092  0.83448395  1
  Te  Te195  1  -0.00206379  0.66467926  0.17057777  1
  Te  Te196  1  -0.00001568  0.67410015  0.49806585  1
  Te  Te197  1  -0.00250658  0.66278678  0.83172683  1
  Te  Te198  1  0.33064457  -0.00316825  0.16653109  1
  Te  Te199  1  0.33052847  -0.00616811  0.49759471  1
  Te  Te200  1  0.33885344  0.00133061  0.83776157  1
  Te  Te201  1  0.33260942  0.33872919  0.16645691  1
  Te  Te202  1  0.33769338  0.33249943  0.49639622  1
  Te  Te203  1  0.33449622  0.34088346  0.83786319  1
  Te  Te204  1  0.33686182  0.66703221  0.16952927  1
  Te  Te205  1  0.33309669  0.67443537  0.49840176  1
  Te  Te206  1  0.33690346  0.66131522  0.83132415  1
  Te  Te207  1  0.67200517  0.00033078  0.16448872  1
  Te  Te208  1  0.67098135  -0.00032704  0.49875020  1
  Te  Te209  1  0.66651734  0.00172111  0.83485583  1
  Te  Te210  1  0.66729475  0.33208081  0.16500450  1
  Te  Te211  1  0.66231081  0.33251374  0.49579107  1
  Te  Te212  1  0.66671136  0.32829456  0.83787340  1
  Te  Te213  1  0.65995390  0.66725734  0.15997050  1
  Te  Te214  1  0.67018812  0.66746182  0.50849568  1
  Te  Te215  1  0.66653665  0.66533926  0.83495383  1
