# generated using pymatgen
data_AgSbTe2
_symmetry_space_group_name_H-M   'P 1'
_cell_length_a   18.35827325
_cell_length_b   18.35194660
_cell_length_c   18.35465613
_cell_angle_alpha   90.00235994
_cell_angle_beta   90.00001733
_cell_angle_gamma   90.00286751
_symmetry_Int_Tables_number   1
_chemical_formula_structural   AgSbTe2
_chemical_formula_sum   'Ag54 Sb54 Te108'
_cell_volume   6183.86811159
_cell_formula_units_Z   54
loop_
 _symmetry_equiv_pos_site_id
 _symmetry_equiv_pos_as_xyz
  1  'x, y, z'
loop_
 _atom_site_type_symbol
 _atom_site_label
 _atom_site_symmetry_multiplicity
 _atom_site_fract_x
 _atom_site_fract_y
 _atom_site_fract_z
 _atom_site_occupancy
  Ag  Ag0  1  0.82320739  0.82425336  0.00161070  1
  Ag  Ag1  1  0.50348171  0.66634543  0.84778978  1
  Ag  Ag2  1  0.50030578  0.16978717  0.00828850  1
  Ag  Ag3  1  0.34108122  0.34577255  0.01063204  1
  Ag  Ag4  1  0.16116591  0.50027233  0.67143410  1
  Ag  Ag5  1  0.33941086  0.65880533  0.32408800  1
  Ag  Ag6  1  0.83033232  0.82403074  0.66977012  1
  Ag  Ag7  1  0.49822117  0.66102052  0.16351600  1
  Ag  Ag8  1  0.66490134  0.82730803  0.16719309  1
  Ag  Ag9  1  0.65731189  0.34721376  0.01316271  1
  Ag  Ag10  1  0.50209497  0.33455488  0.16582758  1
  Ag  Ag11  1  0.34230915  0.66107338  0.00533871  1
  Ag  Ag12  1  0.49964454  0.17059398  0.32669908  1
  Ag  Ag13  1  0.00938849  -0.00747929  0.32940433  1
  Ag  Ag14  1  0.65972158  0.18049497  0.17029666  1
  Ag  Ag15  1  0.16608401  0.83296206  0.32359758  1
  Ag  Ag16  1  0.49930904  0.33510342  0.48504133  1
  Ag  Ag17  1  0.34023193  0.17711673  0.49632979  1
  Ag  Ag18  1  0.17705261  0.67068501  0.16387992  1
  Ag  Ag19  1  0.66839629  0.66538687  0.67333549  1
  Ag  Ag20  1  0.66526854  0.50249074  0.84510161  1
  Ag  Ag21  1  -0.01297842  0.66115088  0.66570666  1
  Ag  Ag22  1  0.49877425  -0.00540233  0.84684876  1
  Ag  Ag23  1  0.49951333  0.82270566  0.00427086  1
  Ag  Ag24  1  0.17194614  0.82245514  0.00606332  1
  Ag  Ag25  1  0.50458506  0.50492690  0.00175158  1
  Ag  Ag26  1  0.00046550  0.34319104  0.66058244  1
  Ag  Ag27  1  0.65641271  0.34001662  0.32600719  1
  Ag  Ag28  1  0.00377281  0.50066960  0.50638178  1
  Ag  Ag29  1  -0.00578475  0.82484702  0.49433532  1
  Ag  Ag30  1  0.33895948  -0.00430568  0.01083069  1
  Ag  Ag31  1  0.00151377  0.33410059  0.32927122  1
  Ag  Ag32  1  0.17176013  0.50146673  -0.00053924  1
  Ag  Ag33  1  0.00023462  0.33644796  0.00567730  1
  Ag  Ag34  1  0.65646423  0.66131980  0.00157921  1
  Ag  Ag35  1  0.33850151  0.50338027  0.16390032  1
  Ag  Ag36  1  0.82275235  0.66393267  0.83411040  1
  Ag  Ag37  1  0.16651390  0.33877149  0.83947204  1
  Ag  Ag38  1  0.18452901  -0.00929652  0.16647808  1
  Ag  Ag39  1  0.66826550  0.83114160  0.49604310  1
  Ag  Ag40  1  0.65761642  0.49573215  0.15886361  1
  Ag  Ag41  1  0.33181843  -0.00217786  0.32771056  1
  Ag  Ag42  1  0.50285713  0.50111055  0.67149077  1
  Ag  Ag43  1  0.65934805  -0.01178961  0.66492860  1
  Ag  Ag44  1  0.34000741  -0.00114892  0.66415604  1
  Ag  Ag45  1  0.33900797  0.33630058  0.32956550  1
  Ag  Ag46  1  0.82051380  0.50418237  -0.00285461  1
  Ag  Ag47  1  0.81814746  0.33730921  0.16478950  1
  Ag  Ag48  1  0.00933481  0.83192960  0.16893195  1
  Ag  Ag49  1  0.66030949  0.16991170  0.49372026  1
  Ag  Ag50  1  0.66046828  0.66264975  0.31861551  1
  Ag  Ag51  1  0.83111703  0.50454509  0.67151944  1
  Ag  Ag52  1  0.50011282  -0.00014266  0.16259191  1
  Ag  Ag53  1  0.33513286  0.49728501  0.49535078  1
  Sb  Sb54  1  0.66587390  0.82273310  0.83675465  1
  Sb  Sb55  1  -0.00207822  0.66372646  -0.00075379  1
  Sb  Sb56  1  0.00614191  -0.00008525  0.00621062  1
  Sb  Sb57  1  0.82692692  0.16866165  0.33198432  1
  Sb  Sb58  1  0.33214575  0.33527855  0.66586907  1
  Sb  Sb59  1  0.83292415  0.49937054  0.33116616  1
  Sb  Sb60  1  0.83158672  -0.00293735  0.49918614  1
  Sb  Sb61  1  0.50184512  0.66041678  0.49575603  1
  Sb  Sb62  1  0.49737657  0.83504260  0.32712452  1
  Sb  Sb63  1  0.66300570  0.17061677  0.83573692  1
  Sb  Sb64  1  0.33544815  0.83388338  0.83819009  1
  Sb  Sb65  1  0.16668560  0.66515458  0.49499900  1
  Sb  Sb66  1  0.33581713  0.16750174  0.83243401  1
  Sb  Sb67  1  0.83449081  0.83220309  0.33056379  1
  Sb  Sb68  1  0.16823207  -0.00259524  0.49526057  1
  Sb  Sb69  1  0.83221740  0.66554427  0.50455807  1
  Sb  Sb70  1  0.82642835  0.17246490  0.00306874  1
  Sb  Sb71  1  0.16255610  0.82804441  0.66734108  1
  Sb  Sb72  1  0.82958552  0.33651487  0.49606403  1
  Sb  Sb73  1  0.49888251  0.49600478  0.32672579  1
  Sb  Sb74  1  0.66390420  0.00011357  0.33325448  1
  Sb  Sb75  1  0.33371185  0.82786804  0.16502978  1
  Sb  Sb76  1  0.17323800  0.33556034  0.16375662  1
  Sb  Sb77  1  0.65791326  -0.00401236  -0.00215874  1
  Sb  Sb78  1  0.17140453  0.33705981  0.50131066  1
  Sb  Sb79  1  -0.00509229  0.16588582  0.16806831  1
  Sb  Sb80  1  0.17465788  0.16435471  0.33067034  1
  Sb  Sb81  1  0.82714433  -0.00097348  0.16471011  1
  Sb  Sb82  1  0.16919944  0.66129129  0.83908367  1
  Sb  Sb83  1  -0.00082654  -0.00447539  0.66143419  1
  Sb  Sb84  1  0.00033715  0.66598897  0.33444798  1
  Sb  Sb85  1  0.33774314  0.66581869  0.66797955  1
  Sb  Sb86  1  0.66913097  0.33902199  0.66550721  1
  Sb  Sb87  1  0.17508765  0.17091112  0.00346869  1
  Sb  Sb88  1  -0.00343006  0.50145476  0.83071301  1
  Sb  Sb89  1  0.34194205  0.16826346  0.17036054  1
  Sb  Sb90  1  0.33577850  0.83023604  0.49598154  1
  Sb  Sb91  1  0.82324372  -0.00880992  0.83390541  1
  Sb  Sb92  1  0.49998628  0.16942678  0.66637135  1
  Sb  Sb93  1  0.00144219  0.50275794  0.16586473  1
  Sb  Sb94  1  0.83535904  0.34068949  0.83881689  1
  Sb  Sb95  1  -0.00033683  0.16997360  0.49646444  1
  Sb  Sb96  1  0.50049675  0.00459159  0.49563893  1
  Sb  Sb97  1  0.83105861  0.17013457  0.66507278  1
  Sb  Sb98  1  0.00040481  0.17116203  0.83551949  1
  Sb  Sb99  1  0.17390043  0.00193380  0.83981868  1
  Sb  Sb100  1  0.16934936  0.50330393  0.33092642  1
  Sb  Sb101  1  0.50508017  0.83071518  0.66984709  1
  Sb  Sb102  1  0.82470304  0.66337842  0.16083037  1
  Sb  Sb103  1  0.66340671  0.50199737  0.49768631  1
  Sb  Sb104  1  -0.00171001  0.83203388  0.83731909  1
  Sb  Sb105  1  0.16903734  0.17078708  0.66540874  1
  Sb  Sb106  1  0.49721905  0.33752080  0.84190725  1
  Sb  Sb107  1  0.33810319  0.49954237  0.83994400  1
  Te  Te108  1  0.16153427  0.15374806  0.16612462  1
  Te  Te109  1  0.17327505  0.16593890  0.49964761  1
  Te  Te110  1  0.16735465  0.17490693  0.83343035  1
  Te  Te111  1  0.16888478  0.50429672  0.16319795  1
  Te  Te112  1  0.16664718  0.50056856  0.50392529  1
  Te  Te113  1  0.16844403  0.49774689  0.83356159  1
  Te  Te114  1  0.16887614  0.83310710  0.16613975  1
  Te  Te115  1  0.16036758  0.83165983  0.49981898  1
  Te  Te116  1  0.16633126  0.83445918  0.84086430  1
  Te  Te117  1  0.50121690  0.16958815  0.16704442  1
  Te  Te118  1  0.50011627  0.17082540  0.50076129  1
  Te  Te119  1  0.50053635  0.16082809  0.83584670  1
  Te  Te120  1  0.49809391  0.49911744  0.16549219  1
  Te  Te121  1  0.49656968  0.49490900  0.50420508  1
  Te  Te122  1  0.50362415  0.50220613  0.83376503  1
  Te  Te123  1  0.50196847  0.83432903  0.16396897  1
  Te  Te124  1  0.50724669  0.83227186  0.50056941  1
  Te  Te125  1  0.50025501  0.83297384  0.83809852  1
  Te  Te126  1  0.82407261  0.17285376  0.16632357  1
  Te  Te127  1  0.82404667  0.16739629  0.50022674  1
  Te  Te128  1  0.83232632  0.16338505  0.83356270  1
  Te  Te129  1  0.83500103  0.49652556  0.16253622  1
  Te  Te130  1  0.84013032  0.49874567  0.50445711  1
  Te  Te131  1  0.82918791  0.50386552  0.83448642  1
  Te  Te132  1  0.82886168  0.83190023  0.16164684  1
  Te  Te133  1  0.83326701  0.83299163  0.50205124  1
  Te  Te134  1  0.83355174  0.82625415  0.83502601  1
  Te  Te135  1  0.17392869  0.00071717  0.00398833  1
  Te  Te136  1  0.16883856  -0.00230909  0.32984759  1
  Te  Te137  1  0.16975395  -0.00072174  0.66951396  1
  Te  Te138  1  0.16858028  0.33497533  -0.00083745  1
  Te  Te139  1  0.16619909  0.33395268  0.33252630  1
  Te  Te140  1  0.16231350  0.33807449  0.66749242  1
  Te  Te141  1  0.16529063  0.66482174  0.00284316  1
  Te  Te142  1  0.16936105  0.67103899  0.32754318  1
  Te  Te143  1  0.16870787  0.66132589  0.66850259  1
  Te  Te144  1  0.49827215  0.00444291  0.00121966  1
  Te  Te145  1  0.49574447  0.00464344  0.32953327  1
  Te  Te146  1  0.50064574  -0.00056933  0.66336996  1
  Te  Te147  1  0.49966606  0.33527978  0.00213945  1
  Te  Te148  1  0.49996411  0.33341367  0.33045079  1
  Te  Te149  1  0.50053975  0.33877885  0.67367803  1
  Te  Te150  1  0.49983175  0.66582520  0.00344450  1
  Te  Te151  1  0.49998616  0.66938273  0.32810718  1
  Te  Te152  1  0.50380758  0.66246304  0.66346338  1
  Te  Te153  1  0.83625382  -0.00445329  -0.00221447  1
  Te  Te154  1  0.84139964  0.00073373  0.33170087  1
  Te  Te155  1  0.83106217  -0.00246111  0.66729692  1
  Te  Te156  1  0.83469534  0.33728773  0.00394994  1
  Te  Te157  1  0.83742984  0.33321053  0.32729957  1
  Te  Te158  1  0.83922850  0.33821156  0.66734176  1
  Te  Te159  1  0.83448088  0.66519910  -0.00450892  1
  Te  Te160  1  0.82423311  0.66681698  0.33217625  1
  Te  Te161  1  0.83117282  0.66608346  0.66719705  1
  Te  Te162  1  -0.00193964  0.17340992  0.00133009  1
  Te  Te163  1  -0.00130537  0.17289906  0.33475911  1
  Te  Te164  1  0.00023732  0.16987138  0.66555972  1
  Te  Te165  1  0.00862685  0.49587669  0.00007197  1
  Te  Te166  1  0.00073728  0.49694397  0.33869702  1
  Te  Te167  1  0.00170527  0.50045513  0.66754508  1
  Te  Te168  1  0.00544573  0.83487388  0.00676018  1
  Te  Te169  1  0.00153096  0.83233476  0.33260393  1
  Te  Te170  1  -0.00526520  0.83148520  0.66355301  1
  Te  Te171  1  0.34002489  0.16209689  -0.00227700  1
  Te  Te172  1  0.33743013  0.17151299  0.33705156  1
  Te  Te173  1  0.33322055  0.16245751  0.65970716  1
  Te  Te174  1  0.33253547  0.50067838  0.00122119  1
  Te  Te175  1  0.33206267  0.50012708  0.33277663  1
  Te  Te176  1  0.33572145  0.50089353  0.66437090  1
  Te  Te177  1  0.33515876  0.83529359  -0.00019189  1
  Te  Te178  1  0.32750811  0.83671810  0.33586270  1
  Te  Te179  1  0.33180563  0.83775036  0.66469999  1
  Te  Te180  1  0.66137975  0.16551497  0.00384698  1
  Te  Te181  1  0.66094292  0.16654777  0.33273275  1
  Te  Te182  1  0.66751452  0.16655461  0.66464522  1
  Te  Te183  1  0.66615843  0.50204197  0.00207314  1
  Te  Te184  1  0.66821890  0.50023337  0.32930850  1
  Te  Te185  1  0.66764404  0.50446965  0.66141543  1
  Te  Te186  1  0.66472014  0.83094725  0.00248523  1
  Te  Te187  1  0.66681569  0.83125798  0.33299751  1
  Te  Te188  1  0.66965027  0.83111973  0.66862379  1
  Te  Te189  1  -0.00739783  -0.00346040  0.17233403  1
  Te  Te190  1  0.00001570  0.00070199  0.49336519  1
  Te  Te191  1  0.00090438  0.00216107  0.83191269  1
  Te  Te192  1  0.00565064  0.33345599  0.16683059  1
  Te  Te193  1  -0.00068808  0.33535286  0.50006332  1
  Te  Te194  1  0.00390990  0.33334135  0.83694339  1
  Te  Te195  1  0.00003575  0.67196768  0.16775941  1
  Te  Te196  1  0.00097615  0.66604079  0.50249719  1
  Te  Te197  1  0.00104523  0.66922803  0.82586412  1
  Te  Te198  1  0.33907809  0.00462682  0.16831927  1
  Te  Te199  1  0.33384264  -0.00251688  0.50063886  1
  Te  Te200  1  0.33875752  0.00103885  0.82697752  1
  Te  Te201  1  0.33578989  0.33586806  0.16792094  1
  Te  Te202  1  0.33689835  0.33564421  0.49928333  1
  Te  Te203  1  0.32691346  0.33225259  0.83554987  1
  Te  Te204  1  0.33501512  0.66463407  0.16609069  1
  Te  Te205  1  0.33334086  0.66140898  0.49557812  1
  Te  Te206  1  0.34063016  0.66714572  0.83921401  1
  Te  Te207  1  0.66047529  -0.00969384  0.16709761  1
  Te  Te208  1  0.66677762  -0.00408673  0.50219486  1
  Te  Te209  1  0.65949105  0.00383248  0.82613574  1
  Te  Te210  1  0.66211254  0.33546030  0.16859027  1
  Te  Te211  1  0.66202016  0.33096455  0.49718348  1
  Te  Te212  1  0.66791830  0.33979928  0.83501502  1
  Te  Te213  1  0.66430559  0.66581115  0.16222336  1
  Te  Te214  1  0.66621417  0.67092615  0.50061969  1
  Te  Te215  1  0.66491276  0.66210643  0.83403561  1
