# generated using pymatgen
data_AgSbTe2
_symmetry_space_group_name_H-M   'P 1'
_cell_length_a   18.30752393
_cell_length_b   18.31504475
_cell_length_c   18.31350237
_cell_angle_alpha   89.99911357
_cell_angle_beta   89.99688449
_cell_angle_gamma   90.00292314
_symmetry_Int_Tables_number   1
_chemical_formula_structural   AgSbTe2
_chemical_formula_sum   'Ag54 Sb54 Te108'
_cell_volume   6140.57446472
_cell_formula_units_Z   54
loop_
 _symmetry_equiv_pos_site_id
 _symmetry_equiv_pos_as_xyz
  1  'x, y, z'
loop_
 _atom_site_type_symbol
 _atom_site_label
 _atom_site_symmetry_multiplicity
 _atom_site_fract_x
 _atom_site_fract_y
 _atom_site_fract_z
 _atom_site_occupancy
  Ag  Ag0  1  0.84462540  0.16526466  0.00627852  1
  Ag  Ag1  1  0.00078409  0.67243942  0.00925580  1
  Ag  Ag2  1  -0.00189411  0.83974052  0.84193069  1
  Ag  Ag3  1  0.83674603  0.32694183  0.49843977  1
  Ag  Ag4  1  0.16701844  0.33126475  0.83747544  1
  Ag  Ag5  1  0.50240894  -0.00514223  0.15860835  1
  Ag  Ag6  1  0.15766704  0.16668141  0.00433426  1
  Ag  Ag7  1  0.66691304  0.83265280  0.83480611  1
  Ag  Ag8  1  0.83854043  0.83362184  0.66555215  1
  Ag  Ag9  1  -0.00399823  0.00663940  -0.00035693  1
  Ag  Ag10  1  0.83732977  0.00881494  0.49739313  1
  Ag  Ag11  1  0.00320942  0.33170697  0.32882933  1
  Ag  Ag12  1  0.32526253  0.49734978  0.17476867  1
  Ag  Ag13  1  0.00292081  0.49774787  0.17320784  1
  Ag  Ag14  1  0.49912400  0.66820882  0.83529125  1
  Ag  Ag15  1  0.16302582  0.17071773  0.66790676  1
  Ag  Ag16  1  0.49693933  0.82946253  0.32690697  1
  Ag  Ag17  1  0.67958445  0.16737463  0.50223979  1
  Ag  Ag18  1  0.67246938  0.32620202  -0.00620982  1
  Ag  Ag19  1  0.67239862  0.00314512  -0.00133894  1
  Ag  Ag20  1  0.33693262  0.49847291  0.83047976  1
  Ag  Ag21  1  0.49938489  0.33316679  0.83326072  1
  Ag  Ag22  1  0.84606859  0.66947658  0.16763587  1
  Ag  Ag23  1  0.66838958  0.33212372  0.67325234  1
  Ag  Ag24  1  -0.00027101  0.32113955  0.00669052  1
  Ag  Ag25  1  0.32936014  0.00257360  0.66598334  1
  Ag  Ag26  1  0.49869731  0.67313924  0.16738517  1
  Ag  Ag27  1  0.49594038  0.16584557  0.66799026  1
  Ag  Ag28  1  0.49775809  0.83537367  0.00151329  1
  Ag  Ag29  1  0.50106710  -0.00056179  0.83712935  1
  Ag  Ag30  1  0.66182974  0.49701448  0.83238839  1
  Ag  Ag31  1  0.00013043  0.00282648  0.67020045  1
  Ag  Ag32  1  0.16284561  0.49319839  0.66445880  1
  Ag  Ag33  1  0.84184449  0.49480890  0.33677259  1
  Ag  Ag34  1  0.32405178  0.33977940  0.33180142  1
  Ag  Ag35  1  0.00140623  0.83403205  0.49846371  1
  Ag  Ag36  1  0.16277571  0.33017916  0.16446575  1
  Ag  Ag37  1  -0.00022574  0.83214007  0.16080280  1
  Ag  Ag38  1  0.16786437  0.66420958  0.49831394  1
  Ag  Ag39  1  0.83796677  0.00130807  0.16567628  1
  Ag  Ag40  1  -0.00237669  0.16773345  0.49575328  1
  Ag  Ag41  1  0.32161992  0.17045719  0.16862472  1
  Ag  Ag42  1  0.00124340  0.49967912  0.49332043  1
  Ag  Ag43  1  0.32863166  0.82502440  0.49930500  1
  Ag  Ag44  1  0.32487908  0.50573140  0.49678164  1
  Ag  Ag45  1  0.49178047  0.66859006  0.49386809  1
  Ag  Ag46  1  0.84069901  0.50022415  0.66062439  1
  Ag  Ag47  1  0.15733289  0.17138574  0.32622511  1
  Ag  Ag48  1  0.15632266  0.83670260  0.00053390  1
  Ag  Ag49  1  0.00275062  0.16354755  0.84588004  1
  Ag  Ag50  1  0.84256101  0.17087767  0.33415150  1
  Ag  Ag51  1  0.32821431  0.66046994  0.33618048  1
  Ag  Ag52  1  0.00302953  0.16898059  0.16069783  1
  Ag  Ag53  1  0.00337729  0.66004704  0.32948981  1
  Sb  Sb54  1  0.49997040  0.16304804  -0.00291626  1
  Sb  Sb55  1  0.33010287  0.66639862  0.00514049  1
  Sb  Sb56  1  0.16407649  0.66159880  0.17100527  1
  Sb  Sb57  1  0.83659652  0.49501932  0.00156214  1
  Sb  Sb58  1  0.83805307  0.66546398  0.49506332  1
  Sb  Sb59  1  0.33210554  0.00023327  -0.00228622  1
  Sb  Sb60  1  0.83445445  0.00003396  0.83516925  1
  Sb  Sb61  1  0.16945932  0.66222766  0.83075185  1
  Sb  Sb62  1  0.00019621  0.67013373  0.66441131  1
  Sb  Sb63  1  0.84258205  0.33067817  0.17030547  1
  Sb  Sb64  1  0.66826643  0.00083719  0.32847833  1
  Sb  Sb65  1  0.50314922  -0.00264037  0.50163525  1
  Sb  Sb66  1  0.50050671  0.50376148  -0.00155288  1
  Sb  Sb67  1  0.33419788  -0.00040170  0.33611341  1
  Sb  Sb68  1  0.49813747  0.50440916  0.33289858  1
  Sb  Sb69  1  0.83478732  0.33299272  0.83060577  1
  Sb  Sb70  1  0.83275626  0.66752357  0.83834554  1
  Sb  Sb71  1  0.66874957  0.83420316  0.16074308  1
  Sb  Sb72  1  0.83500807  0.83358243  0.33538539  1
  Sb  Sb73  1  0.66949560  0.83668679  0.50549187  1
  Sb  Sb74  1  0.16378333  0.49652591  -0.00204954  1
  Sb  Sb75  1  0.32744920  0.16810693  0.49733280  1
  Sb  Sb76  1  0.33141421  0.83212363  0.17105741  1
  Sb  Sb77  1  0.16594221  0.00559095  0.83361126  1
  Sb  Sb78  1  0.49828110  0.49656186  0.66849907  1
  Sb  Sb79  1  0.66950460  0.66952660  -0.00141017  1
  Sb  Sb80  1  -0.00215550  0.32859808  0.66512547  1
  Sb  Sb81  1  0.67048441  0.00454071  0.67134264  1
  Sb  Sb82  1  0.16046550  0.33594057  0.49858479  1
  Sb  Sb83  1  0.16286071  0.00647707  0.16426283  1
  Sb  Sb84  1  0.16113108  0.83513434  0.66868563  1
  Sb  Sb85  1  0.16068823  0.49465432  0.33783138  1
  Sb  Sb86  1  0.32886825  0.17029307  0.83560571  1
  Sb  Sb87  1  0.67050884  0.49893090  0.16192683  1
  Sb  Sb88  1  0.66730654  0.66635580  0.33339631  1
  Sb  Sb89  1  0.67085561  0.49673843  0.50471018  1
  Sb  Sb90  1  0.49325650  0.33337816  0.16161322  1
  Sb  Sb91  1  0.66992327  0.16790236  0.83114090  1
  Sb  Sb92  1  -0.00189700  0.00576984  0.33109966  1
  Sb  Sb93  1  0.67220488  0.33207242  0.33324605  1
  Sb  Sb94  1  0.66685284  0.66165853  0.66828537  1
  Sb  Sb95  1  0.67251412  0.16664648  0.16757887  1
  Sb  Sb96  1  0.15922555  -0.00112331  0.50168416  1
  Sb  Sb97  1  0.33342451  0.33124229  0.66414310  1
  Sb  Sb98  1  0.83731244  0.83891034  -0.00175251  1
  Sb  Sb99  1  0.16512582  0.83511157  0.33086874  1
  Sb  Sb100  1  0.33327293  0.66783915  0.65943184  1
  Sb  Sb101  1  0.49922210  0.16374667  0.33478239  1
  Sb  Sb102  1  0.50266764  0.33595973  0.50278334  1
  Sb  Sb103  1  0.83829450  0.16637687  0.66311784  1
  Sb  Sb104  1  0.32919411  0.33271567  0.00270025  1
  Sb  Sb105  1  0.50243832  0.83712372  0.66977110  1
  Sb  Sb106  1  0.33291793  0.83026076  0.82900767  1
  Sb  Sb107  1  0.00056787  0.49886335  0.83235221  1
  Te  Te108  1  0.16401346  0.16870928  0.16576222  1
  Te  Te109  1  0.16105116  0.16662348  0.50466676  1
  Te  Te110  1  0.16347507  0.17101407  0.83134805  1
  Te  Te111  1  0.16592612  0.49395240  0.16497810  1
  Te  Te112  1  0.16478413  0.50095699  0.50311789  1
  Te  Te113  1  0.16947103  0.49492550  0.82796359  1
  Te  Te114  1  0.16171180  0.83422206  0.16259443  1
  Te  Te115  1  0.16409281  0.82961027  0.49944535  1
  Te  Te116  1  0.16300370  0.83141340  0.83794714  1
  Te  Te117  1  0.49944975  0.16252806  0.16685245  1
  Te  Te118  1  0.49886779  0.16641186  0.50467318  1
  Te  Te119  1  0.49875019  0.16732046  0.83005589  1
  Te  Te120  1  0.49690603  0.50356999  0.16625464  1
  Te  Te121  1  0.49861944  0.50551304  0.50044203  1
  Te  Te122  1  0.49942018  0.49822236  0.83314045  1
  Te  Te123  1  0.49949840  0.83393698  0.16494217  1
  Te  Te124  1  0.50055858  0.83010177  0.50090184  1
  Te  Te125  1  0.49953751  0.83372535  0.83542437  1
  Te  Te126  1  0.83666398  0.16395175  0.16829621  1
  Te  Te127  1  0.83629314  0.16664884  0.50061319  1
  Te  Te128  1  0.84117980  0.16624422  0.83818971  1
  Te  Te129  1  0.83774832  0.50334018  0.16993722  1
  Te  Te130  1  0.83622177  0.50010826  0.49992819  1
  Te  Te131  1  0.82959866  0.50150869  0.82774515  1
  Te  Te132  1  0.83700581  0.83466712  0.16735573  1
  Te  Te133  1  0.83717142  0.83382318  0.50314031  1
  Te  Te134  1  0.83565667  0.83292948  0.82829860  1
  Te  Te135  1  0.16138321  0.00002596  -0.00143256  1
  Te  Te136  1  0.16912295  0.01145173  0.33424444  1
  Te  Te137  1  0.16435055  0.00438398  0.66785249  1
  Te  Te138  1  0.16282404  0.33012282  -0.00065454  1
  Te  Te139  1  0.16507976  0.32935886  0.33226051  1
  Te  Te140  1  0.16621346  0.33246097  0.67024283  1
  Te  Te141  1  0.16152015  0.67131988  -0.00086636  1
  Te  Te142  1  0.16598193  0.66893719  0.33821261  1
  Te  Te143  1  0.16712508  0.66079580  0.66150665  1
  Te  Te144  1  0.49945979  -0.00261121  -0.00120505  1
  Te  Te145  1  0.50115201  -0.00592469  0.32894140  1
  Te  Te146  1  0.50031691  0.00480864  0.66992248  1
  Te  Te147  1  0.50237124  0.33226906  -0.00694271  1
  Te  Te148  1  0.49754599  0.33373984  0.33227599  1
  Te  Te149  1  0.50351261  0.32841249  0.67058981  1
  Te  Te150  1  0.50021489  0.67193605  0.00037282  1
  Te  Te151  1  0.49984012  0.66965874  0.33169328  1
  Te  Te152  1  0.50021158  0.66718272  0.67260511  1
  Te  Te153  1  0.83484048  0.00411462  0.00187816  1
  Te  Te154  1  0.83180262  0.00374117  0.33200059  1
  Te  Te155  1  0.83786420  -0.00285104  0.66443206  1
  Te  Te156  1  0.83573017  0.32757147  0.00073044  1
  Te  Te157  1  0.83635414  0.33240843  0.33714312  1
  Te  Te158  1  0.83028407  0.33693958  0.66190861  1
  Te  Te159  1  0.83786164  0.66643627  0.00687611  1
  Te  Te160  1  0.83664530  0.66547710  0.32770416  1
  Te  Te161  1  0.83273153  0.66521869  0.66655335  1
  Te  Te162  1  0.00079096  0.16508745  0.00135613  1
  Te  Te163  1  -0.00079232  0.16790465  0.33663845  1
  Te  Te164  1  0.00250321  0.16293449  0.65983892  1
  Te  Te165  1  -0.00036236  0.50444302  0.00383551  1
  Te  Te166  1  -0.00026009  0.49949352  0.33302714  1
  Te  Te167  1  0.00036662  0.49966810  0.66406222  1
  Te  Te168  1  -0.00179800  0.83393091  0.00091128  1
  Te  Te169  1  0.00003737  0.82968225  0.33526846  1
  Te  Te170  1  -0.00144124  0.83691577  0.66393895  1
  Te  Te171  1  0.32654753  0.16624290  0.00729578  1
  Te  Te172  1  0.33263643  0.16992710  0.32879866  1
  Te  Te173  1  0.33084697  0.16357775  0.66649561  1
  Te  Te174  1  0.33209337  0.50035320  -0.00075161  1
  Te  Te175  1  0.33297851  0.50020328  0.33401974  1
  Te  Te176  1  0.32942072  0.49985504  0.66443377  1
  Te  Te177  1  0.33551191  0.83301855  -0.00052542  1
  Te  Te178  1  0.33455478  0.83037573  0.33888702  1
  Te  Te179  1  0.33125584  0.83956500  0.66020448  1
  Te  Te180  1  0.66806721  0.16571319  -0.00059372  1
  Te  Te181  1  0.67058184  0.16774698  0.34041016  1
  Te  Te182  1  0.66616046  0.17097350  0.66406483  1
  Te  Te183  1  0.66864517  0.49536348  -0.00686717  1
  Te  Te184  1  0.67628500  0.49837582  0.33336127  1
  Te  Te185  1  0.66924117  0.49389638  0.67156629  1
  Te  Te186  1  0.66439870  0.83715718  -0.00615141  1
  Te  Te187  1  0.65919409  0.83329563  0.33480507  1
  Te  Te188  1  0.67353372  0.83421453  0.67412601  1
  Te  Te189  1  -0.00204129  0.00069203  0.16470528  1
  Te  Te190  1  -0.00360708  -0.00274083  0.49900648  1
  Te  Te191  1  0.00043411  -0.00075474  0.83367242  1
  Te  Te192  1  0.00190210  0.33264849  0.16731525  1
  Te  Te193  1  -0.00291961  0.33572998  0.49821637  1
  Te  Te194  1  0.00327134  0.33151215  0.83677461  1
  Te  Te195  1  0.00283864  0.66634855  0.16899952  1
  Te  Te196  1  0.00156529  0.66517462  0.49772332  1
  Te  Te197  1  0.00109208  0.66954517  0.83701661  1
  Te  Te198  1  0.33853277  0.00246027  0.16691745  1
  Te  Te199  1  0.33417859  -0.00172583  0.50487130  1
  Te  Te200  1  0.33900182  -0.00025987  0.82774925  1
  Te  Te201  1  0.32899621  0.33493882  0.16959903  1
  Te  Te202  1  0.33377012  0.33789711  0.49353271  1
  Te  Te203  1  0.33377263  0.33782397  0.83262174  1
  Te  Te204  1  0.33456862  0.66351241  0.17314038  1
  Te  Te205  1  0.33285247  0.66603024  0.49723511  1
  Te  Te206  1  0.33787614  0.66087524  0.83391875  1
  Te  Te207  1  0.66705009  0.00000702  0.15951740  1
  Te  Te208  1  0.67292157  0.00494628  0.50084045  1
  Te  Te209  1  0.66306627  -0.00136836  0.83802242  1
  Te  Te210  1  0.66370854  0.33402929  0.15846191  1
  Te  Te211  1  0.67032132  0.32920357  0.50160679  1
  Te  Te212  1  0.66616838  0.33394875  0.83394416  1
  Te  Te213  1  0.66011170  0.66594475  0.16550437  1
  Te  Te214  1  0.65749098  0.66668861  0.50086569  1
  Te  Te215  1  0.66154603  0.66673688  0.83476628  1
