# generated using pymatgen
data_AgSbTe2
_symmetry_space_group_name_H-M   'P 1'
_cell_length_a   18.34383779
_cell_length_b   18.35076173
_cell_length_c   18.34974324
_cell_angle_alpha   90.00161959
_cell_angle_beta   90.00206829
_cell_angle_gamma   89.99952816
_symmetry_Int_Tables_number   1
_chemical_formula_structural   AgSbTe2
_chemical_formula_sum   'Ag54 Sb54 Te108'
_cell_volume   6176.95288819
_cell_formula_units_Z   54
loop_
 _symmetry_equiv_pos_site_id
 _symmetry_equiv_pos_as_xyz
  1  'x, y, z'
loop_
 _atom_site_type_symbol
 _atom_site_label
 _atom_site_symmetry_multiplicity
 _atom_site_fract_x
 _atom_site_fract_y
 _atom_site_fract_z
 _atom_site_occupancy
  Ag  Ag0  1  0.65088254  0.17914197  0.83901247  1
  Ag  Ag1  1  0.48905894  0.00358847  0.16625430  1
  Ag  Ag2  1  0.17914895  0.82902864  0.67512299  1
  Ag  Ag3  1  0.33297188  0.49700375  0.50062073  1
  Ag  Ag4  1  0.83737396  0.33059167  0.16468166  1
  Ag  Ag5  1  0.01520920  -0.00130244  0.66808759  1
  Ag  Ag6  1  0.17586564  0.67152269  0.83573877  1
  Ag  Ag7  1  0.01273420  0.49759318  0.16811605  1
  Ag  Ag8  1  0.33296544  0.66998586  0.67080072  1
  Ag  Ag9  1  0.66336419  0.48908823  0.82923274  1
  Ag  Ag10  1  0.65559596  0.50050415  0.50772744  1
  Ag  Ag11  1  0.81925718  0.33647336  0.83917745  1
  Ag  Ag12  1  0.66044832  0.82790512  0.51082218  1
  Ag  Ag13  1  0.33461458  0.83614287  0.83128325  1
  Ag  Ag14  1  0.18072708  0.34183382  0.48477325  1
  Ag  Ag15  1  0.16952203  0.50541589  0.00260531  1
  Ag  Ag16  1  0.17078570  0.50551090  0.66129838  1
  Ag  Ag17  1  0.49337138  0.66423674  0.50622988  1
  Ag  Ag18  1  0.49667055  0.00122329  0.51195310  1
  Ag  Ag19  1  0.83512832  0.83131791  -0.00030970  1
  Ag  Ag20  1  0.66549898  0.33071702  -0.01250365  1
  Ag  Ag21  1  0.33523836  -0.00690282  0.67341848  1
  Ag  Ag22  1  0.66102088  0.16687929  0.15895343  1
  Ag  Ag23  1  0.16874340  0.49448313  0.32826301  1
  Ag  Ag24  1  0.49638651  0.16633742  0.67566743  1
  Ag  Ag25  1  0.32926269  0.32711904  0.34004590  1
  Ag  Ag26  1  0.49366477  0.16707366  -0.01223668  1
  Ag  Ag27  1  0.01446828  0.66644059  0.00074261  1
  Ag  Ag28  1  0.00478726  0.66122852  0.32906469  1
  Ag  Ag29  1  0.33435440  0.00480320  0.33435887  1
  Ag  Ag30  1  0.50523097  0.31876614  0.82409752  1
  Ag  Ag31  1  0.83333915  0.83380149  0.32392123  1
  Ag  Ag32  1  0.17545140  0.18118477  0.32578986  1
  Ag  Ag33  1  0.17360356  0.16718205  0.00352848  1
  Ag  Ag34  1  0.65266456  0.83284590  0.83085044  1
  Ag  Ag35  1  0.17813906  -0.00727885  0.83575773  1
  Ag  Ag36  1  0.65043244  0.33455795  0.67683982  1
  Ag  Ag37  1  0.49261624  0.67082691  0.82674591  1
  Ag  Ag38  1  0.33005162  0.66754778  -0.01234588  1
  Ag  Ag39  1  0.83084485  0.66754275  0.83571245  1
  Ag  Ag40  1  0.16771102  0.33643881  0.17262245  1
  Ag  Ag41  1  0.83458864  0.00121308  0.16689201  1
  Ag  Ag42  1  0.33973346  0.15624989  0.83197805  1
  Ag  Ag43  1  0.33099162  0.83506698  0.16032795  1
  Ag  Ag44  1  0.17061230  0.82590475  -0.00543376  1
  Ag  Ag45  1  0.49491374  0.00722970  0.82900012  1
  Ag  Ag46  1  0.49250021  0.16423943  0.33333031  1
  Ag  Ag47  1  0.01690031  0.33762472  0.33049672  1
  Ag  Ag48  1  0.17572352  0.65997811  0.50713303  1
  Ag  Ag49  1  0.32881196  0.50096675  0.17051433  1
  Ag  Ag50  1  0.49568887  0.83899337  0.67095647  1
  Ag  Ag51  1  0.33527899  0.33467420  0.66264263  1
  Ag  Ag52  1  0.49540845  0.33285829  0.50837041  1
  Ag  Ag53  1  0.17307109  0.00413063  0.16149553  1
  Sb  Sb54  1  0.01020230  0.50143339  0.49435259  1
  Sb  Sb55  1  0.66421744  0.00493731  -0.00123013  1
  Sb  Sb56  1  0.00342210  0.16710962  0.83397439  1
  Sb  Sb57  1  0.49222358  0.49656470  0.66742314  1
  Sb  Sb58  1  0.66925840  0.66760193  0.33655551  1
  Sb  Sb59  1  0.83696635  0.50315232  -0.00047705  1
  Sb  Sb60  1  0.65843680  0.00255584  0.66882012  1
  Sb  Sb61  1  0.82931269  0.33511355  0.49804835  1
  Sb  Sb62  1  0.32830820  0.66560002  0.33681134  1
  Sb  Sb63  1  0.66182055  0.66292514  -0.00603709  1
  Sb  Sb64  1  0.33553048  0.17345227  0.50141095  1
  Sb  Sb65  1  0.00696616  0.33034447  0.66262895  1
  Sb  Sb66  1  0.00342530  0.17087122  0.16627613  1
  Sb  Sb67  1  -0.00145292  0.33826888  0.00445003  1
  Sb  Sb68  1  0.83540244  0.66716561  0.16216565  1
  Sb  Sb69  1  0.66347814  0.83981846  0.16238219  1
  Sb  Sb70  1  0.33601205  0.50233867  0.82994082  1
  Sb  Sb71  1  0.17284023  0.33462945  0.83469796  1
  Sb  Sb72  1  0.65876375  0.16842368  0.50374015  1
  Sb  Sb73  1  0.82459573  0.16714483  0.67050636  1
  Sb  Sb74  1  0.49451949  0.49580421  -0.00343621  1
  Sb  Sb75  1  0.83004889  -0.00218999  0.83715759  1
  Sb  Sb76  1  0.16795663  0.66236402  0.16276960  1
  Sb  Sb77  1  0.17717671  -0.00099390  0.50170889  1
  Sb  Sb78  1  0.49550023  0.67347194  0.16574131  1
  Sb  Sb79  1  0.82582766  -0.00420966  0.49638379  1
  Sb  Sb80  1  0.00789323  0.83226228  0.83377111  1
  Sb  Sb81  1  0.49499601  0.32634634  0.16688632  1
  Sb  Sb82  1  0.83228535  0.66689652  0.50484260  1
  Sb  Sb83  1  0.82950296  0.83358230  0.67242554  1
  Sb  Sb84  1  0.49659233  0.83907688  -0.00873664  1
  Sb  Sb85  1  0.83946374  0.50268973  0.33223054  1
  Sb  Sb86  1  0.33547097  0.33619061  -0.00070820  1
  Sb  Sb87  1  0.01089685  0.66998238  0.67004959  1
  Sb  Sb88  1  0.17714532  0.16557815  0.66833290  1
  Sb  Sb89  1  0.16740601  0.83030022  0.33180058  1
  Sb  Sb90  1  -0.00072546  0.83181940  0.49982858  1
  Sb  Sb91  1  0.00730666  0.00059176  0.33497293  1
  Sb  Sb92  1  0.33495176  0.16464864  0.16369335  1
  Sb  Sb93  1  0.66347228  0.49134060  0.16456049  1
  Sb  Sb94  1  0.83333592  0.16441280  0.32932970  1
  Sb  Sb95  1  0.00430052  -0.00528350  -0.00234675  1
  Sb  Sb96  1  0.83629375  0.49984520  0.66905485  1
  Sb  Sb97  1  0.50000954  0.83806482  0.33938158  1
  Sb  Sb98  1  0.65617325  0.66047209  0.67033481  1
  Sb  Sb99  1  0.33751500  0.82895360  0.50649707  1
  Sb  Sb100  1  0.49129972  0.49443948  0.33744861  1
  Sb  Sb101  1  0.83277706  0.16515945  0.00042123  1
  Sb  Sb102  1  0.00603436  0.83024961  0.16536011  1
  Sb  Sb103  1  0.33207676  -0.00460497  -0.00314165  1
  Sb  Sb104  1  0.00049619  0.50165728  0.83776190  1
  Sb  Sb105  1  0.65806509  0.00121035  0.33244311  1
  Sb  Sb106  1  0.66103513  0.33249764  0.33489652  1
  Sb  Sb107  1  0.00595772  0.16753829  0.49879270  1
  Te  Te108  1  0.16743936  0.16520545  0.16588718  1
  Te  Te109  1  0.16815939  0.17134988  0.49445428  1
  Te  Te110  1  0.17082999  0.16488209  0.83662082  1
  Te  Te111  1  0.16870552  0.50079293  0.16600326  1
  Te  Te112  1  0.16992829  0.49987903  0.50031681  1
  Te  Te113  1  0.16667479  0.50297589  0.83882453  1
  Te  Te114  1  0.17077735  0.83802470  0.16345430  1
  Te  Te115  1  0.16669234  0.82957863  0.50326395  1
  Te  Te116  1  0.16983329  0.83323418  0.83419824  1
  Te  Te117  1  0.50177351  0.16321601  0.17212415  1
  Te  Te118  1  0.50051569  0.16509019  0.49475187  1
  Te  Te119  1  0.49679351  0.16352093  0.83257488  1
  Te  Te120  1  0.49399925  0.50161156  0.16728332  1
  Te  Te121  1  0.49722586  0.50011364  0.50071754  1
  Te  Te122  1  0.50541632  0.51173608  0.83372969  1
  Te  Te123  1  0.49562363  0.84138449  0.16646823  1
  Te  Te124  1  0.50243913  0.83297349  0.50359030  1
  Te  Te125  1  0.49490357  0.83034146  0.83183782  1
  Te  Te126  1  0.82964023  0.16770300  0.16590124  1
  Te  Te127  1  0.83174534  0.16527663  0.49969794  1
  Te  Te128  1  0.82944005  0.16869263  0.83462807  1
  Te  Te129  1  0.83243841  0.49383779  0.16697869  1
  Te  Te130  1  0.82397879  0.50093014  0.50071034  1
  Te  Te131  1  0.82819915  0.49937718  0.83350996  1
  Te  Te132  1  0.83188752  0.83446328  0.16315846  1
  Te  Te133  1  0.82442984  0.83252521  0.49912833  1
  Te  Te134  1  0.83399827  0.83227022  0.83810610  1
  Te  Te135  1  0.16576404  0.00129944  -0.00035011  1
  Te  Te136  1  0.17101556  -0.00104719  0.33137215  1
  Te  Te137  1  0.17394274  -0.00089070  0.66830002  1
  Te  Te138  1  0.16647029  0.33288092  0.00180345  1
  Te  Te139  1  0.17164507  0.33612184  0.33005442  1
  Te  Te140  1  0.17154023  0.33518163  0.66657234  1
  Te  Te141  1  0.16989538  0.66690157  -0.00011730  1
  Te  Te142  1  0.16297451  0.66452911  0.33819315  1
  Te  Te143  1  0.17031520  0.66806961  0.66841346  1
  Te  Te144  1  0.50067403  0.00688020  0.00367929  1
  Te  Te145  1  0.49448394  0.00312583  0.32656332  1
  Te  Te146  1  0.49692747  0.00079915  0.66887625  1
  Te  Te147  1  0.50401593  0.32840194  -0.00108713  1
  Te  Te148  1  0.49343277  0.32770574  0.33542540  1
  Te  Te149  1  0.49488779  0.33400243  0.66604088  1
  Te  Te150  1  0.49373343  0.66707358  -0.00271102  1
  Te  Te151  1  0.50073875  0.66735698  0.33987457  1
  Te  Te152  1  0.49501947  0.66853310  0.66552008  1
  Te  Te153  1  0.83592422  -0.00471460  0.00506429  1
  Te  Te154  1  0.83614225  -0.00395624  0.32879418  1
  Te  Te155  1  0.83537171  -0.00016978  0.66596497  1
  Te  Te156  1  0.83087365  0.33273101  0.00152962  1
  Te  Te157  1  0.83207104  0.33336751  0.32842196  1
  Te  Te158  1  0.83711569  0.33281224  0.66954945  1
  Te  Te159  1  0.83032601  0.67035918  -0.00413421  1
  Te  Te160  1  0.83951508  0.67131983  0.33417565  1
  Te  Te161  1  0.83812416  0.66737733  0.67405672  1
  Te  Te162  1  0.00915665  0.16689278  -0.00078704  1
  Te  Te163  1  0.00471277  0.17190495  0.33298190  1
  Te  Te164  1  -0.00100827  0.16065938  0.66644878  1
  Te  Te165  1  0.00466390  0.50543442  0.00562798  1
  Te  Te166  1  0.00453547  0.49966611  0.32896742  1
  Te  Te167  1  0.00902677  0.50027686  0.66600467  1
  Te  Te168  1  0.00173225  0.82667724  0.00038333  1
  Te  Te169  1  -0.00519064  0.83101934  0.33314992  1
  Te  Te170  1  0.00161001  0.83809217  0.66549454  1
  Te  Te171  1  0.33363734  0.16958545  -0.00508996  1
  Te  Te172  1  0.33228789  0.16615596  0.33148939  1
  Te  Te173  1  0.33835194  0.16758003  0.67027485  1
  Te  Te174  1  0.32929099  0.50400823  0.00402897  1
  Te  Te175  1  0.32817550  0.49911684  0.33444056  1
  Te  Te176  1  0.32760393  0.49973508  0.66430223  1
  Te  Te177  1  0.33146752  0.82921921  -0.00142143  1
  Te  Te178  1  0.33317720  0.83692679  0.32681279  1
  Te  Te179  1  0.33541824  0.83301260  0.66772966  1
  Te  Te180  1  0.66683152  0.17033101  -0.00130491  1
  Te  Te181  1  0.66413318  0.16677702  0.33093179  1
  Te  Te182  1  0.65849113  0.17196468  0.67162303  1
  Te  Te183  1  0.66659065  0.49312249  -0.00398681  1
  Te  Te184  1  0.66629109  0.49990236  0.33672179  1
  Te  Te185  1  0.66937762  0.49549712  0.66792460  1
  Te  Te186  1  0.66911530  0.83212287  -0.00447426  1
  Te  Te187  1  0.67267189  0.83353219  0.33192619  1
  Te  Te188  1  0.66267656  0.83220566  0.66887451  1
  Te  Te189  1  -0.00214688  0.00025888  0.16787535  1
  Te  Te190  1  -0.00017929  -0.00021164  0.50474977  1
  Te  Te191  1  0.00154719  0.00103760  0.82859898  1
  Te  Te192  1  0.00184333  0.33653371  0.16970210  1
  Te  Te193  1  -0.00114004  0.33440012  0.49322292  1
  Te  Te194  1  -0.00653050  0.33361660  0.83272107  1
  Te  Te195  1  -0.00082696  0.66168815  0.16586884  1
  Te  Te196  1  0.00173176  0.66665847  0.49628590  1
  Te  Te197  1  -0.00346413  0.66575368  0.83771766  1
  Te  Te198  1  0.33040929  -0.00058140  0.16655013  1
  Te  Te199  1  0.33912962  -0.00238623  0.49754860  1
  Te  Te200  1  0.33483337  -0.00224307  0.83316144  1
  Te  Te201  1  0.32924568  0.33776186  0.16753902  1
  Te  Te202  1  0.33582393  0.33498509  0.50046673  1
  Te  Te203  1  0.33917448  0.33513454  0.83015979  1
  Te  Te204  1  0.33419771  0.66770750  0.16754914  1
  Te  Te205  1  0.33327123  0.66323396  0.50224019  1
  Te  Te206  1  0.33191132  0.66414940  0.83025962  1
  Te  Te207  1  0.67269304  0.00583716  0.16600197  1
  Te  Te208  1  0.65793875  -0.00508265  0.50040813  1
  Te  Te209  1  0.66218781  -0.00733986  0.83327575  1
  Te  Te210  1  0.66716108  0.32893808  0.16718356  1
  Te  Te211  1  0.66133052  0.33657128  0.50321032  1
  Te  Te212  1  0.66377150  0.33361738  0.83150383  1
  Te  Te213  1  0.66541227  0.66451469  0.16663248  1
  Te  Te214  1  0.66389082  0.66560304  0.50279895  1
  Te  Te215  1  0.66930893  0.67423974  0.83275182  1
