# generated using pymatgen
data_AgSbTe2
_symmetry_space_group_name_H-M   'P 1'
_cell_length_a   18.34342190
_cell_length_b   18.34531091
_cell_length_c   18.34070435
_cell_angle_alpha   90.00076784
_cell_angle_beta   89.99957901
_cell_angle_gamma   90.00194079
_symmetry_Int_Tables_number   1
_chemical_formula_structural   AgSbTe2
_chemical_formula_sum   'Ag54 Sb54 Te108'
_cell_volume   6171.93638609
_cell_formula_units_Z   54
loop_
 _symmetry_equiv_pos_site_id
 _symmetry_equiv_pos_as_xyz
  1  'x, y, z'
loop_
 _atom_site_type_symbol
 _atom_site_label
 _atom_site_symmetry_multiplicity
 _atom_site_fract_x
 _atom_site_fract_y
 _atom_site_fract_z
 _atom_site_occupancy
  Ag  Ag0  1  0.66552964  0.18066813  0.83632171  1
  Ag  Ag1  1  0.50196504  0.33821831  0.83232200  1
  Ag  Ag2  1  0.66578530  0.65502930  0.01413688  1
  Ag  Ag3  1  -0.01118402  0.34468570  0.33557317  1
  Ag  Ag4  1  0.66937880  0.34544964  0.33250196  1
  Ag  Ag5  1  -0.01387373  0.66606818  0.33539030  1
  Ag  Ag6  1  0.17156626  -0.01066002  0.16031932  1
  Ag  Ag7  1  0.82777369  0.50616757  0.32797141  1
  Ag  Ag8  1  0.00430093  0.66365229  0.65710462  1
  Ag  Ag9  1  0.50357192  0.82799749  0.32962963  1
  Ag  Ag10  1  0.82359616  0.66776674  0.17737412  1
  Ag  Ag11  1  0.17592496  0.82543951  -0.00059607  1
  Ag  Ag12  1  0.33146269  -0.00021811  0.67262800  1
  Ag  Ag13  1  0.82227728  0.66091157  0.48918284  1
  Ag  Ag14  1  0.83391075  -0.00831862  0.16656914  1
  Ag  Ag15  1  0.66596778  0.50396856  0.49686061  1
  Ag  Ag16  1  0.33311760  0.16302419  0.16523426  1
  Ag  Ag17  1  0.49505202  0.82874814  0.00437811  1
  Ag  Ag18  1  0.82046562  0.33843397  0.83468515  1
  Ag  Ag19  1  0.33199972  -0.00907671  -0.00293696  1
  Ag  Ag20  1  0.82555896  0.81780476  0.33128612  1
  Ag  Ag21  1  0.66215526  0.49687383  0.84709121  1
  Ag  Ag22  1  0.66521584  0.34392611  -0.00549567  1
  Ag  Ag23  1  0.67378011  0.66272555  0.33017488  1
  Ag  Ag24  1  0.17214122  0.50529045  -0.00544336  1
  Ag  Ag25  1  0.81867122  0.49862219  0.00248676  1
  Ag  Ag26  1  0.82309739  0.34114988  0.49635603  1
  Ag  Ag27  1  0.33402760  0.50109888  0.83738827  1
  Ag  Ag28  1  0.65852861  0.82014578  0.48833231  1
  Ag  Ag29  1  0.33179556  0.82934273  0.84181427  1
  Ag  Ag30  1  0.33401823  0.16441352  0.50392165  1
  Ag  Ag31  1  0.17201157  0.34111826  0.83107947  1
  Ag  Ag32  1  0.50366802  0.34360135  0.50493982  1
  Ag  Ag33  1  0.65797409  -0.00153731  0.66756256  1
  Ag  Ag34  1  0.16956284  0.66695760  0.49541122  1
  Ag  Ag35  1  0.17091531  0.00064945  0.83519025  1
  Ag  Ag36  1  0.17501649  0.50323718  0.67449940  1
  Ag  Ag37  1  0.66505870  0.50637238  0.16058830  1
  Ag  Ag38  1  0.66075012  0.82391042  0.17090241  1
  Ag  Ag39  1  0.50524113  0.66392715  0.49690743  1
  Ag  Ag40  1  0.16852553  0.66920713  0.16995122  1
  Ag  Ag41  1  0.33803339  0.83052982  0.49832231  1
  Ag  Ag42  1  -0.00120550  -0.01031311  0.33026876  1
  Ag  Ag43  1  0.49699231  0.49759028  0.67556006  1
  Ag  Ag44  1  0.82235431  0.18064045  0.00015629  1
  Ag  Ag45  1  0.50459593  0.50100930  -0.00525571  1
  Ag  Ag46  1  0.33320207  0.33697000  0.66917430  1
  Ag  Ag47  1  0.33632145  0.51052710  0.16012158  1
  Ag  Ag48  1  0.01117771  0.49971762  0.83248043  1
  Ag  Ag49  1  0.33514332  0.66839312  0.33327388  1
  Ag  Ag50  1  0.50225378  0.17684535  -0.00177576  1
  Ag  Ag51  1  0.17271975  0.16842314  0.66870900  1
  Ag  Ag52  1  0.33501627  0.83046739  0.16091471  1
  Ag  Ag53  1  0.17333065  0.82889282  0.67124082  1
  Sb  Sb54  1  0.49366424  0.00361716  0.83418973  1
  Sb  Sb55  1  0.82828224  0.82771730  0.00674088  1
  Sb  Sb56  1  0.00520590  0.34006178  0.66521735  1
  Sb  Sb57  1  0.50063291  0.33677751  0.16499850  1
  Sb  Sb58  1  0.49763024  -0.00377384  0.16473921  1
  Sb  Sb59  1  -0.00177996  0.66436547  0.00305926  1
  Sb  Sb60  1  0.16862117  0.82966485  0.33140484  1
  Sb  Sb61  1  0.33937769  0.66736334  0.00662618  1
  Sb  Sb62  1  -0.00251729  0.50281078  0.16410783  1
  Sb  Sb63  1  0.16293763  0.50366396  0.33235635  1
  Sb  Sb64  1  0.33613318  0.16873339  0.83301529  1
  Sb  Sb65  1  0.66137287  -0.00067443  -0.00214563  1
  Sb  Sb66  1  0.67056045  -0.00707267  0.33456657  1
  Sb  Sb67  1  0.16883938  0.16550633  0.33610094  1
  Sb  Sb68  1  -0.00433219  0.50291936  0.50276357  1
  Sb  Sb69  1  0.32929655  -0.00720545  0.33031813  1
  Sb  Sb70  1  0.49877830  0.65874033  0.83042011  1
  Sb  Sb71  1  0.00914432  0.82706506  0.83216000  1
  Sb  Sb72  1  0.16974986  0.33966332  0.50482294  1
  Sb  Sb73  1  0.33901405  0.50454283  0.50100319  1
  Sb  Sb74  1  0.83045842  0.33869445  0.16669095  1
  Sb  Sb75  1  0.83481962  0.83082166  0.66087973  1
  Sb  Sb76  1  0.00149821  0.82816978  0.49676387  1
  Sb  Sb77  1  0.49384900  0.82746122  0.66669874  1
  Sb  Sb78  1  0.50757401  0.50606504  0.33163007  1
  Sb  Sb79  1  0.00178902  0.83137718  0.16819557  1
  Sb  Sb80  1  0.00674607  -0.00040547  0.00321607  1
  Sb  Sb81  1  0.83206504  0.17084830  0.32821077  1
  Sb  Sb82  1  0.00707733  -0.00501628  0.66352723  1
  Sb  Sb83  1  0.82966001  0.49956510  0.66789347  1
  Sb  Sb84  1  0.16889572  0.33803363  0.16117552  1
  Sb  Sb85  1  0.33700777  0.33993900  0.33757996  1
  Sb  Sb86  1  0.83207398  0.65911146  0.83444882  1
  Sb  Sb87  1  0.83605000  0.00484587  0.84003388  1
  Sb  Sb88  1  0.00460379  0.16969852  0.50025815  1
  Sb  Sb89  1  0.83169442  -0.00271153  0.49421238  1
  Sb  Sb90  1  0.49925520  -0.00331213  0.50123137  1
  Sb  Sb91  1  -0.00102401  0.17455690  0.83393478  1
  Sb  Sb92  1  0.50162598  0.66727022  0.17266282  1
  Sb  Sb93  1  0.17173625  0.16763215  -0.00380941  1
  Sb  Sb94  1  0.66410110  0.16753148  0.16139819  1
  Sb  Sb95  1  0.32825103  0.66621835  0.66120982  1
  Sb  Sb96  1  -0.00528517  0.33715826  0.00145500  1
  Sb  Sb97  1  0.00363250  0.16559588  0.16650105  1
  Sb  Sb98  1  0.66187833  0.17148539  0.50456778  1
  Sb  Sb99  1  0.16949218  -0.00631608  0.50045388  1
  Sb  Sb100  1  0.33911487  0.33556062  -0.00568746  1
  Sb  Sb101  1  0.66106127  0.33469330  0.67019047  1
  Sb  Sb102  1  0.49501577  0.17193540  0.67063268  1
  Sb  Sb103  1  0.83436716  0.16938962  0.67035420  1
  Sb  Sb104  1  0.66870129  0.66782525  0.66153122  1
  Sb  Sb105  1  0.65986393  0.82858849  0.83666086  1
  Sb  Sb106  1  0.16866241  0.66305825  0.83495885  1
  Sb  Sb107  1  0.49937303  0.16466212  0.33038038  1
  Te  Te108  1  0.17146068  0.16552617  0.16576649  1
  Te  Te109  1  0.17317234  0.16790555  0.50544647  1
  Te  Te110  1  0.16646194  0.16592771  0.83000837  1
  Te  Te111  1  0.17023483  0.50362841  0.16352638  1
  Te  Te112  1  0.16749950  0.50614098  0.50419535  1
  Te  Te113  1  0.17202619  0.50077046  0.83307619  1
  Te  Te114  1  0.16945734  0.83209989  0.16564917  1
  Te  Te115  1  0.17094370  0.82829993  0.50185215  1
  Te  Te116  1  0.17162201  0.83529659  0.83489832  1
  Te  Te117  1  0.49489022  0.16538975  0.16110699  1
  Te  Te118  1  0.49356369  0.16858703  0.49930911  1
  Te  Te119  1  0.50436697  0.17138351  0.83823168  1
  Te  Te120  1  0.49816641  0.50039184  0.16062187  1
  Te  Te121  1  0.50274560  0.50124942  0.49677840  1
  Te  Te122  1  0.49794015  0.49776083  0.83401021  1
  Te  Te123  1  0.49850520  0.83281735  0.16570399  1
  Te  Te124  1  0.50041639  0.83069787  0.50054758  1
  Te  Te125  1  0.49309640  0.83336148  0.83680354  1
  Te  Te126  1  0.83317319  0.16424782  0.16017757  1
  Te  Te127  1  0.83340686  0.17276885  0.50105176  1
  Te  Te128  1  0.82972726  0.17277430  0.83842476  1
  Te  Te129  1  0.83094786  0.50380235  0.16521623  1
  Te  Te130  1  0.83033444  0.49995880  0.50088641  1
  Te  Te131  1  0.82443178  0.49664672  0.83568535  1
  Te  Te132  1  0.83318035  0.82990227  0.16932153  1
  Te  Te133  1  0.82841959  0.82973896  0.49442650  1
  Te  Te134  1  0.83395472  0.83388443  0.83394573  1
  Te  Te135  1  0.17174063  0.00206621  0.00037263  1
  Te  Te136  1  0.16097510  -0.00128943  0.32814996  1
  Te  Te137  1  0.17040024  -0.00516987  0.66769149  1
  Te  Te138  1  0.16541103  0.33581579  -0.00634426  1
  Te  Te139  1  0.16398312  0.33407346  0.33445136  1
  Te  Te140  1  0.17115714  0.33661154  0.66975537  1
  Te  Te141  1  0.16519632  0.66676227  0.00475386  1
  Te  Te142  1  0.17266992  0.66694157  0.33268401  1
  Te  Te143  1  0.16459275  0.66565224  0.66798023  1
  Te  Te144  1  0.49327217  -0.00523450  -0.00082056  1
  Te  Te145  1  0.50106330  -0.00828305  0.33333063  1
  Te  Te146  1  0.49566841  0.00045870  0.66757692  1
  Te  Te147  1  0.50466761  0.33553019  -0.00114657  1
  Te  Te148  1  0.50522301  0.33296002  0.33905299  1
  Te  Te149  1  0.49535894  0.33708367  0.66713037  1
  Te  Te150  1  0.50586879  0.66523174  -0.00348956  1
  Te  Te151  1  0.49711934  0.67047211  0.33889507  1
  Te  Te152  1  0.50046586  0.65997083  0.65847337  1
  Te  Te153  1  0.83481765  -0.00339935  0.00552822  1
  Te  Te154  1  0.83798900  0.00259782  0.32752579  1
  Te  Te155  1  0.83656607  0.00022259  0.66749760  1
  Te  Te156  1  0.82932065  0.33810804  -0.00124426  1
  Te  Te157  1  0.82987059  0.33604556  0.33500385  1
  Te  Te158  1  0.83605058  0.33241285  0.66905991  1
  Te  Te159  1  0.82963335  0.66094985  0.00350712  1
  Te  Te160  1  0.83101215  0.66233271  0.33335633  1
  Te  Te161  1  0.84117444  0.66727547  0.66089301  1
  Te  Te162  1  -0.00981378  0.16775584  -0.00005722  1
  Te  Te163  1  0.00045838  0.16787539  0.33398953  1
  Te  Te164  1  0.00916129  0.16475865  0.66676533  1
  Te  Te165  1  0.01058436  0.50010015  -0.00534331  1
  Te  Te166  1  -0.00570466  0.50372358  0.33315777  1
  Te  Te167  1  0.00383565  0.50372094  0.67156700  1
  Te  Te168  1  0.00984846  0.83267488  -0.00185891  1
  Te  Te169  1  -0.00685920  0.82920208  0.33337444  1
  Te  Te170  1  0.00768062  0.82696116  0.66539738  1
  Te  Te171  1  0.33754386  0.16711603  0.00300317  1
  Te  Te172  1  0.33407111  0.16707715  0.33271928  1
  Te  Te173  1  0.33097056  0.16361768  0.66647696  1
  Te  Te174  1  0.33269825  0.50003062  -0.00023055  1
  Te  Te175  1  0.33265933  0.50434347  0.32693580  1
  Te  Te176  1  0.33528431  0.49916112  0.66649455  1
  Te  Te177  1  0.33356784  0.83147057  0.00091876  1
  Te  Te178  1  0.33557985  0.83047456  0.33599518  1
  Te  Te179  1  0.33160730  0.83471353  0.66412141  1
  Te  Te180  1  0.66332297  0.16558578  -0.00290884  1
  Te  Te181  1  0.66491950  0.17028731  0.33371752  1
  Te  Te182  1  0.66601466  0.16077250  0.67291593  1
  Te  Te183  1  0.66341717  0.49903821  0.00313089  1
  Te  Te184  1  0.66775192  0.50221817  0.33487493  1
  Te  Te185  1  0.66164765  0.50037208  0.65779781  1
  Te  Te186  1  0.66111145  0.83139405  0.00475037  1
  Te  Te187  1  0.66617947  0.83210952  0.33162487  1
  Te  Te188  1  0.66594534  0.83734970  0.66721962  1
  Te  Te189  1  0.00198225  -0.00021196  0.17050158  1
  Te  Te190  1  0.00010554  0.00059844  0.49212616  1
  Te  Te191  1  0.00742014  0.00076558  0.83270992  1
  Te  Te192  1  0.00055737  0.33369927  0.17632201  1
  Te  Te193  1  -0.00260947  0.33483852  0.49527764  1
  Te  Te194  1  0.00469987  0.34035902  0.83342735  1
  Te  Te195  1  0.00597088  0.66573055  0.17210670  1
  Te  Te196  1  0.00599417  0.66627381  0.49622455  1
  Te  Te197  1  -0.00170724  0.65920313  0.83160042  1
  Te  Te198  1  0.33091064  -0.00435419  0.16488850  1
  Te  Te199  1  0.33271952  -0.00133284  0.50192477  1
  Te  Te200  1  0.32958746  0.00088299  0.83384485  1
  Te  Te201  1  0.33267571  0.33050925  0.16827676  1
  Te  Te202  1  0.33730078  0.33232163  0.50391068  1
  Te  Te203  1  0.33413534  0.33513018  0.82966387  1
  Te  Te204  1  0.33170627  0.66929367  0.16963408  1
  Te  Te205  1  0.33152896  0.66946595  0.49579185  1
  Te  Te206  1  0.33447266  0.66740116  0.83161934  1
  Te  Te207  1  0.67144565  -0.00129302  0.16610008  1
  Te  Te208  1  0.66749734  0.00125337  0.50609002  1
  Te  Te209  1  0.66864062  -0.00221881  0.82915041  1
  Te  Te210  1  0.66627284  0.33637763  0.16862353  1
  Te  Te211  1  0.66473477  0.33431634  0.50276921  1
  Te  Te212  1  0.66352390  0.33687443  0.83268680  1
  Te  Te213  1  0.66533272  0.66688365  0.17028012  1
  Te  Te214  1  0.66665626  0.66550822  0.49988338  1
  Te  Te215  1  0.66701295  0.65965686  0.83243053  1
