# generated using pymatgen
data_AgSbTe2
_symmetry_space_group_name_H-M   'P 1'
_cell_length_a   18.32264613
_cell_length_b   18.32218993
_cell_length_c   18.32702054
_cell_angle_alpha   89.99991169
_cell_angle_beta   90.00124199
_cell_angle_gamma   90.00609992
_symmetry_Int_Tables_number   1
_chemical_formula_structural   AgSbTe2
_chemical_formula_sum   'Ag54 Sb54 Te108'
_cell_volume   6152.58240299
_cell_formula_units_Z   54
loop_
 _symmetry_equiv_pos_site_id
 _symmetry_equiv_pos_as_xyz
  1  'x, y, z'
loop_
 _atom_site_type_symbol
 _atom_site_label
 _atom_site_symmetry_multiplicity
 _atom_site_fract_x
 _atom_site_fract_y
 _atom_site_fract_z
 _atom_site_occupancy
  Ag  Ag0  1  0.49959601  0.65557811  0.16840684  1
  Ag  Ag1  1  0.15927198  0.66941382  0.83898085  1
  Ag  Ag2  1  0.83719976  0.83891089  0.67660671  1
  Ag  Ag3  1  0.33545059  0.49597877  0.16984222  1
  Ag  Ag4  1  -0.00315851  0.66537603  0.67530711  1
  Ag  Ag5  1  0.67057615  0.66172468  0.32626511  1
  Ag  Ag6  1  0.50253672  0.50097681  0.00743407  1
  Ag  Ag7  1  0.32239424  0.83513363  0.83361129  1
  Ag  Ag8  1  0.83811312  0.83202626  -0.00447717  1
  Ag  Ag9  1  0.32600985  0.49445178  0.49114487  1
  Ag  Ag10  1  0.83267702  0.15985337  0.67188956  1
  Ag  Ag11  1  -0.00278928  0.65836056  0.32405624  1
  Ag  Ag12  1  0.83521390  0.00758563  0.16415674  1
  Ag  Ag13  1  -0.00270564  0.34048294  0.66200043  1
  Ag  Ag14  1  0.50143547  0.33950431  0.16706383  1
  Ag  Ag15  1  0.83482215  0.00815117  0.50687689  1
  Ag  Ag16  1  0.51361921  -0.00231819  0.83657329  1
  Ag  Ag17  1  0.15638787  0.66685846  0.16316653  1
  Ag  Ag18  1  -0.00197951  0.82774050  0.83841484  1
  Ag  Ag19  1  0.67440308  0.15863480  0.83715092  1
  Ag  Ag20  1  0.00043174  0.50781674  0.83641190  1
  Ag  Ag21  1  0.84211734  0.32882905  0.49185695  1
  Ag  Ag22  1  0.83758155  0.32558306  0.83700747  1
  Ag  Ag23  1  0.00232356  0.49714369  0.48955186  1
  Ag  Ag24  1  0.68012266  0.83731546  0.83264828  1
  Ag  Ag25  1  0.15734282  0.82930416  -0.00493487  1
  Ag  Ag26  1  0.33592032  0.17196841  0.16843498  1
  Ag  Ag27  1  0.67260870  -0.00374690  0.67250003  1
  Ag  Ag28  1  0.15907946  0.33509659  0.49785988  1
  Ag  Ag29  1  -0.00297706  0.33659685  0.33551503  1
  Ag  Ag30  1  0.33107380  0.17300058  0.49361180  1
  Ag  Ag31  1  0.15831488  0.17510630  0.33031338  1
  Ag  Ag32  1  0.15718539  -0.00306823  0.16826767  1
  Ag  Ag33  1  0.83235332  0.32756313  0.16820687  1
  Ag  Ag34  1  0.33088069  0.33435683  0.00385249  1
  Ag  Ag35  1  0.83577978  0.50038983  0.00051464  1
  Ag  Ag36  1  0.67524779  0.67336994  0.67375839  1
  Ag  Ag37  1  0.67466797  0.16714882  0.16427276  1
  Ag  Ag38  1  0.83257768  0.16724953  0.00210416  1
  Ag  Ag39  1  -0.00330932  0.66750142  0.00096676  1
  Ag  Ag40  1  -0.00366425  0.00604671  0.33019677  1
  Ag  Ag41  1  0.33571769  -0.00011638  0.66850452  1
  Ag  Ag42  1  0.50163358  0.00259652  0.16473952  1
  Ag  Ag43  1  0.83801635  0.17033520  0.32945055  1
  Ag  Ag44  1  0.50207035  0.66281860  0.49104217  1
  Ag  Ag45  1  0.16137538  0.49571868  0.33135106  1
  Ag  Ag46  1  0.15369113  0.33739634  0.83170241  1
  Ag  Ag47  1  0.15569459  0.83247226  0.67703849  1
  Ag  Ag48  1  0.67585590  0.66639443  0.00074098  1
  Ag  Ag49  1  0.83114092  0.00080863  0.83221648  1
  Ag  Ag50  1  0.00041278  0.82399144  0.16037881  1
  Ag  Ag51  1  0.00357978  0.50498598  0.17074707  1
  Ag  Ag52  1  0.49544244  0.50059968  0.32473206  1
  Ag  Ag53  1  0.67696713  0.33641336  0.32937104  1
  Sb  Sb54  1  0.49872446  0.33862599  0.49110241  1
  Sb  Sb55  1  0.83536264  0.66454649  0.16439244  1
  Sb  Sb56  1  0.66887275  0.16722814  0.49746312  1
  Sb  Sb57  1  0.32849202  0.00456117  0.33365343  1
  Sb  Sb58  1  0.66980804  0.33655485  0.00577021  1
  Sb  Sb59  1  0.83242564  0.66350792  0.50015781  1
  Sb  Sb60  1  -0.00109715  0.17499194  0.49743206  1
  Sb  Sb61  1  0.67364256  0.83563196  0.16078025  1
  Sb  Sb62  1  0.33003981  0.66309498  0.00151635  1
  Sb  Sb63  1  0.50389314  0.83380060  0.67029047  1
  Sb  Sb64  1  0.32610021  0.32916458  0.66845965  1
  Sb  Sb65  1  0.32696411  0.50283765  0.83645324  1
  Sb  Sb66  1  0.16432694  0.33504353  0.16838123  1
  Sb  Sb67  1  0.83635856  0.83704016  0.32995224  1
  Sb  Sb68  1  0.33000947  0.67062489  0.66735480  1
  Sb  Sb69  1  0.50350085  0.32978789  0.84077680  1
  Sb  Sb70  1  0.32717179  0.83318673  0.16090241  1
  Sb  Sb71  1  0.67346181  0.00131798  0.33284558  1
  Sb  Sb72  1  0.16627952  0.66093223  0.49764851  1
  Sb  Sb73  1  0.50206095  0.82898405  -0.00052655  1
  Sb  Sb74  1  0.33372295  0.00295792  -0.00168239  1
  Sb  Sb75  1  0.32890334  0.33424542  0.32866972  1
  Sb  Sb76  1  0.16028083  0.00501448  0.49612410  1
  Sb  Sb77  1  0.16281890  0.83054878  0.33079610  1
  Sb  Sb78  1  0.67125374  0.50080324  0.49761398  1
  Sb  Sb79  1  -0.00743252  0.16739236  0.83265226  1
  Sb  Sb80  1  0.16287891  0.50377135  0.66313687  1
  Sb  Sb81  1  0.67012464  0.83180968  0.50617077  1
  Sb  Sb82  1  0.67756740  0.33202256  0.66391098  1
  Sb  Sb83  1  -0.00414549  0.16776921  0.16854775  1
  Sb  Sb84  1  0.16157704  -0.00330078  0.83654307  1
  Sb  Sb85  1  -0.00526706  -0.00311349  0.66410739  1
  Sb  Sb86  1  0.49954172  0.67029079  0.83661772  1
  Sb  Sb87  1  0.16341607  0.50382190  0.00582112  1
  Sb  Sb88  1  0.50211564  0.82580721  0.32930873  1
  Sb  Sb89  1  0.67396324  0.50194174  0.83579673  1
  Sb  Sb90  1  -0.00137492  0.82663660  0.50105856  1
  Sb  Sb91  1  0.83809286  0.50028096  0.67224455  1
  Sb  Sb92  1  0.84040115  0.67081895  0.83534884  1
  Sb  Sb93  1  0.16098007  0.16472396  0.00527115  1
  Sb  Sb94  1  0.50609621  0.16992388  0.00421415  1
  Sb  Sb95  1  0.50552445  0.16568416  0.66689443  1
  Sb  Sb96  1  -0.00426091  -0.00965012  0.00662284  1
  Sb  Sb97  1  0.50036547  0.50192428  0.66548039  1
  Sb  Sb98  1  0.50242285  -0.00254156  0.49895002  1
  Sb  Sb99  1  0.50284281  0.17262306  0.32905674  1
  Sb  Sb100  1  -0.00139131  0.34145626  0.00160530  1
  Sb  Sb101  1  0.66631067  0.49668547  0.16755605  1
  Sb  Sb102  1  0.33668199  0.16243016  0.83600085  1
  Sb  Sb103  1  0.83817680  0.49290489  0.32675756  1
  Sb  Sb104  1  0.33163944  0.83297580  0.50715134  1
  Sb  Sb105  1  0.67070530  -0.00404796  -0.00564656  1
  Sb  Sb106  1  0.16152004  0.16375170  0.66402353  1
  Sb  Sb107  1  0.33103752  0.66218292  0.33170112  1
  Te  Te108  1  0.17022706  0.16425772  0.16956281  1
  Te  Te109  1  0.17203138  0.17086728  0.49658998  1
  Te  Te110  1  0.16691435  0.17126003  0.83409642  1
  Te  Te111  1  0.16689827  0.50262672  0.17018824  1
  Te  Te112  1  0.16571592  0.49596907  0.49622884  1
  Te  Te113  1  0.16254459  0.49974314  0.83348281  1
  Te  Te114  1  0.16257403  0.83154745  0.16504347  1
  Te  Te115  1  0.16713391  0.83406541  0.50577713  1
  Te  Te116  1  0.16222299  0.83447793  0.83451249  1
  Te  Te117  1  0.49631423  0.16492455  0.16680630  1
  Te  Te118  1  0.49222056  0.16675637  0.49826946  1
  Te  Te119  1  0.50717424  0.15974279  0.83545188  1
  Te  Te120  1  0.50162889  0.49927128  0.16591329  1
  Te  Te121  1  0.49753544  0.50382738  0.49797084  1
  Te  Te122  1  0.49833487  0.49946986  0.83888173  1
  Te  Te123  1  0.49970548  0.83899684  0.16491739  1
  Te  Te124  1  0.49967849  0.82516791  0.49864798  1
  Te  Te125  1  0.49829702  0.83897902  0.83488826  1
  Te  Te126  1  0.83324353  0.16704149  0.16786360  1
  Te  Te127  1  0.83190946  0.16834086  0.49652975  1
  Te  Te128  1  0.83091077  0.16542651  0.83331253  1
  Te  Te129  1  0.83679827  0.49542679  0.16105588  1
  Te  Te130  1  0.84029711  0.49386669  0.50132949  1
  Te  Te131  1  0.83894652  0.49306207  0.83906038  1
  Te  Te132  1  0.83910125  0.83936907  0.16203527  1
  Te  Te133  1  0.83440250  0.83903982  0.50428892  1
  Te  Te134  1  0.83636448  0.83377292  0.83492609  1
  Te  Te135  1  0.16584697  -0.00442444  0.00764096  1
  Te  Te136  1  0.16101338  0.00131270  0.32870054  1
  Te  Te137  1  0.16703215  -0.00438749  0.66609572  1
  Te  Te138  1  0.16889191  0.33306802  -0.00561715  1
  Te  Te139  1  0.16283632  0.33362106  0.33528042  1
  Te  Te140  1  0.15963991  0.33244994  0.66815133  1
  Te  Te141  1  0.16384691  0.66943639  0.00161778  1
  Te  Te142  1  0.16129256  0.66279492  0.32913313  1
  Te  Te143  1  0.16243051  0.67217003  0.66837681  1
  Te  Te144  1  0.50128993  -0.00026857  0.00147505  1
  Te  Te145  1  0.50223017  -0.00065591  0.32920631  1
  Te  Te146  1  0.50162907  0.00049993  0.66756154  1
  Te  Te147  1  0.49735824  0.33796472  0.00600994  1
  Te  Te148  1  0.50500561  0.33955741  0.32711472  1
  Te  Te149  1  0.50159973  0.33319439  0.66682438  1
  Te  Te150  1  0.49998430  0.66192246  0.00466866  1
  Te  Te151  1  0.50059751  0.66135252  0.32954118  1
  Te  Te152  1  0.50292211  0.66659683  0.66608327  1
  Te  Te153  1  0.83247443  0.00092630  0.00129332  1
  Te  Te154  1  0.83615966  0.00408931  0.32936005  1
  Te  Te155  1  0.83360882  0.00004656  0.66785351  1
  Te  Te156  1  0.83303486  0.33313452  0.00172447  1
  Te  Te157  1  0.83544296  0.33207192  0.33165255  1
  Te  Te158  1  0.83793293  0.33328801  0.66865806  1
  Te  Te159  1  0.83465079  0.66643288  0.00052856  1
  Te  Te160  1  0.83420948  0.66764014  0.33359330  1
  Te  Te161  1  0.83475089  0.67046880  0.66539760  1
  Te  Te162  1  -0.00768029  0.16638351  0.00060109  1
  Te  Te163  1  0.00023071  0.16806505  0.33350358  1
  Te  Te164  1  -0.00660754  0.17196339  0.66521780  1
  Te  Te165  1  -0.00158872  0.50616771  -0.00124453  1
  Te  Te166  1  -0.00039964  0.49863345  0.33088806  1
  Te  Te167  1  0.00085029  0.50161352  0.67355431  1
  Te  Te168  1  -0.00114193  0.82900314  0.00049952  1
  Te  Te169  1  0.00036417  0.82852944  0.32938334  1
  Te  Te170  1  -0.00245015  0.83024805  0.66676759  1
  Te  Te171  1  0.33275760  0.17175380  0.00499577  1
  Te  Te172  1  0.33074081  0.16814349  0.33115322  1
  Te  Te173  1  0.33228250  0.16134445  0.66632071  1
  Te  Te174  1  0.33492277  0.49600719  0.00437939  1
  Te  Te175  1  0.33251334  0.49902388  0.33146062  1
  Te  Te176  1  0.33250459  0.49942744  0.66191752  1
  Te  Te177  1  0.33015104  0.83414588  -0.00690629  1
  Te  Te178  1  0.33277731  0.83452997  0.33514103  1
  Te  Te179  1  0.33255320  0.83815313  0.67205010  1
  Te  Te180  1  0.67287345  0.16893503  0.00200991  1
  Te  Te181  1  0.67082736  0.16943587  0.32883756  1
  Te  Te182  1  0.67249183  0.16404340  0.66898046  1
  Te  Te183  1  0.66848592  0.50614048  -0.00046890  1
  Te  Te184  1  0.66432192  0.50192982  0.33413364  1
  Te  Te185  1  0.66769905  0.50857099  0.66682254  1
  Te  Te186  1  0.67088017  0.82613011  -0.00584985  1
  Te  Te187  1  0.66830136  0.82487424  0.33274257  1
  Te  Te188  1  0.67022196  0.83337440  0.67193561  1
  Te  Te189  1  -0.00114177  0.00079628  0.17053031  1
  Te  Te190  1  -0.00644403  -0.00220822  0.49244993  1
  Te  Te191  1  -0.00692665  -0.00535972  0.83269241  1
  Te  Te192  1  -0.00312348  0.33921227  0.16919842  1
  Te  Te193  1  -0.00003989  0.33685933  0.49947237  1
  Te  Te194  1  -0.00250892  0.33306678  0.83572372  1
  Te  Te195  1  -0.00191516  0.66549162  0.16571393  1
  Te  Te196  1  0.00070080  0.65857769  0.49930990  1
  Te  Te197  1  0.00200106  0.66722827  0.83312563  1
  Te  Te198  1  0.33655005  0.00217347  0.16672357  1
  Te  Te199  1  0.33375921  0.00348961  0.50468073  1
  Te  Te200  1  0.33128324  -0.00263820  0.82992493  1
  Te  Te201  1  0.33198823  0.33467281  0.16471767  1
  Te  Te202  1  0.33109449  0.33416294  0.50171181  1
  Te  Te203  1  0.33376834  0.33260085  0.83755750  1
  Te  Te204  1  0.33704210  0.66417424  0.16670376  1
  Te  Te205  1  0.33806449  0.66164766  0.49996633  1
  Te  Te206  1  0.32621687  0.67214487  0.83321545  1
  Te  Te207  1  0.66809443  0.00387639  0.16682823  1
  Te  Te208  1  0.67178516  -0.00038388  0.50558846  1
  Te  Te209  1  0.66968258  -0.00107967  0.83194988  1
  Te  Te210  1  0.66801553  0.32965864  0.16939818  1
  Te  Te211  1  0.67044276  0.33282367  0.49386684  1
  Te  Te212  1  0.67276595  0.33080633  0.83326001  1
  Te  Te213  1  0.66485514  0.66906502  0.16606444  1
  Te  Te214  1  0.66365720  0.66608654  0.49879949  1
  Te  Te215  1  0.66479250  0.66946271  0.83380679  1
