# generated using pymatgen
data_AgSbTe2
_symmetry_space_group_name_H-M   'P 1'
_cell_length_a   18.32793218
_cell_length_b   18.32287557
_cell_length_c   18.31781385
_cell_angle_alpha   89.99983059
_cell_angle_beta   89.99711014
_cell_angle_gamma   90.00066487
_symmetry_Int_Tables_number   1
_chemical_formula_structural   AgSbTe2
_chemical_formula_sum   'Ag54 Sb54 Te108'
_cell_volume   6151.49594379
_cell_formula_units_Z   54
loop_
 _symmetry_equiv_pos_site_id
 _symmetry_equiv_pos_as_xyz
  1  'x, y, z'
loop_
 _atom_site_type_symbol
 _atom_site_label
 _atom_site_symmetry_multiplicity
 _atom_site_fract_x
 _atom_site_fract_y
 _atom_site_fract_z
 _atom_site_occupancy
  Ag  Ag0  1  0.33167422  0.15873496  0.50222615  1
  Ag  Ag1  1  0.49861761  0.50034675  -0.00016730  1
  Ag  Ag2  1  0.33142584  0.32698236  0.00257883  1
  Ag  Ag3  1  0.66679044  0.83016687  0.49657891  1
  Ag  Ag4  1  0.33105713  0.15777111  0.16417505  1
  Ag  Ag5  1  0.50259196  0.67047913  0.49578436  1
  Ag  Ag6  1  0.66908032  0.66359770  0.00853344  1
  Ag  Ag7  1  0.16705677  0.50192846  -0.00362431  1
  Ag  Ag8  1  0.67005859  0.15862821  0.50342091  1
  Ag  Ag9  1  0.16982157  0.83947914  0.66625820  1
  Ag  Ag10  1  0.00505155  0.00461702  0.66990463  1
  Ag  Ag11  1  -0.00542787  0.49601049  0.15964693  1
  Ag  Ag12  1  -0.00030886  0.16011987  0.16421412  1
  Ag  Ag13  1  0.16076163  0.32446810  0.16288076  1
  Ag  Ag14  1  0.83344542  -0.00060643  0.49921874  1
  Ag  Ag15  1  0.32184010  0.50236238  0.83585915  1
  Ag  Ag16  1  0.00045380  0.84224452  0.83248109  1
  Ag  Ag17  1  0.83646509  0.00341794  0.17186594  1
  Ag  Ag18  1  0.32972587  0.67842661  0.65995471  1
  Ag  Ag19  1  0.67064429  0.50344090  0.83612361  1
  Ag  Ag20  1  0.16452946  0.50261837  0.67363783  1
  Ag  Ag21  1  0.66936640  0.16097288  0.16546947  1
  Ag  Ag22  1  0.15726005  0.15754981  0.66616234  1
  Ag  Ag23  1  0.84506309  0.16307843  0.66386036  1
  Ag  Ag24  1  -0.00292576  0.00071007  0.32840132  1
  Ag  Ag25  1  -0.00378381  0.66564634  -0.00134507  1
  Ag  Ag26  1  0.66241991  0.82952735  0.17255483  1
  Ag  Ag27  1  0.49825127  0.16717215  0.00352835  1
  Ag  Ag28  1  0.67180534  0.51017717  0.16379205  1
  Ag  Ag29  1  0.16526852  0.00367805  0.15974707  1
  Ag  Ag30  1  0.16213957  0.00127379  0.83160368  1
  Ag  Ag31  1  0.32721303  0.00266768  0.00761676  1
  Ag  Ag32  1  -0.00177080  0.16134015  0.51380694  1
  Ag  Ag33  1  0.83184152  0.83077057  0.33468232  1
  Ag  Ag34  1  0.82823945  0.67425205  0.50096681  1
  Ag  Ag35  1  0.66838150  0.51429794  0.49720217  1
  Ag  Ag36  1  0.49782900  -0.00358677  0.16324188  1
  Ag  Ag37  1  0.00094038  0.50231352  0.83782484  1
  Ag  Ag38  1  0.33762148  0.83189569  0.50259209  1
  Ag  Ag39  1  0.83843397  0.32656001  0.16818330  1
  Ag  Ag40  1  0.66662055  0.66676639  0.33176589  1
  Ag  Ag41  1  -0.00270519  0.16090221  0.82544479  1
  Ag  Ag42  1  0.83187963  0.50883032  0.33137216  1
  Ag  Ag43  1  0.67296185  0.16435827  0.83137034  1
  Ag  Ag44  1  0.67313305  0.00145679  0.66338745  1
  Ag  Ag45  1  0.17221727  0.66804578  0.50439697  1
  Ag  Ag46  1  0.00187767  0.31859202  0.66835627  1
  Ag  Ag47  1  0.32710592  -0.00374108  0.66736431  1
  Ag  Ag48  1  0.49190702  0.83383293  0.66282352  1
  Ag  Ag49  1  0.34028387  0.66880723  0.33962432  1
  Ag  Ag50  1  0.00568400  0.00082570  0.00021992  1
  Ag  Ag51  1  0.50395130  0.67174016  0.16887417  1
  Ag  Ag52  1  0.33913213  0.83945990  0.17098695  1
  Ag  Ag53  1  0.83591262  0.66484115  0.82895114  1
  Sb  Sb54  1  0.16985876  0.66968988  0.16853334  1
  Sb  Sb55  1  0.16538251  0.16355545  0.33403803  1
  Sb  Sb56  1  0.32545849  0.32983002  0.67072213  1
  Sb  Sb57  1  0.16841392  0.16570451  -0.00000842  1
  Sb  Sb58  1  0.16237984  0.50326162  0.33141309  1
  Sb  Sb59  1  0.49972946  0.83304386  0.00149524  1
  Sb  Sb60  1  0.16604080  0.33481326  0.49885958  1
  Sb  Sb61  1  0.82746427  0.66895705  0.16924531  1
  Sb  Sb62  1  0.49967131  0.33330183  0.83475152  1
  Sb  Sb63  1  0.16182017  0.66682893  0.82900588  1
  Sb  Sb64  1  0.66701760  -0.00128104  0.00157900  1
  Sb  Sb65  1  -0.00448042  0.67042748  0.32940869  1
  Sb  Sb66  1  0.83997074  -0.00136422  0.83136534  1
  Sb  Sb67  1  0.83380330  0.32971286  0.49653077  1
  Sb  Sb68  1  0.50044915  0.33624043  0.50167753  1
  Sb  Sb69  1  0.83489511  0.83899572  0.66198370  1
  Sb  Sb70  1  0.66970902  0.33894717  0.33121412  1
  Sb  Sb71  1  0.83419448  0.50228027  0.00434523  1
  Sb  Sb72  1  0.50128901  0.33234551  0.16368290  1
  Sb  Sb73  1  0.50029215  0.15904680  0.66961590  1
  Sb  Sb74  1  0.50510272  0.50592578  0.32734614  1
  Sb  Sb75  1  0.16382137  -0.00275039  0.50479853  1
  Sb  Sb76  1  0.16390206  0.83413959  0.33766418  1
  Sb  Sb77  1  0.83617096  0.33527542  0.83751337  1
  Sb  Sb78  1  0.66313699  0.33755632  0.00175734  1
  Sb  Sb79  1  0.83176040  0.16477267  0.00062645  1
  Sb  Sb80  1  0.16593987  0.83332590  -0.00309988  1
  Sb  Sb81  1  0.33136564  0.33613299  0.32736043  1
  Sb  Sb82  1  -0.00117170  0.83739611  0.16246071  1
  Sb  Sb83  1  0.50334574  -0.00443217  0.49787211  1
  Sb  Sb84  1  0.33042022  0.16624901  0.83489485  1
  Sb  Sb85  1  0.67342646  0.32734801  0.66710616  1
  Sb  Sb86  1  0.50381743  0.66621042  0.83472465  1
  Sb  Sb87  1  0.67248860  0.83366242  0.83150987  1
  Sb  Sb88  1  0.33673331  0.50732940  0.50511659  1
  Sb  Sb89  1  -0.00176056  0.83844227  0.50434785  1
  Sb  Sb90  1  0.00527128  0.33273265  0.00019943  1
  Sb  Sb91  1  0.50159440  0.16409403  0.32817939  1
  Sb  Sb92  1  0.66440812  0.67114913  0.66310887  1
  Sb  Sb93  1  0.83600744  0.49737104  0.66431287  1
  Sb  Sb94  1  0.49709334  0.50836284  0.67164546  1
  Sb  Sb95  1  -0.00340351  0.49927454  0.50135416  1
  Sb  Sb96  1  0.49573673  0.00042057  0.83683698  1
  Sb  Sb97  1  0.32871517  0.83083860  0.82936597  1
  Sb  Sb98  1  0.50358888  0.83203500  0.33523191  1
  Sb  Sb99  1  0.33398367  0.66838348  -0.00023154  1
  Sb  Sb100  1  0.00335369  0.67062907  0.67074893  1
  Sb  Sb101  1  0.67265123  -0.00602281  0.33382508  1
  Sb  Sb102  1  0.83358126  0.83301145  0.00492536  1
  Sb  Sb103  1  0.32848167  -0.00565747  0.33147876  1
  Sb  Sb104  1  0.83331313  0.16281300  0.33458122  1
  Sb  Sb105  1  0.16492691  0.33217647  0.83766444  1
  Sb  Sb106  1  -0.00214244  0.32792888  0.33247083  1
  Sb  Sb107  1  0.33405765  0.50112532  0.16052196  1
  Te  Te108  1  0.16747048  0.16470626  0.16650186  1
  Te  Te109  1  0.16703507  0.16673538  0.50323983  1
  Te  Te110  1  0.16271001  0.16416637  0.82991491  1
  Te  Te111  1  0.16358121  0.50206137  0.16358064  1
  Te  Te112  1  0.16662582  0.50399445  0.50312385  1
  Te  Te113  1  0.16337914  0.49959884  0.83446781  1
  Te  Te114  1  0.17176638  0.83849418  0.16676875  1
  Te  Te115  1  0.16972917  0.82920648  0.50479916  1
  Te  Te116  1  0.16165545  0.83685569  0.82875747  1
  Te  Te117  1  0.49968937  0.16548379  0.16308591  1
  Te  Te118  1  0.50153988  0.16686173  0.49965602  1
  Te  Te119  1  0.50602619  0.16663143  0.84038538  1
  Te  Te120  1  0.50421127  0.50219372  0.16064444  1
  Te  Te121  1  0.50675291  0.50520849  0.50074555  1
  Te  Te122  1  0.50950889  0.49968067  0.83924374  1
  Te  Te123  1  0.50098503  0.83254849  0.16642819  1
  Te  Te124  1  0.49966934  0.83083259  0.50191783  1
  Te  Te125  1  0.50213103  0.83381972  0.82519367  1
  Te  Te126  1  0.83291223  0.16475554  0.16763041  1
  Te  Te127  1  0.83287641  0.16348781  0.50042588  1
  Te  Te128  1  0.83319146  0.16740836  0.83018534  1
  Te  Te129  1  0.83241555  0.50376649  0.16962023  1
  Te  Te130  1  0.82834778  0.49905063  0.49705298  1
  Te  Te131  1  0.83367556  0.50190123  0.83233401  1
  Te  Te132  1  0.82933898  0.83831925  0.17158511  1
  Te  Te133  1  0.83115240  0.83609117  0.49743653  1
  Te  Te134  1  0.83963671  0.82729359  0.83257184  1
  Te  Te135  1  0.16673675  -0.00074716  -0.00180721  1
  Te  Te136  1  0.15829931  -0.00068686  0.32493025  1
  Te  Te137  1  0.16659884  0.00007667  0.66569740  1
  Te  Te138  1  0.17147292  0.33947628  0.00462642  1
  Te  Te139  1  0.16566117  0.33504833  0.32263546  1
  Te  Te140  1  0.16128310  0.33674664  0.66663767  1
  Te  Te141  1  0.16263965  0.66209712  -0.00027357  1
  Te  Te142  1  0.16781180  0.66723441  0.34109335  1
  Te  Te143  1  0.16934267  0.66495025  0.66441099  1
  Te  Te144  1  0.49717792  0.00212748  0.00418804  1
  Te  Te145  1  0.49965485  -0.00066922  0.32249418  1
  Te  Te146  1  0.49487455  -0.00563253  0.66644335  1
  Te  Te147  1  0.49242060  0.33441434  0.00051084  1
  Te  Te148  1  0.49945522  0.33630357  0.33329778  1
  Te  Te149  1  0.49829029  0.33428709  0.66698482  1
  Te  Te150  1  0.50326680  0.66437630  0.00275000  1
  Te  Te151  1  0.50164856  0.66663724  0.33299776  1
  Te  Te152  1  0.49493142  0.67260557  0.66325202  1
  Te  Te153  1  0.83894642  -0.00073532  0.00570766  1
  Te  Te154  1  0.83719962  -0.00283476  0.33565926  1
  Te  Te155  1  0.83230869  0.00339276  0.66501183  1
  Te  Te156  1  0.83316679  0.33256381  0.00923613  1
  Te  Te157  1  0.83423488  0.34246576  0.32637471  1
  Te  Te158  1  0.84052194  0.32618195  0.66616793  1
  Te  Te159  1  0.83416016  0.66741580  -0.00539919  1
  Te  Te160  1  0.83080294  0.66905121  0.33764868  1
  Te  Te161  1  0.83317450  0.66627815  0.66353659  1
  Te  Te162  1  0.00057893  0.16475763  0.00473141  1
  Te  Te163  1  -0.00064181  0.16090748  0.32311870  1
  Te  Te164  1  0.00113656  0.16355072  0.66957464  1
  Te  Te165  1  0.00124365  0.49831940  0.00051363  1
  Te  Te166  1  -0.00566540  0.50035429  0.32998143  1
  Te  Te167  1  0.00349605  0.50265152  0.66876419  1
  Te  Te168  1  0.00000718  0.83238615  -0.00603105  1
  Te  Te169  1  -0.00598484  0.83900309  0.33337784  1
  Te  Te170  1  0.00428463  0.83824542  0.67154541  1
  Te  Te171  1  0.33481524  0.16343368  0.00106577  1
  Te  Te172  1  0.33355091  0.16695274  0.33403998  1
  Te  Te173  1  0.33184165  0.16238279  0.66525347  1
  Te  Te174  1  0.33331951  0.50329825  -0.00395753  1
  Te  Te175  1  0.33223867  0.50678156  0.33426262  1
  Te  Te176  1  0.32912148  0.49830657  0.67268184  1
  Te  Te177  1  0.33383027  0.83968693  0.00296158  1
  Te  Te178  1  0.33110562  0.82761290  0.33569373  1
  Te  Te179  1  0.33093774  0.83532495  0.66676140  1
  Te  Te180  1  0.66304709  0.16690421  0.00172459  1
  Te  Te181  1  0.66695888  0.16703953  0.33155450  1
  Te  Te182  1  0.66545854  0.16212178  0.66667505  1
  Te  Te183  1  0.66619346  0.50239139  0.00101203  1
  Te  Te184  1  0.67004230  0.50532834  0.33314941  1
  Te  Te185  1  0.66660828  0.49628955  0.66904172  1
  Te  Te186  1  0.66599003  0.82703779  0.00337581  1
  Te  Te187  1  0.67006071  0.82851236  0.33409317  1
  Te  Te188  1  0.66692430  0.83942038  0.66324344  1
  Te  Te189  1  -0.00089068  -0.00160338  0.16202744  1
  Te  Te190  1  -0.00262070  0.00302846  0.50380239  1
  Te  Te191  1  0.00092569  0.00173617  0.83414574  1
  Te  Te192  1  0.00003679  0.33509176  0.16641610  1
  Te  Te193  1  0.00110866  0.32555837  0.50352652  1
  Te  Te194  1  -0.00067583  0.33278904  0.83040252  1
  Te  Te195  1  -0.00005989  0.66536906  0.16096207  1
  Te  Te196  1  -0.00454150  0.66702600  0.49818755  1
  Te  Te197  1  -0.00286816  0.66101043  0.83685182  1
  Te  Te198  1  0.33252237  -0.00072007  0.16901589  1
  Te  Te199  1  0.33374844  -0.00192141  0.49906920  1
  Te  Te200  1  0.32733088  -0.00013758  0.83191102  1
  Te  Te201  1  0.33033344  0.32963811  0.16284354  1
  Te  Te202  1  0.33280376  0.32507205  0.49790905  1
  Te  Te203  1  0.33277682  0.33933714  0.83987644  1
  Te  Te204  1  0.33793796  0.67057265  0.16898614  1
  Te  Te205  1  0.33548019  0.66862947  0.50080826  1
  Te  Te206  1  0.33426867  0.66250851  0.82910199  1
  Te  Te207  1  0.66869953  -0.00009840  0.16645817  1
  Te  Te208  1  0.66827813  -0.00091258  0.50029875  1
  Te  Te209  1  0.66778450  0.00283682  0.83140044  1
  Te  Te210  1  0.67051768  0.32849217  0.16634570  1
  Te  Te211  1  0.66640787  0.32724880  0.49977373  1
  Te  Te212  1  0.66862376  0.33212824  0.83391196  1
  Te  Te213  1  0.66639837  0.66794614  0.16741635  1
  Te  Te214  1  0.66733726  0.66965788  0.50132558  1
  Te  Te215  1  0.67175170  0.66530018  0.83284662  1
