# generated using pymatgen
data_AgSbTe2
_symmetry_space_group_name_H-M   'P 1'
_cell_length_a   18.33557502
_cell_length_b   18.33351413
_cell_length_c   18.33675731
_cell_angle_alpha   90.00030051
_cell_angle_beta   89.99829996
_cell_angle_gamma   89.99950947
_symmetry_Int_Tables_number   1
_chemical_formula_structural   AgSbTe2
_chemical_formula_sum   'Ag54 Sb54 Te108'
_cell_volume   6164.00225390
_cell_formula_units_Z   54
loop_
 _symmetry_equiv_pos_site_id
 _symmetry_equiv_pos_as_xyz
  1  'x, y, z'
loop_
 _atom_site_type_symbol
 _atom_site_label
 _atom_site_symmetry_multiplicity
 _atom_site_fract_x
 _atom_site_fract_y
 _atom_site_fract_z
 _atom_site_occupancy
  Ag  Ag0  1  0.33087219  -0.00320496  0.65663521  1
  Ag  Ag1  1  0.16983205  0.00166302  0.17318985  1
  Ag  Ag2  1  0.00092581  0.82435502  0.49516233  1
  Ag  Ag3  1  0.16986646  0.17053878  0.65951067  1
  Ag  Ag4  1  0.16282563  0.33014892  0.82424893  1
  Ag  Ag5  1  0.66378734  0.50717067  0.49679845  1
  Ag  Ag6  1  0.33689759  0.50285339  0.17780575  1
  Ag  Ag7  1  0.82947198  0.83106697  0.65334364  1
  Ag  Ag8  1  0.84111766  -0.00632758  0.16815842  1
  Ag  Ag9  1  0.32865103  0.66911624  0.33719439  1
  Ag  Ag10  1  0.49603902  0.33178536  0.82800090  1
  Ag  Ag11  1  0.66247345  -0.00577609  0.33754639  1
  Ag  Ag12  1  0.33302902  0.83737905  0.17791051  1
  Ag  Ag13  1  0.66858066  0.33574402  -0.00015722  1
  Ag  Ag14  1  0.01086180  0.50615933  0.50418153  1
  Ag  Ag15  1  0.83995739  0.67028969  0.50093936  1
  Ag  Ag16  1  0.16783869  0.00760275  0.82415574  1
  Ag  Ag17  1  0.00504712  0.17456708  0.83275199  1
  Ag  Ag18  1  0.17012893  0.15612539  0.34010989  1
  Ag  Ag19  1  0.65773701  0.50547699  0.17432783  1
  Ag  Ag20  1  0.17052213  0.00309652  0.49494010  1
  Ag  Ag21  1  0.00758005  0.67073833  0.33913825  1
  Ag  Ag22  1  0.00276678  0.66283162  0.65668019  1
  Ag  Ag23  1  0.17405549  0.50169632  0.33780188  1
  Ag  Ag24  1  0.66536452  0.67292763  0.66056357  1
  Ag  Ag25  1  0.49796112  0.33839284  0.16871792  1
  Ag  Ag26  1  0.66743641  0.83303703  0.17697624  1
  Ag  Ag27  1  0.49004813  0.33686618  0.50126154  1
  Ag  Ag28  1  0.83888535  0.50235472  0.00294238  1
  Ag  Ag29  1  -0.00467475  0.83726314  0.17719332  1
  Ag  Ag30  1  0.00649880  0.34007062  0.67055994  1
  Ag  Ag31  1  0.66703194  0.16809404  0.82963520  1
  Ag  Ag32  1  0.32825763  0.83348279  0.49629589  1
  Ag  Ag33  1  0.17038084  0.33628341  0.50416501  1
  Ag  Ag34  1  0.32928715  -0.00043978  0.01457909  1
  Ag  Ag35  1  0.33230194  0.67213860  0.65560926  1
  Ag  Ag36  1  0.16907275  0.83493703  0.33467899  1
  Ag  Ag37  1  0.32697515  0.50320524  0.49535897  1
  Ag  Ag38  1  0.66093055  -0.00866833  0.65857419  1
  Ag  Ag39  1  0.32768200  0.15544919  0.17576045  1
  Ag  Ag40  1  0.32972964  -0.00739113  0.33634356  1
  Ag  Ag41  1  0.16295203  0.49254906  0.65682775  1
  Ag  Ag42  1  0.49794177  0.66272853  0.17020809  1
  Ag  Ag43  1  0.84252183  0.83283057  0.33447599  1
  Ag  Ag44  1  0.48847098  0.16520138  0.66533915  1
  Ag  Ag45  1  0.32870947  0.15984147  0.49707291  1
  Ag  Ag46  1  0.00440033  0.49405167  0.82337382  1
  Ag  Ag47  1  0.83356337  0.83143539  0.01282013  1
  Ag  Ag48  1  -0.00000549  0.33723274  -0.00568005  1
  Ag  Ag49  1  0.48960623  0.50028498  0.33280272  1
  Ag  Ag50  1  0.66849578  0.82988099  0.49921025  1
  Ag  Ag51  1  0.01003269  0.16083030  0.16673427  1
  Ag  Ag52  1  0.50274589  0.83497449  0.66335261  1
  Ag  Ag53  1  0.16328967  0.49597792  0.00163553  1
  Sb  Sb54  1  0.83044094  0.67295771  0.17312604  1
  Sb  Sb55  1  0.83690990  -0.00914602  0.49551749  1
  Sb  Sb56  1  0.83985333  0.50672871  0.66728955  1
  Sb  Sb57  1  0.33116505  0.33069615  0.00235488  1
  Sb  Sb58  1  0.16707883  0.83450763  0.65659816  1
  Sb  Sb59  1  0.00849792  -0.00893397  0.33246665  1
  Sb  Sb60  1  0.49806464  0.16903204  -0.00316691  1
  Sb  Sb61  1  0.33163722  0.83609244  0.82740661  1
  Sb  Sb62  1  0.83970033  0.33365215  0.83398401  1
  Sb  Sb63  1  0.66380933  0.16503160  0.16601892  1
  Sb  Sb64  1  0.83139261  0.33177712  0.16496903  1
  Sb  Sb65  1  0.00902057  0.16774405  0.49889786  1
  Sb  Sb66  1  0.17026317  0.33039573  0.16878381  1
  Sb  Sb67  1  0.83639695  0.16011407  0.66445822  1
  Sb  Sb68  1  0.66442259  0.00170543  0.00127330  1
  Sb  Sb69  1  0.66733675  0.33370426  0.66868960  1
  Sb  Sb70  1  0.16565822  0.66427719  0.82933194  1
  Sb  Sb71  1  0.84181620  0.15387666  0.33185808  1
  Sb  Sb72  1  0.66904704  0.66285370  -0.00029289  1
  Sb  Sb73  1  0.66369290  0.33258586  0.33107298  1
  Sb  Sb74  1  0.83363860  0.66743796  0.82663516  1
  Sb  Sb75  1  0.00425984  -0.00177111  0.66575944  1
  Sb  Sb76  1  0.00308931  0.50125212  0.16994888  1
  Sb  Sb77  1  0.00170220  0.83281708  0.83019344  1
  Sb  Sb78  1  0.32944416  0.16595438  0.82889056  1
  Sb  Sb79  1  0.16448138  0.66329025  0.49852132  1
  Sb  Sb80  1  0.16629310  0.16979652  -0.00076188  1
  Sb  Sb81  1  0.50237626  0.83422938  0.00016643  1
  Sb  Sb82  1  0.83804160  -0.00054876  0.83634697  1
  Sb  Sb83  1  0.49564620  0.00508468  0.82756457  1
  Sb  Sb84  1  0.50000564  0.66003179  0.83195889  1
  Sb  Sb85  1  0.65791550  0.16353162  0.50333379  1
  Sb  Sb86  1  0.49170611  -0.00006449  0.50098432  1
  Sb  Sb87  1  0.49820486  0.49688252  0.00802256  1
  Sb  Sb88  1  0.49443455  -0.00034205  0.16938036  1
  Sb  Sb89  1  0.49110546  0.17108296  0.33753161  1
  Sb  Sb90  1  0.33152639  0.33714196  0.33503722  1
  Sb  Sb91  1  0.00341698  0.33793512  0.33521353  1
  Sb  Sb92  1  0.66735539  0.83968434  0.82699369  1
  Sb  Sb93  1  0.49456676  0.49813998  0.65938581  1
  Sb  Sb94  1  -0.00097507  0.66293653  0.00151698  1
  Sb  Sb95  1  0.16995560  0.66930819  0.17121898  1
  Sb  Sb96  1  0.00501805  0.00303632  0.00317916  1
  Sb  Sb97  1  0.33223208  0.66912485  0.00615390  1
  Sb  Sb98  1  0.16345893  0.83285849  0.00890837  1
  Sb  Sb99  1  0.49860328  0.66333458  0.49568204  1
  Sb  Sb100  1  0.83484989  0.50773534  0.33153564  1
  Sb  Sb101  1  0.49500384  0.82905463  0.33827333  1
  Sb  Sb102  1  0.83534585  0.16627062  0.00067125  1
  Sb  Sb103  1  0.83620224  0.34214078  0.50144837  1
  Sb  Sb104  1  0.32723911  0.33173458  0.66213099  1
  Sb  Sb105  1  0.66452055  0.67045722  0.33761296  1
  Sb  Sb106  1  0.67111404  0.49467766  0.83214113  1
  Sb  Sb107  1  0.32654576  0.49798446  0.82851146  1
  Te  Te108  1  0.16838638  0.16521859  0.16666460  1
  Te  Te109  1  0.16933100  0.16628706  0.49976682  1
  Te  Te110  1  0.16493317  0.16867202  0.83270197  1
  Te  Te111  1  0.17018084  0.49945176  0.17203553  1
  Te  Te112  1  0.16745153  0.49960791  0.49925349  1
  Te  Te113  1  0.16294770  0.49685015  0.83294576  1
  Te  Te114  1  0.16894067  0.83612238  0.17172572  1
  Te  Te115  1  0.16845790  0.83806663  0.49582190  1
  Te  Te116  1  0.16540978  0.84017057  0.83813114  1
  Te  Te117  1  0.49421882  0.17279023  0.16800300  1
  Te  Te118  1  0.49290970  0.17453580  0.50509519  1
  Te  Te119  1  0.50015616  0.17228975  0.82734715  1
  Te  Te120  1  0.49970843  0.49892760  0.16909004  1
  Te  Te121  1  0.50267860  0.49615210  0.49626541  1
  Te  Te122  1  0.50060682  0.49211287  0.83349552  1
  Te  Te123  1  0.50021982  0.83191432  0.16541430  1
  Te  Te124  1  0.50299075  0.83380379  0.50474709  1
  Te  Te125  1  0.49994710  0.83071056  0.82620666  1
  Te  Te126  1  0.83661078  0.15901890  0.16672031  1
  Te  Te127  1  0.83349844  0.16734202  0.49780212  1
  Te  Te128  1  0.83540128  0.16535172  0.83273557  1
  Te  Te129  1  0.83053497  0.50121517  0.16349218  1
  Te  Te130  1  0.82569223  0.50759048  0.49959181  1
  Te  Te131  1  0.83996424  0.50083504  0.84063837  1
  Te  Te132  1  0.83176238  0.83406513  0.17166428  1
  Te  Te133  1  0.83236480  0.83080667  0.49615479  1
  Te  Te134  1  0.83470090  0.83428610  0.83806536  1
  Te  Te135  1  0.17091390  -0.00030689  0.00569404  1
  Te  Te136  1  0.16933779  -0.00197989  0.33368070  1
  Te  Te137  1  0.16965040  0.00126260  0.66550841  1
  Te  Te138  1  0.16355219  0.33725059  -0.00151023  1
  Te  Te139  1  0.16540843  0.33888032  0.33902603  1
  Te  Te140  1  0.16611644  0.33302504  0.66582301  1
  Te  Te141  1  0.16626861  0.65767955  -0.00140521  1
  Te  Te142  1  0.16787085  0.66789932  0.33250874  1
  Te  Te143  1  0.16796593  0.66537792  0.66734311  1
  Te  Te144  1  0.49064432  0.00035194  -0.00345670  1
  Te  Te145  1  0.50219840  0.00305307  0.33431276  1
  Te  Te146  1  0.49989209  0.00190813  0.66616655  1
  Te  Te147  1  0.50376718  0.33310500  0.00091102  1
  Te  Te148  1  0.50093328  0.33888894  0.33490883  1
  Te  Te149  1  0.50118376  0.33021505  0.66543767  1
  Te  Te150  1  0.50045636  0.66597356  0.00569759  1
  Te  Te151  1  0.49543485  0.66012399  0.32821400  1
  Te  Te152  1  0.49806066  0.66805907  0.66748890  1
  Te  Te153  1  0.83304225  -0.00546904  0.00594703  1
  Te  Te154  1  0.82652332  -0.00842755  0.32889738  1
  Te  Te155  1  0.82963983  -0.00775713  0.66778801  1
  Te  Te156  1  0.83392565  0.33659920  0.00047717  1
  Te  Te157  1  0.83346515  0.33056268  0.33276222  1
  Te  Te158  1  0.84226165  0.33157252  0.66616729  1
  Te  Te159  1  0.83274439  0.66719686  -0.00098050  1
  Te  Te160  1  0.83629902  0.67338276  0.33957853  1
  Te  Te161  1  0.83323100  0.67158286  0.66137936  1
  Te  Te162  1  -0.00078162  0.17232715  0.00009346  1
  Te  Te163  1  0.00835679  0.16886110  0.32857685  1
  Te  Te164  1  0.00383913  0.16710654  0.66801971  1
  Te  Te165  1  0.00087528  0.49793538  0.00367058  1
  Te  Te166  1  0.00169660  0.50615831  0.33896150  1
  Te  Te167  1  0.00098085  0.50141539  0.66424246  1
  Te  Te168  1  -0.00489755  0.83175403  0.00173624  1
  Te  Te169  1  0.00279691  0.83096239  0.33429058  1
  Te  Te170  1  -0.00289085  0.82899289  0.66344107  1
  Te  Te171  1  0.33319576  0.16197717  0.00791293  1
  Te  Te172  1  0.32877517  0.16423537  0.33547037  1
  Te  Te173  1  0.33063581  0.16420787  0.66299068  1
  Te  Te174  1  0.32732566  0.50020319  0.00048391  1
  Te  Te175  1  0.33196387  0.50107502  0.33471591  1
  Te  Te176  1  0.32804217  0.50485232  0.66136114  1
  Te  Te177  1  0.33297744  0.83702094  0.00302874  1
  Te  Te178  1  0.33428017  0.83167738  0.33505553  1
  Te  Te179  1  0.33416977  0.83413151  0.66209903  1
  Te  Te180  1  0.66681856  0.17148923  -0.00379675  1
  Te  Te181  1  0.66806254  0.15942331  0.33319205  1
  Te  Te182  1  0.66870224  0.16436925  0.66984903  1
  Te  Te183  1  0.66960438  0.49640750  0.00064701  1
  Te  Te184  1  0.66772162  0.50066752  0.33324962  1
  Te  Te185  1  0.66762032  0.50271545  0.66325816  1
  Te  Te186  1  0.67093432  0.83283132  0.00063384  1
  Te  Te187  1  0.66026285  0.83403250  0.33532817  1
  Te  Te188  1  0.66638167  0.83371079  0.66521665  1
  Te  Te189  1  0.00214784  -0.00097697  0.16684843  1
  Te  Te190  1  0.00584986  -0.00377189  0.50016010  1
  Te  Te191  1  0.00664041  0.00477977  0.83479548  1
  Te  Te192  1  0.00016440  0.33062640  0.16288636  1
  Te  Te193  1  0.00381002  0.33818690  0.50394608  1
  Te  Te194  1  0.00266466  0.33385774  0.83313859  1
  Te  Te195  1  -0.00093025  0.67237782  0.17062695  1
  Te  Te196  1  0.00089835  0.66741324  0.49992759  1
  Te  Te197  1  -0.00017634  0.66112880  0.82863192  1
  Te  Te198  1  0.33233415  -0.00233147  0.17289517  1
  Te  Te199  1  0.33152092  -0.00145994  0.49750970  1
  Te  Te200  1  0.32731336  0.00087992  0.82744457  1
  Te  Te201  1  0.33781565  0.33998958  0.16591850  1
  Te  Te202  1  0.33185817  0.33786360  0.50062755  1
  Te  Te203  1  0.33440695  0.33278487  0.83473471  1
  Te  Te204  1  0.33641592  0.66572980  0.16944242  1
  Te  Te205  1  0.33406655  0.66718730  0.49783876  1
  Te  Te206  1  0.33433210  0.66722514  0.82833286  1
  Te  Te207  1  0.66462075  -0.00416324  0.16655016  1
  Te  Te208  1  0.66844521  -0.00289565  0.50048177  1
  Te  Te209  1  0.66665981  0.00686070  0.83190885  1
  Te  Te210  1  0.66330662  0.33432038  0.16345432  1
  Te  Te211  1  0.66713186  0.33553365  0.49962789  1
  Te  Te212  1  0.66558882  0.32922717  0.83613259  1
  Te  Te213  1  0.66335992  0.66724436  0.16736352  1
  Te  Te214  1  0.66475141  0.66851879  0.50162587  1
  Te  Te215  1  0.66547212  0.66632401  0.82498683  1
