# generated using pymatgen
data_AgSbTe2
_symmetry_space_group_name_H-M   'P 1'
_cell_length_a   18.35178094
_cell_length_b   18.36173959
_cell_length_c   18.35097091
_cell_angle_alpha   90.00112830
_cell_angle_beta   89.99821884
_cell_angle_gamma   90.00119106
_symmetry_Int_Tables_number   1
_chemical_formula_structural   AgSbTe2
_chemical_formula_sum   'Ag54 Sb54 Te108'
_cell_volume   6183.73808840
_cell_formula_units_Z   54
loop_
 _symmetry_equiv_pos_site_id
 _symmetry_equiv_pos_as_xyz
  1  'x, y, z'
loop_
 _atom_site_type_symbol
 _atom_site_label
 _atom_site_symmetry_multiplicity
 _atom_site_fract_x
 _atom_site_fract_y
 _atom_site_fract_z
 _atom_site_occupancy
  Ag  Ag0  1  0.48962243  0.49720161  0.66980603  1
  Ag  Ag1  1  0.33742072  0.67000136  -0.01460874  1
  Ag  Ag2  1  0.50122085  0.32731928  0.50823438  1
  Ag  Ag3  1  0.65636876  0.83290505  0.83319328  1
  Ag  Ag4  1  0.82914789  0.33296347  0.82415038  1
  Ag  Ag5  1  0.49093026  0.84453142  0.67344673  1
  Ag  Ag6  1  0.00150626  0.17313750  0.16356048  1
  Ag  Ag7  1  0.50256246  -0.00924361  0.83005860  1
  Ag  Ag8  1  0.49693760  0.83414848  -0.01156488  1
  Ag  Ag9  1  0.34103025  0.82712388  0.82628317  1
  Ag  Ag10  1  0.49951775  0.16545961  0.35072051  1
  Ag  Ag11  1  0.49821017  0.67716625  0.83086571  1
  Ag  Ag12  1  0.33378325  0.50111904  0.50844613  1
  Ag  Ag13  1  0.16156388  0.33513099  0.16644206  1
  Ag  Ag14  1  0.00177612  0.49489034  0.16991071  1
  Ag  Ag15  1  0.67138923  0.49702489  0.50254005  1
  Ag  Ag16  1  -0.00321521  -0.00304144  -0.00036809  1
  Ag  Ag17  1  0.83418178  0.00232771  0.50760661  1
  Ag  Ag18  1  0.83845646  0.49354344  0.66533399  1
  Ag  Ag19  1  -0.00325257  -0.00021120  0.34263187  1
  Ag  Ag20  1  0.33639410  0.15807918  0.51037123  1
  Ag  Ag21  1  0.33634140  -0.01024341  0.66635509  1
  Ag  Ag22  1  0.66673532  0.32368067  0.33683837  1
  Ag  Ag23  1  0.65508366  0.67078233  -0.00411278  1
  Ag  Ag24  1  0.16781386  0.83461689  0.34749226  1
  Ag  Ag25  1  0.82705800  -0.00016573  0.82729498  1
  Ag  Ag26  1  0.16646682  0.66561418  0.16276785  1
  Ag  Ag27  1  0.50244628  0.33283351  0.82716548  1
  Ag  Ag28  1  -0.00117841  0.50280477  0.51013514  1
  Ag  Ag29  1  0.83630628  0.17495916  0.66720535  1
  Ag  Ag30  1  0.17261730  0.50342387  0.66508124  1
  Ag  Ag31  1  0.83816983  0.33297803  0.16731238  1
  Ag  Ag32  1  0.82889571  0.66749753  0.82941603  1
  Ag  Ag33  1  0.17379064  0.83385173  0.66423727  1
  Ag  Ag34  1  0.49319372  0.00698853  0.51140686  1
  Ag  Ag35  1  0.17069893  0.16556296  -0.00789023  1
  Ag  Ag36  1  0.00364003  0.66262938  0.66842082  1
  Ag  Ag37  1  0.49843482  0.51039640  -0.01371817  1
  Ag  Ag38  1  0.00207434  0.66916820  -0.00879182  1
  Ag  Ag39  1  0.83005979  0.33396029  0.50462934  1
  Ag  Ag40  1  0.66475032  -0.00398289  -0.00653315  1
  Ag  Ag41  1  0.33121669  0.83150653  0.16106099  1
  Ag  Ag42  1  0.66819176  0.00140579  0.33751985  1
  Ag  Ag43  1  0.33838061  0.16515298  0.82649667  1
  Ag  Ag44  1  0.83648121  0.65385323  0.50986778  1
  Ag  Ag45  1  0.00737930  0.83615387  0.50344106  1
  Ag  Ag46  1  0.34122366  0.51016887  0.82576556  1
  Ag  Ag47  1  0.49358575  0.16343426  -0.01427654  1
  Ag  Ag48  1  0.17416568  0.16668372  0.66784536  1
  Ag  Ag49  1  0.17171587  -0.00389187  0.50442279  1
  Ag  Ag50  1  -0.00564711  0.34150317  0.66502961  1
  Ag  Ag51  1  0.33031502  0.67736667  0.66855011  1
  Ag  Ag52  1  0.49142440  0.16505701  0.66813228  1
  Ag  Ag53  1  0.32917466  0.83852522  0.50956874  1
  Sb  Sb54  1  0.83315712  0.16589582  -0.00508813  1
  Sb  Sb55  1  0.84140848  0.66023966  0.16244390  1
  Sb  Sb56  1  0.33072649  0.16331345  0.16484777  1
  Sb  Sb57  1  0.00302556  -0.00179719  0.66618227  1
  Sb  Sb58  1  0.49326492  0.66711977  0.15407417  1
  Sb  Sb59  1  0.16763807  0.33116821  0.50278740  1
  Sb  Sb60  1  0.00228508  0.67034870  0.33876082  1
  Sb  Sb61  1  0.00184703  0.50046887  0.82857170  1
  Sb  Sb62  1  0.67062456  0.49898104  0.16861138  1
  Sb  Sb63  1  0.49903563  0.00096892  0.16279290  1
  Sb  Sb64  1  0.00247529  0.16509764  0.50129508  1
  Sb  Sb65  1  -0.00445430  0.32975838  0.33546274  1
  Sb  Sb66  1  0.66519794  0.66559763  0.67295290  1
  Sb  Sb67  1  0.66434157  0.33292238  0.00124617  1
  Sb  Sb68  1  0.16355357  0.67224937  0.50287430  1
  Sb  Sb69  1  0.17003671  0.00045044  0.82832498  1
  Sb  Sb70  1  0.16895878  0.49936579  -0.00356852  1
  Sb  Sb71  1  0.16590369  0.50369609  0.33692617  1
  Sb  Sb72  1  0.66669349  0.66977572  0.33280039  1
  Sb  Sb73  1  0.17136759  0.66647781  0.83187447  1
  Sb  Sb74  1  0.65880608  0.16220181  0.83305926  1
  Sb  Sb75  1  0.49967845  0.33252936  0.16731446  1
  Sb  Sb76  1  0.66848786  0.33560898  0.66177686  1
  Sb  Sb77  1  0.50149669  0.49552555  0.34336113  1
  Sb  Sb78  1  0.32973202  0.50469790  0.16455412  1
  Sb  Sb79  1  0.17125509  0.83451030  -0.00498089  1
  Sb  Sb80  1  0.83084414  0.50070667  -0.00760320  1
  Sb  Sb81  1  0.33268644  0.66958212  0.33945040  1
  Sb  Sb82  1  0.49514765  0.83953258  0.33868539  1
  Sb  Sb83  1  0.00587609  0.83210824  0.16952656  1
  Sb  Sb84  1  0.33553986  -0.00370326  -0.00870388  1
  Sb  Sb85  1  0.82915965  0.83296540  -0.00225205  1
  Sb  Sb86  1  0.83636092  0.00382172  0.16618241  1
  Sb  Sb87  1  0.83441758  0.83207620  0.66654507  1
  Sb  Sb88  1  0.66034520  0.83427283  0.16077600  1
  Sb  Sb89  1  0.00133152  0.16594522  0.83416215  1
  Sb  Sb90  1  0.65928012  0.50414755  0.82713990  1
  Sb  Sb91  1  0.65999842  -0.00006616  0.66826752  1
  Sb  Sb92  1  0.66491765  0.83355208  0.50493224  1
  Sb  Sb93  1  0.33353869  -0.00123593  0.34308019  1
  Sb  Sb94  1  0.83051647  0.16731027  0.33884174  1
  Sb  Sb95  1  0.00207815  0.83279016  0.82939889  1
  Sb  Sb96  1  0.00016834  0.33309245  -0.00225402  1
  Sb  Sb97  1  0.66053722  0.16942685  0.50139074  1
  Sb  Sb98  1  0.16889607  0.16295275  0.33572246  1
  Sb  Sb99  1  0.33701925  0.33213850  0.33585401  1
  Sb  Sb100  1  0.83838713  0.83590847  0.33732236  1
  Sb  Sb101  1  0.16885178  0.33254139  0.83077242  1
  Sb  Sb102  1  0.67000908  0.16694219  0.16665690  1
  Sb  Sb103  1  0.16645551  -0.00103481  0.16924648  1
  Sb  Sb104  1  0.33398243  0.33618911  -0.00174659  1
  Sb  Sb105  1  0.33388536  0.33364824  0.66733890  1
  Sb  Sb106  1  0.83454410  0.49807201  0.34307806  1
  Sb  Sb107  1  0.50108856  0.66623879  0.50937071  1
  Te  Te108  1  0.16337347  0.16828711  0.16822989  1
  Te  Te109  1  0.17240404  0.16311034  0.50269939  1
  Te  Te110  1  0.17125437  0.16728018  0.83239900  1
  Te  Te111  1  0.16319795  0.49954792  0.16583349  1
  Te  Te112  1  0.16448322  0.49910661  0.50413130  1
  Te  Te113  1  0.17570559  0.49842205  0.82791991  1
  Te  Te114  1  0.17008477  0.83020089  0.16178441  1
  Te  Te115  1  0.16706381  0.83399040  0.50410124  1
  Te  Te116  1  0.17344695  0.83394369  0.82512270  1
  Te  Te117  1  0.50086023  0.16850802  0.16124110  1
  Te  Te118  1  0.49764547  0.16660972  0.50623169  1
  Te  Te119  1  0.49943181  0.17340931  0.82899968  1
  Te  Te120  1  0.50046352  0.49962572  0.16694601  1
  Te  Te121  1  0.49801261  0.49894837  0.50556237  1
  Te  Te122  1  0.50027232  0.49076922  0.83094031  1
  Te  Te123  1  0.49190602  0.83258836  0.16759296  1
  Te  Te124  1  0.49648126  0.83500940  0.50500728  1
  Te  Te125  1  0.50008824  0.83301494  0.83425884  1
  Te  Te126  1  0.83931626  0.17173851  0.16558045  1
  Te  Te127  1  0.83520608  0.16748620  0.50432851  1
  Te  Te128  1  0.83403273  0.16666335  0.82970411  1
  Te  Te129  1  0.83831154  0.49558724  0.16529519  1
  Te  Te130  1  0.83610516  0.49758593  0.50425309  1
  Te  Te131  1  0.83230534  0.49983463  0.82701236  1
  Te  Te132  1  0.83180791  0.83078990  0.16855811  1
  Te  Te133  1  0.83277130  0.84183547  0.50018378  1
  Te  Te134  1  0.83401097  0.83406042  0.83280799  1
  Te  Te135  1  0.16376879  0.00478448  0.00017788  1
  Te  Te136  1  0.16300420  -0.00431805  0.33853274  1
  Te  Te137  1  0.16949475  0.00471236  0.66329199  1
  Te  Te138  1  0.16580689  0.32830112  0.00247419  1
  Te  Te139  1  0.16544648  0.33409994  0.32773164  1
  Te  Te140  1  0.15429267  0.32816720  0.66619704  1
  Te  Te141  1  0.16407224  0.66600242  0.00121380  1
  Te  Te142  1  0.16743708  0.67211629  0.32669223  1
  Te  Te143  1  0.16713522  0.66356479  0.66608415  1
  Te  Te144  1  0.50230901  0.00019284  -0.00364099  1
  Te  Te145  1  0.50336504  0.00465683  0.33335541  1
  Te  Te146  1  0.49840949  0.00354367  0.66885947  1
  Te  Te147  1  0.50079411  0.32536095  -0.00059580  1
  Te  Te148  1  0.50587974  0.32901218  0.33450960  1
  Te  Te149  1  0.50216880  0.33457884  0.66558359  1
  Te  Te150  1  0.49710270  0.66778356  -0.00631201  1
  Te  Te151  1  0.50106221  0.66661110  0.32871880  1
  Te  Te152  1  0.49921744  0.65640827  0.67195936  1
  Te  Te153  1  0.83190579  -0.00002495  -0.00177612  1
  Te  Te154  1  0.83398781  0.00154144  0.33391205  1
  Te  Te155  1  0.83426747  -0.00217784  0.66811615  1
  Te  Te156  1  0.83227456  0.33360820  0.00237785  1
  Te  Te157  1  0.82814590  0.33307312  0.33383075  1
  Te  Te158  1  0.83316996  0.33463596  0.66548680  1
  Te  Te159  1  0.84197028  0.66650172  -0.00594791  1
  Te  Te160  1  0.83255020  0.66740687  0.33901420  1
  Te  Te161  1  0.83400331  0.67007771  0.66789208  1
  Te  Te162  1  0.00243065  0.16540477  0.00214522  1
  Te  Te163  1  0.00009725  0.16132872  0.32864008  1
  Te  Te164  1  -0.00442846  0.16714510  0.66621432  1
  Te  Te165  1  0.00008096  0.50514320  0.00083230  1
  Te  Te166  1  0.00138703  0.49983437  0.33046293  1
  Te  Te167  1  -0.00161312  0.50155179  0.66693392  1
  Te  Te168  1  0.00105192  0.83333638  0.00028007  1
  Te  Te169  1  0.00530718  0.83880272  0.33762350  1
  Te  Te170  1  0.00363309  0.82894356  0.66215559  1
  Te  Te171  1  0.33187684  0.16555818  -0.00047298  1
  Te  Te172  1  0.33942950  0.16645477  0.33275108  1
  Te  Te173  1  0.33210426  0.17217487  0.66553789  1
  Te  Te174  1  0.33804583  0.50656931  -0.00214288  1
  Te  Te175  1  0.33323431  0.50058142  0.34088342  1
  Te  Te176  1  0.33013312  0.49498260  0.66681195  1
  Te  Te177  1  0.33557612  0.83009579  -0.00209675  1
  Te  Te178  1  0.32813331  0.83315935  0.33202120  1
  Te  Te179  1  0.33293807  0.83411205  0.66517861  1
  Te  Te180  1  0.66234862  0.16111100  0.00078886  1
  Te  Te181  1  0.66274514  0.16374081  0.33274665  1
  Te  Te182  1  0.67839907  0.16601920  0.66727848  1
  Te  Te183  1  0.66007860  0.50354881  0.00128349  1
  Te  Te184  1  0.66676384  0.50057698  0.33969177  1
  Te  Te185  1  0.67205436  0.50171156  0.65977870  1
  Te  Te186  1  0.66267277  0.83380983  -0.00376823  1
  Te  Te187  1  0.66522845  0.83995448  0.33189761  1
  Te  Te188  1  0.65515090  0.83251702  0.67261627  1
  Te  Te189  1  0.00024486  0.00039038  0.15973650  1
  Te  Te190  1  -0.00250310  -0.00137310  0.50034434  1
  Te  Te191  1  -0.00493086  -0.00005198  0.83920593  1
  Te  Te192  1  0.00006737  0.33364148  0.16637778  1
  Te  Te193  1  -0.00239406  0.33524012  0.50161502  1
  Te  Te194  1  -0.00594104  0.33318585  0.82883511  1
  Te  Te195  1  0.00405950  0.66404919  0.16791027  1
  Te  Te196  1  -0.00262722  0.66572195  0.50292396  1
  Te  Te197  1  -0.00308227  0.66708700  0.83024674  1
  Te  Te198  1  0.33198353  -0.00627312  0.16744052  1
  Te  Te199  1  0.33416575  -0.00059378  0.50381701  1
  Te  Te200  1  0.33718981  0.00385504  0.82841208  1
  Te  Te201  1  0.32573951  0.33387265  0.16752174  1
  Te  Te202  1  0.33684128  0.33674005  0.49769697  1
  Te  Te203  1  0.33626774  0.32658244  0.83628852  1
  Te  Te204  1  0.32738477  0.66921834  0.16914260  1
  Te  Te205  1  0.33469459  0.66543683  0.50778014  1
  Te  Te206  1  0.33452797  0.66659794  0.82920497  1
  Te  Te207  1  0.66776565  -0.00125786  0.16782767  1
  Te  Te208  1  0.66920634  -0.00074139  0.49622860  1
  Te  Te209  1  0.66574421  -0.00345460  0.83417230  1
  Te  Te210  1  0.67228139  0.33435017  0.17400540  1
  Te  Te211  1  0.66578600  0.33491346  0.49602024  1
  Te  Te212  1  0.66917246  0.33434679  0.83677212  1
  Te  Te213  1  0.66967417  0.66667290  0.15847945  1
  Te  Te214  1  0.67307250  0.66377056  0.49771303  1
  Te  Te215  1  0.66869906  0.66878196  0.83810749  1
