# generated using pymatgen
data_AgSbTe2
_symmetry_space_group_name_H-M   'P 1'
_cell_length_a   18.32551633
_cell_length_b   18.34283975
_cell_length_c   18.33756362
_cell_angle_alpha   89.99799718
_cell_angle_beta   90.00239483
_cell_angle_gamma   89.99979143
_symmetry_Int_Tables_number   1
_chemical_formula_structural   AgSbTe2
_chemical_formula_sum   'Ag54 Sb54 Te108'
_cell_volume   6164.02547481
_cell_formula_units_Z   54
loop_
 _symmetry_equiv_pos_site_id
 _symmetry_equiv_pos_as_xyz
  1  'x, y, z'
loop_
 _atom_site_type_symbol
 _atom_site_label
 _atom_site_symmetry_multiplicity
 _atom_site_fract_x
 _atom_site_fract_y
 _atom_site_fract_z
 _atom_site_occupancy
  Ag  Ag0  1  0.84230169  0.49487300  0.33393921  1
  Ag  Ag1  1  0.65737748  0.00097962  -0.00047649  1
  Ag  Ag2  1  0.83615008  0.33151399  0.49765547  1
  Ag  Ag3  1  0.32302678  0.34109796  0.33389942  1
  Ag  Ag4  1  0.00310539  0.83578989  0.83029916  1
  Ag  Ag5  1  0.49794929  -0.00232417  0.84130951  1
  Ag  Ag6  1  0.16073414  0.17591791  0.66872955  1
  Ag  Ag7  1  0.50250525  0.66712368  0.83522600  1
  Ag  Ag8  1  0.49010185  0.49940264  0.32661530  1
  Ag  Ag9  1  0.66535996  0.66041797  0.67366417  1
  Ag  Ag10  1  0.50346636  0.84391401  -0.00153820  1
  Ag  Ag11  1  0.67391272  0.33347733  0.66823830  1
  Ag  Ag12  1  0.66444885  0.33365704  -0.00051152  1
  Ag  Ag13  1  0.66062845  0.17066445  0.83717545  1
  Ag  Ag14  1  0.16633015  0.34353866  0.17632233  1
  Ag  Ag15  1  0.66313898  0.83303243  0.15616522  1
  Ag  Ag16  1  0.50341738  0.15647444  -0.00155836  1
  Ag  Ag17  1  0.32564117  0.50281624  0.49357210  1
  Ag  Ag18  1  0.65987379  0.49993767  0.84029197  1
  Ag  Ag19  1  0.83496753  0.16887963  0.66237726  1
  Ag  Ag20  1  0.00294376  -0.00067663  -0.00850038  1
  Ag  Ag21  1  0.16732490  0.82457641  0.33822506  1
  Ag  Ag22  1  0.00761837  0.66251856  0.66290678  1
  Ag  Ag23  1  0.01395308  0.49939511  0.17590616  1
  Ag  Ag24  1  0.00722120  0.49678598  0.49310832  1
  Ag  Ag25  1  0.00981000  0.65890584  0.34018548  1
  Ag  Ag26  1  0.33036435  0.49992751  0.17674417  1
  Ag  Ag27  1  0.66313056  0.83124105  0.83789801  1
  Ag  Ag28  1  0.66514346  0.17409073  0.15862874  1
  Ag  Ag29  1  0.34554607  0.00063332  -0.00238846  1
  Ag  Ag30  1  0.33821000  0.49842754  0.83212347  1
  Ag  Ag31  1  0.32381512  0.66282591  0.66164576  1
  Ag  Ag32  1  0.16583193  0.50121200  0.66340080  1
  Ag  Ag33  1  0.82973114  0.17672222  0.34379982  1
  Ag  Ag34  1  0.16881236  0.66014412  0.49770567  1
  Ag  Ag35  1  0.32733286  0.65894625  0.34064182  1
  Ag  Ag36  1  0.67333508  0.33620316  0.33264607  1
  Ag  Ag37  1  0.67236389  0.17166593  0.50524037  1
  Ag  Ag38  1  0.00341156  0.00132139  0.66941821  1
  Ag  Ag39  1  0.00111497  0.34176465  0.34364647  1
  Ag  Ag40  1  0.00410315  0.33571697  0.66068510  1
  Ag  Ag41  1  0.16803299  0.65718719  0.17853435  1
  Ag  Ag42  1  0.33589416  0.16853585  0.83351162  1
  Ag  Ag43  1  0.16884772  0.00297766  0.83534131  1
  Ag  Ag44  1  0.16165250  0.34313548  0.50124944  1
  Ag  Ag45  1  0.49877586  -0.00044169  0.15423110  1
  Ag  Ag46  1  0.16921142  0.00016305  0.15837595  1
  Ag  Ag47  1  0.50245204  0.50061219  0.00290109  1
  Ag  Ag48  1  0.16681886  0.32955442  0.82362022  1
  Ag  Ag49  1  0.66082661  0.66544183  -0.00601777  1
  Ag  Ag50  1  0.66093023  0.49676315  0.16297529  1
  Ag  Ag51  1  0.16480700  0.82541775  0.66408993  1
  Ag  Ag52  1  0.83398452  0.01290704  0.50096505  1
  Ag  Ag53  1  0.32817994  0.82237040  0.49943559  1
  Sb  Sb54  1  0.67172349  0.00300641  0.67470670  1
  Sb  Sb55  1  0.83518922  0.66351034  0.16847348  1
  Sb  Sb56  1  0.16674806  0.50517141  0.34153790  1
  Sb  Sb57  1  0.83362072  0.00136096  0.83052633  1
  Sb  Sb58  1  0.50578996  0.17269763  0.32667292  1
  Sb  Sb59  1  -0.00217764  0.17078443  0.16729069  1
  Sb  Sb60  1  0.82472767  0.16556317  -0.00232694  1
  Sb  Sb61  1  0.49582864  0.82752525  0.32723391  1
  Sb  Sb62  1  0.00190219  0.16278376  0.82994896  1
  Sb  Sb63  1  0.82581279  0.66571416  0.83099758  1
  Sb  Sb64  1  0.33627659  0.16997262  0.16252549  1
  Sb  Sb65  1  0.00157163  0.50316116  0.83135233  1
  Sb  Sb66  1  0.83156675  0.00248401  0.16931703  1
  Sb  Sb67  1  0.33743583  0.33221837  0.00122951  1
  Sb  Sb68  1  0.82450242  0.83520999  -0.00079685  1
  Sb  Sb69  1  0.49735107  0.66519836  0.16145246  1
  Sb  Sb70  1  0.66649474  0.49520353  0.49965333  1
  Sb  Sb71  1  0.83848852  0.83664800  0.66629263  1
  Sb  Sb72  1  0.33800033  0.66781013  -0.00189002  1
  Sb  Sb73  1  0.17175566  0.16457246  -0.00474365  1
  Sb  Sb74  1  0.50349852  0.00128605  0.50297592  1
  Sb  Sb75  1  0.66255329  0.83529886  0.50357584  1
  Sb  Sb76  1  0.83322436  0.33135916  0.82594954  1
  Sb  Sb77  1  0.66473271  0.65754347  0.33254582  1
  Sb  Sb78  1  0.00025436  0.83022679  0.16325454  1
  Sb  Sb79  1  0.50043716  0.33437401  0.16570006  1
  Sb  Sb80  1  0.17257893  0.49935794  -0.00217297  1
  Sb  Sb81  1  0.00092201  0.00053070  0.33608405  1
  Sb  Sb82  1  0.32741506  0.33961192  0.66498214  1
  Sb  Sb83  1  0.32541338  -0.00367106  0.67330120  1
  Sb  Sb84  1  0.49981725  0.33481131  0.49869807  1
  Sb  Sb85  1  0.83958291  0.66169653  0.50063472  1
  Sb  Sb86  1  0.66656742  0.00659222  0.32611566  1
  Sb  Sb87  1  0.49717876  0.50035439  0.66827721  1
  Sb  Sb88  1  0.00623800  0.82763944  0.50468940  1
  Sb  Sb89  1  -0.00137667  0.66914679  -0.00171722  1
  Sb  Sb90  1  0.82451738  0.49846524  0.00593741  1
  Sb  Sb91  1  0.49896708  0.33367260  0.83464608  1
  Sb  Sb92  1  0.33418553  0.82932871  0.16866374  1
  Sb  Sb93  1  0.17136050  0.83611608  -0.00217402  1
  Sb  Sb94  1  0.33464206  0.17137657  0.50537630  1
  Sb  Sb95  1  0.16309165  0.16871577  0.33759686  1
  Sb  Sb96  1  0.49271963  0.66488140  0.50464420  1
  Sb  Sb97  1  0.83287061  0.33390605  0.17603884  1
  Sb  Sb98  1  0.33175005  -0.00008516  0.32816350  1
  Sb  Sb99  1  0.83744239  0.83113868  0.33503501  1
  Sb  Sb100  1  0.50174559  0.16711172  0.67403807  1
  Sb  Sb101  1  0.49635361  0.83088047  0.67365722  1
  Sb  Sb102  1  0.33470917  0.83285628  0.83072550  1
  Sb  Sb103  1  0.83629523  0.49485201  0.66165521  1
  Sb  Sb104  1  0.16290821  -0.00007423  0.50471927  1
  Sb  Sb105  1  -0.00287379  0.33110931  -0.00076594  1
  Sb  Sb106  1  0.17145664  0.66671837  0.82892443  1
  Sb  Sb107  1  -0.00611601  0.17524541  0.50242247  1
  Te  Te108  1  0.16695954  0.16163270  0.16722257  1
  Te  Te109  1  0.16871264  0.16846529  0.50671248  1
  Te  Te110  1  0.16797588  0.16573122  0.82968402  1
  Te  Te111  1  0.16989931  0.49932958  0.16032203  1
  Te  Te112  1  0.16723364  0.50048797  0.50399975  1
  Te  Te113  1  0.16890130  0.49797781  0.82956124  1
  Te  Te114  1  0.16600589  0.83822756  0.16724226  1
  Te  Te115  1  0.17004430  0.83414993  0.50121894  1
  Te  Te116  1  0.16559754  0.83573124  0.83021945  1
  Te  Te117  1  0.50415350  0.16201847  0.16089741  1
  Te  Te118  1  0.50787078  0.16586939  0.49904331  1
  Te  Te119  1  0.49936484  0.16542769  0.83778913  1
  Te  Te120  1  0.49858789  0.50007735  0.16650836  1
  Te  Te121  1  0.49271075  0.50055679  0.49500118  1
  Te  Te122  1  0.50082601  0.50023878  0.83307643  1
  Te  Te123  1  0.50305710  0.83593683  0.16213275  1
  Te  Te124  1  0.49186786  0.83432574  0.49861834  1
  Te  Te125  1  0.50216211  0.83421939  0.83752086  1
  Te  Te126  1  0.82618041  0.16675123  0.16971474  1
  Te  Te127  1  0.83090336  0.17064059  0.50129907  1
  Te  Te128  1  0.82499283  0.16661992  0.82658709  1
  Te  Te129  1  0.82803354  0.49950433  0.17362510  1
  Te  Te130  1  0.83641363  0.49486925  0.49454682  1
  Te  Te131  1  0.82650827  0.49802861  0.83352139  1
  Te  Te132  1  0.82493980  0.83337842  0.16866674  1
  Te  Te133  1  0.83255994  0.83745901  0.49919565  1
  Te  Te134  1  0.83115312  0.83326962  0.83251287  1
  Te  Te135  1  0.16233268  0.00016553  -0.00267909  1
  Te  Te136  1  0.16619964  -0.00227469  0.33067597  1
  Te  Te137  1  0.16227905  -0.00069216  0.67060340  1
  Te  Te138  1  0.16576127  0.33119280  0.00011691  1
  Te  Te139  1  0.16382389  0.32938442  0.33439143  1
  Te  Te140  1  0.16630661  0.33530243  0.66455943  1
  Te  Te141  1  0.16683914  0.66814903  0.00605758  1
  Te  Te142  1  0.16715367  0.66762144  0.33505569  1
  Te  Te143  1  0.16636462  0.66597211  0.66746191  1
  Te  Te144  1  0.50176643  0.00004744  -0.00222469  1
  Te  Te145  1  0.49940030  -0.00155356  0.32865301  1
  Te  Te146  1  0.49906163  -0.00065049  0.67328277  1
  Te  Te147  1  0.50536251  0.34013301  0.00054600  1
  Te  Te148  1  0.50108251  0.33937067  0.33195071  1
  Te  Te149  1  0.51267789  0.33312152  0.66620131  1
  Te  Te150  1  0.50259613  0.66032698  -0.00414606  1
  Te  Te151  1  0.49435448  0.66078542  0.33318455  1
  Te  Te152  1  0.50615285  0.66623881  0.67281117  1
  Te  Te153  1  0.84233709  0.00061901  0.00115265  1
  Te  Te154  1  0.83419448  0.00176617  0.33932594  1
  Te  Te155  1  0.83934192  0.00437792  0.66232618  1
  Te  Te156  1  0.82663433  0.33168876  -0.00110682  1
  Te  Te157  1  0.83502697  0.33434941  0.33676966  1
  Te  Te158  1  0.83512754  0.32952508  0.66061440  1
  Te  Te159  1  0.82437070  0.66669991  0.00038466  1
  Te  Te160  1  0.83948198  0.66210827  0.33537659  1
  Te  Te161  1  0.83505231  0.66653166  0.66504632  1
  Te  Te162  1  -0.00203159  0.16151538  -0.00097460  1
  Te  Te163  1  -0.00710097  0.17043597  0.33246353  1
  Te  Te164  1  0.00064108  0.16933577  0.66714815  1
  Te  Te165  1  -0.00299625  0.50122622  0.00210780  1
  Te  Te166  1  0.00263016  0.49894546  0.33264802  1
  Te  Te167  1  0.00275850  0.49927020  0.66782220  1
  Te  Te168  1  -0.00088550  0.83667219  -0.00582068  1
  Te  Te169  1  0.00581718  0.82889854  0.33246820  1
  Te  Te170  1  0.00407058  0.83173640  0.66953150  1
  Te  Te171  1  0.33945732  0.16372976  -0.00503658  1
  Te  Te172  1  0.33586842  0.17344881  0.33471365  1
  Te  Te173  1  0.33121741  0.16782087  0.67315666  1
  Te  Te174  1  0.33974661  0.50018723  -0.00769495  1
  Te  Te175  1  0.33097171  0.49894544  0.33324002  1
  Te  Te176  1  0.33132986  0.50319757  0.67147491  1
  Te  Te177  1  0.33984614  0.83781893  0.00014049  1
  Te  Te178  1  0.32812367  0.83083735  0.33662354  1
  Te  Te179  1  0.32885351  0.82827856  0.66268494  1
  Te  Te180  1  0.66418882  0.16673531  -0.00099567  1
  Te  Te181  1  0.66937712  0.17215101  0.33211583  1
  Te  Te182  1  0.66827108  0.16768870  0.66834847  1
  Te  Te183  1  0.66384760  0.49880773  0.00030946  1
  Te  Te184  1  0.66621100  0.49636699  0.33200842  1
  Te  Te185  1  0.66787698  0.49926530  0.66709882  1
  Te  Te186  1  0.66373605  0.83415120  -0.00144694  1
  Te  Te187  1  0.66638377  0.83091614  0.33289694  1
  Te  Te188  1  0.66685023  0.83070838  0.67083769  1
  Te  Te189  1  0.00391113  -0.00025093  0.16700101  1
  Te  Te190  1  -0.00431666  -0.00178362  0.50457305  1
  Te  Te191  1  0.00176010  -0.00214911  0.83012801  1
  Te  Te192  1  0.00530291  0.33830760  0.16493861  1
  Te  Te193  1  0.00134683  0.33627102  0.50097467  1
  Te  Te194  1  0.00517410  0.33375405  0.83060365  1
  Te  Te195  1  0.00435918  0.66234927  0.16655533  1
  Te  Te196  1  0.00498098  0.66122058  0.50113400  1
  Te  Te197  1  -0.00048671  0.67218645  0.82952017  1
  Te  Te198  1  0.33321095  0.00069643  0.16136079  1
  Te  Te199  1  0.33422614  0.00130025  0.49895850  1
  Te  Te200  1  0.33214126  0.00049210  0.83670012  1
  Te  Te201  1  0.32838804  0.33750255  0.16885109  1
  Te  Te202  1  0.32921279  0.33733366  0.49670619  1
  Te  Te203  1  0.32881140  0.33309919  0.83301856  1
  Te  Te204  1  0.32944580  0.66201577  0.16728067  1
  Te  Te205  1  0.32990259  0.66364218  0.50106551  1
  Te  Te206  1  0.33825498  0.66423696  0.83002710  1
  Te  Te207  1  0.66593325  -0.00146139  0.16146628  1
  Te  Te208  1  0.67047484  0.00409209  0.50007300  1
  Te  Te209  1  0.66660137  -0.00106994  0.83793339  1
  Te  Te210  1  0.66700081  0.33475099  0.16855876  1
  Te  Te211  1  0.66700936  0.33155285  0.49902886  1
  Te  Te212  1  0.66695696  0.33360670  0.83219487  1
  Te  Te213  1  0.66586609  0.66377142  0.16546402  1
  Te  Te214  1  0.66694245  0.66771764  0.50559426  1
  Te  Te215  1  0.66418964  0.66536561  0.83365986  1
