# generated using pymatgen
data_AgSbTe2
_symmetry_space_group_name_H-M   'P 1'
_cell_length_a   18.32569129
_cell_length_b   18.32376945
_cell_length_c   18.32347776
_cell_angle_alpha   90.00129606
_cell_angle_beta   90.00048527
_cell_angle_gamma   89.99958493
_symmetry_Int_Tables_number   1
_chemical_formula_structural   AgSbTe2
_chemical_formula_sum   'Ag54 Sb54 Te108'
_cell_volume   6152.94581071
_cell_formula_units_Z   54
loop_
 _symmetry_equiv_pos_site_id
 _symmetry_equiv_pos_as_xyz
  1  'x, y, z'
loop_
 _atom_site_type_symbol
 _atom_site_label
 _atom_site_symmetry_multiplicity
 _atom_site_fract_x
 _atom_site_fract_y
 _atom_site_fract_z
 _atom_site_occupancy
  Ag  Ag0  1  0.00418204  0.49709302  0.82367442  1
  Ag  Ag1  1  0.83363477  0.66290645  0.50527749  1
  Ag  Ag2  1  0.33056651  0.33857538  0.66361381  1
  Ag  Ag3  1  0.82708183  0.82959235  0.00171373  1
  Ag  Ag4  1  0.66715579  0.82758801  0.84493972  1
  Ag  Ag5  1  0.66726265  -0.01440514  0.00052889  1
  Ag  Ag6  1  0.49056281  0.00510186  0.50160666  1
  Ag  Ag7  1  0.83183250  0.50257239  0.66001531  1
  Ag  Ag8  1  0.00114289  0.34068246  0.65967172  1
  Ag  Ag9  1  0.33335908  0.65936080  0.66241520  1
  Ag  Ag10  1  0.66300787  0.18109675  0.49984180  1
  Ag  Ag11  1  0.16021126  0.49565556  0.33400860  1
  Ag  Ag12  1  0.00632287  0.17783189  0.50389465  1
  Ag  Ag13  1  0.00092523  0.17507462  0.82403490  1
  Ag  Ag14  1  -0.00548463  0.49542991  0.50650117  1
  Ag  Ag15  1  0.00072335  0.83378649  0.15857255  1
  Ag  Ag16  1  0.50610508  0.33404073  0.17038217  1
  Ag  Ag17  1  0.66633329  0.34495018  0.65621131  1
  Ag  Ag18  1  0.66729782  0.49809884  0.17213983  1
  Ag  Ag19  1  0.67221545  0.67271272  -0.00029828  1
  Ag  Ag20  1  0.16143158  0.32985757  0.50239687  1
  Ag  Ag21  1  0.32750376  0.16537490  0.50133313  1
  Ag  Ag22  1  0.16631115  0.17423095  0.33939860  1
  Ag  Ag23  1  0.66928881  0.34150030  0.33906963  1
  Ag  Ag24  1  0.00040238  -0.00976479  -0.00356205  1
  Ag  Ag25  1  0.82381427  0.33714277  0.16628742  1
  Ag  Ag26  1  0.00025509  0.33831211  0.34218971  1
  Ag  Ag27  1  -0.00688190  0.65729965  0.66701256  1
  Ag  Ag28  1  0.66058081  0.33684918  0.00664904  1
  Ag  Ag29  1  0.67297944  0.49848351  0.49885441  1
  Ag  Ag30  1  0.67480378  0.66087793  0.66314056  1
  Ag  Ag31  1  0.83354863  0.66524549  0.82887941  1
  Ag  Ag32  1  0.00600346  0.83194462  0.49977280  1
  Ag  Ag33  1  0.49837389  0.83121404  0.33026143  1
  Ag  Ag34  1  0.33723770  0.66824883  0.34210528  1
  Ag  Ag35  1  0.66498652  0.82631727  0.15847357  1
  Ag  Ag36  1  0.33673133  0.83278123  0.16865861  1
  Ag  Ag37  1  0.33730515  0.33522456  -0.00384373  1
  Ag  Ag38  1  0.51281829  0.83561803  0.00787155  1
  Ag  Ag39  1  0.16969265  0.00732469  0.49782625  1
  Ag  Ag40  1  0.00335987  0.00021380  0.66416200  1
  Ag  Ag41  1  0.16605694  -0.00479358  0.16940965  1
  Ag  Ag42  1  0.16439263  0.50064900  0.00125246  1
  Ag  Ag43  1  -0.00635664  0.67211316  -0.00580414  1
  Ag  Ag44  1  0.16446288  0.33696471  0.82432934  1
  Ag  Ag45  1  0.50753478  0.49806845  0.66500282  1
  Ag  Ag46  1  0.50669724  0.33079503  0.49998333  1
  Ag  Ag47  1  0.50237387  0.16946951  0.00087637  1
  Ag  Ag48  1  0.32527477  0.49752876  0.82833258  1
  Ag  Ag49  1  0.16158564  0.83132329  0.00392655  1
  Ag  Ag50  1  0.32767048  0.00028412  0.65961923  1
  Ag  Ag51  1  0.83089977  0.49954849  0.34142846  1
  Ag  Ag52  1  0.66565239  0.65908534  0.33464611  1
  Ag  Ag53  1  0.32993988  0.83667282  0.49780719  1
  Sb  Sb54  1  -0.00242309  0.66179062  0.33735609  1
  Sb  Sb55  1  0.83469661  0.82389002  0.66980162  1
  Sb  Sb56  1  0.67075616  0.16754155  0.83142966  1
  Sb  Sb57  1  0.16587123  0.83334807  0.66792950  1
  Sb  Sb58  1  0.66979529  0.50307319  0.83024369  1
  Sb  Sb59  1  0.49914537  0.82930304  0.66359777  1
  Sb  Sb60  1  0.16363557  0.66354067  0.50043673  1
  Sb  Sb61  1  0.33417435  0.66484639  -0.00205715  1
  Sb  Sb62  1  0.33194712  0.49880183  0.50461148  1
  Sb  Sb63  1  0.66823524  -0.00148861  0.66719458  1
  Sb  Sb64  1  0.83804623  -0.00760012  0.50164055  1
  Sb  Sb65  1  0.49936169  -0.00076176  0.82957514  1
  Sb  Sb66  1  0.16342941  0.49764517  0.66482518  1
  Sb  Sb67  1  0.49740067  0.16620833  0.33603214  1
  Sb  Sb68  1  0.16068496  0.65941328  0.83365730  1
  Sb  Sb69  1  -0.00396329  0.50336285  0.16756646  1
  Sb  Sb70  1  0.33336029  0.16406004  0.17164418  1
  Sb  Sb71  1  0.32794459  0.17377364  0.82781731  1
  Sb  Sb72  1  0.16457464  0.16889723  0.65897254  1
  Sb  Sb73  1  0.49717530  -0.00131006  0.16805515  1
  Sb  Sb74  1  0.83013985  0.82523529  0.32961244  1
  Sb  Sb75  1  -0.00250480  0.82900790  0.83566447  1
  Sb  Sb76  1  0.83549457  0.50475642  -0.00075222  1
  Sb  Sb77  1  0.50608522  0.66592046  0.83218682  1
  Sb  Sb78  1  0.83407579  0.34202104  0.49726110  1
  Sb  Sb79  1  0.83075706  0.66268669  0.16625465  1
  Sb  Sb80  1  0.16911722  0.83116597  0.33202883  1
  Sb  Sb81  1  0.16822669  0.33188997  0.17077591  1
  Sb  Sb82  1  0.50351853  0.66535872  0.16727877  1
  Sb  Sb83  1  0.66480071  -0.00165119  0.33045112  1
  Sb  Sb84  1  0.83562140  0.00002827  0.16475454  1
  Sb  Sb85  1  0.00318235  0.00262349  0.33666898  1
  Sb  Sb86  1  0.16563251  0.67128031  0.16650360  1
  Sb  Sb87  1  0.33354556  0.33904208  0.33842836  1
  Sb  Sb88  1  0.50199774  0.66349158  0.50028209  1
  Sb  Sb89  1  0.33724598  0.50233326  0.16538814  1
  Sb  Sb90  1  0.66449664  0.82821701  0.49870273  1
  Sb  Sb91  1  0.33254532  -0.00575036  0.34026417  1
  Sb  Sb92  1  0.83771275  0.34023255  0.83599389  1
  Sb  Sb93  1  0.00103601  0.33526540  -0.00048679  1
  Sb  Sb94  1  0.33580600  0.82784621  0.83302358  1
  Sb  Sb95  1  0.16837905  0.16781980  0.00371809  1
  Sb  Sb96  1  0.83641298  0.17705370  0.66335145  1
  Sb  Sb97  1  0.00175795  0.16376359  0.16905961  1
  Sb  Sb98  1  0.83676194  0.17845745  0.33675605  1
  Sb  Sb99  1  0.50000616  0.17262984  0.66623923  1
  Sb  Sb100  1  0.16366391  0.00535507  0.83135786  1
  Sb  Sb101  1  0.66485384  0.17147206  0.17032540  1
  Sb  Sb102  1  0.83511095  -0.00749144  0.83388238  1
  Sb  Sb103  1  0.50013228  0.49939822  -0.00400202  1
  Sb  Sb104  1  0.33280693  0.00078820  -0.00416178  1
  Sb  Sb105  1  0.50359153  0.50145639  0.33880974  1
  Sb  Sb106  1  0.49684048  0.33519790  0.83045547  1
  Sb  Sb107  1  0.83034558  0.16424806  -0.00080245  1
  Te  Te108  1  0.16782915  0.15867271  0.17477491  1
  Te  Te109  1  0.16579583  0.16799791  0.49720645  1
  Te  Te110  1  0.16017532  0.17453333  0.83651630  1
  Te  Te111  1  0.16805568  0.50021769  0.16492772  1
  Te  Te112  1  0.16225536  0.49563978  0.49489419  1
  Te  Te113  1  0.16452599  0.49573340  0.83780353  1
  Te  Te114  1  0.16425495  0.83684829  0.16598201  1
  Te  Te115  1  0.16752115  0.83535122  0.49968874  1
  Te  Te116  1  0.16856487  0.83475435  0.84157680  1
  Te  Te117  1  0.49794983  0.17062552  0.16289195  1
  Te  Te118  1  0.50109539  0.16937343  0.50030307  1
  Te  Te119  1  0.50056013  0.16639188  0.84066984  1
  Te  Te120  1  0.50550127  0.49366947  0.16521707  1
  Te  Te121  1  0.50393840  0.49422138  0.50485623  1
  Te  Te122  1  0.49171833  0.50033165  0.82606022  1
  Te  Te123  1  0.49955727  0.83383173  0.16772869  1
  Te  Te124  1  0.49587923  0.83508497  0.49696651  1
  Te  Te125  1  0.50447367  0.83380610  0.83929268  1
  Te  Te126  1  0.83349817  0.17439655  0.16800339  1
  Te  Te127  1  0.83418747  0.16070741  0.49962193  1
  Te  Te128  1  0.84212231  0.16596023  0.83198885  1
  Te  Te129  1  0.82829789  0.49621758  0.16879973  1
  Te  Te130  1  0.83361948  0.50327051  0.49979676  1
  Te  Te131  1  0.84017357  0.50620152  0.83105405  1
  Te  Te132  1  0.83418570  0.83319531  0.16301817  1
  Te  Te133  1  0.83830178  0.82474510  0.49816205  1
  Te  Te134  1  0.82889879  0.82639925  0.83909754  1
  Te  Te135  1  0.16406269  -0.00078134  0.00112894  1
  Te  Te136  1  0.16677573  0.00175482  0.33536626  1
  Te  Te137  1  0.16503454  -0.00022586  0.66194619  1
  Te  Te138  1  0.17020675  0.33581598  0.00252169  1
  Te  Te139  1  0.16619807  0.33556913  0.33586081  1
  Te  Te140  1  0.16536806  0.33389277  0.66441251  1
  Te  Te141  1  0.16524272  0.66559616  0.00011611  1
  Te  Te142  1  0.16924700  0.65956457  0.33313002  1
  Te  Te143  1  0.16969760  0.66717554  0.66734623  1
  Te  Te144  1  0.50279468  -0.00193273  -0.00050075  1
  Te  Te145  1  0.49979194  -0.00452799  0.33956924  1
  Te  Te146  1  0.49886939  -0.00020457  0.66059327  1
  Te  Te147  1  0.49879256  0.33488041  -0.00201871  1
  Te  Te148  1  0.50277595  0.33287916  0.33554179  1
  Te  Te149  1  0.50226166  0.33648390  0.66310552  1
  Te  Te150  1  0.50560382  0.67231479  -0.00040411  1
  Te  Te151  1  0.50144541  0.67071742  0.33384180  1
  Te  Te152  1  0.49701159  0.66135510  0.66606595  1
  Te  Te153  1  0.83396684  -0.00415087  0.00065970  1
  Te  Te154  1  0.83333929  -0.00002551  0.33213826  1
  Te  Te155  1  0.83964278  -0.00138125  0.66748368  1
  Te  Te156  1  0.83016192  0.33302919  0.00428155  1
  Te  Te157  1  0.83141166  0.34010688  0.32843843  1
  Te  Te158  1  0.83365430  0.34251239  0.66992572  1
  Te  Te159  1  0.83285745  0.66926882  -0.00017940  1
  Te  Te160  1  0.82861263  0.65934901  0.33743868  1
  Te  Te161  1  0.83412834  0.66306725  0.66660829  1
  Te  Te162  1  -0.00075512  0.16230550  -0.00021999  1
  Te  Te163  1  0.00380934  0.17244272  0.33812850  1
  Te  Te164  1  -0.00076601  0.16801079  0.66441758  1
  Te  Te165  1  0.00345752  0.50443198  0.00019250  1
  Te  Te166  1  -0.00038249  0.49766285  0.33329573  1
  Te  Te167  1  -0.00035896  0.50029835  0.66513455  1
  Te  Te168  1  0.00187634  0.83284850  -0.00251814  1
  Te  Te169  1  -0.00057933  0.83165226  0.33539017  1
  Te  Te170  1  -0.00020854  0.83386803  0.66449680  1
  Te  Te171  1  0.33759229  0.17080423  -0.00117438  1
  Te  Te172  1  0.32942620  0.16804811  0.34008925  1
  Te  Te173  1  0.33466704  0.16930657  0.66127176  1
  Te  Te174  1  0.33035356  0.49706741  -0.00212724  1
  Te  Te175  1  0.33233918  0.50793718  0.33324450  1
  Te  Te176  1  0.33086710  0.49850907  0.66826065  1
  Te  Te177  1  0.32805995  0.83337224  0.00178906  1
  Te  Te178  1  0.33474213  0.82847789  0.33437076  1
  Te  Te179  1  0.33349274  0.83188227  0.66398399  1
  Te  Te180  1  0.66288381  0.17454551  -0.00009056  1
  Te  Te181  1  0.66648886  0.16909410  0.34001274  1
  Te  Te182  1  0.66834109  0.16866396  0.66179191  1
  Te  Te183  1  0.66705571  0.49753531  0.00016848  1
  Te  Te184  1  0.66453546  0.50082326  0.33383854  1
  Te  Te185  1  0.66809153  0.50123238  0.66906359  1
  Te  Te186  1  0.66891870  0.82976213  0.00132754  1
  Te  Te187  1  0.66284055  0.82989343  0.32921218  1
  Te  Te188  1  0.66645976  0.82792702  0.66906237  1
  Te  Te189  1  0.00280898  -0.00436187  0.16406605  1
  Te  Te190  1  0.00321314  -0.00506724  0.50272845  1
  Te  Te191  1  0.00066942  0.00278486  0.83169666  1
  Te  Te192  1  -0.00060372  0.33297037  0.16943483  1
  Te  Te193  1  -0.00165573  0.33464846  0.49985314  1
  Te  Te194  1  0.00359552  0.33585274  0.83378139  1
  Te  Te195  1  -0.00155012  0.67269294  0.16147747  1
  Te  Te196  1  -0.00126373  0.66779410  0.50291335  1
  Te  Te197  1  -0.00375440  0.66298470  0.83115543  1
  Te  Te198  1  0.32898229  -0.00562475  0.16505672  1
  Te  Te199  1  0.33128355  -0.00085671  0.50209400  1
  Te  Te200  1  0.33157859  0.00145917  0.82172843  1
  Te  Te201  1  0.33776630  0.33289600  0.16411905  1
  Te  Te202  1  0.33120145  0.33269192  0.50254139  1
  Te  Te203  1  0.32856635  0.33604563  0.83058955  1
  Te  Te204  1  0.33494921  0.67242219  0.16795147  1
  Te  Te205  1  0.33370615  0.66921428  0.50173771  1
  Te  Te206  1  0.33321664  0.66034586  0.82835553  1
  Te  Te207  1  0.66652333  -0.00220849  0.16173956  1
  Te  Te208  1  0.66552895  -0.00164879  0.50083704  1
  Te  Te209  1  0.66730126  -0.00229779  0.83817833  1
  Te  Te210  1  0.66396768  0.33334057  0.16684958  1
  Te  Te211  1  0.66956938  0.33702968  0.49970205  1
  Te  Te212  1  0.66858406  0.33260858  0.83372792  1
  Te  Te213  1  0.66684268  0.66556609  0.16724277  1
  Te  Te214  1  0.66831050  0.66319713  0.50165917  1
  Te  Te215  1  0.67130670  0.66759959  0.83295629  1
