# generated using pymatgen
data_AgSbTe2
_symmetry_space_group_name_H-M   'P 1'
_cell_length_a   18.32401392
_cell_length_b   18.31837491
_cell_length_c   18.32864529
_cell_angle_alpha   89.99950530
_cell_angle_beta   89.99977024
_cell_angle_gamma   90.00403803
_symmetry_Int_Tables_number   1
_chemical_formula_structural   AgSbTe2
_chemical_formula_sum   'Ag54 Sb54 Te108'
_cell_volume   6152.30590950
_cell_formula_units_Z   54
loop_
 _symmetry_equiv_pos_site_id
 _symmetry_equiv_pos_as_xyz
  1  'x, y, z'
loop_
 _atom_site_type_symbol
 _atom_site_label
 _atom_site_symmetry_multiplicity
 _atom_site_fract_x
 _atom_site_fract_y
 _atom_site_fract_z
 _atom_site_occupancy
  Ag  Ag0  1  0.49793889  0.67098051  0.50196760  1
  Ag  Ag1  1  0.16185038  0.00669180  0.50173159  1
  Ag  Ag2  1  0.66365045  0.67321528  0.66640545  1
  Ag  Ag3  1  0.33155551  0.66101959  0.32976552  1
  Ag  Ag4  1  0.48933426  0.33378388  0.16259530  1
  Ag  Ag5  1  0.00654534  0.66991245  0.33447901  1
  Ag  Ag6  1  0.16049693  0.84174528  0.66928346  1
  Ag  Ag7  1  0.66125825  0.16795197  0.83228444  1
  Ag  Ag8  1  0.16432846  0.16217112  0.66518273  1
  Ag  Ag9  1  0.65534196  0.33415235  0.00019993  1
  Ag  Ag10  1  0.16944186  0.17154339  -0.00248094  1
  Ag  Ag11  1  0.32996370  0.66135266  0.00398117  1
  Ag  Ag12  1  0.17010039  0.32650166  0.50101622  1
  Ag  Ag13  1  0.32974749  0.17753027  0.16351467  1
  Ag  Ag14  1  0.83290125  0.66847029  0.16569734  1
  Ag  Ag15  1  0.33275443  0.83844210  0.83254849  1
  Ag  Ag16  1  0.66541270  0.83729420  0.82903866  1
  Ag  Ag17  1  0.17704953  0.32658799  0.16199782  1
  Ag  Ag18  1  0.50249672  0.83171523  0.66874602  1
  Ag  Ag19  1  0.32797419  0.17070122  0.83688120  1
  Ag  Ag20  1  0.00451535  -0.00319064  0.66013117  1
  Ag  Ag21  1  0.00205428  0.83200621  0.82689473  1
  Ag  Ag22  1  0.33106931  0.33260887  0.67247442  1
  Ag  Ag23  1  0.00345253  0.50226645  0.82921023  1
  Ag  Ag24  1  0.33144052  0.49668155  0.49298868  1
  Ag  Ag25  1  0.33241277  0.33635142  0.00516953  1
  Ag  Ag26  1  0.83533199  0.33025998  0.83244107  1
  Ag  Ag27  1  0.65387837  0.33465961  0.32719467  1
  Ag  Ag28  1  0.82824195  0.83155465  -0.00893630  1
  Ag  Ag29  1  0.17004410  0.49260471  -0.00004936  1
  Ag  Ag30  1  0.16817840  0.00621625  0.82640550  1
  Ag  Ag31  1  0.84930118  -0.00330815  0.50267210  1
  Ag  Ag32  1  0.16972047  0.16494443  0.33543636  1
  Ag  Ag33  1  0.32874828  0.00627142  0.33251901  1
  Ag  Ag34  1  -0.00129888  0.84214785  0.50804269  1
  Ag  Ag35  1  0.33696038  0.48988931  0.17306239  1
  Ag  Ag36  1  0.49291996  0.33219610  0.83996180  1
  Ag  Ag37  1  0.17492827  0.32590693  0.83538688  1
  Ag  Ag38  1  0.66544004  0.83388730  0.51007229  1
  Ag  Ag39  1  0.83443337  0.83773149  0.66970309  1
  Ag  Ag40  1  0.84204935  0.15904071  0.66817985  1
  Ag  Ag41  1  0.49730942  0.50227238  0.66170289  1
  Ag  Ag42  1  0.00835431  0.50212789  0.50300924  1
  Ag  Ag43  1  0.00515239  0.66793723  0.00162086  1
  Ag  Ag44  1  0.65672066  0.49936060  0.16709413  1
  Ag  Ag45  1  0.01020119  -0.00386124  0.34611304  1
  Ag  Ag46  1  0.33422308  0.33557924  0.32115584  1
  Ag  Ag47  1  0.17366157  0.00689485  0.17431739  1
  Ag  Ag48  1  0.66484474  0.82966062  0.16297281  1
  Ag  Ag49  1  0.50253569  0.83262826  -0.00614358  1
  Ag  Ag50  1  0.49138442  0.00085615  0.17169876  1
  Ag  Ag51  1  0.49445676  0.49726845  0.33501838  1
  Ag  Ag52  1  0.00682872  0.15396064  0.50317335  1
  Ag  Ag53  1  0.49527882  -0.00668261  0.49796822  1
  Sb  Sb54  1  0.33772447  0.83383274  0.16164165  1
  Sb  Sb55  1  0.66446377  0.66672576  -0.00154855  1
  Sb  Sb56  1  0.33158123  0.00269863  0.00423226  1
  Sb  Sb57  1  0.50115422  0.66454976  0.17028478  1
  Sb  Sb58  1  0.83880273  0.32871060  0.50479613  1
  Sb  Sb59  1  0.49179338  0.17094445  0.33261456  1
  Sb  Sb60  1  0.83470594  0.66892444  0.83621174  1
  Sb  Sb61  1  0.17043381  0.49704600  0.66838522  1
  Sb  Sb62  1  0.01152147  0.16514761  0.17240507  1
  Sb  Sb63  1  0.66253482  0.00378641  0.33491595  1
  Sb  Sb64  1  0.83397277  -0.00547418  0.17179681  1
  Sb  Sb65  1  0.16946957  0.66751928  0.49856228  1
  Sb  Sb66  1  0.00467421  0.50094434  0.16759531  1
  Sb  Sb67  1  0.00346506  -0.00512637  -0.00204101  1
  Sb  Sb68  1  0.32596701  0.17011990  0.49879415  1
  Sb  Sb69  1  0.83189541  0.50015123  0.33353331  1
  Sb  Sb70  1  0.67085946  0.16212440  0.50476410  1
  Sb  Sb71  1  0.83728765  0.16493006  -0.00726640  1
  Sb  Sb72  1  0.82888833  0.33681797  0.16076054  1
  Sb  Sb73  1  0.66146781  0.33588803  0.66938094  1
  Sb  Sb74  1  0.32646822  0.00240842  0.66223977  1
  Sb  Sb75  1  0.83768059  0.50367169  -0.00055659  1
  Sb  Sb76  1  0.67013263  -0.00603356  0.66563724  1
  Sb  Sb77  1  0.83226471  0.67291465  0.49757016  1
  Sb  Sb78  1  0.16597977  0.66678367  0.16632757  1
  Sb  Sb79  1  0.66759365  0.49817344  0.83694132  1
  Sb  Sb80  1  -0.00280600  0.67363363  0.66428486  1
  Sb  Sb81  1  0.16667195  0.84186830  0.33881521  1
  Sb  Sb82  1  0.00742162  0.16503559  0.82827728  1
  Sb  Sb83  1  0.83134143  0.50158023  0.66760873  1
  Sb  Sb84  1  0.16840550  0.83456658  -0.00582909  1
  Sb  Sb85  1  0.49441883  0.50003180  0.00079461  1
  Sb  Sb86  1  0.66403355  0.66441080  0.33470215  1
  Sb  Sb87  1  -0.00235917  0.83261250  0.16687797  1
  Sb  Sb88  1  0.66493220  0.00038397  -0.00105071  1
  Sb  Sb89  1  0.16687418  0.66687119  0.83401500  1
  Sb  Sb90  1  0.83859097  0.00025090  0.82675837  1
  Sb  Sb91  1  0.49589521  0.16512248  0.66686767  1
  Sb  Sb92  1  0.00661323  0.32915553  0.66765493  1
  Sb  Sb93  1  0.49865803  0.66597725  0.82955174  1
  Sb  Sb94  1  0.49329804  0.16671334  -0.00153955  1
  Sb  Sb95  1  0.00827261  0.33371137  0.33598336  1
  Sb  Sb96  1  0.49200827  0.33440532  0.49874194  1
  Sb  Sb97  1  0.83966617  0.16623201  0.33787203  1
  Sb  Sb98  1  0.83432164  0.83390585  0.33738390  1
  Sb  Sb99  1  0.33677332  0.66469954  0.66659916  1
  Sb  Sb100  1  0.00849668  0.33803640  -0.00342289  1
  Sb  Sb101  1  0.17374238  0.49402129  0.33107111  1
  Sb  Sb102  1  0.49399017  -0.00051779  0.83168901  1
  Sb  Sb103  1  0.66144742  0.50311537  0.49709257  1
  Sb  Sb104  1  0.33304056  0.83211352  0.50488323  1
  Sb  Sb105  1  0.65977146  0.16899021  0.16209180  1
  Sb  Sb106  1  0.32986522  0.49442654  0.83463745  1
  Sb  Sb107  1  0.49872304  0.83082300  0.33557936  1
  Te  Te108  1  0.17095187  0.16664995  0.16726185  1
  Te  Te109  1  0.16643280  0.16711853  0.50327512  1
  Te  Te110  1  0.16745439  0.16667996  0.83075425  1
  Te  Te111  1  0.17210417  0.49711609  0.16290737  1
  Te  Te112  1  0.16927521  0.49806529  0.50053506  1
  Te  Te113  1  0.16250084  0.49596457  0.83579959  1
  Te  Te114  1  0.16670916  0.84120505  0.16443413  1
  Te  Te115  1  0.16372918  0.83742404  0.50578528  1
  Te  Te116  1  0.16620011  0.83437254  0.83021825  1
  Te  Te117  1  0.49335491  0.16663972  0.16543986  1
  Te  Te118  1  0.50212725  0.15863655  0.50058895  1
  Te  Te119  1  0.49939650  0.16944727  0.83315627  1
  Te  Te120  1  0.49810146  0.49737770  0.16700220  1
  Te  Te121  1  0.49781018  0.50088273  0.50035970  1
  Te  Te122  1  0.50074394  0.49408445  0.82905099  1
  Te  Te123  1  0.50482546  0.83486471  0.16542256  1
  Te  Te124  1  0.50004640  0.83183199  0.50199889  1
  Te  Te125  1  0.50127052  0.83389298  0.83237195  1
  Te  Te126  1  0.83316338  0.16572725  0.16493117  1
  Te  Te127  1  0.83893891  0.16108485  0.50619073  1
  Te  Te128  1  0.83278922  0.16847388  0.82877144  1
  Te  Te129  1  0.83040237  0.50531864  0.16647932  1
  Te  Te130  1  0.83814301  0.49933461  0.50113450  1
  Te  Te131  1  0.83906993  0.49469149  0.83301355  1
  Te  Te132  1  0.82873038  0.83065043  0.16409358  1
  Te  Te133  1  0.83236927  0.83647639  0.50414966  1
  Te  Te134  1  0.83216760  0.83465363  0.83159386  1
  Te  Te135  1  0.16636478  0.00543486  -0.00129338  1
  Te  Te136  1  0.16831774  0.00261365  0.33469313  1
  Te  Te137  1  0.16587691  0.00011573  0.66588055  1
  Te  Te138  1  0.16941756  0.33248997  -0.00085962  1
  Te  Te139  1  0.17158847  0.32823369  0.33513485  1
  Te  Te140  1  0.17088220  0.33205358  0.66742193  1
  Te  Te141  1  0.16787029  0.66410331  0.00098457  1
  Te  Te142  1  0.16761742  0.66775026  0.33204019  1
  Te  Te143  1  0.16686969  0.67476743  0.66597795  1
  Te  Te144  1  0.49903864  -0.00616207  0.00453925  1
  Te  Te145  1  0.49506120  0.00033246  0.33191474  1
  Te  Te146  1  0.49766079  -0.00443621  0.66365552  1
  Te  Te147  1  0.49677873  0.33318237  0.00106841  1
  Te  Te148  1  0.49601059  0.33641077  0.33199802  1
  Te  Te149  1  0.49489341  0.33400749  0.66695634  1
  Te  Te150  1  0.49520703  0.67105399  0.00039599  1
  Te  Te151  1  0.49656477  0.66057240  0.33817596  1
  Te  Te152  1  0.50176430  0.66775514  0.66315128  1
  Te  Te153  1  0.83455846  -0.00772030  0.00164864  1
  Te  Te154  1  0.83739638  0.00146630  0.34040386  1
  Te  Te155  1  0.83731071  -0.00095234  0.66274749  1
  Te  Te156  1  0.83204691  0.33321232  -0.00638493  1
  Te  Te157  1  0.83075175  0.33272448  0.33183453  1
  Te  Te158  1  0.83124633  0.33172676  0.67212277  1
  Te  Te159  1  0.83543124  0.67108757  0.00302979  1
  Te  Te160  1  0.83639300  0.66677161  0.32766839  1
  Te  Te161  1  0.82658544  0.67221189  0.66603739  1
  Te  Te162  1  0.00597964  0.16575648  0.00077557  1
  Te  Te163  1  0.00633241  0.16395071  0.34080920  1
  Te  Te164  1  0.00112687  0.16349260  0.66355555  1
  Te  Te165  1  0.00516001  0.50650544  -0.00154291  1
  Te  Te166  1  0.00042136  0.50399285  0.33627589  1
  Te  Te167  1  0.00041992  0.50210734  0.66769560  1
  Te  Te168  1  -0.00157119  0.82806672  -0.00264977  1
  Te  Te169  1  0.00020027  0.83200246  0.33710681  1
  Te  Te170  1  -0.00086404  0.83432090  0.66701023  1
  Te  Te171  1  0.32952276  0.16966096  -0.00122177  1
  Te  Te172  1  0.32910628  0.16746031  0.33122612  1
  Te  Te173  1  0.32887444  0.17090465  0.67139384  1
  Te  Te174  1  0.33070618  0.49982367  0.00074154  1
  Te  Te175  1  0.33435570  0.49970645  0.33297229  1
  Te  Te176  1  0.33729288  0.49740490  0.66388346  1
  Te  Te177  1  0.33621535  0.83152478  -0.00562390  1
  Te  Te178  1  0.33332082  0.82678520  0.33308344  1
  Te  Te179  1  0.33788065  0.83286661  0.67247684  1
  Te  Te180  1  0.66800847  0.17286215  -0.00619597  1
  Te  Te181  1  0.66803164  0.17337033  0.33302485  1
  Te  Te182  1  0.66881858  0.16702763  0.67263214  1
  Te  Te183  1  0.66681693  0.49612844  0.00508480  1
  Te  Te184  1  0.66185221  0.49649845  0.32911975  1
  Te  Te185  1  0.66145082  0.50558206  0.66644299  1
  Te  Te186  1  0.66604672  0.83246356  -0.00148789  1
  Te  Te187  1  0.66660265  0.83347116  0.32989249  1
  Te  Te188  1  0.66469382  0.83314545  0.66755183  1
  Te  Te189  1  0.00401391  -0.00101711  0.17147755  1
  Te  Te190  1  0.00475414  -0.00233410  0.50134186  1
  Te  Te191  1  0.00565215  -0.00572618  0.83021932  1
  Te  Te192  1  0.00232372  0.33388092  0.16679565  1
  Te  Te193  1  0.00537861  0.34107131  0.50086179  1
  Te  Te194  1  -0.00096967  0.33641707  0.83292723  1
  Te  Te195  1  -0.00301962  0.66607452  0.16759439  1
  Te  Te196  1  0.00039545  0.66331179  0.49604644  1
  Te  Te197  1  -0.00008967  0.66722929  0.83621768  1
  Te  Te198  1  0.33340321  -0.00100151  0.17047890  1
  Te  Te199  1  0.33421698  0.00020685  0.49413568  1
  Te  Te200  1  0.32870576  0.00129596  0.83367299  1
  Te  Te201  1  0.33251593  0.33364150  0.16501869  1
  Te  Te202  1  0.32966137  0.33609026  0.50253359  1
  Te  Te203  1  0.33349081  0.33313741  0.83401499  1
  Te  Te204  1  0.33317242  0.66499366  0.16669537  1
  Te  Te205  1  0.33667167  0.66191031  0.49728845  1
  Te  Te206  1  0.33344337  0.67130081  0.83895496  1
  Te  Te207  1  0.66302132  -0.00191974  0.16735274  1
  Te  Te208  1  0.65743855  -0.00589103  0.49830086  1
  Te  Te209  1  0.66590254  0.00012633  0.83344834  1
  Te  Te210  1  0.66456638  0.33507449  0.16494333  1
  Te  Te211  1  0.66827943  0.33272088  0.49539898  1
  Te  Te212  1  0.66243077  0.33311707  0.83484895  1
  Te  Te213  1  0.66975224  0.66686899  0.16664792  1
  Te  Te214  1  0.66313558  0.67146213  0.50195821  1
  Te  Te215  1  0.66682965  0.67075513  0.82966110  1
