# generated using pymatgen
data_AgSbTe2
_symmetry_space_group_name_H-M   'P 1'
_cell_length_a   18.34247397
_cell_length_b   18.35338750
_cell_length_c   18.34179157
_cell_angle_alpha   90.00116227
_cell_angle_beta   89.99806209
_cell_angle_gamma   89.99716541
_symmetry_Int_Tables_number   1
_chemical_formula_structural   AgSbTe2
_chemical_formula_sum   'Ag54 Sb54 Te108'
_cell_volume   6174.70051736
_cell_formula_units_Z   54
loop_
 _symmetry_equiv_pos_site_id
 _symmetry_equiv_pos_as_xyz
  1  'x, y, z'
loop_
 _atom_site_type_symbol
 _atom_site_label
 _atom_site_symmetry_multiplicity
 _atom_site_fract_x
 _atom_site_fract_y
 _atom_site_fract_z
 _atom_site_occupancy
  Ag  Ag0  1  0.66123540  0.49128699  0.16995060  1
  Ag  Ag1  1  0.00130696  0.49877577  0.49661696  1
  Ag  Ag2  1  0.82991637  0.66863580  0.49442353  1
  Ag  Ag3  1  0.16211758  0.16969873  0.33115024  1
  Ag  Ag4  1  0.32800074  0.33481367  0.66778445  1
  Ag  Ag5  1  0.50970925  0.00967441  0.17358637  1
  Ag  Ag6  1  0.16310038  0.01190622  0.17223436  1
  Ag  Ag7  1  0.66603001  0.16442342  0.48785757  1
  Ag  Ag8  1  0.33294657  0.17326592  0.16835598  1
  Ag  Ag9  1  -0.00751437  0.32915317  0.32954413  1
  Ag  Ag10  1  0.00171872  0.66588058  0.01105097  1
  Ag  Ag11  1  0.66029991  0.33693342  0.01512198  1
  Ag  Ag12  1  0.32947755  0.66050718  0.00243404  1
  Ag  Ag13  1  0.49103332  0.49909772  0.66259729  1
  Ag  Ag14  1  0.16448506  0.65967324  0.16458850  1
  Ag  Ag15  1  0.16703271  0.33510377  0.82465765  1
  Ag  Ag16  1  0.32865643  0.00970696  0.66419459  1
  Ag  Ag17  1  0.00022175  0.16502758  0.17135887  1
  Ag  Ag18  1  0.66864002  0.33204746  0.32927025  1
  Ag  Ag19  1  0.50827148  0.48822634  0.33003368  1
  Ag  Ag20  1  0.83129280  0.82873220  0.33257995  1
  Ag  Ag21  1  0.81859527  0.32694282  0.17169703  1
  Ag  Ag22  1  0.51123016  0.83566198  0.33299222  1
  Ag  Ag23  1  0.16535154  0.65778450  0.83799664  1
  Ag  Ag24  1  0.17079652  0.33099603  0.17072796  1
  Ag  Ag25  1  -0.00105410  0.01126054  0.32918695  1
  Ag  Ag26  1  0.33256830  0.65925201  0.66911913  1
  Ag  Ag27  1  0.83166421  0.83125297  0.01517283  1
  Ag  Ag28  1  0.17105699  0.32878521  0.49719723  1
  Ag  Ag29  1  0.50062744  0.49883051  0.01288335  1
  Ag  Ag30  1  -0.00725807  0.66344417  0.32975977  1
  Ag  Ag31  1  0.33910661  0.48958264  0.16434898  1
  Ag  Ag32  1  0.83140666  0.83456451  0.65620446  1
  Ag  Ag33  1  0.66905497  0.66367714  0.01003196  1
  Ag  Ag34  1  0.49730824  0.33129339  0.48631134  1
  Ag  Ag35  1  -0.00236647  0.83890442  0.17104204  1
  Ag  Ag36  1  0.66812404  0.83528881  0.49494232  1
  Ag  Ag37  1  0.83231444  0.00643190  0.17093329  1
  Ag  Ag38  1  0.50435893  0.33207430  0.17012772  1
  Ag  Ag39  1  0.66725071  0.17867086  0.17229272  1
  Ag  Ag40  1  0.66620996  0.00426788  0.00652566  1
  Ag  Ag41  1  0.17124508  0.49248090  0.66802523  1
  Ag  Ag42  1  0.82967152  0.49939384  0.33201333  1
  Ag  Ag43  1  0.83060045  0.17001110  0.33151885  1
  Ag  Ag44  1  0.17007222  0.00810704  0.49748878  1
  Ag  Ag45  1  0.51310627  0.17032631  0.33077886  1
  Ag  Ag46  1  0.50100749  0.00691093  0.49005495  1
  Ag  Ag47  1  0.83522626  0.16562136  0.65767714  1
  Ag  Ag48  1  0.67209834  0.66035358  0.33123035  1
  Ag  Ag49  1  0.00456689  0.50100959  0.82840846  1
  Ag  Ag50  1  0.66644461  0.66480870  0.65596521  1
  Ag  Ag51  1  0.33563314  0.34004279  0.01232804  1
  Ag  Ag52  1  0.16635898  0.17422326  0.65844269  1
  Ag  Ag53  1  0.16695283  0.00615200  0.83021612  1
  Sb  Sb54  1  -0.00027042  0.82977032  0.83935884  1
  Sb  Sb55  1  0.49614602  0.66407336  0.83366149  1
  Sb  Sb56  1  0.16234592  0.66486906  0.49856191  1
  Sb  Sb57  1  0.83221799  -0.00134176  0.49244371  1
  Sb  Sb58  1  -0.00073085  0.66566683  0.66459687  1
  Sb  Sb59  1  0.16193548  0.83824092  0.33176134  1
  Sb  Sb60  1  0.33690135  0.33234215  0.32982625  1
  Sb  Sb61  1  0.33047522  0.83151383  0.83301299  1
  Sb  Sb62  1  0.16320576  0.83034857  0.00259413  1
  Sb  Sb63  1  0.00421783  0.17072798  0.83737099  1
  Sb  Sb64  1  0.33322040  0.16853727  0.49294067  1
  Sb  Sb65  1  0.67016061  0.50030147  0.83825007  1
  Sb  Sb66  1  0.33550808  0.00046085  0.00156988  1
  Sb  Sb67  1  0.67155134  0.83218431  0.17425007  1
  Sb  Sb68  1  0.66220964  0.33747480  0.66082187  1
  Sb  Sb69  1  0.16326980  0.83329344  0.66491014  1
  Sb  Sb70  1  0.66855642  0.16805781  0.83576421  1
  Sb  Sb71  1  0.50485090  0.66203493  0.49800398  1
  Sb  Sb72  1  0.82940649  0.50407243  0.01011176  1
  Sb  Sb73  1  0.17035382  0.50020212  -0.00088980  1
  Sb  Sb74  1  0.16692817  0.16791425  0.00812429  1
  Sb  Sb75  1  0.83405957  0.49958675  0.65891511  1
  Sb  Sb76  1  0.16453330  0.49306105  0.33442263  1
  Sb  Sb77  1  0.49619268  0.17150689  0.65632965  1
  Sb  Sb78  1  0.66821843  0.49890736  0.49055942  1
  Sb  Sb79  1  0.33066276  0.83430386  0.16748739  1
  Sb  Sb80  1  0.83924071  0.00036328  0.83711751  1
  Sb  Sb81  1  0.33012115  0.16903123  0.83569762  1
  Sb  Sb82  1  0.83262112  0.33437268  0.49105099  1
  Sb  Sb83  1  0.49621887  0.00087495  0.83422279  1
  Sb  Sb84  1  0.50344442  0.82977111  0.65856021  1
  Sb  Sb85  1  0.33199683  0.49662435  0.49877735  1
  Sb  Sb86  1  0.32800147  0.49932005  0.83615426  1
  Sb  Sb87  1  0.49841896  0.66008118  0.16878268  1
  Sb  Sb88  1  0.66358367  -0.00216224  0.66626928  1
  Sb  Sb89  1  0.00006028  0.49844412  0.17121401  1
  Sb  Sb90  1  0.83126125  0.16369150  0.01015859  1
  Sb  Sb91  1  0.33368334  0.66316939  0.33157969  1
  Sb  Sb92  1  -0.00286945  -0.00552533  0.00988724  1
  Sb  Sb93  1  -0.00051094  0.16999178  0.49090043  1
  Sb  Sb94  1  0.33927083  0.83515375  0.49989333  1
  Sb  Sb95  1  0.66854743  0.83125806  0.83194987  1
  Sb  Sb96  1  0.83663480  0.66778764  0.17367995  1
  Sb  Sb97  1  0.66902354  0.00348333  0.32800502  1
  Sb  Sb98  1  0.33365043  0.00249941  0.33445548  1
  Sb  Sb99  1  -0.00564815  0.83115585  0.49231828  1
  Sb  Sb100  1  0.83745448  0.66555441  0.83184511  1
  Sb  Sb101  1  0.00400739  0.00148192  0.65873702  1
  Sb  Sb102  1  0.83923625  0.33392467  0.83958738  1
  Sb  Sb103  1  0.50065291  0.17383647  0.01217547  1
  Sb  Sb104  1  0.00459072  0.33354426  0.65871216  1
  Sb  Sb105  1  0.00243615  0.33958739  0.00871518  1
  Sb  Sb106  1  0.50746493  0.82798909  0.01092728  1
  Sb  Sb107  1  0.49413473  0.33593848  0.83805831  1
  Te  Te108  1  0.16572354  0.16858529  0.16860976  1
  Te  Te109  1  0.16586373  0.16741781  0.49834491  1
  Te  Te110  1  0.16603824  0.16833824  0.82720244  1
  Te  Te111  1  0.17052157  0.50029094  0.16749093  1
  Te  Te112  1  0.16407491  0.49753260  0.50405312  1
  Te  Te113  1  0.16331519  0.49875923  0.83095592  1
  Te  Te114  1  0.16111060  0.83115686  0.16696870  1
  Te  Te115  1  0.16737082  0.83932552  0.49910111  1
  Te  Te116  1  0.16433895  0.83557327  0.83343021  1
  Te  Te117  1  0.50283227  0.16829614  0.17066268  1
  Te  Te118  1  0.50120624  0.16848705  0.49325356  1
  Te  Te119  1  0.50019792  0.16678285  0.83130435  1
  Te  Te120  1  0.50009455  0.49912097  0.16959220  1
  Te  Te121  1  0.50043865  0.49441970  0.49936770  1
  Te  Te122  1  0.50243925  0.49980616  0.82297191  1
  Te  Te123  1  0.49866394  0.84140935  0.17327560  1
  Te  Te124  1  0.50598532  0.83836497  0.49424043  1
  Te  Te125  1  0.49967768  0.83361687  0.83348503  1
  Te  Te126  1  0.83060609  0.16621244  0.16993457  1
  Te  Te127  1  0.83037176  0.16643480  0.49789785  1
  Te  Te128  1  0.83612924  0.16653644  0.82388492  1
  Te  Te129  1  0.83009679  0.49401728  0.17308753  1
  Te  Te130  1  0.83721698  0.50342774  0.49347989  1
  Te  Te131  1  0.84266583  0.49892779  0.83178492  1
  Te  Te132  1  0.83716150  0.83458046  0.17191940  1
  Te  Te133  1  0.82915886  0.83236301  0.49607955  1
  Te  Te134  1  0.83460945  0.83414451  0.82709294  1
  Te  Te135  1  0.16772900  -0.00100868  0.00046851  1
  Te  Te136  1  0.16556558  0.00198591  0.33252321  1
  Te  Te137  1  0.16887771  -0.00033309  0.66338841  1
  Te  Te138  1  0.17092508  0.33348812  0.00532657  1
  Te  Te139  1  0.16766072  0.33176802  0.33575514  1
  Te  Te140  1  0.16567503  0.33327207  0.66371755  1
  Te  Te141  1  0.16620541  0.66598686  0.00082827  1
  Te  Te142  1  0.16483225  0.66639558  0.32923253  1
  Te  Te143  1  0.16767186  0.66567258  0.66732419  1
  Te  Te144  1  0.50426808  -0.00198654  0.00295240  1
  Te  Te145  1  0.49895020  0.00504375  0.33241898  1
  Te  Te146  1  0.49309311  -0.00068729  0.66515550  1
  Te  Te147  1  0.49833415  0.33875107  0.00323748  1
  Te  Te148  1  0.50038570  0.33091662  0.33047892  1
  Te  Te149  1  0.49514613  0.33786484  0.67048444  1
  Te  Te150  1  0.50201892  0.66052613  0.00049375  1
  Te  Te151  1  0.50443343  0.67019358  0.33412782  1
  Te  Te152  1  0.50087112  0.66234154  0.66601969  1
  Te  Te153  1  0.82932871  -0.00521908  0.00476206  1
  Te  Te154  1  0.83704615  0.00271907  0.32980500  1
  Te  Te155  1  0.83391482  0.00125245  0.66720471  1
  Te  Te156  1  0.83015505  0.33282747  0.00743321  1
  Te  Te157  1  0.83232384  0.33217108  0.33120096  1
  Te  Te158  1  0.83238571  0.32879058  0.66755727  1
  Te  Te159  1  0.83179805  0.66960105  -0.00030854  1
  Te  Te160  1  0.83217966  0.66682710  0.33374289  1
  Te  Te161  1  0.82987273  0.66807687  0.66266393  1
  Te  Te162  1  -0.00132948  0.16670450  0.00822341  1
  Te  Te163  1  -0.00027773  0.16898531  0.33000224  1
  Te  Te164  1  0.00201140  0.16676667  0.66716852  1
  Te  Te165  1  -0.00236691  0.50650712  -0.00095533  1
  Te  Te166  1  -0.00091813  0.50120269  0.33485332  1
  Te  Te167  1  0.00300909  0.49964856  0.66384723  1
  Te  Te168  1  -0.00646981  0.82693915  0.00625728  1
  Te  Te169  1  -0.00406096  0.82632244  0.32969775  1
  Te  Te170  1  -0.00803679  0.83401665  0.66575147  1
  Te  Te171  1  0.33424159  0.17093035  0.00644388  1
  Te  Te172  1  0.32351167  0.16618705  0.32665156  1
  Te  Te173  1  0.32905491  0.16851842  0.66700825  1
  Te  Te174  1  0.33695569  0.50006022  0.00173076  1
  Te  Te175  1  0.34134958  0.50140444  0.32731781  1
  Te  Te176  1  0.33106739  0.49897085  0.66606462  1
  Te  Te177  1  0.33675030  0.82493109  0.00027428  1
  Te  Te178  1  0.34189967  0.83229254  0.33398802  1
  Te  Te179  1  0.33375479  0.82718609  0.66651076  1
  Te  Te180  1  0.66649111  0.16777731  0.00378471  1
  Te  Te181  1  0.66975100  0.16701936  0.33147727  1
  Te  Te182  1  0.66809791  0.16781760  0.66687859  1
  Te  Te183  1  0.66332591  0.50042493  0.00330077  1
  Te  Te184  1  0.66764102  0.49942879  0.33100666  1
  Te  Te185  1  0.66655752  0.50501525  0.66777611  1
  Te  Te186  1  0.67166526  0.82536139  -0.00098282  1
  Te  Te187  1  0.66957024  0.83338326  0.33669084  1
  Te  Te188  1  0.67078215  0.82892125  0.66167555  1
  Te  Te189  1  0.00095232  0.00092671  0.16979954  1
  Te  Te190  1  0.00436083  -0.00051579  0.49108996  1
  Te  Te191  1  0.00716350  0.00071833  0.83478857  1
  Te  Te192  1  0.01043867  0.33242806  0.17074452  1
  Te  Te193  1  0.00283770  0.33700899  0.49211317  1
  Te  Te194  1  0.00707819  0.33829878  0.83731896  1
  Te  Te195  1  0.00230037  0.66413681  0.16807231  1
  Te  Te196  1  -0.00471850  0.66331075  0.49519520  1
  Te  Te197  1  0.00536310  0.66307615  0.83324642  1
  Te  Te198  1  0.32644827  0.00201047  0.16450253  1
  Te  Te199  1  0.33435315  0.00137757  0.50431486  1
  Te  Te200  1  0.32717909  0.00012316  0.82982588  1
  Te  Te201  1  0.33142975  0.33295238  0.16777076  1
  Te  Te202  1  0.33390151  0.33314378  0.50734732  1
  Te  Te203  1  0.32627856  0.33333458  0.82954240  1
  Te  Te204  1  0.32863244  0.66687663  0.16334307  1
  Te  Te205  1  0.33240062  0.66683039  0.50656738  1
  Te  Te206  1  0.32684004  0.66577386  0.83282998  1
  Te  Te207  1  0.66705426  -0.00288370  0.16349799  1
  Te  Te208  1  0.66256079  0.00268552  0.50277332  1
  Te  Te209  1  0.66678333  -0.00030358  0.84195814  1
  Te  Te210  1  0.66296858  0.33475169  0.17044871  1
  Te  Te211  1  0.66208064  0.32860390  0.49588008  1
  Te  Te212  1  0.66890188  0.33362709  0.83900271  1
  Te  Te213  1  0.66589936  0.66540760  0.16916496  1
  Te  Te214  1  0.66931437  0.66623888  0.49706539  1
  Te  Te215  1  0.66744682  0.66583958  0.83465950  1
