# generated using pymatgen
data_AgSbTe2
_symmetry_space_group_name_H-M   'P 1'
_cell_length_a   18.33244071
_cell_length_b   18.33903011
_cell_length_c   18.33010046
_cell_angle_alpha   90.00343368
_cell_angle_beta   90.00109593
_cell_angle_gamma   89.99833398
_symmetry_Int_Tables_number   1
_chemical_formula_structural   AgSbTe2
_chemical_formula_sum   'Ag54 Sb54 Te108'
_cell_volume   6162.56476906
_cell_formula_units_Z   54
loop_
 _symmetry_equiv_pos_site_id
 _symmetry_equiv_pos_as_xyz
  1  'x, y, z'
loop_
 _atom_site_type_symbol
 _atom_site_label
 _atom_site_symmetry_multiplicity
 _atom_site_fract_x
 _atom_site_fract_y
 _atom_site_fract_z
 _atom_site_occupancy
  Ag  Ag0  1  0.67444299  0.66167648  0.66436176  1
  Ag  Ag1  1  0.66731076  0.82381553  0.50790652  1
  Ag  Ag2  1  0.67360059  -0.00010228  0.33812751  1
  Ag  Ag3  1  0.83509124  0.50484923  -0.01208658  1
  Ag  Ag4  1  0.50932550  -0.00594314  0.82809825  1
  Ag  Ag5  1  0.82777677  0.50653820  0.66588289  1
  Ag  Ag6  1  0.51358416  0.50600252  0.66871965  1
  Ag  Ag7  1  0.67706488  0.17099470  0.50438548  1
  Ag  Ag8  1  -0.00902054  0.50128357  0.83132397  1
  Ag  Ag9  1  0.33617145  0.50096628  0.83393093  1
  Ag  Ag10  1  0.50068598  0.34098339  0.16797179  1
  Ag  Ag11  1  0.83145257  0.34084012  0.50112914  1
  Ag  Ag12  1  0.67154433  0.50188740  0.81605178  1
  Ag  Ag13  1  0.83438546  0.66261623  0.50265625  1
  Ag  Ag14  1  0.33960619  0.50334266  0.16067214  1
  Ag  Ag15  1  0.16504108  0.16890168  -0.00528232  1
  Ag  Ag16  1  0.67450118  0.34757226  0.66269691  1
  Ag  Ag17  1  0.32564554  0.66525261  0.00074981  1
  Ag  Ag18  1  0.33211195  0.16766843  0.16125956  1
  Ag  Ag19  1  0.83689354  0.82253049  -0.01296921  1
  Ag  Ag20  1  0.67394503  0.65679817  0.34693942  1
  Ag  Ag21  1  0.00077678  0.34175641  -0.01384780  1
  Ag  Ag22  1  0.16473952  0.66766946  0.16878728  1
  Ag  Ag23  1  0.15792770  0.66879684  0.50069595  1
  Ag  Ag24  1  0.33202028  0.83164017  0.50747251  1
  Ag  Ag25  1  -0.00636986  0.82919221  0.82875843  1
  Ag  Ag26  1  -0.00002260  0.66566050  -0.00848788  1
  Ag  Ag27  1  0.15898435  0.33212496  0.82811859  1
  Ag  Ag28  1  0.15638585  0.33397937  0.50654223  1
  Ag  Ag29  1  0.66413408  0.50060959  0.18718853  1
  Ag  Ag30  1  0.83184368  -0.00563763  0.83039980  1
  Ag  Ag31  1  0.32940683  -0.00522387  0.66815874  1
  Ag  Ag32  1  0.00118174  -0.00868147  0.66573727  1
  Ag  Ag33  1  -0.00418239  0.33645790  0.66922201  1
  Ag  Ag34  1  0.67226434  0.16610461  0.82681676  1
  Ag  Ag35  1  0.16133262  -0.00516084  0.50368425  1
  Ag  Ag36  1  0.32729793  0.16851966  0.83477801  1
  Ag  Ag37  1  -0.00455055  0.16761007  0.50728117  1
  Ag  Ag38  1  0.51135030  0.82799649  0.66986287  1
  Ag  Ag39  1  -0.00593421  0.66864932  0.34420711  1
  Ag  Ag40  1  -0.00573124  -0.00565818  0.34358504  1
  Ag  Ag41  1  -0.00036872  0.17187904  0.82569143  1
  Ag  Ag42  1  0.32879095  0.82600488  0.16760416  1
  Ag  Ag43  1  -0.00625830  0.67057886  0.66768244  1
  Ag  Ag44  1  0.82841625  0.50121996  0.34366559  1
  Ag  Ag45  1  0.00192529  0.82820610  0.16199691  1
  Ag  Ag46  1  0.66922035  0.34417545  0.34600174  1
  Ag  Ag47  1  0.51453643  0.50137168  0.33596994  1
  Ag  Ag48  1  0.67015947  0.50160272  0.50121337  1
  Ag  Ag49  1  0.15909745  0.83303618  0.66514519  1
  Ag  Ag50  1  0.67578041  0.82935153  0.82448836  1
  Ag  Ag51  1  0.83271794  0.82683762  0.66938365  1
  Ag  Ag52  1  0.83200855  0.16881812  0.33912600  1
  Ag  Ag53  1  0.50258082  0.66604019  0.83035031  1
  Sb  Sb54  1  -0.00878537  0.49951826  0.50800385  1
  Sb  Sb55  1  0.16237819  0.16370770  0.66920736  1
  Sb  Sb56  1  0.16059433  0.16733658  0.33259952  1
  Sb  Sb57  1  0.16249210  0.49997725  -0.00221750  1
  Sb  Sb58  1  0.16231056  0.83399200  -0.00440690  1
  Sb  Sb59  1  0.49924250  0.00149443  0.16422433  1
  Sb  Sb60  1  0.83040827  0.33731188  0.17239401  1
  Sb  Sb61  1  0.32826800  0.33793224  -0.00138913  1
  Sb  Sb62  1  0.50062362  0.33670258  0.83474989  1
  Sb  Sb63  1  0.16298114  0.00352644  0.82643144  1
  Sb  Sb64  1  -0.00149161  0.83353166  0.50704975  1
  Sb  Sb65  1  0.83860432  0.66547565  0.17181810  1
  Sb  Sb66  1  0.49571811  0.16787825  -0.00303811  1
  Sb  Sb67  1  -0.00738996  0.33670796  0.33924291  1
  Sb  Sb68  1  0.16114280  0.50139199  0.33398520  1
  Sb  Sb69  1  0.33905225  0.33483712  0.33330600  1
  Sb  Sb70  1  0.16311785  0.83186139  0.34070473  1
  Sb  Sb71  1  0.66882000  0.82584956  0.16831466  1
  Sb  Sb72  1  0.50313263  0.16650364  0.66888089  1
  Sb  Sb73  1  0.33139027  0.33151810  0.66848294  1
  Sb  Sb74  1  0.67160740  -0.00427472  0.66480195  1
  Sb  Sb75  1  0.33302534  0.66569943  0.33121575  1
  Sb  Sb76  1  0.33278105  0.83189949  0.82991118  1
  Sb  Sb77  1  0.66359394  0.17365497  0.16850837  1
  Sb  Sb78  1  0.00351813  0.16277548  0.16639235  1
  Sb  Sb79  1  0.16482234  0.66311687  0.83076451  1
  Sb  Sb80  1  0.50467608  0.50149467  -0.00290374  1
  Sb  Sb81  1  0.33319029  -0.00093729  0.33840633  1
  Sb  Sb82  1  0.50721456  0.33527393  0.49999202  1
  Sb  Sb83  1  0.16859327  0.33766600  0.16581603  1
  Sb  Sb84  1  0.83460880  -0.00254254  0.16589141  1
  Sb  Sb85  1  0.33155099  -0.00401193  -0.00663105  1
  Sb  Sb86  1  0.33408053  0.67031034  0.66888095  1
  Sb  Sb87  1  0.33709387  0.50495243  0.50265275  1
  Sb  Sb88  1  0.67420913  0.33740380  -0.00533554  1
  Sb  Sb89  1  0.67320066  0.66419526  -0.00569907  1
  Sb  Sb90  1  -0.00089463  -0.00328636  -0.00744579  1
  Sb  Sb91  1  0.50658894  0.66630847  0.50682187  1
  Sb  Sb92  1  0.83495381  0.83123547  0.33915328  1
  Sb  Sb93  1  0.49661262  0.66238578  0.16357301  1
  Sb  Sb94  1  0.16306525  0.50381652  0.66743433  1
  Sb  Sb95  1  0.66872659  -0.00013494  -0.00261703  1
  Sb  Sb96  1  0.16586581  -0.00585654  0.17231654  1
  Sb  Sb97  1  0.83873327  0.16991432  -0.00210956  1
  Sb  Sb98  1  0.50332088  0.82944264  -0.00753634  1
  Sb  Sb99  1  0.83132305  0.66884321  0.82476197  1
  Sb  Sb100  1  -0.00273844  0.50624512  0.16166730  1
  Sb  Sb101  1  0.50126310  -0.00267156  0.50673632  1
  Sb  Sb102  1  0.32825843  0.16276286  0.50307224  1
  Sb  Sb103  1  0.83811370  0.33446832  0.82584173  1
  Sb  Sb104  1  0.83472673  0.16886609  0.66355475  1
  Sb  Sb105  1  0.50861464  0.17164570  0.33302672  1
  Sb  Sb106  1  0.83609221  -0.00108486  0.50598270  1
  Sb  Sb107  1  0.50317608  0.82736709  0.33894585  1
  Te  Te108  1  0.17233380  0.16732436  0.16441430  1
  Te  Te109  1  0.16185608  0.16962141  0.49913178  1
  Te  Te110  1  0.16387537  0.16969183  0.83479763  1
  Te  Te111  1  0.17318203  0.50512004  0.16662985  1
  Te  Te112  1  0.16893690  0.50046824  0.49941785  1
  Te  Te113  1  0.17143975  0.49407786  0.83352382  1
  Te  Te114  1  0.16710361  0.82900734  0.16510066  1
  Te  Te115  1  0.16653278  0.83192258  0.50468647  1
  Te  Te116  1  0.16129444  0.83442122  0.82733152  1
  Te  Te117  1  0.49324508  0.16975787  0.16531692  1
  Te  Te118  1  0.50232617  0.16643224  0.49952558  1
  Te  Te119  1  0.50211150  0.16556991  0.83343168  1
  Te  Te120  1  0.50063677  0.49937818  0.16537403  1
  Te  Te121  1  0.50319380  0.50038197  0.50079920  1
  Te  Te122  1  0.50064457  0.50099344  0.83073492  1
  Te  Te123  1  0.49539818  0.83394263  0.16539873  1
  Te  Te124  1  0.49904168  0.83280887  0.50688694  1
  Te  Te125  1  0.50036838  0.83251547  0.82894427  1
  Te  Te126  1  0.83310111  0.16603138  0.17171619  1
  Te  Te127  1  0.83491579  0.16478487  0.49784886  1
  Te  Te128  1  0.83395263  0.16272450  0.83417312  1
  Te  Te129  1  0.82734794  0.50018202  0.17007543  1
  Te  Te130  1  0.83166690  0.50072005  0.50378900  1
  Te  Te131  1  0.83249040  0.49930017  0.82891316  1
  Te  Te132  1  0.83731285  0.83302432  0.16071738  1
  Te  Te133  1  0.82775278  0.82930515  0.50506927  1
  Te  Te134  1  0.83351237  0.83152661  0.83064863  1
  Te  Te135  1  0.16608491  0.00709139  0.00310432  1
  Te  Te136  1  0.16122558  0.00028962  0.34177718  1
  Te  Te137  1  0.16305209  -0.00290130  0.66232650  1
  Te  Te138  1  0.16104768  0.33040355  -0.00197895  1
  Te  Te139  1  0.16570967  0.33366642  0.33958129  1
  Te  Te140  1  0.16384209  0.33426884  0.66661024  1
  Te  Te141  1  0.16394899  0.66743752  0.00208518  1
  Te  Te142  1  0.16092534  0.66684430  0.33486069  1
  Te  Te143  1  0.16287434  0.67075502  0.66287267  1
  Te  Te144  1  0.50012610  -0.00097614  -0.01015585  1
  Te  Te145  1  0.50437124  -0.00065857  0.33373601  1
  Te  Te146  1  0.49628029  -0.00303831  0.67083360  1
  Te  Te147  1  0.50095906  0.33418335  0.00668485  1
  Te  Te148  1  0.50625284  0.33883549  0.33002394  1
  Te  Te149  1  0.50293727  0.33932912  0.66765185  1
  Te  Te150  1  0.49499776  0.66645363  -0.00748602  1
  Te  Te151  1  0.50494025  0.66084404  0.33314435  1
  Te  Te152  1  0.50020570  0.66710104  0.67067418  1
  Te  Te153  1  0.83349118  -0.00188313  -0.00622701  1
  Te  Te154  1  0.83519981  -0.00023616  0.33299557  1
  Te  Te155  1  0.83968629  -0.00523361  0.67164436  1
  Te  Te156  1  0.84188385  0.33825438  0.00227636  1
  Te  Te157  1  0.82843533  0.33455740  0.33870189  1
  Te  Te158  1  0.83415721  0.33497791  0.66090939  1
  Te  Te159  1  0.83947508  0.66469952  0.00447351  1
  Te  Te160  1  0.83252573  0.66568880  0.33824337  1
  Te  Te161  1  0.83384024  0.66658231  0.66327938  1
  Te  Te162  1  0.00356966  0.16699355  -0.00194870  1
  Te  Te163  1  -0.00625650  0.16575290  0.33424761  1
  Te  Te164  1  -0.00059903  0.17085663  0.66638039  1
  Te  Te165  1  -0.00345099  0.50220603  -0.00451978  1
  Te  Te166  1  -0.00691672  0.50602629  0.33080839  1
  Te  Te167  1  -0.00104183  0.49964446  0.67231003  1
  Te  Te168  1  -0.00211177  0.83028361  -0.00283161  1
  Te  Te169  1  -0.00105454  0.83043914  0.32881949  1
  Te  Te170  1  -0.00203012  0.83134793  0.66737959  1
  Te  Te171  1  0.32912637  0.16669885  -0.00298479  1
  Te  Te172  1  0.33472357  0.16594597  0.33017548  1
  Te  Te173  1  0.33483530  0.16136492  0.67120780  1
  Te  Te174  1  0.33397934  0.50425475  -0.00185281  1
  Te  Te175  1  0.33568166  0.50015951  0.33084144  1
  Te  Te176  1  0.33595679  0.50031320  0.67150526  1
  Te  Te177  1  0.33190053  0.82874073  0.00329310  1
  Te  Te178  1  0.33451047  0.83412752  0.33061368  1
  Te  Te179  1  0.33171674  0.83591956  0.66579115  1
  Te  Te180  1  0.66851962  0.16827527  -0.00640141  1
  Te  Te181  1  0.67180860  0.16393251  0.33348532  1
  Te  Te182  1  0.66767511  0.16479189  0.66648184  1
  Te  Te183  1  0.67483000  0.49985326  -0.00650579  1
  Te  Te184  1  0.67023790  0.50049978  0.34181865  1
  Te  Te185  1  0.66849570  0.50334989  0.66109223  1
  Te  Te186  1  0.67381896  0.83218873  -0.00287212  1
  Te  Te187  1  0.66698954  0.83672956  0.33594712  1
  Te  Te188  1  0.66765134  0.83501737  0.66736438  1
  Te  Te189  1  0.00084775  -0.00649310  0.17225021  1
  Te  Te190  1  0.00086321  0.00095337  0.50212640  1
  Te  Te191  1  -0.00284705  -0.00016801  0.82857469  1
  Te  Te192  1  0.00215978  0.33353047  0.16567351  1
  Te  Te193  1  -0.00330037  0.33191689  0.50327554  1
  Te  Te194  1  -0.00043263  0.33275628  0.83039764  1
  Te  Te195  1  0.00464477  0.66910455  0.16414826  1
  Te  Te196  1  -0.00215870  0.66573154  0.50287831  1
  Te  Te197  1  0.00117526  0.66521420  0.83090168  1
  Te  Te198  1  0.33374319  0.00061192  0.16682762  1
  Te  Te199  1  0.32827919  -0.00388426  0.50518460  1
  Te  Te200  1  0.33248125  0.00278276  0.82940848  1
  Te  Te201  1  0.33653300  0.33558051  0.16622581  1
  Te  Te202  1  0.32689277  0.33283322  0.50067491  1
  Te  Te203  1  0.32979297  0.33090187  0.83388081  1
  Te  Te204  1  0.33013211  0.66545422  0.16492006  1
  Te  Te205  1  0.32634381  0.67183667  0.49885174  1
  Te  Te206  1  0.33355368  0.66375126  0.83673275  1
  Te  Te207  1  0.66575764  0.00022099  0.17180110  1
  Te  Te208  1  0.66737715  0.00610157  0.49753361  1
  Te  Te209  1  0.66830562  0.00045119  0.83259142  1
  Te  Te210  1  0.66265860  0.33882755  0.16463378  1
  Te  Te211  1  0.66816704  0.33022938  0.50283563  1
  Te  Te212  1  0.66721935  0.33501855  0.82744530  1
  Te  Te213  1  0.66530110  0.66121564  0.16649901  1
  Te  Te214  1  0.66748681  0.66784948  0.50275926  1
  Te  Te215  1  0.66360636  0.66558590  0.83028823  1
