# generated using pymatgen
data_AgSbTe2
_symmetry_space_group_name_H-M   'P 1'
_cell_length_a   18.32565307
_cell_length_b   18.33084726
_cell_length_c   18.32532633
_cell_angle_alpha   90.00353800
_cell_angle_beta   89.99841516
_cell_angle_gamma   90.00158572
_symmetry_Int_Tables_number   1
_chemical_formula_structural   AgSbTe2
_chemical_formula_sum   'Ag54 Sb54 Te108'
_cell_volume   6155.93060231
_cell_formula_units_Z   54
loop_
 _symmetry_equiv_pos_site_id
 _symmetry_equiv_pos_as_xyz
  1  'x, y, z'
loop_
 _atom_site_type_symbol
 _atom_site_label
 _atom_site_symmetry_multiplicity
 _atom_site_fract_x
 _atom_site_fract_y
 _atom_site_fract_z
 _atom_site_occupancy
  Ag  Ag0  1  0.65507781  0.33060984  -0.01067695  1
  Ag  Ag1  1  0.16624172  0.83390768  -0.00975088  1
  Ag  Ag2  1  0.50106555  0.17901280  -0.00600908  1
  Ag  Ag3  1  0.66256020  0.50033981  0.82852723  1
  Ag  Ag4  1  0.50085328  0.17402063  0.66657399  1
  Ag  Ag5  1  0.00033111  0.83294489  0.50702815  1
  Ag  Ag6  1  0.49797985  0.33728812  0.83595096  1
  Ag  Ag7  1  0.50443454  0.82966069  0.66926711  1
  Ag  Ag8  1  0.65548026  0.33651010  0.67100330  1
  Ag  Ag9  1  0.82446714  0.50602818  0.66427191  1
  Ag  Ag10  1  0.33800538  0.65815038  0.66237006  1
  Ag  Ag11  1  0.83205577  0.16195660  0.33468559  1
  Ag  Ag12  1  0.17617976  0.15843166  0.33623252  1
  Ag  Ag13  1  0.66636889  -0.00685630  0.67166997  1
  Ag  Ag14  1  0.67463402  0.83390861  0.16117106  1
  Ag  Ag15  1  0.83792869  0.83315818  0.33124266  1
  Ag  Ag16  1  0.50302986  0.65709576  0.82562374  1
  Ag  Ag17  1  0.83607339  -0.00284640  0.82898297  1
  Ag  Ag18  1  0.65811852  0.16776172  0.50340063  1
  Ag  Ag19  1  0.65846531  0.66825326  0.66872547  1
  Ag  Ag20  1  0.83566604  0.66856188  0.49985633  1
  Ag  Ag21  1  0.16263367  0.83383544  0.66694177  1
  Ag  Ag22  1  0.33347269  0.66698040  0.34345519  1
  Ag  Ag23  1  0.49895068  0.33594716  0.15195554  1
  Ag  Ag24  1  0.17498761  0.49895436  -0.01054959  1
  Ag  Ag25  1  0.83184861  0.51037333  0.34163769  1
  Ag  Ag26  1  0.66961602  0.83566614  0.82967178  1
  Ag  Ag27  1  0.32917665  0.00519212  0.34048594  1
  Ag  Ag28  1  0.33441879  0.32763272  0.34639402  1
  Ag  Ag29  1  0.50002513  0.49569485  0.67094787  1
  Ag  Ag30  1  0.33306085  -0.00027236  0.66332860  1
  Ag  Ag31  1  0.33344261  0.33813662  0.66529147  1
  Ag  Ag32  1  0.01336452  0.32937815  0.66843864  1
  Ag  Ag33  1  0.17326672  0.49351452  0.66884697  1
  Ag  Ag34  1  0.33080352  0.49388763  0.50341313  1
  Ag  Ag35  1  0.66577534  0.00038758  -0.00875849  1
  Ag  Ag36  1  -0.00632892  0.83557579  0.16856816  1
  Ag  Ag37  1  0.16799711  0.66627996  0.50423708  1
  Ag  Ag38  1  0.49312860  0.16994432  0.33895201  1
  Ag  Ag39  1  0.00236666  0.15601323  0.82845405  1
  Ag  Ag40  1  0.49569902  0.49011051  -0.01206653  1
  Ag  Ag41  1  0.17173617  0.33745525  0.51008200  1
  Ag  Ag42  1  0.17240065  0.33235089  0.82624608  1
  Ag  Ag43  1  0.83451529  0.83265991  0.66528564  1
  Ag  Ag44  1  0.82595121  0.67701331  0.17520115  1
  Ag  Ag45  1  -0.00135253  0.83849276  0.82324317  1
  Ag  Ag46  1  0.50300326  0.66461235  0.16336268  1
  Ag  Ag47  1  0.16088297  -0.00084165  0.82925944  1
  Ag  Ag48  1  0.83501534  -0.00724638  0.16617671  1
  Ag  Ag49  1  0.34268702  0.33443441  -0.00700065  1
  Ag  Ag50  1  0.16369839  -0.00544796  0.16505130  1
  Ag  Ag51  1  0.33474992  0.17228486  0.49969670  1
  Ag  Ag52  1  0.00304557  -0.00241735  0.67195434  1
  Ag  Ag53  1  0.16285434  0.83771949  0.33636213  1
  Sb  Sb54  1  0.33394545  0.49883697  0.17074306  1
  Sb  Sb55  1  0.49728611  0.66551555  0.50586707  1
  Sb  Sb56  1  0.00004595  0.16031964  0.16408555  1
  Sb  Sb57  1  0.50093841  0.49581209  0.33561096  1
  Sb  Sb58  1  0.82731441  0.67297760  0.82749597  1
  Sb  Sb59  1  0.83564526  0.83452143  -0.00026613  1
  Sb  Sb60  1  0.00580380  0.33068515  0.33914657  1
  Sb  Sb61  1  0.33535689  0.16736906  0.17547410  1
  Sb  Sb62  1  0.66713935  0.16530122  0.82746396  1
  Sb  Sb63  1  0.82798047  0.16340349  0.66261729  1
  Sb  Sb64  1  0.33502250  0.66100336  -0.00287967  1
  Sb  Sb65  1  0.82700730  0.16381566  0.00118782  1
  Sb  Sb66  1  0.66424398  0.66779865  -0.00562916  1
  Sb  Sb67  1  0.66369831  0.49643126  0.50906009  1
  Sb  Sb68  1  0.17356019  0.16692643  0.66265679  1
  Sb  Sb69  1  0.49911866  0.83537037  0.33654640  1
  Sb  Sb70  1  0.33240930  0.83352110  0.16881844  1
  Sb  Sb71  1  -0.00232686  0.50244168  0.82840670  1
  Sb  Sb72  1  0.83372780  -0.00499075  0.50244182  1
  Sb  Sb73  1  0.00289463  0.16302245  0.50562537  1
  Sb  Sb74  1  0.00341361  0.33275126  -0.00817073  1
  Sb  Sb75  1  0.00363477  0.50406907  0.50435247  1
  Sb  Sb76  1  0.66484574  0.16258994  0.16910640  1
  Sb  Sb77  1  0.67270554  0.83465197  0.50762175  1
  Sb  Sb78  1  0.66547031  -0.00031403  0.33541023  1
  Sb  Sb79  1  0.83172884  0.32952318  0.82888809  1
  Sb  Sb80  1  0.82889671  0.50015852  -0.00425502  1
  Sb  Sb81  1  0.83754362  0.33706194  0.50276828  1
  Sb  Sb82  1  -0.00222158  -0.00191188  -0.00696388  1
  Sb  Sb83  1  0.17277505  0.32947170  0.16530755  1
  Sb  Sb84  1  0.50100175  -0.00046136  0.16632632  1
  Sb  Sb85  1  0.16584495  0.50175501  0.33793264  1
  Sb  Sb86  1  0.82654939  0.33259424  0.16981710  1
  Sb  Sb87  1  0.33300669  0.83428091  0.82756567  1
  Sb  Sb88  1  0.49807967  0.83252249  -0.00452194  1
  Sb  Sb89  1  -0.00122948  0.50549864  0.16690246  1
  Sb  Sb90  1  0.00114736  0.67029433  0.33473356  1
  Sb  Sb91  1  0.49226798  0.33145102  0.50951179  1
  Sb  Sb92  1  0.33218768  0.16983148  0.82472061  1
  Sb  Sb93  1  0.34052148  0.49758375  0.82396333  1
  Sb  Sb94  1  0.00129517  0.66992851  0.00021747  1
  Sb  Sb95  1  0.00075461  0.67191978  0.66580752  1
  Sb  Sb96  1  0.17217935  0.66645774  0.82517015  1
  Sb  Sb97  1  0.17348680  0.16629675  -0.00034762  1
  Sb  Sb98  1  0.00343473  -0.00255212  0.33624209  1
  Sb  Sb99  1  0.32723659  0.83161360  0.50306552  1
  Sb  Sb100  1  0.66464193  0.50466592  0.16102849  1
  Sb  Sb101  1  0.16812011  -0.00273844  0.50298082  1
  Sb  Sb102  1  0.16877424  0.67325894  0.17106561  1
  Sb  Sb103  1  0.50165169  0.00173358  0.82924417  1
  Sb  Sb104  1  0.49883721  0.00297404  0.50403399  1
  Sb  Sb105  1  0.65962352  0.33103758  0.33755865  1
  Sb  Sb106  1  0.66510834  0.66742339  0.33790351  1
  Sb  Sb107  1  0.33561006  0.00515060  -0.00274282  1
  Te  Te108  1  0.16500787  0.15980052  0.17227313  1
  Te  Te109  1  0.16877247  0.17159374  0.49495733  1
  Te  Te110  1  0.16296308  0.16645617  0.83433006  1
  Te  Te111  1  0.16445980  0.50169233  0.16318224  1
  Te  Te112  1  0.16942804  0.50120188  0.50313695  1
  Te  Te113  1  0.16449032  0.49851668  0.83059026  1
  Te  Te114  1  0.16552331  0.83575582  0.17457426  1
  Te  Te115  1  0.16241403  0.83069027  0.50101576  1
  Te  Te116  1  0.16513476  0.83298117  0.82946074  1
  Te  Te117  1  0.50104460  0.16927718  0.16784381  1
  Te  Te118  1  0.49876766  0.16746220  0.49989807  1
  Te  Te119  1  0.49995539  0.17178703  0.83110591  1
  Te  Te120  1  0.50065139  0.50096983  0.16705663  1
  Te  Te121  1  0.49374627  0.49935583  0.50475915  1
  Te  Te122  1  0.50250983  0.49858899  0.83138624  1
  Te  Te123  1  0.50478141  0.82982682  0.16600969  1
  Te  Te124  1  0.50257548  0.83348879  0.50660360  1
  Te  Te125  1  0.50408328  0.83217843  0.82887977  1
  Te  Te126  1  0.83357581  0.16107296  0.17237869  1
  Te  Te127  1  0.83458952  0.16716445  0.49414604  1
  Te  Te128  1  0.83956846  0.15946922  0.83356099  1
  Te  Te129  1  0.83312767  0.50325613  0.16935344  1
  Te  Te130  1  0.83391212  0.50510213  0.50266202  1
  Te  Te131  1  0.82653481  0.50151810  0.82677764  1
  Te  Te132  1  0.83312873  0.83492247  0.16354499  1
  Te  Te133  1  0.83733059  0.82964923  0.50075512  1
  Te  Te134  1  0.83248128  0.83722992  0.83307865  1
  Te  Te135  1  0.16803851  -0.00306839  0.00014579  1
  Te  Te136  1  0.16851059  -0.00137397  0.33434814  1
  Te  Te137  1  0.16764656  0.00036968  0.66883750  1
  Te  Te138  1  0.17057870  0.33599574  -0.00346759  1
  Te  Te139  1  0.17336964  0.33280056  0.33254400  1
  Te  Te140  1  0.17042530  0.33008606  0.66856589  1
  Te  Te141  1  0.16925280  0.66698512  -0.00022096  1
  Te  Te142  1  0.17203129  0.66969452  0.33837812  1
  Te  Te143  1  0.16942864  0.66925920  0.66351049  1
  Te  Te144  1  0.50456035  0.00191343  -0.00138806  1
  Te  Te145  1  0.49349831  0.00504366  0.33215243  1
  Te  Te146  1  0.49921842  -0.00173120  0.66873882  1
  Te  Te147  1  0.50025977  0.33476471  -0.00338849  1
  Te  Te148  1  0.49438389  0.32978236  0.33141906  1
  Te  Te149  1  0.49655544  0.33419201  0.67046412  1
  Te  Te150  1  0.49885427  0.66363903  0.00247037  1
  Te  Te151  1  0.49473351  0.66572465  0.33125964  1
  Te  Te152  1  0.49881344  0.66763892  0.66659721  1
  Te  Te153  1  0.82613954  0.00058092  0.00058864  1
  Te  Te154  1  0.83336489  -0.00416929  0.33094186  1
  Te  Te155  1  0.83081296  -0.00325790  0.66850721  1
  Te  Te156  1  0.82766467  0.33348257  0.00069218  1
  Te  Te157  1  0.83374026  0.32957455  0.33425691  1
  Te  Te158  1  0.83085335  0.33652938  0.66660285  1
  Te  Te159  1  0.83285129  0.66401260  0.00939313  1
  Te  Te160  1  0.83247140  0.67066243  0.33512860  1
  Te  Te161  1  0.83385924  0.66878203  0.66483420  1
  Te  Te162  1  0.00061626  0.16716481  -0.00799938  1
  Te  Te163  1  -0.00348128  0.16547647  0.33312551  1
  Te  Te164  1  -0.00237889  0.16571056  0.66992167  1
  Te  Te165  1  0.00647446  0.50007097  -0.00177663  1
  Te  Te166  1  -0.00924663  0.49844882  0.33379157  1
  Te  Te167  1  0.00316890  0.49366069  0.66677252  1
  Te  Te168  1  0.00835237  0.83433122  0.00473761  1
  Te  Te169  1  -0.00053992  0.83462978  0.33098708  1
  Te  Te170  1  0.00011581  0.83455339  0.66676476  1
  Te  Te171  1  0.34070877  0.17225325  0.00083773  1
  Te  Te172  1  0.33323658  0.16648442  0.33732408  1
  Te  Te173  1  0.33926632  0.16453281  0.66105687  1
  Te  Te174  1  0.33417792  0.49576193  0.00312378  1
  Te  Te175  1  0.33272858  0.50150869  0.33980801  1
  Te  Te176  1  0.33252054  0.49985280  0.66397192  1
  Te  Te177  1  0.32563398  0.83452934  -0.00040595  1
  Te  Te178  1  0.33196172  0.83396086  0.33620811  1
  Te  Te179  1  0.33176832  0.83949806  0.66515833  1
  Te  Te180  1  0.66114110  0.16662339  0.00069261  1
  Te  Te181  1  0.66737638  0.16551696  0.33982507  1
  Te  Te182  1  0.66248022  0.16776319  0.66396499  1
  Te  Te183  1  0.66145361  0.49737263  -0.00642957  1
  Te  Te184  1  0.67363618  0.49887330  0.33447822  1
  Te  Te185  1  0.66479631  0.49903232  0.66857215  1
  Te  Te186  1  0.66583385  0.83645156  -0.00311375  1
  Te  Te187  1  0.66929865  0.83360521  0.33041644  1
  Te  Te188  1  0.66858927  0.83353679  0.66791732  1
  Te  Te189  1  0.00001937  -0.00426157  0.16562306  1
  Te  Te190  1  0.00048206  -0.00523306  0.50967037  1
  Te  Te191  1  0.00036308  -0.00356696  0.83149563  1
  Te  Te192  1  -0.00114611  0.33286789  0.16524302  1
  Te  Te193  1  0.00899609  0.33304718  0.50669779  1
  Te  Te194  1  0.00251635  0.33449506  0.82751759  1
  Te  Te195  1  -0.00423871  0.67346850  0.16752239  1
  Te  Te196  1  0.00085027  0.67220468  0.49937928  1
  Te  Te197  1  -0.00151192  0.67673193  0.83438987  1
  Te  Te198  1  0.32793425  0.00002112  0.16832065  1
  Te  Te199  1  0.33293626  0.00563808  0.50067809  1
  Te  Te200  1  0.32553902  0.00219388  0.82902695  1
  Te  Te201  1  0.33835300  0.33340420  0.16308872  1
  Te  Te202  1  0.33039092  0.33318618  0.50293584  1
  Te  Te203  1  0.33263472  0.33312210  0.83123647  1
  Te  Te204  1  0.33850420  0.66615917  0.16977149  1
  Te  Te205  1  0.33162722  0.66618444  0.50254274  1
  Te  Te206  1  0.34179685  0.66690844  0.82652591  1
  Te  Te207  1  0.66961959  -0.00520879  0.16727752  1
  Te  Te208  1  0.66730921  0.00650122  0.50724683  1
  Te  Te209  1  0.66784909  -0.00090764  0.83190327  1
  Te  Te210  1  0.65997209  0.33448951  0.16533778  1
  Te  Te211  1  0.66930695  0.32881801  0.50599658  1
  Te  Te212  1  0.66592674  0.33139484  0.83122493  1
  Te  Te213  1  0.66586459  0.67148338  0.16743253  1
  Te  Te214  1  0.67171769  0.66534670  0.50699383  1
  Te  Te215  1  0.66257575  0.66853067  0.82852663  1
