# generated using pymatgen
data_AgSbTe2
_symmetry_space_group_name_H-M   'P 1'
_cell_length_a   18.30872582
_cell_length_b   18.30605597
_cell_length_c   18.30961030
_cell_angle_alpha   90.00264676
_cell_angle_beta   90.00199759
_cell_angle_gamma   89.99687282
_symmetry_Int_Tables_number   1
_chemical_formula_structural   AgSbTe2
_chemical_formula_sum   'Ag54 Sb54 Te108'
_cell_volume   6136.65921198
_cell_formula_units_Z   54
loop_
 _symmetry_equiv_pos_site_id
 _symmetry_equiv_pos_as_xyz
  1  'x, y, z'
loop_
 _atom_site_type_symbol
 _atom_site_label
 _atom_site_symmetry_multiplicity
 _atom_site_fract_x
 _atom_site_fract_y
 _atom_site_fract_z
 _atom_site_occupancy
  Ag  Ag0  1  0.33394756  0.83957067  0.83150784  1
  Ag  Ag1  1  -0.00701931  0.32834490  0.34454518  1
  Ag  Ag2  1  0.82980144  0.49313261  -0.00008395  1
  Ag  Ag3  1  0.00195204  0.66777897  0.00662032  1
  Ag  Ag4  1  0.33456221  0.16259054  0.16110534  1
  Ag  Ag5  1  0.83397358  0.66864696  0.17010317  1
  Ag  Ag6  1  0.34287697  0.49949511  0.83986097  1
  Ag  Ag7  1  0.50117166  0.50102120  0.32663963  1
  Ag  Ag8  1  0.33758073  -0.00399502  0.67574471  1
  Ag  Ag9  1  0.16736255  0.83244258  -0.00535766  1
  Ag  Ag10  1  0.66595247  0.83533039  0.16100409  1
  Ag  Ag11  1  0.67173681  0.49969532  0.50481130  1
  Ag  Ag12  1  0.82894010  -0.00022399  0.83436570  1
  Ag  Ag13  1  0.83448266  0.83452213  0.33325304  1
  Ag  Ag14  1  -0.00624728  0.33159890  0.65621221  1
  Ag  Ag15  1  0.50139172  0.50040706  0.00011450  1
  Ag  Ag16  1  0.16772902  0.33415244  0.83142056  1
  Ag  Ag17  1  0.15338615  0.32986919  0.50474693  1
  Ag  Ag18  1  0.66267069  0.49665908  0.83314378  1
  Ag  Ag19  1  -0.00775352  0.16641758  0.17010584  1
  Ag  Ag20  1  0.83113758  0.65956447  0.49427141  1
  Ag  Ag21  1  0.67165409  0.33417355  0.66950873  1
  Ag  Ag22  1  0.33193203  -0.00402095  -0.00447878  1
  Ag  Ag23  1  0.33843977  0.50375709  0.15840208  1
  Ag  Ag24  1  0.49763005  -0.00339690  0.16077131  1
  Ag  Ag25  1  0.33189479  -0.00008376  0.32953835  1
  Ag  Ag26  1  0.83705411  0.16656176  0.33080611  1
  Ag  Ag27  1  0.66288414  -0.00265285  0.67078487  1
  Ag  Ag28  1  0.67418628  0.33403645  0.33405256  1
  Ag  Ag29  1  0.83301204  0.16809132  0.66705802  1
  Ag  Ag30  1  0.33487260  0.15698916  0.83879882  1
  Ag  Ag31  1  0.67288064  0.33615438  -0.00299627  1
  Ag  Ag32  1  0.84028434  0.33660315  0.49876362  1
  Ag  Ag33  1  0.00462759  0.83592251  0.83618035  1
  Ag  Ag34  1  0.50614945  0.66557939  0.49617340  1
  Ag  Ag35  1  0.50086948  0.33526622  0.83390273  1
  Ag  Ag36  1  0.17449634  0.83511613  0.67344176  1
  Ag  Ag37  1  0.33042118  0.66999053  0.00225205  1
  Ag  Ag38  1  -0.00652027  0.33099485  -0.00089468  1
  Ag  Ag39  1  0.16614233  0.00087643  0.50042346  1
  Ag  Ag40  1  0.49702934  -0.00211998  0.83572818  1
  Ag  Ag41  1  0.49858302  0.83473082  0.67003947  1
  Ag  Ag42  1  0.33212825  0.83493449  0.50807980  1
  Ag  Ag43  1  0.66351361  0.83582661  0.83285521  1
  Ag  Ag44  1  0.67315721  0.16414233  0.16503510  1
  Ag  Ag45  1  0.00152005  -0.00007559  0.00100658  1
  Ag  Ag46  1  -0.00167801  0.00563517  0.33029597  1
  Ag  Ag47  1  0.16235038  0.66792760  0.16312557  1
  Ag  Ag48  1  -0.00274874  0.17635767  0.49191060  1
  Ag  Ag49  1  -0.00953237  0.48898830  0.49710336  1
  Ag  Ag50  1  -0.00532862  0.66728900  0.32850526  1
  Ag  Ag51  1  0.83631064  0.17065761  0.00247617  1
  Ag  Ag52  1  0.66656255  0.66688928  0.66550428  1
  Ag  Ag53  1  0.50142552  0.66716060  0.16757599  1
  Sb  Sb54  1  0.50060568  0.66837322  0.83574271  1
  Sb  Sb55  1  0.83162884  0.67075256  0.83454971  1
  Sb  Sb56  1  0.33352557  0.32695183  0.67047459  1
  Sb  Sb57  1  0.50336834  0.83073756  0.33442582  1
  Sb  Sb58  1  0.67015061  0.66239377  0.33498921  1
  Sb  Sb59  1  -0.00358135  0.83469512  0.16347487  1
  Sb  Sb60  1  0.15813628  0.16573896  0.33286757  1
  Sb  Sb61  1  0.33568784  0.50433128  0.50106272  1
  Sb  Sb62  1  0.00124717  0.16481317  0.83566463  1
  Sb  Sb63  1  0.50321539  0.50513235  0.67105655  1
  Sb  Sb64  1  -0.00017889  0.00299325  0.66787958  1
  Sb  Sb65  1  0.83313907  0.33362564  0.16800285  1
  Sb  Sb66  1  0.66397627  0.49990312  0.16456447  1
  Sb  Sb67  1  0.50517081  0.16216358  0.66865409  1
  Sb  Sb68  1  0.83074944  -0.00010017  0.16335786  1
  Sb  Sb69  1  0.16359546  0.83507130  0.33242491  1
  Sb  Sb70  1  0.66848869  0.00323183  0.33518571  1
  Sb  Sb71  1  0.33808445  0.83417709  0.16272208  1
  Sb  Sb72  1  0.00073746  0.49966602  0.16866453  1
  Sb  Sb73  1  0.00255570  0.83425542  0.50178097  1
  Sb  Sb74  1  0.49653479  0.83036315  -0.00391254  1
  Sb  Sb75  1  0.16980281  -0.00382494  0.16787485  1
  Sb  Sb76  1  0.33855672  0.67394851  0.67221788  1
  Sb  Sb77  1  0.16812938  0.49938413  0.33303133  1
  Sb  Sb78  1  0.83161038  0.32859806  0.83260824  1
  Sb  Sb79  1  0.50293150  0.16975559  -0.00005993  1
  Sb  Sb80  1  -0.00306499  0.49988059  0.83422321  1
  Sb  Sb81  1  0.50540253  0.16992400  0.32979886  1
  Sb  Sb82  1  -0.00494486  0.66390292  0.66556970  1
  Sb  Sb83  1  0.33311929  0.32912195  0.33321756  1
  Sb  Sb84  1  0.16800404  0.50340058  -0.00010327  1
  Sb  Sb85  1  0.17024170  -0.00025197  0.83092866  1
  Sb  Sb86  1  0.16241698  0.16286225  -0.00062732  1
  Sb  Sb87  1  0.66633110  0.00259979  -0.00354219  1
  Sb  Sb88  1  0.66430687  0.82792515  0.50317661  1
  Sb  Sb89  1  0.49563243  -0.00613519  0.50220747  1
  Sb  Sb90  1  0.16713283  0.50154005  0.66775299  1
  Sb  Sb91  1  0.50466328  0.33972046  0.50471240  1
  Sb  Sb92  1  0.67436047  0.17369641  0.49806964  1
  Sb  Sb93  1  0.66482842  0.16695776  0.83602258  1
  Sb  Sb94  1  0.33151289  0.67045474  0.32701184  1
  Sb  Sb95  1  0.83689554  0.83426210  0.00124983  1
  Sb  Sb96  1  0.83080670  0.83719774  0.66476967  1
  Sb  Sb97  1  0.33243304  0.33260336  -0.00287086  1
  Sb  Sb98  1  0.16299711  0.16401802  0.66749498  1
  Sb  Sb99  1  0.66773061  0.66273625  -0.00124217  1
  Sb  Sb100  1  0.32657494  0.15995890  0.49937056  1
  Sb  Sb101  1  0.16416112  0.66798660  0.49578322  1
  Sb  Sb102  1  0.50166674  0.33487615  0.16177932  1
  Sb  Sb103  1  0.83021510  0.49500054  0.66782160  1
  Sb  Sb104  1  0.83073857  0.49852558  0.33269153  1
  Sb  Sb105  1  0.83685760  0.00248459  0.50205633  1
  Sb  Sb106  1  0.16787192  0.66742885  0.83788407  1
  Sb  Sb107  1  0.16395447  0.33597567  0.16524671  1
  Te  Te108  1  0.17206808  0.16696712  0.16582975  1
  Te  Te109  1  0.15897186  0.16709474  0.50043131  1
  Te  Te110  1  0.17422259  0.17375926  0.83317172  1
  Te  Te111  1  0.17593125  0.50621010  0.16684047  1
  Te  Te112  1  0.16510736  0.49702558  0.50060977  1
  Te  Te113  1  0.16953566  0.49438630  0.83285620  1
  Te  Te114  1  0.16718159  0.82739776  0.16145940  1
  Te  Te115  1  0.17055240  0.83567984  0.50197045  1
  Te  Te116  1  0.16819761  0.83340814  0.83408003  1
  Te  Te117  1  0.49817451  0.16274726  0.16609962  1
  Te  Te118  1  0.49910445  0.16878942  0.49917029  1
  Te  Te119  1  0.49460131  0.16340914  0.83393040  1
  Te  Te120  1  0.49749228  0.50130820  0.16397340  1
  Te  Te121  1  0.50329591  0.50624649  0.49920150  1
  Te  Te122  1  0.50244319  0.50115810  0.83683551  1
  Te  Te123  1  0.50607421  0.83359433  0.16643788  1
  Te  Te124  1  0.49639127  0.82691242  0.50313464  1
  Te  Te125  1  0.50154280  0.83486108  0.83083157  1
  Te  Te126  1  0.83349971  0.16622424  0.16536787  1
  Te  Te127  1  0.83821406  0.16996679  0.49817038  1
  Te  Te128  1  0.83294952  0.16052407  0.83580699  1
  Te  Te129  1  0.83260676  0.50698344  0.16049456  1
  Te  Te130  1  0.83187770  0.49874564  0.49970890  1
  Te  Te131  1  0.82761249  0.50095617  0.83908038  1
  Te  Te132  1  0.82796922  0.83085666  0.17077667  1
  Te  Te133  1  0.83338020  0.83052958  0.49467514  1
  Te  Te134  1  0.82867915  0.83914867  0.83268814  1
  Te  Te135  1  0.16561885  -0.00495877  -0.00022502  1
  Te  Te136  1  0.16521972  -0.00087803  0.33736790  1
  Te  Te137  1  0.16892987  -0.00384003  0.66276035  1
  Te  Te138  1  0.16105267  0.33379323  -0.00348250  1
  Te  Te139  1  0.16048688  0.33347441  0.33754583  1
  Te  Te140  1  0.16514138  0.33359297  0.66686728  1
  Te  Te141  1  0.16522063  0.66997682  0.00321364  1
  Te  Te142  1  0.16002095  0.66739375  0.32618262  1
  Te  Te143  1  0.16489502  0.67433937  0.66553176  1
  Te  Te144  1  0.49714260  0.00031304  -0.00062089  1
  Te  Te145  1  0.49879880  -0.00013585  0.33063544  1
  Te  Te146  1  0.50029236  -0.00395819  0.66882572  1
  Te  Te147  1  0.50331712  0.33749843  -0.00585377  1
  Te  Te148  1  0.50260232  0.33891327  0.33480947  1
  Te  Te149  1  0.50442228  0.33243521  0.67318110  1
  Te  Te150  1  0.49771014  0.66237311  0.00500314  1
  Te  Te151  1  0.49966265  0.66314744  0.33128355  1
  Te  Te152  1  0.50515633  0.67197180  0.66279496  1
  Te  Te153  1  0.83657909  0.00327976  -0.00371939  1
  Te  Te154  1  0.83642487  0.00155216  0.33341491  1
  Te  Te155  1  0.83075758  0.00527431  0.67015572  1
  Te  Te156  1  0.83261283  0.33269059  0.00011270  1
  Te  Te157  1  0.83374644  0.33235744  0.33451999  1
  Te  Te158  1  0.83242386  0.32974318  0.66610169  1
  Te  Te159  1  0.83643336  0.66609636  0.00304786  1
  Te  Te160  1  0.83598720  0.66438409  0.33319611  1
  Te  Te161  1  0.82784558  0.66655916  0.66109271  1
  Te  Te162  1  -0.00302856  0.16447175  0.00233642  1
  Te  Te163  1  -0.00385862  0.16634547  0.33050897  1
  Te  Te164  1  -0.00474600  0.17131811  0.66738817  1
  Te  Te165  1  -0.00333402  0.50124325  0.00059161  1
  Te  Te166  1  0.00014810  0.49880024  0.33632077  1
  Te  Te167  1  -0.00089938  0.49433200  0.66275803  1
  Te  Te168  1  0.00215784  0.83424882  -0.00280755  1
  Te  Te169  1  -0.00419267  0.83431071  0.33323957  1
  Te  Te170  1  0.00122410  0.83309747  0.67419739  1
  Te  Te171  1  0.33329490  0.16412173  -0.00005067  1
  Te  Te172  1  0.33521938  0.16024939  0.33068035  1
  Te  Te173  1  0.33390972  0.15789384  0.66882121  1
  Te  Te174  1  0.33459288  0.49939929  -0.00045207  1
  Te  Te175  1  0.33965990  0.49958063  0.33104786  1
  Te  Te176  1  0.33490881  0.50152997  0.67328844  1
  Te  Te177  1  0.33115182  0.83376961  -0.00385079  1
  Te  Te178  1  0.33379809  0.83917818  0.33571827  1
  Te  Te179  1  0.33423383  0.83503944  0.67046018  1
  Te  Te180  1  0.67093874  0.17046539  0.00485185  1
  Te  Te181  1  0.67318800  0.17164679  0.32868252  1
  Te  Te182  1  0.67235722  0.16840885  0.66630979  1
  Te  Te183  1  0.66629570  0.49701217  -0.00261134  1
  Te  Te184  1  0.66282824  0.49467791  0.33461451  1
  Te  Te185  1  0.66637157  0.49810178  0.66912548  1
  Te  Te186  1  0.66661633  0.83328815  -0.00230031  1
  Te  Te187  1  0.67207021  0.83403245  0.33142648  1
  Te  Te188  1  0.66511133  0.83526922  0.66989410  1
  Te  Te189  1  0.00058335  0.00332887  0.16677675  1
  Te  Te190  1  0.00374149  0.00162040  0.49761961  1
  Te  Te191  1  0.00097290  -0.00300310  0.83646033  1
  Te  Te192  1  0.00081447  0.32987131  0.16019945  1
  Te  Te193  1  -0.00208472  0.33293116  0.50066567  1
  Te  Te194  1  0.00201330  0.33381671  0.83921558  1
  Te  Te195  1  -0.00241952  0.66691607  0.16622916  1
  Te  Te196  1  -0.00391295  0.66565397  0.49667665  1
  Te  Te197  1  -0.00023092  0.67022692  0.83695469  1
  Te  Te198  1  0.33621350  0.00100830  0.16452070  1
  Te  Te199  1  0.33005962  -0.00438378  0.49885457  1
  Te  Te200  1  0.33381943  -0.00071998  0.83556232  1
  Te  Te201  1  0.33274734  0.32991161  0.16718409  1
  Te  Te202  1  0.33025577  0.33320818  0.50109688  1
  Te  Te203  1  0.33640626  0.33712910  0.83224008  1
  Te  Te204  1  0.33893010  0.66639716  0.16293689  1
  Te  Te205  1  0.33420269  0.67180060  0.49887112  1
  Te  Te206  1  0.33384129  0.66489259  0.84028475  1
  Te  Te207  1  0.66177049  0.00047582  0.16725201  1
  Te  Te208  1  0.66555000  0.00117972  0.50670158  1
  Te  Te209  1  0.66278486  0.00024958  0.83129864  1
  Te  Te210  1  0.66598437  0.32904401  0.16591729  1
  Te  Te211  1  0.66935408  0.33901720  0.50215151  1
  Te  Te212  1  0.66554386  0.33390591  0.83384439  1
  Te  Te213  1  0.66569911  0.66984709  0.16714502  1
  Te  Te214  1  0.66784958  0.66253282  0.50183512  1
  Te  Te215  1  0.66675977  0.66792089  0.82831637  1
