# generated using pymatgen
data_AgSbTe2
_symmetry_space_group_name_H-M   'P 1'
_cell_length_a   18.33745570
_cell_length_b   18.33564168
_cell_length_c   18.33570159
_cell_angle_alpha   90.00006307
_cell_angle_beta   89.99996802
_cell_angle_gamma   89.99939136
_symmetry_Int_Tables_number   1
_chemical_formula_structural   AgSbTe2
_chemical_formula_sum   'Ag54 Sb54 Te108'
_cell_volume   6164.99492162
_cell_formula_units_Z   54
loop_
 _symmetry_equiv_pos_site_id
 _symmetry_equiv_pos_as_xyz
  1  'x, y, z'
loop_
 _atom_site_type_symbol
 _atom_site_label
 _atom_site_symmetry_multiplicity
 _atom_site_fract_x
 _atom_site_fract_y
 _atom_site_fract_z
 _atom_site_occupancy
  Ag  Ag0  1  0.66890050  -0.00549458  0.33439311  1
  Ag  Ag1  1  0.33280095  0.16103271  0.17106603  1
  Ag  Ag2  1  0.49273903  0.50306968  0.33258260  1
  Ag  Ag3  1  0.32236507  0.16529554  0.48836287  1
  Ag  Ag4  1  0.16358607  0.50621261  -0.00039138  1
  Ag  Ag5  1  -0.00064765  0.67066480  0.33423248  1
  Ag  Ag6  1  0.32029763  0.00493210  0.32602920  1
  Ag  Ag7  1  0.83337918  -0.00605411  0.16780051  1
  Ag  Ag8  1  0.49507660  0.50270812  -0.00279369  1
  Ag  Ag9  1  0.83540415  0.66914217  0.84031710  1
  Ag  Ag10  1  0.49140387  0.00270257  0.16603263  1
  Ag  Ag11  1  0.00275294  0.50191289  0.83685838  1
  Ag  Ag12  1  0.66879052  -0.00952805  0.65845382  1
  Ag  Ag13  1  0.00233260  0.34775357  -0.00176107  1
  Ag  Ag14  1  0.00358456  0.50739281  0.50115578  1
  Ag  Ag15  1  0.16776119  0.33020301  0.17438785  1
  Ag  Ag16  1  0.49970348  0.50151108  0.67111599  1
  Ag  Ag17  1  0.67195542  0.83390503  0.83093248  1
  Ag  Ag18  1  0.32443588  0.50059225  0.83801681  1
  Ag  Ag19  1  -0.00221224  0.66494593  -0.00058081  1
  Ag  Ag20  1  0.16368049  0.00290371  0.48850070  1
  Ag  Ag21  1  0.32637693  0.32971795  0.33238580  1
  Ag  Ag22  1  0.16863565  0.15789080  0.33509147  1
  Ag  Ag23  1  0.84635581  0.51074594  -0.00181330  1
  Ag  Ag24  1  0.83721786  0.82886641  0.00289788  1
  Ag  Ag25  1  0.49794381  0.15926888  0.00367637  1
  Ag  Ag26  1  0.32921799  -0.00467579  0.00777039  1
  Ag  Ag27  1  0.00545543  0.16348190  0.49856999  1
  Ag  Ag28  1  0.49881031  0.33862222  0.83682447  1
  Ag  Ag29  1  0.15817445  0.84492283  0.33362966  1
  Ag  Ag30  1  -0.00021470  0.83154988  0.49552327  1
  Ag  Ag31  1  0.49859621  0.83235441  -0.00008268  1
  Ag  Ag32  1  0.67821275  0.66985762  0.66309568  1
  Ag  Ag33  1  0.67281700  0.83713966  0.49945090  1
  Ag  Ag34  1  0.84174840  0.82961354  0.32907740  1
  Ag  Ag35  1  0.16338885  0.83092848  0.66150255  1
  Ag  Ag36  1  0.68229156  0.67271139  0.33676676  1
  Ag  Ag37  1  0.83422819  0.67141910  0.16658577  1
  Ag  Ag38  1  0.16560153  0.50017893  0.33292481  1
  Ag  Ag39  1  0.83763517  -0.01066324  0.83893966  1
  Ag  Ag40  1  0.84550072  0.51063650  0.33140077  1
  Ag  Ag41  1  0.16553829  0.32822312  0.49125400  1
  Ag  Ag42  1  0.66048474  0.16031909  0.17301301  1
  Ag  Ag43  1  0.16395385  0.83124512  0.00182951  1
  Ag  Ag44  1  0.15868402  0.50560343  0.66696188  1
  Ag  Ag45  1  -0.00448354  0.66219229  0.66608901  1
  Ag  Ag46  1  0.17291714  0.00268468  0.17600122  1
  Ag  Ag47  1  0.00187819  0.16601489  0.83292839  1
  Ag  Ag48  1  0.84298168  0.50758464  0.67043803  1
  Ag  Ag49  1  0.32345126  0.66535954  0.32743195  1
  Ag  Ag50  1  0.00932300  -0.01002244  0.33632184  1
  Ag  Ag51  1  0.16211404  -0.00205107  0.83572373  1
  Ag  Ag52  1  0.66676108  0.15823303  0.49417060  1
  Ag  Ag53  1  0.32648934  0.66720446  0.00466442  1
  Sb  Sb54  1  0.67072781  0.15878862  0.83375671  1
  Sb  Sb55  1  0.49998161  0.83137226  0.32864043  1
  Sb  Sb56  1  0.66758287  0.33438985  0.00011820  1
  Sb  Sb57  1  0.50113836  0.66551775  0.49810330  1
  Sb  Sb58  1  0.67201984  0.66837762  0.00147277  1
  Sb  Sb59  1  0.66171172  0.33285398  0.33379813  1
  Sb  Sb60  1  0.83601387  -0.00253984  0.49695999  1
  Sb  Sb61  1  0.16077654  0.66797323  0.83637563  1
  Sb  Sb62  1  0.00227083  0.50183852  0.16554204  1
  Sb  Sb63  1  0.32464851  0.49729279  0.49789291  1
  Sb  Sb64  1  0.50542983  0.66177581  0.83572682  1
  Sb  Sb65  1  0.49421575  0.32945902  0.16365629  1
  Sb  Sb66  1  0.00379742  0.16376724  0.16879818  1
  Sb  Sb67  1  0.33365205  0.82784103  0.83784756  1
  Sb  Sb68  1  0.66777827  0.49799763  0.16865816  1
  Sb  Sb69  1  0.16278534  0.67001652  0.16715129  1
  Sb  Sb70  1  0.00206487  0.34180105  0.66820539  1
  Sb  Sb71  1  0.00797681  0.33628089  0.33111223  1
  Sb  Sb72  1  0.50186314  0.16866992  0.67079144  1
  Sb  Sb73  1  0.66600615  0.33745993  0.66546964  1
  Sb  Sb74  1  0.33334601  -0.00142161  0.66585230  1
  Sb  Sb75  1  0.33187892  0.49789317  0.16538622  1
  Sb  Sb76  1  0.83591700  0.66822025  0.49619497  1
  Sb  Sb77  1  0.67023473  0.83778604  0.16999789  1
  Sb  Sb78  1  0.32834101  0.16960619  0.83600674  1
  Sb  Sb79  1  0.16363770  0.66913354  0.49580512  1
  Sb  Sb80  1  0.16478766  0.16499406  0.65992809  1
  Sb  Sb81  1  0.49379761  0.33305818  0.50064647  1
  Sb  Sb82  1  0.32914341  0.66337054  0.66826226  1
  Sb  Sb83  1  0.66410852  -0.00309361  0.00525442  1
  Sb  Sb84  1  0.50140489  0.82926932  0.67161327  1
  Sb  Sb85  1  0.83243266  0.16295924  0.00185330  1
  Sb  Sb86  1  0.00497926  -0.00541149  0.00309018  1
  Sb  Sb87  1  0.83988025  0.33439076  0.16647260  1
  Sb  Sb88  1  0.83589870  0.82793384  0.66642693  1
  Sb  Sb89  1  0.83489471  0.16695760  0.66638002  1
  Sb  Sb90  1  0.67210595  0.50219458  0.49898076  1
  Sb  Sb91  1  -0.00238289  -0.00555861  0.66377607  1
  Sb  Sb92  1  -0.00058528  0.83381548  0.17281370  1
  Sb  Sb93  1  0.67060999  0.50610639  0.83220058  1
  Sb  Sb94  1  0.33085222  0.33592752  0.66276141  1
  Sb  Sb95  1  0.49906799  0.00249929  0.84033686  1
  Sb  Sb96  1  0.50411514  0.67055298  0.16618652  1
  Sb  Sb97  1  -0.00198933  0.82990603  0.83042278  1
  Sb  Sb98  1  0.32903483  0.33599250  0.00494702  1
  Sb  Sb99  1  0.83324093  0.33783318  0.83513517  1
  Sb  Sb100  1  0.49308850  0.16738812  0.32909551  1
  Sb  Sb101  1  0.32816217  0.83728635  0.49568691  1
  Sb  Sb102  1  0.16895355  0.16513980  0.00567582  1
  Sb  Sb103  1  0.49869710  0.00078658  0.49308667  1
  Sb  Sb104  1  0.16747667  0.33485802  0.83393228  1
  Sb  Sb105  1  0.83667925  0.16239460  0.33259298  1
  Sb  Sb106  1  0.33214110  0.83937231  0.16577285  1
  Sb  Sb107  1  0.84072522  0.33516915  0.49749677  1
  Te  Te108  1  0.16911060  0.16384524  0.17147755  1
  Te  Te109  1  0.16542262  0.16497526  0.49830771  1
  Te  Te110  1  0.16242798  0.16448775  0.83168230  1
  Te  Te111  1  0.16816410  0.49711415  0.16437257  1
  Te  Te112  1  0.16280074  0.50083200  0.50058982  1
  Te  Te113  1  0.16469114  0.50032052  0.83529109  1
  Te  Te114  1  0.16589309  0.83955660  0.16625550  1
  Te  Te115  1  0.16371652  0.83765978  0.49675855  1
  Te  Te116  1  0.16656213  0.83618089  0.83752700  1
  Te  Te117  1  0.49849768  0.16341321  0.16347181  1
  Te  Te118  1  0.50531422  0.16768631  0.50162119  1
  Te  Te119  1  0.49934558  0.17136401  0.83969184  1
  Te  Te120  1  0.50022255  0.49861555  0.16734330  1
  Te  Te121  1  0.49969491  0.49786678  0.49844363  1
  Te  Te122  1  0.50374317  0.49840237  0.83417679  1
  Te  Te123  1  0.50315995  0.84060081  0.15852462  1
  Te  Te124  1  0.50648520  0.83361568  0.50230855  1
  Te  Te125  1  0.50550364  0.83368253  0.83971797  1
  Te  Te126  1  0.82963968  0.16296319  0.16632507  1
  Te  Te127  1  0.83267890  0.16740903  0.50063797  1
  Te  Te128  1  0.83954113  0.16525103  0.83395388  1
  Te  Te129  1  0.83204925  0.50212253  0.16543546  1
  Te  Te130  1  0.84017279  0.49889157  0.49849367  1
  Te  Te131  1  0.83654569  0.50233024  0.83599649  1
  Te  Te132  1  0.83328422  0.83295555  0.16683289  1
  Te  Te133  1  0.83419782  0.83452002  0.49385107  1
  Te  Te134  1  0.83237046  0.83175693  0.83269473  1
  Te  Te135  1  0.16882466  -0.00161445  -0.00296358  1
  Te  Te136  1  0.16569364  0.00062718  0.33292614  1
  Te  Te137  1  0.16664880  -0.00446837  0.67329192  1
  Te  Te138  1  0.16279975  0.33399993  0.00088028  1
  Te  Te139  1  0.16806649  0.33942472  0.33243269  1
  Te  Te140  1  0.16690240  0.34136803  0.66227769  1
  Te  Te141  1  0.16607152  0.66791309  0.00261308  1
  Te  Te142  1  0.16307976  0.66083841  0.32974502  1
  Te  Te143  1  0.16285068  0.66665123  0.66788530  1
  Te  Te144  1  0.49603772  -0.00144620  0.00396399  1
  Te  Te145  1  0.50725909  -0.00035567  0.32652511  1
  Te  Te146  1  0.50669498  -0.00107003  0.66819004  1
  Te  Te147  1  0.49943973  0.33973834  -0.00182856  1
  Te  Te148  1  0.49327599  0.34035410  0.33244019  1
  Te  Te149  1  0.49909866  0.33965834  0.67174346  1
  Te  Te150  1  0.49767075  0.66794398  0.00135128  1
  Te  Te151  1  0.49384704  0.66301713  0.33121526  1
  Te  Te152  1  0.50046337  0.66181745  0.66669586  1
  Te  Te153  1  0.83451175  -0.00445628  -0.00016546  1
  Te  Te154  1  0.82835144  -0.00182294  0.33091848  1
  Te  Te155  1  0.82846223  -0.00078646  0.67313059  1
  Te  Te156  1  0.83824000  0.33935942  0.00066254  1
  Te  Te157  1  0.83271341  0.34266939  0.33112017  1
  Te  Te158  1  0.83219448  0.34438185  0.66662667  1
  Te  Te159  1  0.83340709  0.66770720  0.00132338  1
  Te  Te160  1  0.83802630  0.66751762  0.33234357  1
  Te  Te161  1  0.83450695  0.66478621  0.66930327  1
  Te  Te162  1  -0.00022321  0.16465694  -0.00475482  1
  Te  Te163  1  0.00403779  0.16668579  0.33691965  1
  Te  Te164  1  -0.00058343  0.16689763  0.66595648  1
  Te  Te165  1  0.00235314  0.50461280  0.00067147  1
  Te  Te166  1  0.00231633  0.50114308  0.33398269  1
  Te  Te167  1  0.00115990  0.50319691  0.66614246  1
  Te  Te168  1  0.00021416  0.82763196  -0.00263988  1
  Te  Te169  1  0.00034011  0.83268802  0.33675488  1
  Te  Te170  1  0.00396973  0.82736247  0.66054354  1
  Te  Te171  1  0.33711994  0.16437170  0.00153716  1
  Te  Te172  1  0.33208415  0.16369963  0.33191795  1
  Te  Te173  1  0.33440310  0.16680996  0.66155953  1
  Te  Te174  1  0.33253883  0.50124257  -0.00132156  1
  Te  Te175  1  0.33079124  0.50334126  0.33363466  1
  Te  Te176  1  0.33615455  0.50118151  0.67169452  1
  Te  Te177  1  0.32990320  0.83204636  -0.00096673  1
  Te  Te178  1  0.33076524  0.83105472  0.33295522  1
  Te  Te179  1  0.32601108  0.83107196  0.66671129  1
  Te  Te180  1  0.66152486  0.16667457  0.00264947  1
  Te  Te181  1  0.66780235  0.16596019  0.33395058  1
  Te  Te182  1  0.66753842  0.16301121  0.66310372  1
  Te  Te183  1  0.65813146  0.50001907  0.00042907  1
  Te  Te184  1  0.66371379  0.50392461  0.33527633  1
  Te  Te185  1  0.66309693  0.50579085  0.66458557  1
  Te  Te186  1  0.67117219  0.83209938  -0.00419490  1
  Te  Te187  1  0.66434945  0.83180521  0.33640704  1
  Te  Te188  1  0.66640424  0.83027056  0.66490207  1
  Te  Te189  1  -0.00399171  0.00125380  0.17311303  1
  Te  Te190  1  0.00220057  0.00005053  0.49790922  1
  Te  Te191  1  -0.00140095  -0.00019340  0.83234006  1
  Te  Te192  1  0.00722002  0.33048615  0.15885500  1
  Te  Te193  1  0.00615565  0.32836227  0.50035223  1
  Te  Te194  1  0.00023925  0.33525316  0.83737975  1
  Te  Te195  1  -0.00551921  0.66764163  0.16658436  1
  Te  Te196  1  0.00113779  0.66657158  0.49907387  1
  Te  Te197  1  -0.00443163  0.66312248  0.83401133  1
  Te  Te198  1  0.33227498  0.00201022  0.16694181  1
  Te  Te199  1  0.33024560  0.00467856  0.49703116  1
  Te  Te200  1  0.32967348  0.00031972  0.83559454  1
  Te  Te201  1  0.32736824  0.32575649  0.17140469  1
  Te  Te202  1  0.32723655  0.32779297  0.49375142  1
  Te  Te203  1  0.33648418  0.33860386  0.83385199  1
  Te  Te204  1  0.33408158  0.66692210  0.16521233  1
  Te  Te205  1  0.33354955  0.66708219  0.49291666  1
  Te  Te206  1  0.33452462  0.66000963  0.83826386  1
  Te  Te207  1  0.67277812  0.00258835  0.16983630  1
  Te  Te208  1  0.66597480  -0.00151078  0.49886338  1
  Te  Te209  1  0.66947659  -0.00459292  0.83274908  1
  Te  Te210  1  0.66715184  0.32223297  0.16711123  1
  Te  Te211  1  0.66692725  0.32477814  0.50015653  1
  Te  Te212  1  0.66054740  0.32955495  0.83231332  1
  Te  Te213  1  0.67257590  0.66592980  0.17514404  1
  Te  Te214  1  0.66760163  0.67032495  0.49884989  1
  Te  Te215  1  0.67315900  0.67234073  0.82964493  1
