# generated using pymatgen
data_AgSbTe2
_symmetry_space_group_name_H-M   'P 1'
_cell_length_a   18.32588903
_cell_length_b   18.32402307
_cell_length_c   18.32362026
_cell_angle_alpha   89.99980383
_cell_angle_beta   89.99776846
_cell_angle_gamma   90.00036644
_symmetry_Int_Tables_number   1
_chemical_formula_structural   AgSbTe2
_chemical_formula_sum   'Ag54 Sb54 Te108'
_cell_volume   6153.14521710
_cell_formula_units_Z   54
loop_
 _symmetry_equiv_pos_site_id
 _symmetry_equiv_pos_as_xyz
  1  'x, y, z'
loop_
 _atom_site_type_symbol
 _atom_site_label
 _atom_site_symmetry_multiplicity
 _atom_site_fract_x
 _atom_site_fract_y
 _atom_site_fract_z
 _atom_site_occupancy
  Ag  Ag0  1  -0.00592488  0.66349092  0.33023728  1
  Ag  Ag1  1  0.67031831  0.34006299  0.33860192  1
  Ag  Ag2  1  0.49520977  0.49560807  0.67081584  1
  Ag  Ag3  1  0.00107356  0.66483563  -0.00169613  1
  Ag  Ag4  1  0.66975097  0.15609195  0.50348984  1
  Ag  Ag5  1  0.65941558  0.50534119  0.82761356  1
  Ag  Ag6  1  0.16689068  0.00430174  0.16012485  1
  Ag  Ag7  1  0.16846742  0.49865688  0.67103239  1
  Ag  Ag8  1  0.32608202  0.66254861  -0.00620862  1
  Ag  Ag9  1  0.83599524  0.66149915  0.17154403  1
  Ag  Ag10  1  0.00367858  0.32940980  0.66883172  1
  Ag  Ag11  1  0.17030895  0.16597393  -0.00813841  1
  Ag  Ag12  1  0.16533052  -0.00085317  0.50552666  1
  Ag  Ag13  1  0.66604396  -0.00148903  0.34571819  1
  Ag  Ag14  1  0.32695087  0.16488837  0.15807924  1
  Ag  Ag15  1  0.16981708  0.65765305  0.83151822  1
  Ag  Ag16  1  0.16335227  0.50194044  -0.01039664  1
  Ag  Ag17  1  0.00481026  0.16699668  0.82972294  1
  Ag  Ag18  1  0.50257696  0.66520528  0.15855567  1
  Ag  Ag19  1  0.66869778  0.00370501  0.65974665  1
  Ag  Ag20  1  0.82391480  0.00095800  0.50276609  1
  Ag  Ag21  1  0.49854693  0.33545540  0.83006156  1
  Ag  Ag22  1  0.33090100  0.33725542  0.67304887  1
  Ag  Ag23  1  -0.00210680  0.82775181  0.83619415  1
  Ag  Ag24  1  0.84034699  0.50466446  0.00150503  1
  Ag  Ag25  1  0.49225910  0.65995803  0.83387530  1
  Ag  Ag26  1  0.33099774  0.65630474  0.67655667  1
  Ag  Ag27  1  0.33187699  0.32858858  -0.00811263  1
  Ag  Ag28  1  0.00540148  0.16229309  0.15939249  1
  Ag  Ag29  1  0.16140217  0.66220344  0.50788589  1
  Ag  Ag30  1  0.67592790  0.66410204  0.33852292  1
  Ag  Ag31  1  0.33259941  0.00311633  0.33219640  1
  Ag  Ag32  1  0.83441432  0.34110815  0.17038459  1
  Ag  Ag33  1  0.32866584  0.00966554  -0.00145077  1
  Ag  Ag34  1  0.15838646  0.50305772  0.34112930  1
  Ag  Ag35  1  -0.00107490  0.83228821  0.15831999  1
  Ag  Ag36  1  0.67005211  0.84407996  0.50427905  1
  Ag  Ag37  1  0.66971711  0.83005226  0.82888115  1
  Ag  Ag38  1  0.00085459  0.00739885  0.66827175  1
  Ag  Ag39  1  0.48795223  0.16569355  -0.00929222  1
  Ag  Ag40  1  0.49494208  0.00487441  0.82844282  1
  Ag  Ag41  1  -0.00424994  0.50365422  0.50459665  1
  Ag  Ag42  1  0.16787751  0.00174482  0.83231418  1
  Ag  Ag43  1  0.16381660  0.16725881  0.67297320  1
  Ag  Ag44  1  0.51217743  0.00170119  0.50938008  1
  Ag  Ag45  1  0.83087543  0.34039873  0.49821040  1
  Ag  Ag46  1  0.83459249  0.65715559  0.49455630  1
  Ag  Ag47  1  0.00831182  0.50201963  0.82858529  1
  Ag  Ag48  1  0.83660200  0.82477844  -0.00059848  1
  Ag  Ag49  1  0.33014239  0.50353856  0.83140928  1
  Ag  Ag50  1  0.67620795  0.50110894  0.50315869  1
  Ag  Ag51  1  0.49759800  0.16830757  0.67261587  1
  Ag  Ag52  1  0.83877046  0.16535320  0.66449890  1
  Ag  Ag53  1  0.83618708  0.50237151  0.33766146  1
  Sb  Sb54  1  0.32967878  0.17202742  0.83640639  1
  Sb  Sb55  1  0.00377369  0.66293213  0.66905802  1
  Sb  Sb56  1  0.83550746  -0.00067191  0.82829328  1
  Sb  Sb57  1  0.16511487  0.16827657  0.33497706  1
  Sb  Sb58  1  0.50726349  0.32942594  0.50749274  1
  Sb  Sb59  1  0.33203803  0.00384446  0.67061499  1
  Sb  Sb60  1  0.50126192  0.83636259  0.66957718  1
  Sb  Sb61  1  0.16217384  0.66875576  0.16286838  1
  Sb  Sb62  1  0.50311291  0.33629659  0.16019124  1
  Sb  Sb63  1  0.16442783  0.82983258  0.33373388  1
  Sb  Sb64  1  0.16157595  0.83264302  -0.00246196  1
  Sb  Sb65  1  0.83870586  0.16899094  -0.00383345  1
  Sb  Sb66  1  0.66713090  0.33038759  0.66239945  1
  Sb  Sb67  1  0.33688947  0.33096121  0.33273237  1
  Sb  Sb68  1  0.17196806  0.33567084  0.83212699  1
  Sb  Sb69  1  0.33140528  0.49720605  0.15804143  1
  Sb  Sb70  1  0.16525793  0.83316026  0.66866864  1
  Sb  Sb71  1  0.66942097  0.66555042  -0.00000075  1
  Sb  Sb72  1  0.66470540  0.33473083  0.00086083  1
  Sb  Sb73  1  0.83315477  0.82541255  0.33255237  1
  Sb  Sb74  1  0.33524795  0.16490720  0.50114791  1
  Sb  Sb75  1  0.66243543  -0.00025885  -0.00401391  1
  Sb  Sb76  1  0.83896104  -0.00185343  0.17252413  1
  Sb  Sb77  1  0.66788864  0.16607273  0.17194440  1
  Sb  Sb78  1  0.67220646  0.83158376  0.16707835  1
  Sb  Sb79  1  0.66471774  0.66751281  0.66404375  1
  Sb  Sb80  1  -0.00034345  -0.00404472  0.33834973  1
  Sb  Sb81  1  0.33128196  0.82881865  0.83408742  1
  Sb  Sb82  1  0.50104657  0.16479616  0.33539482  1
  Sb  Sb83  1  -0.00525471  0.33940918  0.33650882  1
  Sb  Sb84  1  0.50275106  0.66888657  0.50459582  1
  Sb  Sb85  1  0.83072266  0.33599180  0.83063396  1
  Sb  Sb86  1  0.32792207  0.83653764  0.16356275  1
  Sb  Sb87  1  0.49449503  -0.00194941  0.16580600  1
  Sb  Sb88  1  0.83590247  0.66520415  0.83272256  1
  Sb  Sb89  1  0.33598541  0.83597852  0.50094540  1
  Sb  Sb90  1  0.83332947  0.83745078  0.66822317  1
  Sb  Sb91  1  0.50338300  0.83348249  0.33365077  1
  Sb  Sb92  1  -0.00198451  0.50116751  0.16498683  1
  Sb  Sb93  1  0.66562184  0.16566218  0.82662797  1
  Sb  Sb94  1  0.83281756  0.17199807  0.34000350  1
  Sb  Sb95  1  0.49697251  0.49836573  -0.01053250  1
  Sb  Sb96  1  0.32975427  0.50096081  0.50873548  1
  Sb  Sb97  1  -0.00397130  0.16859744  0.50593078  1
  Sb  Sb98  1  0.00459013  0.33829140  -0.00538214  1
  Sb  Sb99  1  0.16042965  0.33625214  0.50511965  1
  Sb  Sb100  1  0.50387633  0.50150252  0.34058078  1
  Sb  Sb101  1  -0.00468385  0.82901267  0.50414517  1
  Sb  Sb102  1  0.16133035  0.32953461  0.16534455  1
  Sb  Sb103  1  0.50321662  0.83441277  -0.00328477  1
  Sb  Sb104  1  0.83617366  0.49537423  0.66395269  1
  Sb  Sb105  1  0.00499990  -0.00339492  -0.00626513  1
  Sb  Sb106  1  0.33071959  0.66775866  0.33133205  1
  Sb  Sb107  1  0.66909173  0.50168357  0.16864951  1
  Te  Te108  1  0.16603246  0.16358095  0.16826132  1
  Te  Te109  1  0.16647820  0.16406670  0.50401337  1
  Te  Te110  1  0.16459246  0.16537946  0.83359235  1
  Te  Te111  1  0.16630249  0.49912092  0.16547536  1
  Te  Te112  1  0.16370816  0.50234776  0.50370001  1
  Te  Te113  1  0.16675723  0.50003248  0.83252010  1
  Te  Te114  1  0.15974550  0.84098687  0.16610089  1
  Te  Te115  1  0.16544109  0.83216026  0.50075509  1
  Te  Te116  1  0.16051341  0.83832005  0.83379233  1
  Te  Te117  1  0.49769180  0.16711916  0.16161208  1
  Te  Te118  1  0.50331005  0.16187228  0.50439135  1
  Te  Te119  1  0.50095195  0.16424142  0.83265032  1
  Te  Te120  1  0.50045682  0.50551964  0.16676631  1
  Te  Te121  1  0.50191928  0.50003098  0.50908392  1
  Te  Te122  1  0.50002619  0.50149322  0.83023135  1
  Te  Te123  1  0.50098780  0.82503575  0.16505985  1
  Te  Te124  1  0.50723919  0.83957969  0.50118943  1
  Te  Te125  1  0.50584984  0.83425645  0.83382365  1
  Te  Te126  1  0.83730635  0.16801018  0.16541793  1
  Te  Te127  1  0.83079915  0.16388324  0.50469122  1
  Te  Te128  1  0.83825913  0.16767782  0.82733561  1
  Te  Te129  1  0.83341018  0.50160396  0.16555037  1
  Te  Te130  1  0.83527842  0.50004497  0.50048914  1
  Te  Te131  1  0.83495976  0.49963214  0.83603762  1
  Te  Te132  1  0.83907619  0.83010004  0.16158325  1
  Te  Te133  1  0.82899203  0.83702346  0.50003759  1
  Te  Te134  1  0.83388845  0.83257456  0.83784053  1
  Te  Te135  1  0.16898746  0.00159392  -0.00253456  1
  Te  Te136  1  0.16867015  -0.00025334  0.33748379  1
  Te  Te137  1  0.16780424  0.00240024  0.67014085  1
  Te  Te138  1  0.17175636  0.33275621  0.00089043  1
  Te  Te139  1  0.16781937  0.34220231  0.33475664  1
  Te  Te140  1  0.16681818  0.33245634  0.66588038  1
  Te  Te141  1  0.16421625  0.66515794  -0.00264767  1
  Te  Te142  1  0.16486872  0.66200824  0.33381319  1
  Te  Te143  1  0.16840118  0.66446016  0.66847011  1
  Te  Te144  1  0.49461027  0.00390493  -0.00295055  1
  Te  Te145  1  0.49919687  0.00008355  0.33525882  1
  Te  Te146  1  0.49767369  0.00303880  0.66774603  1
  Te  Te147  1  0.49555072  0.32861428  -0.00476083  1
  Te  Te148  1  0.50750563  0.33357767  0.33159201  1
  Te  Te149  1  0.49895459  0.33210094  0.67050454  1
  Te  Te150  1  0.49939114  0.66613071  -0.00292425  1
  Te  Te151  1  0.50091220  0.66626252  0.33123681  1
  Te  Te152  1  0.49594599  0.66322492  0.67189707  1
  Te  Te153  1  0.83219429  -0.00121236  0.00210980  1
  Te  Te154  1  0.83006049  0.00049840  0.34035172  1
  Te  Te155  1  0.83249310  0.00372199  0.66299234  1
  Te  Te156  1  0.83330379  0.33786794  0.00470911  1
  Te  Te157  1  0.83002676  0.33828214  0.33452254  1
  Te  Te158  1  0.83662759  0.32733686  0.66296040  1
  Te  Te159  1  0.83581277  0.66431357  -0.00007433  1
  Te  Te160  1  0.83459067  0.66338085  0.33384726  1
  Te  Te161  1  0.83416885  0.66766767  0.65687074  1
  Te  Te162  1  0.00465930  0.16745086  -0.00294584  1
  Te  Te163  1  -0.00010014  0.16653011  0.32559950  1
  Te  Te164  1  0.00302433  0.16760821  0.66666304  1
  Te  Te165  1  0.00181241  0.50284969  -0.00215670  1
  Te  Te166  1  -0.00097567  0.50376527  0.33464674  1
  Te  Te167  1  0.00271707  0.49734176  0.66739173  1
  Te  Te168  1  -0.00362730  0.83067004  -0.00276765  1
  Te  Te169  1  -0.00058655  0.82541314  0.32972893  1
  Te  Te170  1  -0.00083991  0.84263094  0.67364492  1
  Te  Te171  1  0.33013140  0.16772519  -0.00051282  1
  Te  Te172  1  0.33322911  0.16275861  0.32728391  1
  Te  Te173  1  0.33298901  0.17174662  0.66725612  1
  Te  Te174  1  0.33029695  0.50174835  -0.00525127  1
  Te  Te175  1  0.33117029  0.49883838  0.33297383  1
  Te  Te176  1  0.33141345  0.49745534  0.66972470  1
  Te  Te177  1  0.33438762  0.82808022  0.00002913  1
  Te  Te178  1  0.33360766  0.84247017  0.33214115  1
  Te  Te179  1  0.33375716  0.82065027  0.66627533  1
  Te  Te180  1  0.66487006  0.16703519  0.00052974  1
  Te  Te181  1  0.66681082  0.16314259  0.33992302  1
  Te  Te182  1  0.66380670  0.16401480  0.66320117  1
  Te  Te183  1  0.67135234  0.49936978  -0.00522603  1
  Te  Te184  1  0.66907750  0.50258132  0.33586821  1
  Te  Te185  1  0.66613026  0.49915029  0.66781997  1
  Te  Te186  1  0.67488620  0.83361445  -0.00501171  1
  Te  Te187  1  0.66764003  0.83302035  0.33772427  1
  Te  Te188  1  0.66744154  0.83873953  0.66776007  1
  Te  Te189  1  0.00479338  -0.00003565  0.16837556  1
  Te  Te190  1  0.00551917  -0.00188417  0.50478353  1
  Te  Te191  1  0.00184359  0.00329276  0.82941722  1
  Te  Te192  1  -0.00626753  0.32862529  0.16633391  1
  Te  Te193  1  -0.00647089  0.33805868  0.50386551  1
  Te  Te194  1  -0.00195757  0.33511422  0.82847207  1
  Te  Te195  1  -0.00242429  0.66774813  0.16386684  1
  Te  Te196  1  0.00121076  0.66516986  0.50092896  1
  Te  Te197  1  0.00226030  0.66529571  0.83558822  1
  Te  Te198  1  0.32925135  0.00287094  0.16372756  1
  Te  Te199  1  0.32572729  -0.00055027  0.49842308  1
  Te  Te200  1  0.33296682  -0.00425794  0.83645766  1
  Te  Te201  1  0.33470041  0.32693033  0.16399303  1
  Te  Te202  1  0.33498770  0.33269761  0.50303222  1
  Te  Te203  1  0.33806351  0.33819916  0.83298602  1
  Te  Te204  1  0.33550135  0.66719590  0.16193172  1
  Te  Te205  1  0.32912543  0.66911444  0.49939029  1
  Te  Te206  1  0.33097338  0.66618289  0.83516767  1
  Te  Te207  1  0.66617279  -0.00152465  0.17235118  1
  Te  Te208  1  0.66733830  0.00000134  0.50119765  1
  Te  Te209  1  0.66392224  -0.00262607  0.83006627  1
  Te  Te210  1  0.67278478  0.33282275  0.17295988  1
  Te  Te211  1  0.67106703  0.34069880  0.49712736  1
  Te  Te212  1  0.66010597  0.33812353  0.83295496  1
  Te  Te213  1  0.66943220  0.66834106  0.17221984  1
  Te  Te214  1  0.66654480  0.66042177  0.49769676  1
  Te  Te215  1  0.66547785  0.66667030  0.83183813  1
