# generated using pymatgen
data_AgSbTe2
_symmetry_space_group_name_H-M   'P 1'
_cell_length_a   18.34608482
_cell_length_b   18.33905262
_cell_length_c   18.34880580
_cell_angle_alpha   90.00117871
_cell_angle_beta   89.99931696
_cell_angle_gamma   90.00219257
_symmetry_Int_Tables_number   1
_chemical_formula_structural   AgSbTe2
_chemical_formula_sum   'Ag54 Sb54 Te108'
_cell_volume   6173.45230872
_cell_formula_units_Z   54
loop_
 _symmetry_equiv_pos_site_id
 _symmetry_equiv_pos_as_xyz
  1  'x, y, z'
loop_
 _atom_site_type_symbol
 _atom_site_label
 _atom_site_symmetry_multiplicity
 _atom_site_fract_x
 _atom_site_fract_y
 _atom_site_fract_z
 _atom_site_occupancy
  Ag  Ag0  1  0.50027973  0.16891634  0.33016409  1
  Ag  Ag1  1  0.82521831  0.16976634  0.32658838  1
  Ag  Ag2  1  0.32949979  0.66862889  0.67306541  1
  Ag  Ag3  1  0.49313905  0.66428846  0.83610207  1
  Ag  Ag4  1  0.33720073  0.16145470  0.48990401  1
  Ag  Ag5  1  0.33716568  0.15797907  0.16734019  1
  Ag  Ag6  1  0.83917992  0.50207207  0.32748663  1
  Ag  Ag7  1  0.00429783  0.33750360  0.00183611  1
  Ag  Ag8  1  0.48896950  0.50143688  0.00019903  1
  Ag  Ag9  1  0.00563622  0.82881061  0.16112346  1
  Ag  Ag10  1  -0.00105491  0.33901492  0.32655461  1
  Ag  Ag11  1  0.17174213  0.66413916  0.51519345  1
  Ag  Ag12  1  0.49100529  -0.00261413  0.16906213  1
  Ag  Ag13  1  0.33105540  0.66552726  0.00343137  1
  Ag  Ag14  1  0.33564027  -0.00924552  0.32620086  1
  Ag  Ag15  1  0.83626846  0.50063851  0.00366525  1
  Ag  Ag16  1  0.01723757  0.82283513  0.83813130  1
  Ag  Ag17  1  0.17383857  0.16313930  0.00185165  1
  Ag  Ag18  1  0.00380851  0.50210959  0.49830292  1
  Ag  Ag19  1  0.83033043  0.17253846  0.00559095  1
  Ag  Ag20  1  0.32826402  -0.00190297  0.00736221  1
  Ag  Ag21  1  0.49821024  0.33397784  0.49645823  1
  Ag  Ag22  1  0.65249059  0.66392056  0.33301615  1
  Ag  Ag23  1  0.16988676  0.82607439  -0.00524250  1
  Ag  Ag24  1  0.66467758  0.16583144  0.84144994  1
  Ag  Ag25  1  0.00346124  0.50619342  0.83522899  1
  Ag  Ag26  1  0.83358178  0.66399481  0.16315592  1
  Ag  Ag27  1  0.17453789  -0.00755382  0.16023052  1
  Ag  Ag28  1  0.33401811  0.51110835  0.16478048  1
  Ag  Ag29  1  0.17448935  0.66881814  0.16145516  1
  Ag  Ag30  1  0.17167794  0.81899895  0.68316683  1
  Ag  Ag31  1  0.65961529  0.33310858  -0.00122053  1
  Ag  Ag32  1  0.17250839  0.50825764  0.67585819  1
  Ag  Ag33  1  0.49174139  0.50510666  0.67813558  1
  Ag  Ag34  1  0.17111282  0.67067606  0.83013500  1
  Ag  Ag35  1  0.65770483  0.16609242  0.16848103  1
  Ag  Ag36  1  0.01579294  0.66422661  0.67391612  1
  Ag  Ag37  1  0.33370020  0.34598915  0.00075996  1
  Ag  Ag38  1  0.17118234  0.50462751  0.32907799  1
  Ag  Ag39  1  0.49437329  0.82090737  0.33077233  1
  Ag  Ag40  1  0.83315659  0.00158948  0.49729462  1
  Ag  Ag41  1  0.32998601  0.82996624  0.83097235  1
  Ag  Ag42  1  0.33176031  -0.01332636  0.66673528  1
  Ag  Ag43  1  0.66345967  0.82453063  0.83330066  1
  Ag  Ag44  1  0.66078326  0.66645398  0.67230023  1
  Ag  Ag45  1  0.84391800  0.66625870  0.83907343  1
  Ag  Ag46  1  0.17249255  0.50770099  0.00097970  1
  Ag  Ag47  1  0.65858357  0.16680576  0.49197986  1
  Ag  Ag48  1  0.49263037  0.66620430  0.17127116  1
  Ag  Ag49  1  0.49960312  0.34654473  0.83770242  1
  Ag  Ag50  1  0.49407506  0.50505194  0.32928630  1
  Ag  Ag51  1  0.17066664  -0.01545299  0.84346267  1
  Ag  Ag52  1  0.33272911  0.83190338  0.50334100  1
  Ag  Ag53  1  0.33514121  0.66831319  0.32518896  1
  Sb  Sb54  1  0.33546892  0.34001799  0.67078056  1
  Sb  Sb55  1  0.16951057  -0.00532080  0.49799779  1
  Sb  Sb56  1  0.32897410  0.83285689  0.16334674  1
  Sb  Sb57  1  0.83361970  -0.00113958  0.16820718  1
  Sb  Sb58  1  0.49802274  0.33644136  0.16514276  1
  Sb  Sb59  1  0.16884243  0.33759057  0.16338860  1
  Sb  Sb60  1  0.66007581  0.00524795  -0.00035169  1
  Sb  Sb61  1  0.66674192  0.33472143  0.32836162  1
  Sb  Sb62  1  0.00261957  0.16456000  0.16487014  1
  Sb  Sb63  1  0.65936927  0.83421445  0.50229501  1
  Sb  Sb64  1  0.17178794  0.17097386  0.32695513  1
  Sb  Sb65  1  0.17081605  0.16533705  0.67170157  1
  Sb  Sb66  1  -0.00309973  0.16987391  0.83724614  1
  Sb  Sb67  1  0.83432163  0.50482595  0.66784297  1
  Sb  Sb68  1  0.66675336  0.49828832  0.49779752  1
  Sb  Sb69  1  0.83718928  -0.00469610  0.83337056  1
  Sb  Sb70  1  0.65986082  -0.00035973  0.33297676  1
  Sb  Sb71  1  0.00246666  0.34369742  0.67036836  1
  Sb  Sb72  1  0.00157232  0.17323166  0.49669904  1
  Sb  Sb73  1  0.84014804  0.82852214  -0.00144509  1
  Sb  Sb74  1  0.66168337  0.49918299  0.16525543  1
  Sb  Sb75  1  0.17451033  0.82569690  0.33039883  1
  Sb  Sb76  1  0.82901147  0.33177015  0.49613958  1
  Sb  Sb77  1  0.49793156  0.17064222  0.66410909  1
  Sb  Sb78  1  0.49146698  0.82636901  0.00330059  1
  Sb  Sb79  1  0.00619791  0.66146493  0.33297848  1
  Sb  Sb80  1  0.83819831  0.82982599  0.66797559  1
  Sb  Sb81  1  0.65881420  -0.00402903  0.66705081  1
  Sb  Sb82  1  0.00856242  -0.00884417  0.66743239  1
  Sb  Sb83  1  0.32997547  0.51084949  0.84098849  1
  Sb  Sb84  1  0.66519403  0.50364782  0.83550610  1
  Sb  Sb85  1  0.00727701  0.82671339  0.50139991  1
  Sb  Sb86  1  0.49736564  0.17303787  0.00507487  1
  Sb  Sb87  1  0.17188898  0.34071294  0.49842281  1
  Sb  Sb88  1  0.49282066  -0.00502929  0.83887860  1
  Sb  Sb89  1  0.83304487  0.33844302  0.16461254  1
  Sb  Sb90  1  0.83048228  0.16463547  0.66629280  1
  Sb  Sb91  1  0.00552576  0.00344547  0.33241321  1
  Sb  Sb92  1  0.82876613  0.83018635  0.33212692  1
  Sb  Sb93  1  0.33646040  0.16167912  0.83909758  1
  Sb  Sb94  1  0.82854621  0.33967991  0.83983609  1
  Sb  Sb95  1  0.49738954  0.00397994  0.49396776  1
  Sb  Sb96  1  0.01078911  0.66002859  -0.00666817  1
  Sb  Sb97  1  0.49042893  0.82516361  0.66563986  1
  Sb  Sb98  1  0.66622859  0.83341064  0.16199035  1
  Sb  Sb99  1  0.17318879  0.33969628  0.83904652  1
  Sb  Sb100  1  0.00576314  0.50656268  0.16377124  1
  Sb  Sb101  1  0.00889200  0.00197569  -0.00028856  1
  Sb  Sb102  1  0.33286452  0.33707326  0.32833439  1
  Sb  Sb103  1  0.33090960  0.50322695  0.49548336  1
  Sb  Sb104  1  0.66336446  0.33773910  0.67089270  1
  Sb  Sb105  1  0.66229279  0.66198108  0.00011809  1
  Sb  Sb106  1  0.49217078  0.66141453  0.49857572  1
  Sb  Sb107  1  0.83697554  0.66810177  0.49929847  1
  Te  Te108  1  0.17039670  0.16213182  0.16220752  1
  Te  Te109  1  0.17184906  0.16744442  0.50058199  1
  Te  Te110  1  0.16617912  0.16764790  0.83992674  1
  Te  Te111  1  0.17125496  0.50344231  0.16334598  1
  Te  Te112  1  0.16420765  0.50414711  0.49397543  1
  Te  Te113  1  0.16454487  0.50369337  0.83749354  1
  Te  Te114  1  0.16344938  0.83196342  0.16585659  1
  Te  Te115  1  0.17172502  0.82709607  0.49939614  1
  Te  Te116  1  0.17167018  0.83078632  0.83693560  1
  Te  Te117  1  0.49827526  0.16820215  0.16845037  1
  Te  Te118  1  0.49893544  0.17021626  0.49818215  1
  Te  Te119  1  0.50514598  0.16344622  0.83275984  1
  Te  Te120  1  0.49717446  0.50343082  0.16653943  1
  Te  Te121  1  0.50011506  0.49474264  0.49077761  1
  Te  Te122  1  0.49980394  0.50328527  0.83642722  1
  Te  Te123  1  0.50340990  0.83132128  0.17009609  1
  Te  Te124  1  0.49413360  0.83580529  0.49329234  1
  Te  Te125  1  0.50100310  0.82833945  0.83370153  1
  Te  Te126  1  0.83431123  0.16536538  0.16700632  1
  Te  Te127  1  0.83267775  0.16434017  0.49701696  1
  Te  Te128  1  0.82797165  0.16552761  0.83704376  1
  Te  Te129  1  0.83146832  0.50434576  0.16755688  1
  Te  Te130  1  0.83779863  0.49993386  0.49530377  1
  Te  Te131  1  0.83669084  0.50619107  0.83577478  1
  Te  Te132  1  0.83769495  0.82867998  0.16600603  1
  Te  Te133  1  0.83354680  0.83874575  0.49956194  1
  Te  Te134  1  0.82599583  0.82773978  0.83336984  1
  Te  Te135  1  0.16895357  0.00202449  0.00137629  1
  Te  Te136  1  0.17309180  0.00204944  0.32970819  1
  Te  Te137  1  0.17352799  -0.00152810  0.66677161  1
  Te  Te138  1  0.16878570  0.33390009  0.00000607  1
  Te  Te139  1  0.16059145  0.33973008  0.33247307  1
  Te  Te140  1  0.16725035  0.34207444  0.66755640  1
  Te  Te141  1  0.16948625  0.66657271  0.00155362  1
  Te  Te142  1  0.17051051  0.66256592  0.32045873  1
  Te  Te143  1  0.17038556  0.66369864  0.67023532  1
  Te  Te144  1  0.49249328  -0.00187297  0.00709108  1
  Te  Te145  1  0.49504474  0.00975982  0.32839329  1
  Te  Te146  1  0.49113606  -0.00051494  0.66707317  1
  Te  Te147  1  0.49785398  0.33859920  -0.00169891  1
  Te  Te148  1  0.50006296  0.33174955  0.33527575  1
  Te  Te149  1  0.50048799  0.34233050  0.67249014  1
  Te  Te150  1  0.49712208  0.66191051  0.00017918  1
  Te  Te151  1  0.49578935  0.66392092  0.33478777  1
  Te  Te152  1  0.49993890  0.66293912  0.66488718  1
  Te  Te153  1  0.83305632  0.00641661  0.00003985  1
  Te  Te154  1  0.83355337  0.00344015  0.33461088  1
  Te  Te155  1  0.83426268  -0.00144773  0.66273441  1
  Te  Te156  1  0.83519297  0.33319078  -0.00022993  1
  Te  Te157  1  0.83600395  0.33432743  0.33175406  1
  Te  Te158  1  0.83325444  0.33421768  0.66732064  1
  Te  Te159  1  0.82965157  0.66429985  -0.00075019  1
  Te  Te160  1  0.83600285  0.66323336  0.33212099  1
  Te  Te161  1  0.82198889  0.66647400  0.67096260  1
  Te  Te162  1  -0.00377237  0.17411183  0.00007715  1
  Te  Te163  1  -0.00377809  0.17310398  0.33270021  1
  Te  Te164  1  0.00056284  0.16730938  0.66709493  1
  Te  Te165  1  -0.00438659  0.49621769  -0.00046231  1
  Te  Te166  1  -0.00094451  0.49838313  0.33043603  1
  Te  Te167  1  0.00204579  0.50537458  0.66914225  1
  Te  Te168  1  0.00560915  0.83505521  -0.00212297  1
  Te  Te169  1  -0.00134005  0.83504402  0.33211823  1
  Te  Te170  1  0.00749067  0.82573465  0.67137563  1
  Te  Te171  1  0.33242617  0.15902555  0.00344780  1
  Te  Te172  1  0.33500953  0.17009234  0.33034677  1
  Te  Te173  1  0.33297797  0.16844223  0.66299117  1
  Te  Te174  1  0.33229487  0.50280213  0.00341572  1
  Te  Te175  1  0.33273425  0.50175723  0.32869697  1
  Te  Te176  1  0.33314680  0.50498837  0.66268749  1
  Te  Te177  1  0.32995131  0.83214267  -0.00533679  1
  Te  Te178  1  0.33647378  0.83204018  0.33591222  1
  Te  Te179  1  0.33062235  0.82899907  0.66632991  1
  Te  Te180  1  0.66593402  0.16971049  0.00166983  1
  Te  Te181  1  0.66610502  0.16719774  0.33245192  1
  Te  Te182  1  0.66590192  0.16561288  0.66483744  1
  Te  Te183  1  0.67569259  0.49371388  0.00067081  1
  Te  Te184  1  0.66554355  0.50257980  0.33237434  1
  Te  Te185  1  0.66150743  0.50570476  0.66532713  1
  Te  Te186  1  0.66865858  0.83537053  -0.00571852  1
  Te  Te187  1  0.66032730  0.82826253  0.33326753  1
  Te  Te188  1  0.66530326  0.82866861  0.67018956  1
  Te  Te189  1  0.00413748  -0.00732899  0.16758192  1
  Te  Te190  1  -0.00339386  0.00026025  0.50041608  1
  Te  Te191  1  0.00673589  -0.00420552  0.83164827  1
  Te  Te192  1  0.00057799  0.33315802  0.16492481  1
  Te  Te193  1  0.00000943  0.34033635  0.49908646  1
  Te  Te194  1  -0.00045413  0.33876409  0.83806305  1
  Te  Te195  1  -0.00560964  0.67038706  0.16641133  1
  Te  Te196  1  0.00542072  0.66250695  0.50533433  1
  Te  Te197  1  0.00064237  0.66665850  0.83355392  1
  Te  Te198  1  0.33411657  -0.00275375  0.16809886  1
  Te  Te199  1  0.33266503  0.00030305  0.49962913  1
  Te  Te200  1  0.32943522  -0.00431092  0.83180438  1
  Te  Te201  1  0.33330793  0.32768430  0.16050453  1
  Te  Te202  1  0.33839373  0.32813569  0.50074723  1
  Te  Te203  1  0.34041103  0.32988057  0.83898400  1
  Te  Te204  1  0.33539334  0.66904173  0.16533386  1
  Te  Te205  1  0.32945118  0.66832063  0.49859925  1
  Te  Te206  1  0.33248349  0.66880704  0.83344150  1
  Te  Te207  1  0.66396390  0.00519104  0.16700344  1
  Te  Te208  1  0.67016965  0.00502885  0.50084953  1
  Te  Te209  1  0.66669406  0.00337817  0.83188599  1
  Te  Te210  1  0.66647632  0.32487631  0.16026144  1
  Te  Te211  1  0.66136724  0.32686099  0.50055433  1
  Te  Te212  1  0.66209011  0.32948084  0.83756350  1
  Te  Te213  1  0.66827030  0.66690731  0.17083678  1
  Te  Te214  1  0.66788006  0.66727368  0.49512500  1
  Te  Te215  1  0.65784382  0.66658308  0.83340481  1
