# generated using pymatgen
data_AgSbTe2
_symmetry_space_group_name_H-M   'P 1'
_cell_length_a   18.35159408
_cell_length_b   18.35350772
_cell_length_c   18.35830223
_cell_angle_alpha   89.99610383
_cell_angle_beta   90.00257348
_cell_angle_gamma   89.99660619
_symmetry_Int_Tables_number   1
_chemical_formula_structural   AgSbTe2
_chemical_formula_sum   'Ag54 Sb54 Te108'
_cell_volume   6183.37216060
_cell_formula_units_Z   54
loop_
 _symmetry_equiv_pos_site_id
 _symmetry_equiv_pos_as_xyz
  1  'x, y, z'
loop_
 _atom_site_type_symbol
 _atom_site_label
 _atom_site_symmetry_multiplicity
 _atom_site_fract_x
 _atom_site_fract_y
 _atom_site_fract_z
 _atom_site_occupancy
  Ag  Ag0  1  0.16512575  0.16953384  0.66327012  1
  Ag  Ag1  1  0.49059915  0.00946650  0.49006257  1
  Ag  Ag2  1  0.66033564  0.83603112  0.84585880  1
  Ag  Ag3  1  0.33234099  0.00238255  0.00790806  1
  Ag  Ag4  1  -0.00170019  0.83991292  0.16700194  1
  Ag  Ag5  1  0.00434541  0.00821351  0.66581269  1
  Ag  Ag6  1  0.32994556  0.49762272  0.83118857  1
  Ag  Ag7  1  0.48592918  0.49675019  0.66054966  1
  Ag  Ag8  1  0.16566445  0.16607622  0.00964253  1
  Ag  Ag9  1  0.66727557  0.33067548  0.66576577  1
  Ag  Ag10  1  0.00194929  0.67079146  0.32620928  1
  Ag  Ag11  1  0.49014224  0.33088453  0.49614411  1
  Ag  Ag12  1  0.32928842  0.16724530  0.49808012  1
  Ag  Ag13  1  0.68021178  -0.00139798  0.01132802  1
  Ag  Ag14  1  0.16801176  0.32340140  0.16841047  1
  Ag  Ag15  1  0.82194808  -0.00224402  0.16341847  1
  Ag  Ag16  1  0.33323374  0.00141348  0.32461769  1
  Ag  Ag17  1  0.33016994  0.16158513  0.16737575  1
  Ag  Ag18  1  0.33288204  0.84227345  0.83587282  1
  Ag  Ag19  1  0.66057418  0.15430565  0.17000956  1
  Ag  Ag20  1  0.17087946  0.01197883  0.48827438  1
  Ag  Ag21  1  0.84289363  0.15603298  -0.00115918  1
  Ag  Ag22  1  0.16650836  0.00452534  0.17001339  1
  Ag  Ag23  1  0.82683854  0.84567605  0.00620401  1
  Ag  Ag24  1  0.01306444  0.49676086  0.49126877  1
  Ag  Ag25  1  0.00758089  0.50569287  0.17015046  1
  Ag  Ag26  1  0.17053339  0.32839476  0.50336083  1
  Ag  Ag27  1  0.66551027  0.84140479  0.16414087  1
  Ag  Ag28  1  0.16627614  0.84394422  0.66968235  1
  Ag  Ag29  1  0.16752166  0.16108064  0.32942937  1
  Ag  Ag30  1  0.83278794  0.00171288  0.85177503  1
  Ag  Ag31  1  0.16864407  0.49012170  0.65515759  1
  Ag  Ag32  1  0.66203126  0.67453250  0.32816744  1
  Ag  Ag33  1  0.50371623  0.83963392  0.00809477  1
  Ag  Ag34  1  0.49803676  0.50092877  0.01532573  1
  Ag  Ag35  1  0.65613762  -0.00131528  0.32151390  1
  Ag  Ag36  1  0.00598838  0.32507088  0.00180716  1
  Ag  Ag37  1  0.50861088  -0.00412969  0.17052097  1
  Ag  Ag38  1  0.49982787  0.67934675  0.16835748  1
  Ag  Ag39  1  -0.00760647  0.00335241  0.00841585  1
  Ag  Ag40  1  0.16378940  0.66660924  0.16627956  1
  Ag  Ag41  1  0.49607864  0.33101159  0.17005485  1
  Ag  Ag42  1  0.65956370  0.16563355  0.49167436  1
  Ag  Ag43  1  0.17017567  0.49420829  0.33632989  1
  Ag  Ag44  1  0.50138158  0.84130871  0.32438926  1
  Ag  Ag45  1  0.49057356  0.50325482  0.33093001  1
  Ag  Ag46  1  0.00904733  0.32922707  0.66743079  1
  Ag  Ag47  1  0.84387617  0.16521482  0.66981292  1
  Ag  Ag48  1  0.83884364  0.67997614  0.16653951  1
  Ag  Ag49  1  0.00705139  -0.00323793  0.32270056  1
  Ag  Ag50  1  0.16834518  0.66238249  0.83612967  1
  Ag  Ag51  1  0.32840166  0.16476381  0.83986704  1
  Ag  Ag52  1  0.16791790  0.33254734  0.82053747  1
  Ag  Ag53  1  0.33041764  0.49108473  0.49981831  1
  Sb  Sb54  1  0.49747870  0.83211000  0.66674237  1
  Sb  Sb55  1  0.00669917  0.16957892  0.50241059  1
  Sb  Sb56  1  0.49608468  0.16340688  0.00530606  1
  Sb  Sb57  1  0.33186691  0.32654105  0.33374453  1
  Sb  Sb58  1  0.00767195  0.16479025  0.83378413  1
  Sb  Sb59  1  0.83950906  0.84382819  0.67794231  1
  Sb  Sb60  1  0.17114554  0.49375108  0.00294333  1
  Sb  Sb61  1  0.83159595  0.49949295  0.00262111  1
  Sb  Sb62  1  0.33072563  0.49493628  0.16908627  1
  Sb  Sb63  1  0.00837390  0.49920900  0.83570009  1
  Sb  Sb64  1  0.83766203  0.67401843  0.84105922  1
  Sb  Sb65  1  0.50104061  -0.00094413  0.83821104  1
  Sb  Sb66  1  0.82871153  0.83490213  0.32483126  1
  Sb  Sb67  1  0.32984116  0.33351740  0.66444069  1
  Sb  Sb68  1  0.00287552  0.83372348  0.49406010  1
  Sb  Sb69  1  0.49373052  0.33405994  0.83266577  1
  Sb  Sb70  1  0.32837030  0.32814545  0.00125894  1
  Sb  Sb71  1  0.00427259  0.16036449  0.16479574  1
  Sb  Sb72  1  0.66642118  0.66285377  0.66100528  1
  Sb  Sb73  1  0.66811382  0.32578918  -0.00170449  1
  Sb  Sb74  1  0.00357417  0.66474773  0.66106614  1
  Sb  Sb75  1  0.66527514  0.67727638  0.00842092  1
  Sb  Sb76  1  0.33225593  0.67015719  0.33048772  1
  Sb  Sb77  1  0.83778641  0.50168725  0.33115299  1
  Sb  Sb78  1  0.83448839  0.66647049  0.49127378  1
  Sb  Sb79  1  0.50032827  0.66312244  0.49119921  1
  Sb  Sb80  1  0.49443670  0.66669521  0.84042309  1
  Sb  Sb81  1  0.33278795  0.67102638  0.00156404  1
  Sb  Sb82  1  0.49594623  0.17097969  0.66203095  1
  Sb  Sb83  1  0.66047205  0.49201157  0.49750610  1
  Sb  Sb84  1  0.83742224  0.32695859  0.16357591  1
  Sb  Sb85  1  0.32763032  0.00251579  0.66641998  1
  Sb  Sb86  1  0.49240203  0.16243940  0.33208422  1
  Sb  Sb87  1  0.83761122  0.00259297  0.49414090  1
  Sb  Sb88  1  0.16694274  0.66325659  0.49704502  1
  Sb  Sb89  1  0.83722908  0.32990383  0.50126833  1
  Sb  Sb90  1  0.00211439  0.67000083  0.00845742  1
  Sb  Sb91  1  0.83697217  0.16232687  0.33022298  1
  Sb  Sb92  1  0.33559736  0.84261303  0.16260235  1
  Sb  Sb93  1  0.67050197  0.00547430  0.66553028  1
  Sb  Sb94  1  0.84057215  0.32523945  0.83299828  1
  Sb  Sb95  1  0.17045658  0.83683927  0.33225739  1
  Sb  Sb96  1  0.33141041  0.83784045  0.50286974  1
  Sb  Sb97  1  0.00462816  0.83731775  0.84076483  1
  Sb  Sb98  1  0.66420928  0.50106743  0.16821066  1
  Sb  Sb99  1  0.65689579  0.50468794  0.83336569  1
  Sb  Sb100  1  0.16487562  0.00502043  0.83585556  1
  Sb  Sb101  1  0.65936962  0.32737334  0.33480910  1
  Sb  Sb102  1  0.66329012  0.16231391  0.83553420  1
  Sb  Sb103  1  0.84105341  0.49298445  0.66740570  1
  Sb  Sb104  1  0.00557994  0.33181320  0.33162570  1
  Sb  Sb105  1  0.16817459  0.84099750  0.00021523  1
  Sb  Sb106  1  0.66402449  0.84254005  0.49379646  1
  Sb  Sb107  1  0.33061165  0.66398076  0.66822263  1
  Te  Te108  1  0.16738988  0.16549618  0.16894613  1
  Te  Te109  1  0.16767345  0.16853105  0.50057019  1
  Te  Te110  1  0.17132595  0.17057624  0.82944667  1
  Te  Te111  1  0.16725068  0.50290292  0.16888222  1
  Te  Te112  1  0.16990970  0.50133495  0.49722280  1
  Te  Te113  1  0.17050367  0.49739901  0.83635760  1
  Te  Te114  1  0.16567533  0.83004021  0.16619007  1
  Te  Te115  1  0.16689009  0.83489180  0.50783356  1
  Te  Te116  1  0.17044421  0.83181568  0.83246816  1
  Te  Te117  1  0.49905625  0.16856091  0.16748562  1
  Te  Te118  1  0.49754727  0.16933367  0.49804810  1
  Te  Te119  1  0.49026095  0.16700251  0.83322712  1
  Te  Te120  1  0.49766517  0.49243000  0.17178285  1
  Te  Te121  1  0.49671465  0.49590734  0.49913533  1
  Te  Te122  1  0.49179941  0.50073535  0.82329099  1
  Te  Te123  1  0.49802810  0.83664586  0.16657749  1
  Te  Te124  1  0.49862019  0.83588379  0.49742637  1
  Te  Te125  1  0.49787724  0.83203102  0.83465052  1
  Te  Te126  1  0.82854805  0.16186264  0.16296713  1
  Te  Te127  1  0.82600543  0.16588238  0.50387490  1
  Te  Te128  1  0.82973245  0.16101519  0.83431018  1
  Te  Te129  1  0.83896324  0.49894660  0.16568174  1
  Te  Te130  1  0.83762373  0.49922592  0.50033537  1
  Te  Te131  1  0.83175904  0.50240649  0.83463361  1
  Te  Te132  1  0.83234997  0.83598053  0.16516948  1
  Te  Te133  1  0.83342699  0.83298246  0.50547436  1
  Te  Te134  1  0.83010198  0.83858470  0.84259650  1
  Te  Te135  1  0.17013854  0.00521006  -0.00035050  1
  Te  Te136  1  0.16794477  -0.00221062  0.33298635  1
  Te  Te137  1  0.16354939  0.00260990  0.67089777  1
  Te  Te138  1  0.16355534  0.32806022  0.00970560  1
  Te  Te139  1  0.16654260  0.33535864  0.33093514  1
  Te  Te140  1  0.16605645  0.33278991  0.66326471  1
  Te  Te141  1  0.16645729  0.66637089  0.00096991  1
  Te  Te142  1  0.16425351  0.66775574  0.32912069  1
  Te  Te143  1  0.16506227  0.66452596  0.67039195  1
  Te  Te144  1  0.49288048  -0.00179532  0.00277518  1
  Te  Te145  1  0.49889612  0.00173764  0.33163708  1
  Te  Te146  1  0.50075048  -0.00151949  0.66010715  1
  Te  Te147  1  0.50104099  0.33760105  0.00104872  1
  Te  Te148  1  0.49888436  0.34069964  0.33413483  1
  Te  Te149  1  0.50396948  0.33751454  0.66475881  1
  Te  Te150  1  0.49953159  0.66457874  0.00729684  1
  Te  Te151  1  0.50038040  0.66453368  0.32812213  1
  Te  Te152  1  0.50184640  0.65869575  0.66574788  1
  Te  Te153  1  0.83602961  0.00148641  0.00698396  1
  Te  Te154  1  0.84091458  -0.00044472  0.32693627  1
  Te  Te155  1  0.83962455  0.00672464  0.66249733  1
  Te  Te156  1  0.83995358  0.32776602  -0.00207122  1
  Te  Te157  1  0.83190328  0.33225913  0.33279103  1
  Te  Te158  1  0.83483172  0.32580513  0.66776206  1
  Te  Te159  1  0.83324003  0.66837479  0.00758754  1
  Te  Te160  1  0.83609295  0.66791196  0.32493252  1
  Te  Te161  1  0.83443653  0.66718304  0.66900340  1
  Te  Te162  1  0.00229543  0.16394779  -0.00111237  1
  Te  Te163  1  0.00535310  0.16066247  0.33533399  1
  Te  Te164  1  0.00254404  0.16913072  0.66752823  1
  Te  Te165  1  -0.00086548  0.49751311  0.00426184  1
  Te  Te166  1  0.00362690  0.49795515  0.33138388  1
  Te  Te167  1  0.00684414  0.49589080  0.66518949  1
  Te  Te168  1  -0.00141998  0.83944547  0.00636347  1
  Te  Te169  1  0.00062829  0.83466025  0.32846839  1
  Te  Te170  1  0.00557193  0.83348499  0.66665968  1
  Te  Te171  1  0.33001190  0.16324464  0.00213543  1
  Te  Te172  1  0.32743134  0.16092065  0.33497959  1
  Te  Te173  1  0.32844254  0.16683960  0.66203953  1
  Te  Te174  1  0.33944183  0.49941569  -0.00307541  1
  Te  Te175  1  0.33117034  0.50262012  0.33572699  1
  Te  Te176  1  0.32841155  0.49961744  0.66615388  1
  Te  Te177  1  0.33724275  0.83764678  -0.00495330  1
  Te  Te178  1  0.34031947  0.83936313  0.33601518  1
  Te  Te179  1  0.32850556  0.83173471  0.67368128  1
  Te  Te180  1  0.66584516  0.16059692  0.00316233  1
  Te  Te181  1  0.66965929  0.16111876  0.33128039  1
  Te  Te182  1  0.66356286  0.17056867  0.66782927  1
  Te  Te183  1  0.65849126  0.49815673  -0.00128563  1
  Te  Te184  1  0.66601183  0.50264006  0.33390549  1
  Te  Te185  1  0.67016140  0.49385706  0.66598241  1
  Te  Te186  1  0.66426728  0.83793402  0.00348335  1
  Te  Te187  1  0.66282021  0.83614602  0.32893188  1
  Te  Te188  1  0.66799390  0.83250800  0.66697399  1
  Te  Te189  1  0.01002672  0.00062525  0.16505786  1
  Te  Te190  1  0.00589779  -0.00042231  0.50459799  1
  Te  Te191  1  -0.00641043  -0.00140162  0.82811239  1
  Te  Te192  1  0.00317902  0.33554312  0.16473125  1
  Te  Te193  1  0.00413339  0.33674283  0.50178153  1
  Te  Te194  1  0.00736664  0.33366614  0.83353780  1
  Te  Te195  1  0.00216984  0.66656271  0.16878273  1
  Te  Te196  1  -0.00087922  0.66054272  0.49003828  1
  Te  Te197  1  0.00657349  0.66806524  0.83377177  1
  Te  Te198  1  0.32527907  0.00178995  0.16726459  1
  Te  Te199  1  0.33119767  0.00259972  0.50024989  1
  Te  Te200  1  0.33388875  0.00172270  0.83426855  1
  Te  Te201  1  0.33377156  0.32626112  0.16704748  1
  Te  Te202  1  0.33221074  0.33154120  0.49853787  1
  Te  Te203  1  0.32691857  0.33147438  0.83494812  1
  Te  Te204  1  0.33332949  0.66615553  0.16641039  1
  Te  Te205  1  0.33431793  0.66037934  0.49940157  1
  Te  Te206  1  0.32754726  0.66224831  0.83471678  1
  Te  Te207  1  0.66347002  -0.00177300  0.16633583  1
  Te  Te208  1  0.66590852  0.00646474  0.49731143  1
  Te  Te209  1  0.66937049  -0.00457848  0.83383524  1
  Te  Te210  1  0.66445735  0.33123401  0.16616310  1
  Te  Te211  1  0.66649352  0.32641750  0.50238083  1
  Te  Te212  1  0.66714799  0.33405539  0.82894104  1
  Te  Te213  1  0.66130185  0.66751355  0.17068334  1
  Te  Te214  1  0.66850709  0.66721784  0.49063310  1
  Te  Te215  1  0.66791065  0.67374215  0.83202763  1
