# generated using pymatgen
data_AgSbTe2
_symmetry_space_group_name_H-M   'P 1'
_cell_length_a   18.33358057
_cell_length_b   18.33990082
_cell_length_c   18.33240946
_cell_angle_alpha   90.00272427
_cell_angle_beta   89.99695477
_cell_angle_gamma   90.00163850
_symmetry_Int_Tables_number   1
_chemical_formula_structural   AgSbTe2
_chemical_formula_sum   'Ag54 Sb54 Te108'
_cell_volume   6164.01691324
_cell_formula_units_Z   54
loop_
 _symmetry_equiv_pos_site_id
 _symmetry_equiv_pos_as_xyz
  1  'x, y, z'
loop_
 _atom_site_type_symbol
 _atom_site_label
 _atom_site_symmetry_multiplicity
 _atom_site_fract_x
 _atom_site_fract_y
 _atom_site_fract_z
 _atom_site_occupancy
  Ag  Ag0  1  0.16776053  0.49914514  -0.00252869  1
  Ag  Ag1  1  0.33867580  0.33396491  0.00374714  1
  Ag  Ag2  1  0.34648203  0.33275326  0.32508931  1
  Ag  Ag3  1  0.82805820  0.33396269  0.50923980  1
  Ag  Ag4  1  0.17892531  0.49779565  0.32680492  1
  Ag  Ag5  1  0.66521471  0.16997295  0.49214534  1
  Ag  Ag6  1  0.66049580  0.83626548  0.49707406  1
  Ag  Ag7  1  0.82213155  0.83518447  0.33270451  1
  Ag  Ag8  1  0.00874198  0.66426213  0.00107598  1
  Ag  Ag9  1  0.33442017  0.49256727  0.16714408  1
  Ag  Ag10  1  0.83888229  0.49440230  -0.00049890  1
  Ag  Ag11  1  0.17750173  0.17421847  0.67297820  1
  Ag  Ag12  1  0.33735625  0.00392292  0.32785661  1
  Ag  Ag13  1  0.34360462  0.33504632  0.66794646  1
  Ag  Ag14  1  0.66341029  0.33339102  0.66592589  1
  Ag  Ag15  1  0.49783181  0.00930265  0.17043818  1
  Ag  Ag16  1  0.33737424  0.65969778  0.67085062  1
  Ag  Ag17  1  0.34040169  0.17240701  0.16288268  1
  Ag  Ag18  1  0.17038125  0.17065738  -0.00591797  1
  Ag  Ag19  1  0.17314186  0.49281365  0.67152731  1
  Ag  Ag20  1  0.50350607  0.17286096  0.32889719  1
  Ag  Ag21  1  0.65745219  0.16916250  0.17276299  1
  Ag  Ag22  1  0.50020221  0.48968575  0.33549578  1
  Ag  Ag23  1  -0.00679953  0.33393213  0.67055193  1
  Ag  Ag24  1  0.49190917  0.00801091  0.83409658  1
  Ag  Ag25  1  0.83259741  0.66893920  0.16832122  1
  Ag  Ag26  1  0.33047369  0.66181248  -0.00036509  1
  Ag  Ag27  1  0.66394174  0.33059927  0.33324900  1
  Ag  Ag28  1  0.49383775  0.48973282  0.66361613  1
  Ag  Ag29  1  0.82906412  -0.00016207  0.16706108  1
  Ag  Ag30  1  0.83411236  0.17437734  0.00231450  1
  Ag  Ag31  1  0.66532084  0.65948475  0.33418787  1
  Ag  Ag32  1  0.50198105  0.83478822  0.33805096  1
  Ag  Ag33  1  0.33520422  0.16591583  0.83694609  1
  Ag  Ag34  1  0.34252590  0.83248297  0.50363572  1
  Ag  Ag35  1  0.49961827  0.32908033  0.82733020  1
  Ag  Ag36  1  0.82072018  0.17073225  0.32616207  1
  Ag  Ag37  1  0.66136370  0.33160332  0.00022107  1
  Ag  Ag38  1  0.33492040  0.84127308  0.83429464  1
  Ag  Ag39  1  0.83351697  0.49129202  0.67115334  1
  Ag  Ag40  1  0.50060475  0.67098296  0.49846538  1
  Ag  Ag41  1  0.49630536  0.17305149  0.66685105  1
  Ag  Ag42  1  0.49839859  0.83415956  0.65915308  1
  Ag  Ag43  1  0.33541630  0.83487765  0.16553162  1
  Ag  Ag44  1  0.17601427  0.00302219  0.83404898  1
  Ag  Ag45  1  -0.00212898  0.83306702  0.16546238  1
  Ag  Ag46  1  0.17175914  0.82878645  0.00006193  1
  Ag  Ag47  1  0.82647136  0.49460992  0.32852208  1
  Ag  Ag48  1  0.82695166  0.33096703  0.82972065  1
  Ag  Ag49  1  -0.00187771  0.00647917  0.67155390  1
  Ag  Ag50  1  0.83381388  0.00712497  0.83429551  1
  Ag  Ag51  1  0.82759184  0.83186166  0.66290707  1
  Ag  Ag52  1  0.49866543  0.32661298  0.17620367  1
  Ag  Ag53  1  -0.00055750  0.49671892  0.83314976  1
  Sb  Sb54  1  0.66439089  0.83870641  0.17214294  1
  Sb  Sb55  1  0.49683418  0.49483201  0.00043190  1
  Sb  Sb56  1  0.82704412  0.33145881  0.16415708  1
  Sb  Sb57  1  -0.00203414  0.49953256  0.50565731  1
  Sb  Sb58  1  0.17082111  0.32940431  0.83144120  1
  Sb  Sb59  1  0.66693384  0.00545895  0.66732241  1
  Sb  Sb60  1  0.16487772  0.33375493  0.50369647  1
  Sb  Sb61  1  0.00080121  -0.00095925  0.33468522  1
  Sb  Sb62  1  0.17105649  0.83357216  0.67253545  1
  Sb  Sb63  1  0.17053545  0.00002867  0.16101835  1
  Sb  Sb64  1  0.33455961  0.00196339  0.66870129  1
  Sb  Sb65  1  -0.00008146  0.33803984  -0.00588041  1
  Sb  Sb66  1  0.50140052  0.66607443  0.17231606  1
  Sb  Sb67  1  0.83379179  0.66444396  0.83600917  1
  Sb  Sb68  1  0.33359765  0.00441176  0.00280195  1
  Sb  Sb69  1  0.00225894  0.83257092  0.83639280  1
  Sb  Sb70  1  0.16991256  0.00090067  0.50671529  1
  Sb  Sb71  1  0.00082954  -0.00301096  -0.00411821  1
  Sb  Sb72  1  0.65974221  0.00498818  0.33272624  1
  Sb  Sb73  1  0.66938641  0.49562903  0.83197006  1
  Sb  Sb74  1  0.50460241  0.33440632  0.50032170  1
  Sb  Sb75  1  0.82855539  0.17040141  0.66915244  1
  Sb  Sb76  1  0.82640130  0.66322075  0.49532734  1
  Sb  Sb77  1  -0.00187036  0.16270421  0.16489902  1
  Sb  Sb78  1  0.49556812  0.66479340  0.82707889  1
  Sb  Sb79  1  0.17627049  0.66575229  0.50107516  1
  Sb  Sb80  1  -0.00692793  0.16842664  0.50345216  1
  Sb  Sb81  1  0.83172207  0.00392941  0.49888133  1
  Sb  Sb82  1  0.49916894  -0.00393302  0.49741959  1
  Sb  Sb83  1  0.16973140  0.66797905  0.83577856  1
  Sb  Sb84  1  0.00271062  0.66315239  0.67238983  1
  Sb  Sb85  1  0.17331666  0.82897463  0.32809259  1
  Sb  Sb86  1  0.33069502  0.49422523  0.83449339  1
  Sb  Sb87  1  0.66613298  0.65912628  0.00821766  1
  Sb  Sb88  1  0.16683923  0.66672067  0.16525877  1
  Sb  Sb89  1  0.49797173  0.16992811  0.00223902  1
  Sb  Sb90  1  -0.00608890  0.33550808  0.33685773  1
  Sb  Sb91  1  0.34038301  0.66356364  0.33108726  1
  Sb  Sb92  1  0.66151808  0.83614558  0.82722588  1
  Sb  Sb93  1  0.00092315  0.50266069  0.16209910  1
  Sb  Sb94  1  0.66776157  0.00818669  0.00196277  1
  Sb  Sb95  1  0.49252930  0.83257136  0.00094430  1
  Sb  Sb96  1  0.33725161  0.50087577  0.49893818  1
  Sb  Sb97  1  0.83658348  0.83315170  0.00238966  1
  Sb  Sb98  1  0.17693767  0.33423877  0.16381660  1
  Sb  Sb99  1  -0.00352664  0.83353194  0.49681635  1
  Sb  Sb100  1  0.66156901  0.16956419  0.83482492  1
  Sb  Sb101  1  0.66110003  0.66269601  0.65932987  1
  Sb  Sb102  1  -0.00804384  0.66553099  0.32644743  1
  Sb  Sb103  1  0.34093375  0.16433661  0.49984424  1
  Sb  Sb104  1  0.17363994  0.17160182  0.33223495  1
  Sb  Sb105  1  0.66532441  0.49583040  0.49815434  1
  Sb  Sb106  1  0.66210843  0.49263549  0.17000121  1
  Sb  Sb107  1  0.00270333  0.17042836  0.83197992  1
  Te  Te108  1  0.17123285  0.16667558  0.16238085  1
  Te  Te109  1  0.16600794  0.16642869  0.50693155  1
  Te  Te110  1  0.16886332  0.16389928  0.83281038  1
  Te  Te111  1  0.17169715  0.50033410  0.16580410  1
  Te  Te112  1  0.16599542  0.50047554  0.50322176  1
  Te  Te113  1  0.16348101  0.49876824  0.83292330  1
  Te  Te114  1  0.16891553  0.83336880  0.16053189  1
  Te  Te115  1  0.17119054  0.83285401  0.49873852  1
  Te  Te116  1  0.16986819  0.83913507  0.83925573  1
  Te  Te117  1  0.49743651  0.16631629  0.16699191  1
  Te  Te118  1  0.50518554  0.16418494  0.50046842  1
  Te  Te119  1  0.49685426  0.16753363  0.83226878  1
  Te  Te120  1  0.49473498  0.49810965  0.17060894  1
  Te  Te121  1  0.50060359  0.50771859  0.50129823  1
  Te  Te122  1  0.49937572  0.49396278  0.82581885  1
  Te  Te123  1  0.49680481  0.83592510  0.16907162  1
  Te  Te124  1  0.49964853  0.83461780  0.49953732  1
  Te  Te125  1  0.49479752  0.83575395  0.83120252  1
  Te  Te126  1  0.83486316  0.16408682  0.16612469  1
  Te  Te127  1  0.82634293  0.17105811  0.49521290  1
  Te  Te128  1  0.83315025  0.16813307  0.83636337  1
  Te  Te129  1  0.83313107  0.50055056  0.16718839  1
  Te  Te130  1  0.83217905  0.49568140  0.49999387  1
  Te  Te131  1  0.83518719  0.49820140  0.83310189  1
  Te  Te132  1  0.83135858  0.83629598  0.16858818  1
  Te  Te133  1  0.83091263  0.83311523  0.49917751  1
  Te  Te134  1  0.83299740  0.83497601  0.82948774  1
  Te  Te135  1  0.16623585  0.00433670  -0.00638406  1
  Te  Te136  1  0.17193838  0.00092274  0.33333020  1
  Te  Te137  1  0.16361915  0.00179081  0.67375129  1
  Te  Te138  1  0.17069703  0.33465729  -0.00149586  1
  Te  Te139  1  0.16491793  0.33968325  0.33535241  1
  Te  Te140  1  0.16666172  0.33329185  0.66733749  1
  Te  Te141  1  0.16967702  0.66310372  0.00071935  1
  Te  Te142  1  0.16483438  0.65752384  0.33361970  1
  Te  Te143  1  0.17330077  0.66094034  0.66802576  1
  Te  Te144  1  0.50197897  0.00024353  -0.00365499  1
  Te  Te145  1  0.49522790  -0.00314159  0.33023177  1
  Te  Te146  1  0.50037472  -0.00348637  0.67334280  1
  Te  Te147  1  0.49993960  0.33452314  -0.00480766  1
  Te  Te148  1  0.50234136  0.33241454  0.33607908  1
  Te  Te149  1  0.50230129  0.33270653  0.66422253  1
  Te  Te150  1  0.49458833  0.66296091  0.00004579  1
  Te  Te151  1  0.50451985  0.67168529  0.33634932  1
  Te  Te152  1  0.49662071  0.67282252  0.66255235  1
  Te  Te153  1  0.83443077  0.00225028  0.00047146  1
  Te  Te154  1  0.83653990  -0.00085324  0.33068675  1
  Te  Te155  1  0.83424781  -0.00053846  0.66791364  1
  Te  Te156  1  0.83432394  0.33428540  -0.00248565  1
  Te  Te157  1  0.83010603  0.33252904  0.33101103  1
  Te  Te158  1  0.83049350  0.33194328  0.66907944  1
  Te  Te159  1  0.83192325  0.66199276  0.00439577  1
  Te  Te160  1  0.82765327  0.66767202  0.32999480  1
  Te  Te161  1  0.83264490  0.66770620  0.66632190  1
  Te  Te162  1  0.00184831  0.16745121  -0.00006418  1
  Te  Te163  1  -0.00060165  0.16607057  0.33446997  1
  Te  Te164  1  0.00199953  0.16885757  0.66679658  1
  Te  Te165  1  0.00126631  0.50321750  -0.00259639  1
  Te  Te166  1  -0.00502960  0.50042103  0.33332022  1
  Te  Te167  1  -0.00314979  0.49755871  0.67146860  1
  Te  Te168  1  0.00488788  0.82757292  0.00404080  1
  Te  Te169  1  -0.00125251  0.83295102  0.32715278  1
  Te  Te170  1  -0.00240422  0.83219607  0.66691476  1
  Te  Te171  1  0.33145949  0.17101736  0.00026102  1
  Te  Te172  1  0.33611295  0.17104178  0.33229662  1
  Te  Te173  1  0.33635429  0.16788204  0.66641786  1
  Te  Te174  1  0.33096135  0.49729642  0.00095612  1
  Te  Te175  1  0.33689525  0.49662552  0.33236888  1
  Te  Te176  1  0.33441319  0.49879155  0.66737358  1
  Te  Te177  1  0.33029417  0.83294419  0.00008994  1
  Te  Te178  1  0.33478621  0.83018948  0.32818807  1
  Te  Te179  1  0.33479027  0.83525223  0.66810761  1
  Te  Te180  1  0.67361584  0.17346744  0.00406292  1
  Te  Te181  1  0.66434555  0.16816026  0.33298435  1
  Te  Te182  1  0.66055498  0.17213105  0.66496502  1
  Te  Te183  1  0.67289938  0.49245488  0.00194904  1
  Te  Te184  1  0.66522013  0.49719480  0.33284063  1
  Te  Te185  1  0.66930537  0.49549029  0.66527802  1
  Te  Te186  1  0.66583581  0.83005291  -0.00079012  1
  Te  Te187  1  0.66529689  0.83731317  0.33525032  1
  Te  Te188  1  0.66692423  0.83138197  0.66159796  1
  Te  Te189  1  -0.00378155  -0.00544727  0.16644343  1
  Te  Te190  1  0.00115085  -0.00004246  0.51065335  1
  Te  Te191  1  -0.00710096  -0.00056899  0.82946508  1
  Te  Te192  1  0.00248488  0.33277595  0.16713146  1
  Te  Te193  1  -0.00972960  0.33348947  0.50883340  1
  Te  Te194  1  -0.00673812  0.33669609  0.82921532  1
  Te  Te195  1  -0.00565916  0.67052927  0.16058158  1
  Te  Te196  1  0.00121516  0.66805600  0.50104490  1
  Te  Te197  1  0.00100471  0.66155906  0.84114752  1
  Te  Te198  1  0.33584385  -0.00110174  0.16820267  1
  Te  Te199  1  0.33252714  -0.00678009  0.49050747  1
  Te  Te200  1  0.33417362  0.00295029  0.83413482  1
  Te  Te201  1  0.33893069  0.33307127  0.16631931  1
  Te  Te202  1  0.33279605  0.33260614  0.50549759  1
  Te  Te203  1  0.33720025  0.32897701  0.82932139  1
  Te  Te204  1  0.33419546  0.66951102  0.16239280  1
  Te  Te205  1  0.33962023  0.67231382  0.50414000  1
  Te  Te206  1  0.33363892  0.67336370  0.83384788  1
  Te  Te207  1  0.66625040  0.00779674  0.16585044  1
  Te  Te208  1  0.66693679  -0.00223328  0.50150396  1
  Te  Te209  1  0.67306817  0.00137147  0.83453549  1
  Te  Te210  1  0.66049146  0.32836845  0.16800911  1
  Te  Te211  1  0.66984473  0.33048879  0.49794353  1
  Te  Te212  1  0.66576157  0.33282366  0.83366626  1
  Te  Te213  1  0.67190037  0.66706191  0.17343471  1
  Te  Te214  1  0.66178709  0.67395831  0.49375624  1
  Te  Te215  1  0.66476006  0.66696841  0.83545908  1
