# generated using pymatgen
data_AgSbTe2
_symmetry_space_group_name_H-M   'P 1'
_cell_length_a   18.32519878
_cell_length_b   18.32385543
_cell_length_c   18.32237536
_cell_angle_alpha   89.99888428
_cell_angle_beta   90.00091504
_cell_angle_gamma   89.99633666
_symmetry_Int_Tables_number   1
_chemical_formula_structural   AgSbTe2
_chemical_formula_sum   'Ag54 Sb54 Te108'
_cell_volume   6152.43913543
_cell_formula_units_Z   54
loop_
 _symmetry_equiv_pos_site_id
 _symmetry_equiv_pos_as_xyz
  1  'x, y, z'
loop_
 _atom_site_type_symbol
 _atom_site_label
 _atom_site_symmetry_multiplicity
 _atom_site_fract_x
 _atom_site_fract_y
 _atom_site_fract_z
 _atom_site_occupancy
  Ag  Ag0  1  0.33108554  0.16593657  0.50844428  1
  Ag  Ag1  1  -0.00330672  0.50665571  0.83743116  1
  Ag  Ag2  1  0.33471004  0.33133443  0.34044023  1
  Ag  Ag3  1  0.16558304  -0.00124921  0.50122620  1
  Ag  Ag4  1  0.49867690  0.33170994  0.50601044  1
  Ag  Ag5  1  0.49799857  0.32732517  0.83429708  1
  Ag  Ag6  1  0.82824452  0.33904905  0.83363340  1
  Ag  Ag7  1  0.83173063  0.16758969  0.33384789  1
  Ag  Ag8  1  0.50255714  0.67066529  0.50756584  1
  Ag  Ag9  1  0.65877087  0.16872102  0.84060329  1
  Ag  Ag10  1  0.17262961  0.33398358  0.83765486  1
  Ag  Ag11  1  0.33238999  -0.00090793  0.66738814  1
  Ag  Ag12  1  0.34097498  0.83697599  0.82804395  1
  Ag  Ag13  1  0.49980051  0.16398239  -0.00471353  1
  Ag  Ag14  1  0.65978009  0.83187747  0.83712904  1
  Ag  Ag15  1  0.50755796  0.67362120  0.83191244  1
  Ag  Ag16  1  0.16661322  0.50153031  0.67486387  1
  Ag  Ag17  1  0.83056244  0.66296145  0.83615448  1
  Ag  Ag18  1  0.00349748  0.66953037  0.67501283  1
  Ag  Ag19  1  0.83133997  0.66461524  0.49946558  1
  Ag  Ag20  1  0.67210125  0.50152093  0.83609732  1
  Ag  Ag21  1  0.16138595  0.49565818  -0.00564652  1
  Ag  Ag22  1  -0.00087213  0.50675132  0.15495171  1
  Ag  Ag23  1  0.82892613  0.33451782  0.50232868  1
  Ag  Ag24  1  0.33872350  0.83442143  0.50851430  1
  Ag  Ag25  1  0.00264597  -0.00426181  0.66924971  1
  Ag  Ag26  1  0.50162398  0.84069399  -0.00505364  1
  Ag  Ag27  1  0.16609028  0.67127214  0.50319763  1
  Ag  Ag28  1  0.66566188  0.33347407  -0.00675644  1
  Ag  Ag29  1  -0.00246274  0.82512088  0.83512757  1
  Ag  Ag30  1  0.67217574  0.66703310  -0.00787215  1
  Ag  Ag31  1  0.33305602  0.32605169  0.67101598  1
  Ag  Ag32  1  -0.00433657  0.66416568  -0.00819538  1
  Ag  Ag33  1  0.33174080  0.32924536  -0.01130010  1
  Ag  Ag34  1  0.83490638  0.66891124  0.16165954  1
  Ag  Ag35  1  0.32818943  0.66926603  0.66712869  1
  Ag  Ag36  1  0.00295226  0.33709437  -0.00505069  1
  Ag  Ag37  1  0.16869036  0.17184118  -0.00149520  1
  Ag  Ag38  1  0.67073750  0.67319184  0.33016990  1
  Ag  Ag39  1  0.66664358  0.83804413  0.16454195  1
  Ag  Ag40  1  0.15711595  0.66882717  0.16353603  1
  Ag  Ag41  1  -0.00644058  0.00228772  0.32812677  1
  Ag  Ag42  1  0.00468061  -0.00019135  -0.00106746  1
  Ag  Ag43  1  0.51184120  0.00020831  0.15756124  1
  Ag  Ag44  1  0.50310012  -0.00122016  0.83709150  1
  Ag  Ag45  1  0.33921604  0.17125427  0.83137357  1
  Ag  Ag46  1  0.82825998  -0.00230897  0.16851320  1
  Ag  Ag47  1  0.00393954  0.16241013  0.50021077  1
  Ag  Ag48  1  0.16144976  -0.00326693  0.16622326  1
  Ag  Ag49  1  0.66252884  -0.00133457  0.66923555  1
  Ag  Ag50  1  0.66182331  0.83150537  0.50089013  1
  Ag  Ag51  1  0.83351654  0.49932851  0.33422539  1
  Ag  Ag52  1  0.66784766  0.15628452  0.15980965  1
  Ag  Ag53  1  0.67063530  -0.00434093  0.32755616  1
  Sb  Sb54  1  0.83084164  0.83412675  0.33296204  1
  Sb  Sb55  1  0.32583563  0.50085337  0.16415836  1
  Sb  Sb56  1  0.49750919  0.16622941  0.67460224  1
  Sb  Sb57  1  0.50272970  0.83435677  0.33172810  1
  Sb  Sb58  1  0.33432028  0.00334348  0.33982684  1
  Sb  Sb59  1  0.33231721  0.66350925  -0.00716802  1
  Sb  Sb60  1  0.67340488  0.50411258  0.15976069  1
  Sb  Sb61  1  0.83104115  0.16617240  0.00172820  1
  Sb  Sb62  1  0.00324419  0.33437169  0.67265152  1
  Sb  Sb63  1  0.83300343  0.33445182  0.16386506  1
  Sb  Sb64  1  -0.00410285  0.16457199  0.16662139  1
  Sb  Sb65  1  0.33742043  0.66346712  0.34099484  1
  Sb  Sb66  1  0.66198732  0.32849896  0.67386425  1
  Sb  Sb67  1  -0.00079169  0.49848622  0.50315072  1
  Sb  Sb68  1  0.16404886  0.16560945  0.33019824  1
  Sb  Sb69  1  0.84141401  0.50139459  -0.00004342  1
  Sb  Sb70  1  0.16859781  0.33181350  0.50562287  1
  Sb  Sb71  1  0.16393948  0.66141914  0.83185742  1
  Sb  Sb72  1  -0.00719789  0.67104179  0.33323507  1
  Sb  Sb73  1  0.16860888  0.16881191  0.67116696  1
  Sb  Sb74  1  0.33284380  0.49819109  0.50261487  1
  Sb  Sb75  1  0.49854116  0.83284063  0.67465618  1
  Sb  Sb76  1  0.83593066  -0.00094873  0.49571771  1
  Sb  Sb77  1  0.33575834  0.16465196  0.16333598  1
  Sb  Sb78  1  0.66480572  0.16324601  0.50091529  1
  Sb  Sb79  1  0.16618576  0.33211713  0.15812467  1
  Sb  Sb80  1  0.33752464  0.83585817  0.16243755  1
  Sb  Sb81  1  0.66838853  0.50470443  0.50644002  1
  Sb  Sb82  1  0.66581798  -0.00167128  0.00052957  1
  Sb  Sb83  1  0.16906039  0.83230595  -0.00173814  1
  Sb  Sb84  1  0.83242667  0.83276592  0.66770297  1
  Sb  Sb85  1  -0.00078666  0.16689359  0.83253815  1
  Sb  Sb86  1  -0.00584185  0.83278015  0.15953247  1
  Sb  Sb87  1  0.82955921  -0.00166098  0.83782062  1
  Sb  Sb88  1  0.49555876  0.50081052  0.67045551  1
  Sb  Sb89  1  0.66554969  0.33295933  0.33110233  1
  Sb  Sb90  1  0.16908102  0.00380950  0.83106143  1
  Sb  Sb91  1  0.16097544  0.50076518  0.33220826  1
  Sb  Sb92  1  0.50348792  0.16580725  0.32995057  1
  Sb  Sb93  1  0.16873528  0.82886845  0.66713657  1
  Sb  Sb94  1  0.66775887  0.67233576  0.67159717  1
  Sb  Sb95  1  0.50540061  0.67251104  0.16223908  1
  Sb  Sb96  1  0.83821662  0.50228394  0.66843846  1
  Sb  Sb97  1  0.00102040  0.33025769  0.33049991  1
  Sb  Sb98  1  0.33179810  0.00439221  -0.00782673  1
  Sb  Sb99  1  0.33098994  0.49641807  0.83242517  1
  Sb  Sb100  1  0.82704617  0.83193989  -0.00092357  1
  Sb  Sb101  1  0.16688038  0.83378840  0.33394404  1
  Sb  Sb102  1  0.49798604  0.49736318  -0.00365349  1
  Sb  Sb103  1  0.83430350  0.16686440  0.66433555  1
  Sb  Sb104  1  -0.00022623  0.83614796  0.50537151  1
  Sb  Sb105  1  0.49803994  -0.00072046  0.50421760  1
  Sb  Sb106  1  0.50088601  0.32736051  0.16047882  1
  Sb  Sb107  1  0.50678166  0.50006036  0.33485931  1
  Te  Te108  1  0.16672474  0.16059622  0.16070395  1
  Te  Te109  1  0.16803091  0.16417068  0.49875821  1
  Te  Te110  1  0.16983110  0.17170940  0.83838839  1
  Te  Te111  1  0.15938546  0.50484438  0.16458995  1
  Te  Te112  1  0.16529761  0.50523809  0.50081121  1
  Te  Te113  1  0.16408363  0.49584759  0.83429741  1
  Te  Te114  1  0.16823451  0.83308296  0.16660097  1
  Te  Te115  1  0.16963277  0.83297394  0.50017066  1
  Te  Te116  1  0.16763661  0.83423865  0.83415997  1
  Te  Te117  1  0.50449596  0.16065464  0.16044651  1
  Te  Te118  1  0.49499183  0.16946748  0.49873056  1
  Te  Te119  1  0.49922135  0.16721551  0.83632457  1
  Te  Te120  1  0.49924991  0.50138450  0.16661384  1
  Te  Te121  1  0.50106697  0.49903202  0.50091374  1
  Te  Te122  1  0.50569555  0.50081054  0.83362853  1
  Te  Te123  1  0.50481426  0.83908231  0.15965480  1
  Te  Te124  1  0.50055619  0.83138245  0.49840691  1
  Te  Te125  1  0.49988800  0.83348804  0.83624393  1
  Te  Te126  1  0.82875596  0.16495780  0.17105107  1
  Te  Te127  1  0.83380095  0.16963697  0.49628899  1
  Te  Te128  1  0.82846699  0.17107899  0.83323500  1
  Te  Te129  1  0.83823718  0.50362814  0.17200574  1
  Te  Te130  1  0.83341339  0.50035330  0.49729292  1
  Te  Te131  1  0.83428373  0.50087741  0.83366858  1
  Te  Te132  1  0.82716869  0.83132402  0.16614422  1
  Te  Te133  1  0.82798977  0.82631246  0.50033611  1
  Te  Te134  1  0.83516074  0.82871977  0.83369217  1
  Te  Te135  1  0.16414695  0.00190748  0.00133813  1
  Te  Te136  1  0.16410039  0.00071472  0.33525961  1
  Te  Te137  1  0.16648516  0.00232441  0.66230310  1
  Te  Te138  1  0.16519454  0.33221566  -0.00203198  1
  Te  Te139  1  0.17208756  0.33389242  0.33231458  1
  Te  Te140  1  0.17111491  0.33840045  0.67319311  1
  Te  Te141  1  0.16462552  0.66387171  0.00364160  1
  Te  Te142  1  0.16714959  0.66605770  0.33425920  1
  Te  Te143  1  0.16517369  0.66302862  0.66500774  1
  Te  Te144  1  0.49804375  0.00242345  -0.00220548  1
  Te  Te145  1  0.50552401  0.00062055  0.32779756  1
  Te  Te146  1  0.49886438  0.00008054  0.67212997  1
  Te  Te147  1  0.50084230  0.33052699  -0.00431969  1
  Te  Te148  1  0.49674233  0.33400591  0.33734600  1
  Te  Te149  1  0.49457194  0.33444883  0.66650145  1
  Te  Te150  1  0.50169127  0.66616340  -0.00547317  1
  Te  Te151  1  0.50752640  0.66596768  0.33686585  1
  Te  Te152  1  0.49594376  0.66568490  0.66681007  1
  Te  Te153  1  0.84434959  -0.00056612  0.00577676  1
  Te  Te154  1  0.83205906  0.00257300  0.33074136  1
  Te  Te155  1  0.83818164  0.00021598  0.66659113  1
  Te  Te156  1  0.83195112  0.33337031  -0.00408054  1
  Te  Te157  1  0.83362116  0.33150282  0.33645141  1
  Te  Te158  1  0.83390214  0.33480884  0.66493374  1
  Te  Te159  1  0.83330125  0.66623228  -0.00130520  1
  Te  Te160  1  0.82977344  0.66574764  0.33549260  1
  Te  Te161  1  0.83945469  0.66617309  0.66799180  1
  Te  Te162  1  0.00247977  0.16721361  -0.00063675  1
  Te  Te163  1  -0.00404088  0.16241367  0.33641868  1
  Te  Te164  1  0.00174092  0.16250467  0.66105885  1
  Te  Te165  1  0.00284956  0.50221922  -0.00203670  1
  Te  Te166  1  -0.00674158  0.49921336  0.33194143  1
  Te  Te167  1  0.00542801  0.50332200  0.67162452  1
  Te  Te168  1  0.00159501  0.83080465  -0.00576375  1
  Te  Te169  1  -0.00026857  0.84324308  0.33353035  1
  Te  Te170  1  0.00057116  0.83322688  0.67267291  1
  Te  Te171  1  0.33375545  0.17029508  -0.00315791  1
  Te  Te172  1  0.33364456  0.17174344  0.33570814  1
  Te  Te173  1  0.33248094  0.16550441  0.66833996  1
  Te  Te174  1  0.32416103  0.49262223  0.00004135  1
  Te  Te175  1  0.33375350  0.49296651  0.33225058  1
  Te  Te176  1  0.32710960  0.50660975  0.66674153  1
  Te  Te177  1  0.34020571  0.83294241  -0.00642302  1
  Te  Te178  1  0.33521277  0.83321476  0.34269837  1
  Te  Te179  1  0.33343817  0.83398305  0.66715595  1
  Te  Te180  1  0.66566304  0.16645412  0.00019463  1
  Te  Te181  1  0.67078278  0.16437806  0.33171215  1
  Te  Te182  1  0.66694714  0.15759378  0.67078574  1
  Te  Te183  1  0.66522844  0.50083984  -0.00534826  1
  Te  Te184  1  0.67417478  0.50240269  0.33268270  1
  Te  Te185  1  0.66736210  0.49866569  0.67610360  1
  Te  Te186  1  0.66207208  0.83109632  -0.00234419  1
  Te  Te187  1  0.66615653  0.83301617  0.33325867  1
  Te  Te188  1  0.66637820  0.83974377  0.66680002  1
  Te  Te189  1  0.00101040  -0.00090580  0.16554970  1
  Te  Te190  1  0.00200476  0.00062248  0.50382401  1
  Te  Te191  1  -0.00060683  -0.00082779  0.83301085  1
  Te  Te192  1  -0.00065846  0.33669350  0.16039312  1
  Te  Te193  1  -0.00229260  0.32786273  0.50032274  1
  Te  Te194  1  -0.00387502  0.33322117  0.83584808  1
  Te  Te195  1  -0.00226188  0.66748704  0.16775578  1
  Te  Te196  1  -0.00052882  0.66796757  0.50129679  1
  Te  Te197  1  0.00151285  0.66628640  0.83295133  1
  Te  Te198  1  0.32658980  -0.00153531  0.17059145  1
  Te  Te199  1  0.33101833  0.00076060  0.50427076  1
  Te  Te200  1  0.33587034  -0.00076801  0.82837060  1
  Te  Te201  1  0.33422831  0.33287927  0.16719861  1
  Te  Te202  1  0.33380230  0.33072528  0.50566553  1
  Te  Te203  1  0.33571372  0.33348114  0.83167921  1
  Te  Te204  1  0.33095346  0.66857326  0.16813288  1
  Te  Te205  1  0.33359123  0.66848932  0.50306620  1
  Te  Te206  1  0.33566784  0.66763695  0.82898190  1
  Te  Te207  1  0.66897925  -0.00080080  0.16494247  1
  Te  Te208  1  0.66627455  -0.00438164  0.50095287  1
  Te  Te209  1  0.66527413  -0.00254517  0.83333987  1
  Te  Te210  1  0.66654095  0.33230266  0.15986281  1
  Te  Te211  1  0.66670916  0.33343433  0.50099863  1
  Te  Te212  1  0.66686591  0.32999208  0.83401844  1
  Te  Te213  1  0.67005637  0.66930105  0.16560845  1
  Te  Te214  1  0.66691435  0.66916810  0.50474815  1
  Te  Te215  1  0.66802134  0.67004113  0.83248079  1
