# generated using pymatgen
data_AgSbTe2
_symmetry_space_group_name_H-M   'P 1'
_cell_length_a   18.31682558
_cell_length_b   18.32714471
_cell_length_c   18.32207926
_cell_angle_alpha   89.99858150
_cell_angle_beta   90.00059727
_cell_angle_gamma   89.99744908
_symmetry_Int_Tables_number   1
_chemical_formula_structural   AgSbTe2
_chemical_formula_sum   'Ag54 Sb54 Te108'
_cell_volume   6150.63246122
_cell_formula_units_Z   54
loop_
 _symmetry_equiv_pos_site_id
 _symmetry_equiv_pos_as_xyz
  1  'x, y, z'
loop_
 _atom_site_type_symbol
 _atom_site_label
 _atom_site_symmetry_multiplicity
 _atom_site_fract_x
 _atom_site_fract_y
 _atom_site_fract_z
 _atom_site_occupancy
  Ag  Ag0  1  0.50816746  0.82969598  0.65970235  1
  Ag  Ag1  1  0.66505447  0.83230421  0.50466527  1
  Ag  Ag2  1  0.83520542  0.49706116  0.66071482  1
  Ag  Ag3  1  -0.00500721  0.50460238  0.50333840  1
  Ag  Ag4  1  0.50623789  0.33593855  0.16287612  1
  Ag  Ag5  1  0.82832663  0.83755551  -0.00083340  1
  Ag  Ag6  1  0.67114808  0.66747407  0.66641825  1
  Ag  Ag7  1  0.16789103  0.66083030  0.82333820  1
  Ag  Ag8  1  0.83262081  0.33220989  0.50397832  1
  Ag  Ag9  1  0.51070643  0.66295246  0.17349374  1
  Ag  Ag10  1  0.16431589  0.66860843  0.50687282  1
  Ag  Ag11  1  -0.00272146  0.66522220  0.66442333  1
  Ag  Ag12  1  0.33580994  0.16928536  0.15931969  1
  Ag  Ag13  1  0.67203294  0.34250938  0.66943153  1
  Ag  Ag14  1  0.49855983  0.00187783  0.82955211  1
  Ag  Ag15  1  0.82743839  0.00160936  0.17266800  1
  Ag  Ag16  1  0.33646315  0.00880005  0.00013392  1
  Ag  Ag17  1  0.83060308  0.83062311  0.66344549  1
  Ag  Ag18  1  0.17556508  0.16824135  -0.00369278  1
  Ag  Ag19  1  0.34540564  0.66179961  0.33362546  1
  Ag  Ag20  1  0.50279072  0.82806696  0.34012364  1
  Ag  Ag21  1  0.50253564  -0.00706094  0.49955589  1
  Ag  Ag22  1  0.33459670  0.16431242  0.50016305  1
  Ag  Ag23  1  0.82516384  0.33829707  0.17066042  1
  Ag  Ag24  1  0.66292665  0.66702572  0.32393739  1
  Ag  Ag25  1  0.83602210  0.17065122  0.66401588  1
  Ag  Ag26  1  0.17608389  0.33459537  0.83154369  1
  Ag  Ag27  1  0.66809007  0.66597552  0.01138837  1
  Ag  Ag28  1  0.00163456  0.16790664  0.83029376  1
  Ag  Ag29  1  0.33043125  0.17391499  0.83973554  1
  Ag  Ag30  1  -0.00873483  0.33806773  0.66673315  1
  Ag  Ag31  1  0.50563277  -0.00221579  0.16883464  1
  Ag  Ag32  1  0.66866252  0.50909051  0.16938607  1
  Ag  Ag33  1  0.83393934  0.00012834  0.49901420  1
  Ag  Ag34  1  0.50494371  0.50419170  0.66197052  1
  Ag  Ag35  1  -0.00831326  -0.00102929  0.34230889  1
  Ag  Ag36  1  0.34077896  0.32713112  -0.00282558  1
  Ag  Ag37  1  -0.00503472  0.83224409  0.50382050  1
  Ag  Ag38  1  0.33770983  0.33505779  0.32938858  1
  Ag  Ag39  1  0.66723152  0.82240486  0.16728537  1
  Ag  Ag40  1  0.82269968  0.65948990  0.16768779  1
  Ag  Ag41  1  0.82871894  0.49708445  0.33186257  1
  Ag  Ag42  1  0.49564661  0.33194310  0.83620392  1
  Ag  Ag43  1  0.50511418  0.50874163  0.33498041  1
  Ag  Ag44  1  -0.01406773  0.49989202  0.17563641  1
  Ag  Ag45  1  0.66357817  0.33691832  0.00052195  1
  Ag  Ag46  1  0.83558791  0.16559435  0.00206483  1
  Ag  Ag47  1  -0.00504600  -0.00576397  0.66210294  1
  Ag  Ag48  1  0.34416622  0.83539911  0.50130756  1
  Ag  Ag49  1  0.83494211  0.16931027  0.33409489  1
  Ag  Ag50  1  0.15917271  0.50627621  0.66716257  1
  Ag  Ag51  1  0.33427998  0.49147493  0.83100270  1
  Ag  Ag52  1  0.15760381  0.82332263  0.66408890  1
  Ag  Ag53  1  0.66572633  0.82991329  0.82487981  1
  Sb  Sb54  1  0.67142898  0.50681336  0.49936839  1
  Sb  Sb55  1  -0.00230560  0.33183535  0.33692927  1
  Sb  Sb56  1  0.16631988  0.66521610  0.16761020  1
  Sb  Sb57  1  0.82586730  0.83154749  0.33771134  1
  Sb  Sb58  1  -0.00269704  0.16954890  0.16334116  1
  Sb  Sb59  1  0.33287604  0.00002907  0.66747854  1
  Sb  Sb60  1  0.50374842  0.16609389  0.33231157  1
  Sb  Sb61  1  -0.00089277  0.16551193  0.50531305  1
  Sb  Sb62  1  0.50703135  0.83426182  0.00005970  1
  Sb  Sb63  1  0.33606820  0.33428253  0.66977446  1
  Sb  Sb64  1  0.49834402  0.66504529  0.83345729  1
  Sb  Sb65  1  0.17192666  0.83104884  0.34081314  1
  Sb  Sb66  1  0.83090486  0.49801459  0.00330324  1
  Sb  Sb67  1  0.49934813  0.16757035  0.00044267  1
  Sb  Sb68  1  0.33896286  0.66594819  0.00333830  1
  Sb  Sb69  1  0.17102955  0.00204554  0.83089940  1
  Sb  Sb70  1  0.67075343  -0.00591361  0.66639832  1
  Sb  Sb71  1  0.50113625  0.49727882  0.00186383  1
  Sb  Sb72  1  -0.00261357  0.33291847  -0.00439579  1
  Sb  Sb73  1  0.33264158  0.66723066  0.66130460  1
  Sb  Sb74  1  0.49856695  0.67246056  0.49556759  1
  Sb  Sb75  1  -0.01128747  0.83006414  0.17345405  1
  Sb  Sb76  1  0.50486975  0.16628457  0.66687718  1
  Sb  Sb77  1  0.66691970  0.16856545  0.16571033  1
  Sb  Sb78  1  0.82871093  0.00041420  0.83048337  1
  Sb  Sb79  1  0.66820440  0.16257740  0.50164967  1
  Sb  Sb80  1  -0.00479083  0.83673461  0.82368737  1
  Sb  Sb81  1  0.66448872  -0.00116124  0.00071192  1
  Sb  Sb82  1  0.16373606  0.33679976  0.50729136  1
  Sb  Sb83  1  0.16708866  0.00013827  0.16603418  1
  Sb  Sb84  1  -0.00081278  0.00162578  -0.00212688  1
  Sb  Sb85  1  0.34359532  0.83680107  0.17143795  1
  Sb  Sb86  1  0.66567768  0.34045923  0.33153058  1
  Sb  Sb87  1  0.33842391  0.83360898  0.82823463  1
  Sb  Sb88  1  0.50391266  0.33031126  0.50039121  1
  Sb  Sb89  1  0.16548214  0.50016209  0.33874674  1
  Sb  Sb90  1  0.33906772  0.49458588  0.16600766  1
  Sb  Sb91  1  0.66312715  0.50217061  0.83206067  1
  Sb  Sb92  1  0.83366416  0.66730032  0.83194245  1
  Sb  Sb93  1  0.33398592  0.00159662  0.33224125  1
  Sb  Sb94  1  0.00320594  0.49581838  0.82543132  1
  Sb  Sb95  1  -0.00444524  0.66859062  0.33930367  1
  Sb  Sb96  1  0.66573233  0.16619874  0.83347657  1
  Sb  Sb97  1  0.16199679  0.16895654  0.67142882  1
  Sb  Sb98  1  0.16752324  0.49592871  -0.00731467  1
  Sb  Sb99  1  0.16463221  0.16785090  0.33119786  1
  Sb  Sb100  1  0.16204263  0.83630315  -0.00845679  1
  Sb  Sb101  1  0.83479923  0.66776107  0.50015490  1
  Sb  Sb102  1  0.16756261  0.33391152  0.16071280  1
  Sb  Sb103  1  -0.00622176  0.66632906  -0.00473217  1
  Sb  Sb104  1  0.66961015  -0.00663844  0.33291744  1
  Sb  Sb105  1  0.16403920  -0.00504251  0.50273959  1
  Sb  Sb106  1  0.33159925  0.50118420  0.50249783  1
  Sb  Sb107  1  0.83088400  0.33180861  0.82987090  1
  Te  Te108  1  0.17116987  0.16708580  0.16054130  1
  Te  Te109  1  0.17391738  0.16766590  0.49982517  1
  Te  Te110  1  0.16925176  0.16887965  0.83608596  1
  Te  Te111  1  0.16219433  0.49997662  0.16701177  1
  Te  Te112  1  0.16137085  0.50441628  0.50619041  1
  Te  Te113  1  0.16945697  0.49820149  0.82795234  1
  Te  Te114  1  0.16480755  0.83261194  0.16337490  1
  Te  Te115  1  0.16255144  0.82940495  0.50514870  1
  Te  Te116  1  0.16742911  0.83006378  0.82606229  1
  Te  Te117  1  0.49659126  0.16715404  0.16792537  1
  Te  Te118  1  0.49585113  0.15939794  0.49971620  1
  Te  Te119  1  0.49586027  0.16638276  0.83229390  1
  Te  Te120  1  0.50284752  0.49726312  0.17032461  1
  Te  Te121  1  0.50035608  0.49854225  0.50037920  1
  Te  Te122  1  0.49630981  0.49722517  0.82849050  1
  Te  Te123  1  0.50548288  0.83585085  0.16717064  1
  Te  Te124  1  0.50131988  0.83475370  0.50019796  1
  Te  Te125  1  0.50429126  0.83404989  0.82962714  1
  Te  Te126  1  0.83395525  0.16467319  0.16772659  1
  Te  Te127  1  0.83480169  0.16438019  0.50090159  1
  Te  Te128  1  0.83582529  0.16550897  0.83220849  1
  Te  Te129  1  0.82972066  0.49834641  0.16611779  1
  Te  Te130  1  0.83508115  0.49863408  0.50015841  1
  Te  Te131  1  0.83408133  0.50029587  0.82521763  1
  Te  Te132  1  0.82842106  0.83739772  0.16893430  1
  Te  Te133  1  0.83347959  0.83569319  0.50205958  1
  Te  Te134  1  0.82756193  0.83438447  0.83285395  1
  Te  Te135  1  0.17196810  0.00476640  -0.00075006  1
  Te  Te136  1  0.15679069  -0.00034426  0.33327914  1
  Te  Te137  1  0.15802319  -0.00484985  0.66705577  1
  Te  Te138  1  0.16804856  0.32908245  -0.00673022  1
  Te  Te139  1  0.17424683  0.33347634  0.33386839  1
  Te  Te140  1  0.16324462  0.33748720  0.67192599  1
  Te  Te141  1  0.16697769  0.66728358  -0.00454672  1
  Te  Te142  1  0.16962096  0.66574849  0.33666126  1
  Te  Te143  1  0.17035053  0.66664792  0.66670823  1
  Te  Te144  1  0.49659311  0.00011589  0.00373579  1
  Te  Te145  1  0.49980912  -0.00214842  0.33278661  1
  Te  Te146  1  0.50053363  -0.00270328  0.66501788  1
  Te  Te147  1  0.50125133  0.33329957  0.00060097  1
  Te  Te148  1  0.49809378  0.33376048  0.33148777  1
  Te  Te149  1  0.50515627  0.33449585  0.66843051  1
  Te  Te150  1  0.50612316  0.66626327  0.00661377  1
  Te  Te151  1  0.50162345  0.66616278  0.33249547  1
  Te  Te152  1  0.50133907  0.66628215  0.66650445  1
  Te  Te153  1  0.83237051  0.00092934  0.00219401  1
  Te  Te154  1  0.83357169  -0.00102474  0.33476210  1
  Te  Te155  1  0.83565429  -0.00138367  0.66448395  1
  Te  Te156  1  0.83034316  0.33053916  0.00211664  1
  Te  Te157  1  0.83318687  0.33583949  0.33252921  1
  Te  Te158  1  0.83189560  0.33406004  0.66728802  1
  Te  Te159  1  0.82820053  0.66993955  0.00303698  1
  Te  Te160  1  0.82997520  0.66235441  0.32906158  1
  Te  Te161  1  0.83380901  0.66910588  0.66685395  1
  Te  Te162  1  -0.00357662  0.16700022  -0.00537158  1
  Te  Te163  1  -0.00444479  0.16269024  0.33294844  1
  Te  Te164  1  -0.00323208  0.16924091  0.66951075  1
  Te  Te165  1  -0.00032370  0.50050900  0.00611484  1
  Te  Te166  1  -0.00391857  0.50004418  0.33721124  1
  Te  Te167  1  -0.00228163  0.50222896  0.66511500  1
  Te  Te168  1  -0.00840582  0.83352474  -0.00018949  1
  Te  Te169  1  0.00296467  0.83691137  0.34079562  1
  Te  Te170  1  -0.00380425  0.83024817  0.66420434  1
  Te  Te171  1  0.33525659  0.16817126  -0.00088514  1
  Te  Te172  1  0.33261923  0.16939448  0.33433123  1
  Te  Te173  1  0.33249088  0.16621988  0.66485767  1
  Te  Te174  1  0.33301122  0.49559258  -0.00562792  1
  Te  Te175  1  0.33550240  0.49901237  0.33430001  1
  Te  Te176  1  0.33823032  0.50022729  0.66966272  1
  Te  Te177  1  0.33146373  0.83641735  0.00048860  1
  Te  Te178  1  0.33887022  0.83229914  0.33897636  1
  Te  Te179  1  0.33884867  0.83418761  0.66105572  1
  Te  Te180  1  0.67518313  0.17289837  -0.00121906  1
  Te  Te181  1  0.67580093  0.16887921  0.33432806  1
  Te  Te182  1  0.67450113  0.17398537  0.66793815  1
  Te  Te183  1  0.66694779  0.50050140  0.00269906  1
  Te  Te184  1  0.66664039  0.50508002  0.33287412  1
  Te  Te185  1  0.66685865  0.50213882  0.66580528  1
  Te  Te186  1  0.67093704  0.83179817  0.00383677  1
  Te  Te187  1  0.66147099  0.82786922  0.33283184  1
  Te  Te188  1  0.66799891  0.83269391  0.66561867  1
  Te  Te189  1  -0.00561276  -0.00052301  0.16720192  1
  Te  Te190  1  -0.00290051  -0.00060479  0.50206382  1
  Te  Te191  1  0.00043685  0.00557855  0.82912612  1
  Te  Te192  1  -0.00363310  0.33816251  0.16749612  1
  Te  Te193  1  -0.00445445  0.33525658  0.50452682  1
  Te  Te194  1  0.00140486  0.32952933  0.82857175  1
  Te  Te195  1  -0.00311974  0.66153688  0.16700536  1
  Te  Te196  1  0.00178083  0.66751025  0.50370496  1
  Te  Te197  1  0.00568179  0.66736296  0.82765590  1
  Te  Te198  1  0.33539719  0.00455198  0.16439783  1
  Te  Te199  1  0.33515115  -0.00145008  0.49915347  1
  Te  Te200  1  0.33886614  0.00156875  0.83679623  1
  Te  Te201  1  0.33434072  0.33045532  0.16430926  1
  Te  Te202  1  0.33390448  0.33100582  0.49748923  1
  Te  Te203  1  0.33592270  0.33252552  0.83313655  1
  Te  Te204  1  0.33604688  0.66648285  0.17240869  1
  Te  Te205  1  0.32816011  0.66924396  0.49407167  1
  Te  Te206  1  0.32981598  0.66535963  0.83735588  1
  Te  Te207  1  0.66631687  -0.00000964  0.16657413  1
  Te  Te208  1  0.66746180  -0.00529521  0.49959775  1
  Te  Te209  1  0.65764743  -0.00523868  0.83378697  1
  Te  Te210  1  0.66581695  0.33405579  0.16531619  1
  Te  Te211  1  0.67260680  0.33153617  0.50360586  1
  Te  Te212  1  0.66046010  0.33437915  0.83496908  1
  Te  Te213  1  0.66664603  0.66573755  0.16767862  1
  Te  Te214  1  0.66717323  0.67335537  0.50818636  1
  Te  Te215  1  0.66577649  0.67039482  0.82674721  1
