# generated using pymatgen
data_AgSbTe2
_symmetry_space_group_name_H-M   'P 1'
_cell_length_a   18.33685697
_cell_length_b   18.33376194
_cell_length_c   18.33175774
_cell_angle_alpha   90.00005626
_cell_angle_beta   89.99715704
_cell_angle_gamma   90.00040027
_symmetry_Int_Tables_number   1
_chemical_formula_structural   AgSbTe2
_chemical_formula_sum   'Ag54 Sb54 Te108'
_cell_volume   6162.83576319
_cell_formula_units_Z   54
loop_
 _symmetry_equiv_pos_site_id
 _symmetry_equiv_pos_as_xyz
  1  'x, y, z'
loop_
 _atom_site_type_symbol
 _atom_site_label
 _atom_site_symmetry_multiplicity
 _atom_site_fract_x
 _atom_site_fract_y
 _atom_site_fract_z
 _atom_site_occupancy
  Ag  Ag0  1  0.83285757  0.15636615  0.33170713  1
  Ag  Ag1  1  0.82949744  0.00749289  0.49086775  1
  Ag  Ag2  1  0.82994882  0.00806412  0.17796166  1
  Ag  Ag3  1  0.66876159  0.83865986  0.49469287  1
  Ag  Ag4  1  0.15794068  0.33807057  0.16427399  1
  Ag  Ag5  1  -0.00176100  0.33144614  0.66630458  1
  Ag  Ag6  1  0.51509917  0.15826136  0.33341987  1
  Ag  Ag7  1  0.00016231  0.66813356  0.00339592  1
  Ag  Ag8  1  0.33495393  0.66600160  0.66686134  1
  Ag  Ag9  1  0.83107705  0.66394948  0.49588623  1
  Ag  Ag10  1  -0.00634909  0.49916083  0.49350110  1
  Ag  Ag11  1  0.66901089  0.33509779  0.00305380  1
  Ag  Ag12  1  0.51153543  -0.00182633  0.49637425  1
  Ag  Ag13  1  0.83482759  0.33144995  0.17034045  1
  Ag  Ag14  1  0.33496383  0.50422727  0.83395599  1
  Ag  Ag15  1  0.83025185  0.84325099  0.33155057  1
  Ag  Ag16  1  0.50634590  0.50772455  -0.00147132  1
  Ag  Ag17  1  0.50954347  0.83433081  0.33351157  1
  Ag  Ag18  1  0.83592184  0.33062842  0.49015391  1
  Ag  Ag19  1  0.33275561  0.66591085  0.00136960  1
  Ag  Ag20  1  0.50476817  0.50362742  0.67131637  1
  Ag  Ag21  1  0.83872015  0.66491703  0.84182690  1
  Ag  Ag22  1  0.49837573  0.66583089  0.16394523  1
  Ag  Ag23  1  0.67433816  0.00229655  0.33078753  1
  Ag  Ag24  1  0.83283590  0.50135723  0.65921836  1
  Ag  Ag25  1  0.16624708  0.66115166  0.16307418  1
  Ag  Ag26  1  0.83094585  0.16133695  0.01084897  1
  Ag  Ag27  1  -0.00661158  0.50132801  0.17379711  1
  Ag  Ag28  1  -0.00023978  0.16471218  0.83305953  1
  Ag  Ag29  1  -0.00291232  0.66188656  0.32981857  1
  Ag  Ag30  1  0.67458451  0.16044665  0.48704503  1
  Ag  Ag31  1  0.33138190  -0.00265717  0.66311339  1
  Ag  Ag32  1  0.66978825  0.00207389  0.00719951  1
  Ag  Ag33  1  0.16346246  0.33870558  0.84203851  1
  Ag  Ag34  1  0.67319632  0.49684278  0.16318296  1
  Ag  Ag35  1  -0.01301924  0.00126119  0.33738266  1
  Ag  Ag36  1  0.33083218  0.66658167  0.33159870  1
  Ag  Ag37  1  0.15700823  0.17017010  0.32839901  1
  Ag  Ag38  1  0.83078618  0.83189262  0.00617456  1
  Ag  Ag39  1  0.16137405  0.66245675  0.84493148  1
  Ag  Ag40  1  0.67100209  0.16869325  0.16819260  1
  Ag  Ag41  1  -0.00543640  0.16713790  0.49545409  1
  Ag  Ag42  1  -0.00203639  0.82990043  0.83687476  1
  Ag  Ag43  1  0.83691465  0.50224475  0.33576453  1
  Ag  Ag44  1  0.15395868  0.50021083  0.32884088  1
  Ag  Ag45  1  0.50873177  0.82392788  0.00535456  1
  Ag  Ag46  1  0.16009802  0.16671074  0.00616508  1
  Ag  Ag47  1  0.66569991  0.50221448  0.84527808  1
  Ag  Ag48  1  0.51334913  0.16491186  0.00640595  1
  Ag  Ag49  1  0.50653762  0.67017978  0.49165976  1
  Ag  Ag50  1  0.15765959  0.82211640  -0.00058216  1
  Ag  Ag51  1  -0.00114453  0.00582673  0.65894082  1
  Ag  Ag52  1  0.33820243  0.16461697  0.49655864  1
  Ag  Ag53  1  0.66495104  0.66414946  0.00181757  1
  Sb  Sb54  1  -0.00742217  0.17281735  0.16984789  1
  Sb  Sb55  1  0.82804553  0.50300167  0.00267089  1
  Sb  Sb56  1  0.67001041  0.00146143  0.66020647  1
  Sb  Sb57  1  0.16333202  0.16723914  0.66605620  1
  Sb  Sb58  1  0.34075997  0.83503374  0.49893997  1
  Sb  Sb59  1  0.66929623  0.83240678  0.16855729  1
  Sb  Sb60  1  0.16267518  0.00242395  0.49841803  1
  Sb  Sb61  1  0.49848634  0.16886713  0.66242381  1
  Sb  Sb62  1  0.33098683  0.33644337  0.33416623  1
  Sb  Sb63  1  0.67339825  0.49985036  0.49514357  1
  Sb  Sb64  1  0.33616165  -0.00189167  0.33815325  1
  Sb  Sb65  1  0.50792720  -0.00293274  0.17106919  1
  Sb  Sb66  1  0.67356609  0.17106190  0.84152112  1
  Sb  Sb67  1  0.67012034  0.67098758  0.32932286  1
  Sb  Sb68  1  0.83408856  0.82930983  0.66444999  1
  Sb  Sb69  1  0.67191390  0.82728048  0.83725576  1
  Sb  Sb70  1  -0.00714731  -0.00209489  0.00296640  1
  Sb  Sb71  1  0.00042646  0.66565891  0.66617594  1
  Sb  Sb72  1  0.49799304  0.33613579  0.83469510  1
  Sb  Sb73  1  0.83766636  0.33734016  0.83600246  1
  Sb  Sb74  1  0.49956082  0.82826333  0.66585757  1
  Sb  Sb75  1  0.33538114  0.83096253  0.16647531  1
  Sb  Sb76  1  -0.00372441  0.33608656  -0.00150042  1
  Sb  Sb77  1  0.16442716  -0.00080575  0.83570731  1
  Sb  Sb78  1  0.15636210  0.00164016  0.16661596  1
  Sb  Sb79  1  0.32719393  0.17053810  0.83193169  1
  Sb  Sb80  1  0.16506427  0.66536316  0.49574650  1
  Sb  Sb81  1  0.50185195  0.00007938  0.83129723  1
  Sb  Sb82  1  -0.00121106  0.50174729  0.83409011  1
  Sb  Sb83  1  0.50837665  0.33287144  0.49789088  1
  Sb  Sb84  1  0.83504378  -0.00303170  0.83254792  1
  Sb  Sb85  1  -0.00835733  0.83425117  0.50005195  1
  Sb  Sb86  1  -0.00350304  0.82644372  0.16324139  1
  Sb  Sb87  1  0.66454074  0.66383974  0.66890155  1
  Sb  Sb88  1  0.67254397  0.33613109  0.67029620  1
  Sb  Sb89  1  0.32797249  0.33593296  0.66670496  1
  Sb  Sb90  1  0.33883694  -0.00415200  -0.00488732  1
  Sb  Sb91  1  0.33133014  0.49951376  0.50278071  1
  Sb  Sb92  1  0.33311941  0.50366604  0.16277770  1
  Sb  Sb93  1  0.16427262  0.83126383  0.67243077  1
  Sb  Sb94  1  0.15836013  0.33177182  0.49719578  1
  Sb  Sb95  1  0.33676667  0.16730075  0.17068596  1
  Sb  Sb96  1  0.50354609  0.33594218  0.16532749  1
  Sb  Sb97  1  0.16229418  0.83057590  0.32748410  1
  Sb  Sb98  1  0.67087997  0.32687888  0.32754168  1
  Sb  Sb99  1  0.16303817  0.50127691  0.66479441  1
  Sb  Sb100  1  0.33500965  0.33791193  0.00001490  1
  Sb  Sb101  1  0.83606461  0.17057221  0.65965768  1
  Sb  Sb102  1  0.50332900  0.50518835  0.33151161  1
  Sb  Sb103  1  -0.00370866  0.33521202  0.33745049  1
  Sb  Sb104  1  0.32846206  0.82498005  0.83550874  1
  Sb  Sb105  1  0.83349699  0.66364399  0.16753219  1
  Sb  Sb106  1  0.16831365  0.50295156  0.00406699  1
  Sb  Sb107  1  0.49954324  0.66457353  0.83894040  1
  Te  Te108  1  0.16732365  0.16854625  0.16731610  1
  Te  Te109  1  0.16020114  0.16787089  0.49384094  1
  Te  Te110  1  0.16272555  0.16996267  0.83766716  1
  Te  Te111  1  0.16727688  0.50105119  0.17016239  1
  Te  Te112  1  0.16086237  0.49849662  0.49245358  1
  Te  Te113  1  0.16739744  0.50154964  0.83279636  1
  Te  Te114  1  0.16577548  0.82968534  0.15886309  1
  Te  Te115  1  0.16655457  0.83309653  0.49875676  1
  Te  Te116  1  0.16153236  0.82790848  0.84058133  1
  Te  Te117  1  0.50400862  0.16671739  0.16779452  1
  Te  Te118  1  0.50210258  0.16647755  0.49728574  1
  Te  Te119  1  0.49885354  0.16808238  0.83794191  1
  Te  Te120  1  0.50331919  0.50326473  0.16256098  1
  Te  Te121  1  0.50120798  0.50315167  0.50111734  1
  Te  Te122  1  0.50164298  0.50014407  0.83473782  1
  Te  Te123  1  0.50140631  0.82884510  0.16710031  1
  Te  Te124  1  0.50551850  0.83140949  0.49853141  1
  Te  Te125  1  0.50166526  0.83390365  0.84059665  1
  Te  Te126  1  0.83203896  0.16904315  0.16934154  1
  Te  Te127  1  0.83395516  0.16751632  0.49840089  1
  Te  Te128  1  0.83945730  0.16810461  0.83533675  1
  Te  Te129  1  0.83365617  0.49759348  0.16810763  1
  Te  Te130  1  0.83398217  0.50161301  0.49855693  1
  Te  Te131  1  0.83122037  0.50418644  0.83107778  1
  Te  Te132  1  0.83357681  0.83890999  0.16763418  1
  Te  Te133  1  0.82901217  0.82816114  0.49729258  1
  Te  Te134  1  0.83700906  0.82701601  0.83576564  1
  Te  Te135  1  0.16897817  0.00375981  0.00142903  1
  Te  Te136  1  0.16608185  0.00313481  0.33094936  1
  Te  Te137  1  0.16522017  -0.00096788  0.66707764  1
  Te  Te138  1  0.16681378  0.33115316  0.00176677  1
  Te  Te139  1  0.16668199  0.33333461  0.32929886  1
  Te  Te140  1  0.15997365  0.33446059  0.67021929  1
  Te  Te141  1  0.16525622  0.66467885  0.00177309  1
  Te  Te142  1  0.16455048  0.66624652  0.32889123  1
  Te  Te143  1  0.17252627  0.66602392  0.66924862  1
  Te  Te144  1  0.50509068  0.00383906  0.00003018  1
  Te  Te145  1  0.50057527  -0.00171929  0.33711170  1
  Te  Te146  1  0.49847086  -0.00036964  0.65934036  1
  Te  Te147  1  0.50399858  0.32816203  0.00101090  1
  Te  Te148  1  0.49911352  0.32400166  0.33245334  1
  Te  Te149  1  0.49876365  0.34222569  0.66631771  1
  Te  Te150  1  0.50123486  0.66693849  0.00043552  1
  Te  Te151  1  0.50256946  0.66952901  0.33235968  1
  Te  Te152  1  0.49649437  0.66312883  0.66524253  1
  Te  Te153  1  0.82974860  -0.00059652  -0.00165266  1
  Te  Te154  1  0.83092851  -0.00024421  0.33534397  1
  Te  Te155  1  0.83796075  -0.00138088  0.66247593  1
  Te  Te156  1  0.83011127  0.32913556  0.00348431  1
  Te  Te157  1  0.83229483  0.33932316  0.33111142  1
  Te  Te158  1  0.83851886  0.33902424  0.66727665  1
  Te  Te159  1  0.83572489  0.66892574  0.00172141  1
  Te  Te160  1  0.83558229  0.66250452  0.33310610  1
  Te  Te161  1  0.83386602  0.66212400  0.66167267  1
  Te  Te162  1  -0.00056178  0.16578396  -0.00026602  1
  Te  Te163  1  -0.00302489  0.16599686  0.33449402  1
  Te  Te164  1  0.00007619  0.16606212  0.66622264  1
  Te  Te165  1  -0.00016050  0.50624143  0.00210461  1
  Te  Te166  1  -0.00177353  0.49977378  0.33410838  1
  Te  Te167  1  -0.00403045  0.49842661  0.66361983  1
  Te  Te168  1  -0.00233269  0.83130149  -0.00250291  1
  Te  Te169  1  -0.00465416  0.83239296  0.33309103  1
  Te  Te170  1  0.00004989  0.83827400  0.67417352  1
  Te  Te171  1  0.33136796  0.16579257  -0.00030081  1
  Te  Te172  1  0.32936973  0.16730264  0.33769446  1
  Te  Te173  1  0.33189825  0.16377665  0.66178184  1
  Te  Te174  1  0.34007235  0.50510902  -0.00453013  1
  Te  Te175  1  0.33533525  0.50673559  0.33439639  1
  Te  Te176  1  0.33428215  0.50332739  0.66954475  1
  Te  Te177  1  0.33711912  0.82809824  -0.00021131  1
  Te  Te178  1  0.33573636  0.82663552  0.33351675  1
  Te  Te179  1  0.33230292  0.83219417  0.66729501  1
  Te  Te180  1  0.67054982  0.16528714  0.00184338  1
  Te  Te181  1  0.67104038  0.16419599  0.33075684  1
  Te  Te182  1  0.66551652  0.16836033  0.66797353  1
  Te  Te183  1  0.66670025  0.50220058  0.00249244  1
  Te  Te184  1  0.67002954  0.49867097  0.32682728  1
  Te  Te185  1  0.66741037  0.49884605  0.66753549  1
  Te  Te186  1  0.66897487  0.83188069  0.00030458  1
  Te  Te187  1  0.66855663  0.83697307  0.33470473  1
  Te  Te188  1  0.66588243  0.83369298  0.66100869  1
  Te  Te189  1  -0.00866838  0.00026078  0.17309872  1
  Te  Te190  1  -0.00328563  0.00098007  0.49803990  1
  Te  Te191  1  0.00066661  0.00365732  0.83215274  1
  Te  Te192  1  -0.00121184  0.34054313  0.16430618  1
  Te  Te193  1  -0.00503567  0.33205944  0.50510788  1
  Te  Te194  1  0.00440175  0.33168286  0.83093507  1
  Te  Te195  1  0.00055403  0.66186988  0.16723169  1
  Te  Te196  1  -0.00265932  0.66491327  0.49775507  1
  Te  Te197  1  0.00013716  0.66764607  0.83321189  1
  Te  Te198  1  0.33275439  -0.00019367  0.16579412  1
  Te  Te199  1  0.33288348  0.00372344  0.50382635  1
  Te  Te200  1  0.33323221  0.00022599  0.82396901  1
  Te  Te201  1  0.32267314  0.33519666  0.16677582  1
  Te  Te202  1  0.33391951  0.32626601  0.50166567  1
  Te  Te203  1  0.32449646  0.33981017  0.83258311  1
  Te  Te204  1  0.33421008  0.66647606  0.16580263  1
  Te  Te205  1  0.33480960  0.66629837  0.49937822  1
  Te  Te206  1  0.33139234  0.66317310  0.83563918  1
  Te  Te207  1  0.67027618  0.00422320  0.16709141  1
  Te  Te208  1  0.66861648  0.00082310  0.49867608  1
  Te  Te209  1  0.66706687  0.00032542  0.83629813  1
  Te  Te210  1  0.66870602  0.33295876  0.16184667  1
  Te  Te211  1  0.67536033  0.32798765  0.50223034  1
  Te  Te212  1  0.66673015  0.33969363  0.84035906  1
  Te  Te213  1  0.66437745  0.66270093  0.16248310  1
  Te  Te214  1  0.66640867  0.66720024  0.49953598  1
  Te  Te215  1  0.67258496  0.66223565  0.83750524  1
