# generated using pymatgen
data_AgSbTe2
_symmetry_space_group_name_H-M   'P 1'
_cell_length_a   18.35232012
_cell_length_b   18.34026032
_cell_length_c   18.34135942
_cell_angle_alpha   90.00509761
_cell_angle_beta   90.00333689
_cell_angle_gamma   89.99741610
_symmetry_Int_Tables_number   1
_chemical_formula_structural   AgSbTe2
_chemical_formula_sum   'Ag54 Sb54 Te108'
_cell_volume   6173.45078421
_cell_formula_units_Z   54
loop_
 _symmetry_equiv_pos_site_id
 _symmetry_equiv_pos_as_xyz
  1  'x, y, z'
loop_
 _atom_site_type_symbol
 _atom_site_label
 _atom_site_symmetry_multiplicity
 _atom_site_fract_x
 _atom_site_fract_y
 _atom_site_fract_z
 _atom_site_occupancy
  Ag  Ag0  1  0.83383285  0.66684540  0.83038048  1
  Ag  Ag1  1  0.00426649  0.67113430  -0.00610315  1
  Ag  Ag2  1  0.33063179  0.16266148  0.49586525  1
  Ag  Ag3  1  0.82644709  0.15433176  0.34050343  1
  Ag  Ag4  1  0.00897197  0.50583606  0.82657282  1
  Ag  Ag5  1  0.84427415  0.83207403  0.00280431  1
  Ag  Ag6  1  0.49272764  0.50924455  -0.01164943  1
  Ag  Ag7  1  0.49810403  0.00314817  0.49106452  1
  Ag  Ag8  1  0.83431199  0.49964406  0.66745397  1
  Ag  Ag9  1  0.16999814  0.33740214  0.50089072  1
  Ag  Ag10  1  0.00756235  0.67731437  0.33671326  1
  Ag  Ag11  1  0.00137559  0.83734344  0.49132829  1
  Ag  Ag12  1  0.50201466  0.66324661  0.83404460  1
  Ag  Ag13  1  0.17491585  -0.00680281  0.16974808  1
  Ag  Ag14  1  0.65687375  0.83898917  0.17005057  1
  Ag  Ag15  1  0.50066187  0.15448733  0.33519681  1
  Ag  Ag16  1  0.66985774  0.16793655  0.83327800  1
  Ag  Ag17  1  0.48866383  0.83236185  0.00442329  1
  Ag  Ag18  1  0.33208278  -0.00520599  0.01396010  1
  Ag  Ag19  1  0.16654932  0.34562249  0.82936015  1
  Ag  Ag20  1  0.34253693  -0.00047475  0.32629194  1
  Ag  Ag21  1  -0.00035557  0.15604753  0.82586975  1
  Ag  Ag22  1  0.16723615  0.67582287  0.17271813  1
  Ag  Ag23  1  0.50210376  0.50235402  0.66937041  1
  Ag  Ag24  1  0.32728562  -0.00110893  0.66310428  1
  Ag  Ag25  1  0.33684642  0.31962114  0.33711681  1
  Ag  Ag26  1  0.66135029  0.15704156  0.17984720  1
  Ag  Ag27  1  0.00348632  0.00093407  0.65897063  1
  Ag  Ag28  1  0.00672972  0.83081753  0.83390227  1
  Ag  Ag29  1  0.65494429  0.00149008  0.33323758  1
  Ag  Ag30  1  0.33831193  0.15068982  0.17816752  1
  Ag  Ag31  1  0.17008201  0.50992460  -0.00812511  1
  Ag  Ag32  1  0.84218928  0.00194523  0.49555874  1
  Ag  Ag33  1  0.16329896  0.66406642  0.49390470  1
  Ag  Ag34  1  0.00068261  -0.00544525  0.34055395  1
  Ag  Ag35  1  0.65770894  0.31971511  0.33589999  1
  Ag  Ag36  1  0.00324898  0.50344495  0.50709574  1
  Ag  Ag37  1  0.66111805  0.50156799  0.82706066  1
  Ag  Ag38  1  0.66666483  0.66061113  0.66982846  1
  Ag  Ag39  1  0.32535632  0.83369530  0.84103297  1
  Ag  Ag40  1  0.00120551  0.15419246  0.50295857  1
  Ag  Ag41  1  0.49168747  0.84297151  0.32750059  1
  Ag  Ag42  1  0.16877035  0.83148823  0.00762379  1
  Ag  Ag43  1  0.16843998  0.83446373  0.32795281  1
  Ag  Ag44  1  0.16280188  0.50095319  0.67159529  1
  Ag  Ag45  1  0.32675268  0.68078418  0.33368033  1
  Ag  Ag46  1  0.49445535  0.32681018  0.49592174  1
  Ag  Ag47  1  0.83522398  0.16652384  0.66101673  1
  Ag  Ag48  1  0.16816987  -0.00328553  0.83565798  1
  Ag  Ag49  1  0.33207329  0.83766675  0.16568025  1
  Ag  Ag50  1  0.66716278  0.49983214  0.50777243  1
  Ag  Ag51  1  0.48706530  -0.00281630  0.17937563  1
  Ag  Ag52  1  0.84412150  0.83750638  0.33085235  1
  Ag  Ag53  1  0.32778650  0.50821322  0.83306867  1
  Sb  Sb54  1  0.83438267  0.32926383  0.49986480  1
  Sb  Sb55  1  0.00163897  0.33099335  0.66560519  1
  Sb  Sb56  1  -0.00099391  0.66713879  0.66653197  1
  Sb  Sb57  1  0.49890236  0.16232210  0.00494195  1
  Sb  Sb58  1  0.16753138  0.50739581  0.33653818  1
  Sb  Sb59  1  0.00096476  0.16159535  0.17203588  1
  Sb  Sb60  1  0.49699707  0.66903299  0.50136279  1
  Sb  Sb61  1  0.83672085  0.50867351  -0.01088457  1
  Sb  Sb62  1  0.66610204  0.67156083  0.33665274  1
  Sb  Sb63  1  0.50343499  0.16941674  0.66128653  1
  Sb  Sb64  1  0.83649708  0.33625503  0.83213170  1
  Sb  Sb65  1  0.83156953  -0.00365738  0.17607721  1
  Sb  Sb66  1  0.49448975  -0.00404251  0.83294269  1
  Sb  Sb67  1  0.83419980  0.15642398  -0.00013179  1
  Sb  Sb68  1  0.66754133  0.16891998  0.49800570  1
  Sb  Sb69  1  0.49858180  0.83122684  0.66622398  1
  Sb  Sb70  1  0.66400131  0.33350429  0.00222715  1
  Sb  Sb71  1  0.83963390  -0.00389045  0.82793157  1
  Sb  Sb72  1  0.66742412  0.66881786  -0.00466656  1
  Sb  Sb73  1  0.66128181  -0.00242405  0.00665157  1
  Sb  Sb74  1  0.49599489  0.34020845  0.82744600  1
  Sb  Sb75  1  0.00374785  0.32939563  0.33898658  1
  Sb  Sb76  1  0.33100738  0.16286145  0.83071675  1
  Sb  Sb77  1  0.17027193  0.33303006  0.16981403  1
  Sb  Sb78  1  0.17174618  0.15823389  0.33565325  1
  Sb  Sb79  1  0.83819177  0.67026046  0.50315513  1
  Sb  Sb80  1  0.66302414  0.50222587  0.16611372  1
  Sb  Sb81  1  0.83617344  0.83341992  0.66529796  1
  Sb  Sb82  1  0.16191995  0.16698664  0.66512618  1
  Sb  Sb83  1  0.32845041  0.83918468  0.49476772  1
  Sb  Sb84  1  0.33309515  0.33145582  0.00245885  1
  Sb  Sb85  1  0.00666013  -0.00703190  -0.00116897  1
  Sb  Sb86  1  0.33353742  0.66831470  0.66559604  1
  Sb  Sb87  1  0.33108305  0.33110078  0.66205991  1
  Sb  Sb88  1  0.33174145  0.49660750  0.50409194  1
  Sb  Sb89  1  0.00659532  0.83410486  0.16953314  1
  Sb  Sb90  1  0.00315887  0.34017031  -0.00496587  1
  Sb  Sb91  1  0.16541076  0.83099833  0.66625789  1
  Sb  Sb92  1  0.49841178  0.50147054  0.33585218  1
  Sb  Sb93  1  0.16561580  0.66831932  0.83358979  1
  Sb  Sb94  1  0.16649811  -0.00115504  0.49826128  1
  Sb  Sb95  1  0.32828902  0.67434241  0.00140511  1
  Sb  Sb96  1  0.66799383  -0.00172321  0.66161293  1
  Sb  Sb97  1  0.83408803  0.50261226  0.34170134  1
  Sb  Sb98  1  0.83121058  0.33030384  0.17132280  1
  Sb  Sb99  1  0.83814551  0.67072564  0.16397666  1
  Sb  Sb100  1  0.33313916  0.50440863  0.16328382  1
  Sb  Sb101  1  0.67015001  0.83239362  0.49391183  1
  Sb  Sb102  1  0.66566230  0.33883882  0.66147030  1
  Sb  Sb103  1  0.16675124  0.16236674  -0.00170185  1
  Sb  Sb104  1  0.00253336  0.50391893  0.16599984  1
  Sb  Sb105  1  0.49419462  0.67643303  0.16277882  1
  Sb  Sb106  1  0.66704003  0.83270726  0.83795308  1
  Sb  Sb107  1  0.49827748  0.32672221  0.17374773  1
  Te  Te108  1  0.17108517  0.16365545  0.16631354  1
  Te  Te109  1  0.16388366  0.17207028  0.50083176  1
  Te  Te110  1  0.16171276  0.16237324  0.83211314  1
  Te  Te111  1  0.16726401  0.50156847  0.15718651  1
  Te  Te112  1  0.16582217  0.49932338  0.50168324  1
  Te  Te113  1  0.16801714  0.50401381  0.83231194  1
  Te  Te114  1  0.16859414  0.83349391  0.16702205  1
  Te  Te115  1  0.16128821  0.82986485  0.49759857  1
  Te  Te116  1  0.16640843  0.83400472  0.83161162  1
  Te  Te117  1  0.50037182  0.16102073  0.17030457  1
  Te  Te118  1  0.49959279  0.16671932  0.49704021  1
  Te  Te119  1  0.50354849  0.16893006  0.83340601  1
  Te  Te120  1  0.50005139  0.50075590  0.15890123  1
  Te  Te121  1  0.50167310  0.50054574  0.50354016  1
  Te  Te122  1  0.50126260  0.50075929  0.83118491  1
  Te  Te123  1  0.49579694  0.83684918  0.16623110  1
  Te  Te124  1  0.50063003  0.83767762  0.49621519  1
  Te  Te125  1  0.49919212  0.82844434  0.83584486  1
  Te  Te126  1  0.82780789  0.16426881  0.16992093  1
  Te  Te127  1  0.83583788  0.16386553  0.49971863  1
  Te  Te128  1  0.83721139  0.16677099  0.83241964  1
  Te  Te129  1  0.83213249  0.50000768  0.16461725  1
  Te  Te130  1  0.83462640  0.49994442  0.50651904  1
  Te  Te131  1  0.83257840  0.50336180  0.82772398  1
  Te  Te132  1  0.82862988  0.83249094  0.16720326  1
  Te  Te133  1  0.83796783  0.83831892  0.49648475  1
  Te  Te134  1  0.83488780  0.82903792  0.83565022  1
  Te  Te135  1  0.17150815  -0.00379789  -0.00275837  1
  Te  Te136  1  0.16302143  -0.00426439  0.33317561  1
  Te  Te137  1  0.16466800  -0.00018115  0.66956319  1
  Te  Te138  1  0.16820132  0.33675548  -0.00433505  1
  Te  Te139  1  0.17235244  0.33491751  0.33746901  1
  Te  Te140  1  0.16742821  0.33972124  0.66708314  1
  Te  Te141  1  0.16416062  0.66930849  0.00003230  1
  Te  Te142  1  0.16715185  0.66852137  0.33272879  1
  Te  Te143  1  0.16662121  0.66108361  0.65825711  1
  Te  Te144  1  0.49389195  -0.00530238  0.00047937  1
  Te  Te145  1  0.49945440  -0.00073722  0.33416208  1
  Te  Te146  1  0.49884709  0.00040052  0.66308346  1
  Te  Te147  1  0.49892534  0.33826617  0.00007478  1
  Te  Te148  1  0.49841997  0.33500399  0.33787473  1
  Te  Te149  1  0.49825810  0.33940964  0.65760793  1
  Te  Te150  1  0.49937993  0.66850953  -0.00401500  1
  Te  Te151  1  0.49680109  0.67036197  0.33228188  1
  Te  Te152  1  0.50222556  0.66335599  0.66952658  1
  Te  Te153  1  0.83321338  -0.00942252  0.00007557  1
  Te  Te154  1  0.84188471  -0.00182870  0.33643245  1
  Te  Te155  1  0.83606966  0.00351582  0.66028598  1
  Te  Te156  1  0.83353024  0.33261623  0.00205138  1
  Te  Te157  1  0.82990365  0.33011602  0.33473405  1
  Te  Te158  1  0.83283260  0.33109963  0.66683416  1
  Te  Te159  1  0.83977277  0.67354438  -0.00496007  1
  Te  Te160  1  0.83637498  0.67197976  0.33320063  1
  Te  Te161  1  0.82974358  0.66373956  0.67044487  1
  Te  Te162  1  -0.00108784  0.16732590  -0.00592213  1
  Te  Te163  1  -0.00379209  0.16399690  0.33816485  1
  Te  Te164  1  -0.00326398  0.16390093  0.66491470  1
  Te  Te165  1  0.00430683  0.50770320  -0.00455529  1
  Te  Te166  1  -0.00072683  0.50166003  0.33680533  1
  Te  Te167  1  -0.00015044  0.50079781  0.66773770  1
  Te  Te168  1  0.00400547  0.83012503  -0.00259660  1
  Te  Te169  1  0.00235214  0.83366656  0.33264543  1
  Te  Te170  1  -0.00112756  0.83865083  0.67206705  1
  Te  Te171  1  0.33441439  0.16020978  0.00256313  1
  Te  Te172  1  0.33349722  0.16167838  0.33579125  1
  Te  Te173  1  0.33510950  0.16116744  0.66127863  1
  Te  Te174  1  0.33314802  0.49904811  -0.00443790  1
  Te  Te175  1  0.33417710  0.49960102  0.33213423  1
  Te  Te176  1  0.33417426  0.50029275  0.67197408  1
  Te  Te177  1  0.33007997  0.83497779  0.00019008  1
  Te  Te178  1  0.33100562  0.83840367  0.33428846  1
  Te  Te179  1  0.33337417  0.83677674  0.67384247  1
  Te  Te180  1  0.66696329  0.16626241  -0.00444988  1
  Te  Te181  1  0.66542976  0.16310631  0.33588285  1
  Te  Te182  1  0.67162598  0.16690362  0.67085813  1
  Te  Te183  1  0.66518458  0.50012665  -0.00391071  1
  Te  Te184  1  0.66724167  0.50131764  0.33545697  1
  Te  Te185  1  0.66735323  0.50010277  0.66815303  1
  Te  Te186  1  0.66260368  0.83374167  0.00627491  1
  Te  Te187  1  0.66470961  0.83609884  0.33032890  1
  Te  Te188  1  0.66719267  0.82723292  0.66683671  1
  Te  Te189  1  0.00841852  0.00159094  0.16899993  1
  Te  Te190  1  0.00287249  -0.00209423  0.50095253  1
  Te  Te191  1  0.00368963  -0.00219157  0.83305543  1
  Te  Te192  1  0.00075347  0.33208027  0.16662630  1
  Te  Te193  1  0.00537083  0.34253725  0.49980147  1
  Te  Te194  1  0.00613824  0.33951667  0.83234627  1
  Te  Te195  1  0.00592147  0.66640676  0.17142951  1
  Te  Te196  1  0.00192541  0.66571390  0.49894895  1
  Te  Te197  1  -0.00072639  0.66788381  0.83240879  1
  Te  Te198  1  0.33106828  -0.00373561  0.16952484  1
  Te  Te199  1  0.33240421  0.00201404  0.50236205  1
  Te  Te200  1  0.33000940  -0.00182661  0.82537655  1
  Te  Te201  1  0.33319105  0.33087097  0.17381246  1
  Te  Te202  1  0.33293258  0.33009394  0.49698736  1
  Te  Te203  1  0.32752887  0.33238157  0.83373463  1
  Te  Te204  1  0.32781388  0.67101342  0.17255690  1
  Te  Te205  1  0.32887380  0.66693134  0.49552843  1
  Te  Te206  1  0.33714808  0.66776800  0.83250167  1
  Te  Te207  1  0.66645850  -0.00029429  0.17157748  1
  Te  Te208  1  0.66280235  -0.00007885  0.49594507  1
  Te  Te209  1  0.66696150  0.00399277  0.83221910  1
  Te  Te210  1  0.66518785  0.32883810  0.17367430  1
  Te  Te211  1  0.66547941  0.33829646  0.49439551  1
  Te  Te212  1  0.66630490  0.33401615  0.83375515  1
  Te  Te213  1  0.66700862  0.67155326  0.16695879  1
  Te  Te214  1  0.66625424  0.66147545  0.50502312  1
  Te  Te215  1  0.66651248  0.66512168  0.83080769  1
