# generated using pymatgen
data_AgSbTe2
_symmetry_space_group_name_H-M   'P 1'
_cell_length_a   18.33297041
_cell_length_b   18.33584937
_cell_length_c   18.33243310
_cell_angle_alpha   90.00144991
_cell_angle_beta   90.00132928
_cell_angle_gamma   89.99745231
_symmetry_Int_Tables_number   1
_chemical_formula_structural   AgSbTe2
_chemical_formula_sum   'Ag54 Sb54 Te108'
_cell_volume   6162.45808219
_cell_formula_units_Z   54
loop_
 _symmetry_equiv_pos_site_id
 _symmetry_equiv_pos_as_xyz
  1  'x, y, z'
loop_
 _atom_site_type_symbol
 _atom_site_label
 _atom_site_symmetry_multiplicity
 _atom_site_fract_x
 _atom_site_fract_y
 _atom_site_fract_z
 _atom_site_occupancy
  Ag  Ag0  1  0.66356782  0.17691350  0.16975267  1
  Ag  Ag1  1  0.16736805  0.66681226  0.82477457  1
  Ag  Ag2  1  0.49430089  0.66475861  0.50606974  1
  Ag  Ag3  1  0.00242740  0.83372564  0.16723555  1
  Ag  Ag4  1  0.50348086  0.82392739  0.66711582  1
  Ag  Ag5  1  0.16487698  0.82523702  0.66780828  1
  Ag  Ag6  1  0.16822428  -0.00014855  0.16894465  1
  Ag  Ag7  1  0.50211302  0.33705282  0.16874932  1
  Ag  Ag8  1  0.66297700  0.33805117  0.32803340  1
  Ag  Ag9  1  0.83141493  0.67113172  0.82770388  1
  Ag  Ag10  1  0.33202776  0.00386666  0.32772922  1
  Ag  Ag11  1  0.83306123  0.16724546  0.00248703  1
  Ag  Ag12  1  0.50245433  0.49944228  0.33557026  1
  Ag  Ag13  1  -0.00009096  -0.00842947  0.66805514  1
  Ag  Ag14  1  0.66726273  0.49840725  0.50622097  1
  Ag  Ag15  1  0.34339339  0.33794919  0.66932222  1
  Ag  Ag16  1  0.17713496  0.50190874  0.33172561  1
  Ag  Ag17  1  0.33432034  0.17263923  0.16836618  1
  Ag  Ag18  1  0.82347045  0.32974347  0.16445812  1
  Ag  Ag19  1  0.83169744  0.82321301  0.67215358  1
  Ag  Ag20  1  0.83040509  0.33566963  0.49890109  1
  Ag  Ag21  1  0.67151626  0.82523969  0.82735603  1
  Ag  Ag22  1  0.17423484  0.33185464  0.16819178  1
  Ag  Ag23  1  0.66880696  0.50016191  0.82151855  1
  Ag  Ag24  1  0.49186897  0.65857822  0.17449747  1
  Ag  Ag25  1  0.81987116  0.49677787  0.33650802  1
  Ag  Ag26  1  0.17506889  0.66680328  0.50176835  1
  Ag  Ag27  1  0.83610685  0.00597148  0.16167816  1
  Ag  Ag28  1  0.83396951  0.83838206  -0.01108310  1
  Ag  Ag29  1  0.50092151  -0.00372882  0.50084071  1
  Ag  Ag30  1  -0.00025760  0.33155001  0.00056851  1
  Ag  Ag31  1  0.83388997  -0.00946147  0.83685024  1
  Ag  Ag32  1  0.00000994  0.67135068  0.66794252  1
  Ag  Ag33  1  0.16409333  -0.00396957  0.83441664  1
  Ag  Ag34  1  0.17225860  0.33756592  0.83772721  1
  Ag  Ag35  1  0.82372229  0.50269969  0.66729758  1
  Ag  Ag36  1  0.82562134  0.33716056  0.83442041  1
  Ag  Ag37  1  0.66658517  0.49325144  0.17405153  1
  Ag  Ag38  1  0.66111833  0.00484678  0.33160594  1
  Ag  Ag39  1  0.33142351  0.33221514  0.00922497  1
  Ag  Ag40  1  0.66553178  0.65612701  0.66823733  1
  Ag  Ag41  1  0.32965600  0.00251410  0.00859296  1
  Ag  Ag42  1  0.50962441  0.50101893  0.66174301  1
  Ag  Ag43  1  0.17079655  0.17059412  0.33019199  1
  Ag  Ag44  1  0.33486733  0.33674912  0.32615513  1
  Ag  Ag45  1  0.66138746  0.34195160  0.66601899  1
  Ag  Ag46  1  0.50186110  0.33523260  0.82411759  1
  Ag  Ag47  1  0.00014983  0.16690889  0.50116604  1
  Ag  Ag48  1  0.33102102  0.66629833  0.00698191  1
  Ag  Ag49  1  0.49918344  0.18369898  0.66474528  1
  Ag  Ag50  1  0.16926001  0.82877586  0.32938819  1
  Ag  Ag51  1  0.17312177  0.66578911  0.17361525  1
  Ag  Ag52  1  0.33092124  0.66072462  0.32870723  1
  Ag  Ag53  1  0.33579850  0.66368150  0.66509773  1
  Sb  Sb54  1  0.50016802  0.49838949  0.00117647  1
  Sb  Sb55  1  0.66823171  0.17060985  0.83548958  1
  Sb  Sb56  1  0.33738126  0.49869809  0.83126333  1
  Sb  Sb57  1  0.33962258  0.50132631  0.49865855  1
  Sb  Sb58  1  0.17054295  -0.00412232  0.49672238  1
  Sb  Sb59  1  0.83168507  0.49765287  -0.00278297  1
  Sb  Sb60  1  0.49710019  0.00168171  0.17189569  1
  Sb  Sb61  1  0.50004376  0.66069566  0.82779540  1
  Sb  Sb62  1  0.50120667  0.16911729  0.00017722  1
  Sb  Sb63  1  0.33289131  0.83053365  0.50014314  1
  Sb  Sb64  1  0.66576075  0.82740688  0.50493103  1
  Sb  Sb65  1  0.50048929  0.00331418  0.82811369  1
  Sb  Sb66  1  0.66556991  0.33338703  0.00206888  1
  Sb  Sb67  1  0.00886976  0.66609628  0.33842396  1
  Sb  Sb68  1  0.33515489  0.83162072  0.83186732  1
  Sb  Sb69  1  0.32915497  0.83351087  0.16736443  1
  Sb  Sb70  1  0.83423678  0.17189479  0.32861032  1
  Sb  Sb71  1  0.16888332  0.50523006  0.66300077  1
  Sb  Sb72  1  0.66650148  0.00072965  0.00343462  1
  Sb  Sb73  1  0.67050253  0.83212235  0.16477776  1
  Sb  Sb74  1  0.17001340  0.16568392  0.66323796  1
  Sb  Sb75  1  0.50426838  0.33795181  0.49956026  1
  Sb  Sb76  1  -0.00211096  0.33574940  0.67052803  1
  Sb  Sb77  1  0.33168535  -0.00065277  0.66553969  1
  Sb  Sb78  1  0.83608850  0.82914318  0.33469158  1
  Sb  Sb79  1  0.83192675  0.66049100  0.50714056  1
  Sb  Sb80  1  0.66793124  0.17291966  0.49651993  1
  Sb  Sb81  1  -0.00460036  0.83328664  0.83338029  1
  Sb  Sb82  1  0.33239138  0.16869227  0.49459999  1
  Sb  Sb83  1  0.00146331  0.16572879  0.16955173  1
  Sb  Sb84  1  -0.00275949  0.50114538  0.16824945  1
  Sb  Sb85  1  -0.00049332  0.16686532  0.82972664  1
  Sb  Sb86  1  -0.00467837  0.50000713  0.83023781  1
  Sb  Sb87  1  -0.00560045  0.49734795  0.50093896  1
  Sb  Sb88  1  0.82943566  0.17013991  0.67092968  1
  Sb  Sb89  1  0.16281806  0.83384941  -0.00041179  1
  Sb  Sb90  1  0.83320837  0.66476167  0.16224911  1
  Sb  Sb91  1  0.83062882  0.00493597  0.49973617  1
  Sb  Sb92  1  0.00246933  0.00097126  0.33437810  1
  Sb  Sb93  1  0.00027441  0.33361088  0.32846369  1
  Sb  Sb94  1  0.00385577  0.66502982  -0.00388500  1
  Sb  Sb95  1  0.66346405  0.66621286  -0.00532232  1
  Sb  Sb96  1  0.49686214  0.17243573  0.33633224  1
  Sb  Sb97  1  0.50257790  0.83141715  -0.00431732  1
  Sb  Sb98  1  0.49557816  0.82867279  0.33682151  1
  Sb  Sb99  1  0.16411563  0.16837674  0.00506015  1
  Sb  Sb100  1  0.66850419  0.00003435  0.66290711  1
  Sb  Sb101  1  0.16852004  0.49842800  0.00489915  1
  Sb  Sb102  1  0.33857384  0.49533914  0.16955092  1
  Sb  Sb103  1  0.00064144  0.00270157  -0.00227807  1
  Sb  Sb104  1  0.00152695  0.83482671  0.50159803  1
  Sb  Sb105  1  0.33279313  0.16965670  0.83858250  1
  Sb  Sb106  1  0.66071063  0.66029878  0.33800993  1
  Sb  Sb107  1  0.16382778  0.33887984  0.49713537  1
  Te  Te108  1  0.16807988  0.16708080  0.17028389  1
  Te  Te109  1  0.16368260  0.16663734  0.49399049  1
  Te  Te110  1  0.16626690  0.16710194  0.83234235  1
  Te  Te111  1  0.16429124  0.49945257  0.17165069  1
  Te  Te112  1  0.16357781  0.50657973  0.49343157  1
  Te  Te113  1  0.16620798  0.49845366  0.83203178  1
  Te  Te114  1  0.16432077  0.83563119  0.16624949  1
  Te  Te115  1  0.16560230  0.82811435  0.50209235  1
  Te  Te116  1  0.16716450  0.83373120  0.83135060  1
  Te  Te117  1  0.50029795  0.17018434  0.16791741  1
  Te  Te118  1  0.50013247  0.16094474  0.50440396  1
  Te  Te119  1  0.50064528  0.17298792  0.82776304  1
  Te  Te120  1  0.50428243  0.49840277  0.16770734  1
  Te  Te121  1  0.50542020  0.50366559  0.49887287  1
  Te  Te122  1  0.50632167  0.49408899  0.83056841  1
  Te  Te123  1  0.50226784  0.82716853  0.16511828  1
  Te  Te124  1  0.50055346  0.82999651  0.50573642  1
  Te  Te125  1  0.50756293  0.83413319  0.82791690  1
  Te  Te126  1  0.83436329  0.16634347  0.16471603  1
  Te  Te127  1  0.83677857  0.17327216  0.49940442  1
  Te  Te128  1  0.83287483  0.16947347  0.83904686  1
  Te  Te129  1  0.82976232  0.49714229  0.16865909  1
  Te  Te130  1  0.82866821  0.49514099  0.49906770  1
  Te  Te131  1  0.82957598  0.49838905  0.83144536  1
  Te  Te132  1  0.83719366  0.83466681  0.16826718  1
  Te  Te133  1  0.83371031  0.83464697  0.50791306  1
  Te  Te134  1  0.83211673  0.83359717  0.82918745  1
  Te  Te135  1  0.16868347  0.00096880  -0.00080937  1
  Te  Te136  1  0.16954069  -0.00396323  0.33116244  1
  Te  Te137  1  0.16458059  -0.00194086  0.66747706  1
  Te  Te138  1  0.17173505  0.33297847  0.00022799  1
  Te  Te139  1  0.16830721  0.33624897  0.33182422  1
  Te  Te140  1  0.16748300  0.33476260  0.66781971  1
  Te  Te141  1  0.17020911  0.66627354  -0.00055322  1
  Te  Te142  1  0.17011972  0.66719641  0.33176457  1
  Te  Te143  1  0.17155120  0.66648866  0.66707221  1
  Te  Te144  1  0.49184875  -0.00001789  -0.00089025  1
  Te  Te145  1  0.49793214  -0.00260238  0.33662622  1
  Te  Te146  1  0.49937638  -0.01002930  0.66304590  1
  Te  Te147  1  0.49154697  0.33184371  0.00450600  1
  Te  Te148  1  0.49900313  0.33679368  0.33312128  1
  Te  Te149  1  0.50150734  0.33957221  0.66341809  1
  Te  Te150  1  0.49261988  0.66708264  0.00391825  1
  Te  Te151  1  0.49463453  0.66379220  0.33390724  1
  Te  Te152  1  0.49889564  0.66398719  0.66724967  1
  Te  Te153  1  0.83337656  -0.00011701  0.00016161  1
  Te  Te154  1  0.83124157  -0.00083434  0.32992577  1
  Te  Te155  1  0.83666240  0.00229392  0.66925282  1
  Te  Te156  1  0.83258643  0.33272942  0.00066595  1
  Te  Te157  1  0.83295111  0.33617942  0.32724534  1
  Te  Te158  1  0.83284354  0.33484350  0.67326361  1
  Te  Te159  1  0.83478630  0.67003840  -0.00746125  1
  Te  Te160  1  0.83422830  0.66076961  0.33402060  1
  Te  Te161  1  0.82927646  0.66490023  0.66832891  1
  Te  Te162  1  -0.00635367  0.17159048  0.00017106  1
  Te  Te163  1  0.00742108  0.16619013  0.33854928  1
  Te  Te164  1  0.00138306  0.16461838  0.66199472  1
  Te  Te165  1  -0.00025255  0.49184959  0.00017143  1
  Te  Te166  1  -0.00183319  0.50057522  0.33406737  1
  Te  Te167  1  -0.00735648  0.50723635  0.66570301  1
  Te  Te168  1  -0.00693097  0.83261075  0.00624272  1
  Te  Te169  1  0.00527082  0.83358152  0.32948065  1
  Te  Te170  1  0.00245917  0.83183159  0.66725433  1
  Te  Te171  1  0.33357464  0.16774844  0.00686662  1
  Te  Te172  1  0.33102083  0.16882756  0.32862738  1
  Te  Te173  1  0.33862033  0.16977834  0.66645418  1
  Te  Te174  1  0.33360102  0.50116638  -0.00131259  1
  Te  Te175  1  0.33545573  0.49944563  0.33381486  1
  Te  Te176  1  0.33644062  0.49908542  0.66539723  1
  Te  Te177  1  0.33394913  0.83197057  -0.00067769  1
  Te  Te178  1  0.32825264  0.83317031  0.33341644  1
  Te  Te179  1  0.33003416  0.83026322  0.66736510  1
  Te  Te180  1  0.67114038  0.16543397  0.00907126  1
  Te  Te181  1  0.66621529  0.16938111  0.32915411  1
  Te  Te182  1  0.66094734  0.17119640  0.66589450  1
  Te  Te183  1  0.66649336  0.50163091  0.00529717  1
  Te  Te184  1  0.66336245  0.49840222  0.33196520  1
  Te  Te185  1  0.66680498  0.49775662  0.66636689  1
  Te  Te186  1  0.67303019  0.83396771  -0.00724502  1
  Te  Te187  1  0.66732932  0.83765094  0.33424216  1
  Te  Te188  1  0.66830627  0.83416196  0.66902813  1
  Te  Te189  1  0.00059700  -0.00150070  0.16602996  1
  Te  Te190  1  -0.00036257  0.00360970  0.50520558  1
  Te  Te191  1  0.00127644  0.00051655  0.83006801  1
  Te  Te192  1  0.00276787  0.33326093  0.16131016  1
  Te  Te193  1  -0.00615713  0.32933186  0.50120031  1
  Te  Te194  1  0.00340756  0.33317948  0.83798734  1
  Te  Te195  1  0.00426857  0.67031213  0.16538093  1
  Te  Te196  1  0.00319062  0.66718847  0.50718975  1
  Te  Te197  1  0.00301338  0.66642865  0.82934759  1
  Te  Te198  1  0.33183374  0.00182964  0.16804312  1
  Te  Te199  1  0.33854695  0.00109827  0.49368425  1
  Te  Te200  1  0.32909272  0.00055306  0.83622512  1
  Te  Te201  1  0.33289773  0.33283759  0.16840321  1
  Te  Te202  1  0.33244543  0.33322340  0.50165919  1
  Te  Te203  1  0.33309174  0.33338623  0.82877718  1
  Te  Te204  1  0.33208482  0.66652319  0.16790056  1
  Te  Te205  1  0.33428499  0.66588474  0.50164535  1
  Te  Te206  1  0.32953476  0.66544276  0.83048636  1
  Te  Te207  1  0.66797523  -0.00036896  0.17146154  1
  Te  Te208  1  0.66305840  0.00129910  0.49350082  1
  Te  Te209  1  0.67166102  0.00134626  0.83401002  1
  Te  Te210  1  0.66468860  0.33315972  0.16649519  1
  Te  Te211  1  0.67043391  0.33688966  0.49853090  1
  Te  Te212  1  0.66494235  0.33577534  0.83388160  1
  Te  Te213  1  0.66372130  0.66397629  0.16660294  1
  Te  Te214  1  0.66284553  0.66080955  0.50539621  1
  Te  Te215  1  0.66741641  0.66435336  0.82999881  1
