# generated using pymatgen
data_AgSbTe2
_symmetry_space_group_name_H-M   'P 1'
_cell_length_a   18.31932926
_cell_length_b   18.32360400
_cell_length_c   18.31959828
_cell_angle_alpha   90.00194618
_cell_angle_beta   89.99767878
_cell_angle_gamma   89.99775650
_symmetry_Int_Tables_number   1
_chemical_formula_structural   AgSbTe2
_chemical_formula_sum   'Ag54 Sb54 Te108'
_cell_volume   6149.45193044
_cell_formula_units_Z   54
loop_
 _symmetry_equiv_pos_site_id
 _symmetry_equiv_pos_as_xyz
  1  'x, y, z'
loop_
 _atom_site_type_symbol
 _atom_site_label
 _atom_site_symmetry_multiplicity
 _atom_site_fract_x
 _atom_site_fract_y
 _atom_site_fract_z
 _atom_site_occupancy
  Ag  Ag0  1  0.16543404  0.00283170  0.83594399  1
  Ag  Ag1  1  -0.00915900  -0.00343031  0.33379584  1
  Ag  Ag2  1  0.66498939  0.32382240  0.00214089  1
  Ag  Ag3  1  0.83105363  -0.00308909  0.16527243  1
  Ag  Ag4  1  0.50057593  0.33189591  0.17506951  1
  Ag  Ag5  1  0.16963380  0.16267026  -0.00805638  1
  Ag  Ag6  1  0.32948674  0.00254978  -0.00831838  1
  Ag  Ag7  1  0.83216801  0.67471650  0.16609789  1
  Ag  Ag8  1  0.50133276  0.00173837  0.50215763  1
  Ag  Ag9  1  0.67249467  -0.00361500  0.33144924  1
  Ag  Ag10  1  -0.00054313  0.33645303  0.33235314  1
  Ag  Ag11  1  0.66185540  0.15995928  0.83288047  1
  Ag  Ag12  1  0.66504880  0.83802469  0.50200223  1
  Ag  Ag13  1  0.50212299  0.83763107  -0.00690681  1
  Ag  Ag14  1  0.33285490  0.65833985  0.33932509  1
  Ag  Ag15  1  0.34105542  0.33763088  0.33940755  1
  Ag  Ag16  1  0.17289028  0.32211169  0.83326827  1
  Ag  Ag17  1  0.82865419  0.83794210  0.33567149  1
  Ag  Ag18  1  0.66777621  0.83903965  0.83103204  1
  Ag  Ag19  1  0.49518416  0.32887625  0.83163840  1
  Ag  Ag20  1  0.33226379  0.16503177  0.83080431  1
  Ag  Ag21  1  0.17223709  0.49954947  0.33314873  1
  Ag  Ag22  1  0.67163353  0.67726929  0.33647073  1
  Ag  Ag23  1  0.00513658  -0.00176503  0.66915141  1
  Ag  Ag24  1  0.33426606  0.16603369  0.15981823  1
  Ag  Ag25  1  0.82285062  0.83523868  0.66439146  1
  Ag  Ag26  1  0.33240045  0.00595677  0.67139976  1
  Ag  Ag27  1  0.83094932  0.15896874  0.00202268  1
  Ag  Ag28  1  0.49708568  0.16088393  0.66756050  1
  Ag  Ag29  1  0.66353447  0.15758474  0.50166419  1
  Ag  Ag30  1  0.33502323  0.32495963  0.66521983  1
  Ag  Ag31  1  0.66185974  0.33080384  0.33034665  1
  Ag  Ag32  1  0.66869960  0.83604827  0.17088245  1
  Ag  Ag33  1  0.66386587  0.67432578  0.66391116  1
  Ag  Ag34  1  0.82942430  0.15462437  0.32652066  1
  Ag  Ag35  1  0.49824244  0.32766665  0.49639804  1
  Ag  Ag36  1  -0.00037232  0.50012368  0.16907081  1
  Ag  Ag37  1  0.18004489  0.16550910  0.67459694  1
  Ag  Ag38  1  0.83700707  0.49753767  0.00173203  1
  Ag  Ag39  1  -0.00547556  0.00094244  -0.00327229  1
  Ag  Ag40  1  0.33477243  0.67077628  0.66251818  1
  Ag  Ag41  1  -0.00391135  0.66847481  0.33176454  1
  Ag  Ag42  1  0.16459102  0.49696903  -0.00362149  1
  Ag  Ag43  1  0.50490980  0.83880667  0.66592919  1
  Ag  Ag44  1  0.16535998  0.66903237  0.83339907  1
  Ag  Ag45  1  -0.00660582  0.83692322  0.49743294  1
  Ag  Ag46  1  0.17043688  0.84724184  -0.00360604  1
  Ag  Ag47  1  0.67036636  0.00144300  -0.00176830  1
  Ag  Ag48  1  0.33419116  0.50320696  0.49752135  1
  Ag  Ag49  1  0.83212792  -0.00319174  0.83928077  1
  Ag  Ag50  1  0.33915021  0.83081681  0.50327554  1
  Ag  Ag51  1  0.83319745  0.67822531  0.83773997  1
  Ag  Ag52  1  0.49380885  0.49518233  0.33429793  1
  Ag  Ag53  1  0.17060191  0.49765492  0.67186717  1
  Sb  Sb54  1  0.33612457  0.32786289  -0.00145005  1
  Sb  Sb55  1  -0.00669579  0.16026223  0.49860429  1
  Sb  Sb56  1  0.50707936  0.83153369  0.33725431  1
  Sb  Sb57  1  0.66894684  0.67288427  -0.00031992  1
  Sb  Sb58  1  0.00159562  0.16823616  0.16625956  1
  Sb  Sb59  1  0.32937258  0.67208181  -0.00185625  1
  Sb  Sb60  1  0.82889252  0.15692994  0.67010234  1
  Sb  Sb61  1  0.00379728  0.16332620  0.83366769  1
  Sb  Sb62  1  0.16059992  0.00007574  0.15864751  1
  Sb  Sb63  1  0.83200446  0.32771370  0.83506381  1
  Sb  Sb64  1  0.65883643  0.33448897  0.66628683  1
  Sb  Sb65  1  0.00846946  0.32786943  0.66133172  1
  Sb  Sb66  1  0.65917198  0.50168239  0.49723707  1
  Sb  Sb67  1  0.33961118  0.16625384  0.50478675  1
  Sb  Sb68  1  0.33006897  0.49480914  0.82821679  1
  Sb  Sb69  1  0.83425243  0.50307533  0.32793934  1
  Sb  Sb70  1  0.82789929  -0.00308106  0.49820504  1
  Sb  Sb71  1  0.83242733  0.67036400  0.49624603  1
  Sb  Sb72  1  0.50009055  0.66539237  0.83119968  1
  Sb  Sb73  1  0.17443791  0.33433633  0.50290497  1
  Sb  Sb74  1  0.17081825  0.33287896  0.16343956  1
  Sb  Sb75  1  0.50424717  0.66483058  0.17008371  1
  Sb  Sb76  1  0.50116082  0.00375001  0.82980860  1
  Sb  Sb77  1  0.50560312  0.00384821  0.16911155  1
  Sb  Sb78  1  0.83116343  0.83950414  0.00046571  1
  Sb  Sb79  1  0.00352589  0.50144506  0.83875684  1
  Sb  Sb80  1  0.16972840  0.83542120  0.67150092  1
  Sb  Sb81  1  -0.00120717  0.67205066  0.00314595  1
  Sb  Sb82  1  0.66348180  0.16334136  0.16582796  1
  Sb  Sb83  1  0.83881571  0.50801687  0.67418155  1
  Sb  Sb84  1  0.50551187  0.17169818  0.33902746  1
  Sb  Sb85  1  0.49813855  0.49852485  0.00386490  1
  Sb  Sb86  1  -0.00163115  0.33018461  0.00357109  1
  Sb  Sb87  1  0.32965659  0.49569289  0.17319973  1
  Sb  Sb88  1  0.66409165  -0.00629059  0.66686894  1
  Sb  Sb89  1  -0.00428600  0.83671840  0.83069675  1
  Sb  Sb90  1  0.16262497  0.66510221  0.16470269  1
  Sb  Sb91  1  0.17023704  0.00040159  0.50586850  1
  Sb  Sb92  1  0.67100442  0.50316496  0.16752904  1
  Sb  Sb93  1  0.49907624  0.67024915  0.49971860  1
  Sb  Sb94  1  0.49269425  0.49962957  0.66086323  1
  Sb  Sb95  1  0.33428119  0.00156211  0.33618184  1
  Sb  Sb96  1  0.16399700  0.17043097  0.33352269  1
  Sb  Sb97  1  0.16965520  0.66757294  0.50359765  1
  Sb  Sb98  1  0.82903949  0.33082612  0.16726843  1
  Sb  Sb99  1  0.00128050  0.67356430  0.66258116  1
  Sb  Sb100  1  0.50101620  0.16223731  -0.00565848  1
  Sb  Sb101  1  0.33730304  0.83844996  0.82797927  1
  Sb  Sb102  1  -0.00678532  0.83290852  0.16994397  1
  Sb  Sb103  1  0.16332047  0.83032486  0.33040177  1
  Sb  Sb104  1  0.00631010  0.50346485  0.49372766  1
  Sb  Sb105  1  0.82661191  0.33134962  0.49721696  1
  Sb  Sb106  1  0.66714472  0.49988134  0.83384750  1
  Sb  Sb107  1  0.33930527  0.83799483  0.16933747  1
  Te  Te108  1  0.17291029  0.16693852  0.16079002  1
  Te  Te109  1  0.16365653  0.16682014  0.50744669  1
  Te  Te110  1  0.16758721  0.16412737  0.83312599  1
  Te  Te111  1  0.16179197  0.49921581  0.16767392  1
  Te  Te112  1  0.17354565  0.50092123  0.49774192  1
  Te  Te113  1  0.16660827  0.50353251  0.83343143  1
  Te  Te114  1  0.16955933  0.83216611  0.15759236  1
  Te  Te115  1  0.17005387  0.83442338  0.49976276  1
  Te  Te116  1  0.16742805  0.83471877  0.83746063  1
  Te  Te117  1  0.49410788  0.17120316  0.16573501  1
  Te  Te118  1  0.50475194  0.16608657  0.50520107  1
  Te  Te119  1  0.50144833  0.16967991  0.82902766  1
  Te  Te120  1  0.49995768  0.49443712  0.17191484  1
  Te  Te121  1  0.49339651  0.49337084  0.49453949  1
  Te  Te122  1  0.49876293  0.49163878  0.83398246  1
  Te  Te123  1  0.50750537  0.83367987  0.16450918  1
  Te  Te124  1  0.50101257  0.83609924  0.50297190  1
  Te  Te125  1  0.50573971  0.83152952  0.83081430  1
  Te  Te126  1  0.83291062  0.16241460  0.16569395  1
  Te  Te127  1  0.82396215  0.16564857  0.49772909  1
  Te  Te128  1  0.82744264  0.16097134  0.83739470  1
  Te  Te129  1  0.83754049  0.50135637  0.16102111  1
  Te  Te130  1  0.83424070  0.50073734  0.50362326  1
  Te  Te131  1  0.83547171  0.50220314  0.84098932  1
  Te  Te132  1  0.82879350  0.83436649  0.16825924  1
  Te  Te133  1  0.83063330  0.83247648  0.50023457  1
  Te  Te134  1  0.83006376  0.83530691  0.83337398  1
  Te  Te135  1  0.16894918  0.00343742  -0.00273612  1
  Te  Te136  1  0.16241296  0.00085608  0.33196853  1
  Te  Te137  1  0.16889453  0.00209971  0.67227031  1
  Te  Te138  1  0.16643369  0.33323419  -0.00496116  1
  Te  Te139  1  0.16609548  0.33583677  0.33281695  1
  Te  Te140  1  0.17187226  0.33308159  0.67031205  1
  Te  Te141  1  0.16538158  0.65839083  -0.00524379  1
  Te  Te142  1  0.16780955  0.66274180  0.33240445  1
  Te  Te143  1  0.16910323  0.66526354  0.67183322  1
  Te  Te144  1  0.50342444  -0.00403123  0.00195994  1
  Te  Te145  1  0.50356326  0.00062611  0.33861359  1
  Te  Te146  1  0.49740856  -0.00106998  0.66387933  1
  Te  Te147  1  0.50456268  0.33412400  -0.00308991  1
  Te  Te148  1  0.50078983  0.33272397  0.33444757  1
  Te  Te149  1  0.49503503  0.33363414  0.66805107  1
  Te  Te150  1  0.49887138  0.67308346  0.00062310  1
  Te  Te151  1  0.49953665  0.66073164  0.33345288  1
  Te  Te152  1  0.49847162  0.66872090  0.66703638  1
  Te  Te153  1  0.83210305  0.00004264  -0.00005627  1
  Te  Te154  1  0.83226260  -0.00162133  0.33432593  1
  Te  Te155  1  0.83833076  -0.00491886  0.67177119  1
  Te  Te156  1  0.82926066  0.33247622  0.00002274  1
  Te  Te157  1  0.83087443  0.33289355  0.33291862  1
  Te  Te158  1  0.83672673  0.33503991  0.66695769  1
  Te  Te159  1  0.83390090  0.66334195  -0.00063538  1
  Te  Te160  1  0.83173582  0.66917225  0.32992845  1
  Te  Te161  1  0.83258625  0.67274403  0.67222629  1
  Te  Te162  1  -0.00257445  0.16240561  0.00047363  1
  Te  Te163  1  -0.00497468  0.16456557  0.33338096  1
  Te  Te164  1  -0.00032327  0.15925874  0.66536570  1
  Te  Te165  1  0.00077842  0.49833239  0.00522845  1
  Te  Te166  1  0.00168411  0.50111355  0.33101672  1
  Te  Te167  1  0.00801828  0.49989600  0.66351074  1
  Te  Te168  1  0.00644903  0.83976193  0.00108497  1
  Te  Te169  1  -0.00223044  0.83386468  0.33556986  1
  Te  Te170  1  -0.00058435  0.83868226  0.66081617  1
  Te  Te171  1  0.33364373  0.16297974  -0.00431771  1
  Te  Te172  1  0.33126964  0.17096503  0.33341882  1
  Te  Te173  1  0.33604557  0.16603274  0.66726756  1
  Te  Te174  1  0.32811001  0.50153396  0.00116067  1
  Te  Te175  1  0.33209050  0.49904463  0.33476267  1
  Te  Te176  1  0.32949984  0.50348722  0.66217469  1
  Te  Te177  1  0.33505133  0.83914229  0.00102543  1
  Te  Te178  1  0.33305152  0.83159424  0.33808340  1
  Te  Te179  1  0.33595300  0.83166529  0.66396512  1
  Te  Te180  1  0.66698561  0.16408100  -0.00085902  1
  Te  Te181  1  0.66987143  0.16648094  0.33226016  1
  Te  Te182  1  0.66319412  0.16854635  0.66709065  1
  Te  Te183  1  0.66762341  0.49608627  0.00000439  1
  Te  Te184  1  0.66557641  0.49609397  0.33358748  1
  Te  Te185  1  0.66814966  0.50957318  0.66569045  1
  Te  Te186  1  0.66503678  0.83702140  -0.00428646  1
  Te  Te187  1  0.66791674  0.83481435  0.33589915  1
  Te  Te188  1  0.66549573  0.83236438  0.66595062  1
  Te  Te189  1  -0.00691833  0.00050739  0.16906249  1
  Te  Te190  1  0.00135540  -0.00485893  0.49836029  1
  Te  Te191  1  0.00007427  -0.00036406  0.83489579  1
  Te  Te192  1  -0.00034772  0.33724795  0.17236726  1
  Te  Te193  1  -0.00017835  0.33316878  0.49214727  1
  Te  Te194  1  0.00662664  0.33358377  0.83147721  1
  Te  Te195  1  -0.00507264  0.66436864  0.17133784  1
  Te  Te196  1  0.00041252  0.67376963  0.49270292  1
  Te  Te197  1  -0.00093471  0.66915037  0.83225940  1
  Te  Te198  1  0.33355535  0.00513106  0.16612313  1
  Te  Te199  1  0.33779717  -0.00411659  0.50377247  1
  Te  Te200  1  0.33317288  0.00309375  0.83289787  1
  Te  Te201  1  0.33827312  0.32882457  0.16869135  1
  Te  Te202  1  0.33761262  0.33314516  0.50047766  1
  Te  Te203  1  0.33280500  0.32889376  0.83178654  1
  Te  Te204  1  0.33427304  0.66839901  0.17305568  1
  Te  Te205  1  0.33363789  0.66795754  0.49991063  1
  Te  Te206  1  0.32989299  0.66728023  0.82907752  1
  Te  Te207  1  0.67041040  -0.00280697  0.16775140  1
  Te  Te208  1  0.66257427  -0.00101856  0.49974312  1
  Te  Te209  1  0.66727953  0.00003755  0.83356404  1
  Te  Te210  1  0.66215376  0.33368788  0.16742689  1
  Te  Te211  1  0.65965062  0.33275653  0.49730263  1
  Te  Te212  1  0.66473592  0.33061355  0.83489579  1
  Te  Te213  1  0.67185493  0.67163278  0.17056800  1
  Te  Te214  1  0.66619628  0.67069268  0.49861380  1
  Te  Te215  1  0.66851806  0.66932714  0.83066499  1
