# generated using pymatgen
data_AgSbTe2
_symmetry_space_group_name_H-M   'P 1'
_cell_length_a   18.34718016
_cell_length_b   18.34419915
_cell_length_c   18.34524303
_cell_angle_alpha   89.99321927
_cell_angle_beta   89.99920240
_cell_angle_gamma   90.00203581
_symmetry_Int_Tables_number   1
_chemical_formula_structural   AgSbTe2
_chemical_formula_sum   'Ag54 Sb54 Te108'
_cell_volume   6174.35432005
_cell_formula_units_Z   54
loop_
 _symmetry_equiv_pos_site_id
 _symmetry_equiv_pos_as_xyz
  1  'x, y, z'
loop_
 _atom_site_type_symbol
 _atom_site_label
 _atom_site_symmetry_multiplicity
 _atom_site_fract_x
 _atom_site_fract_y
 _atom_site_fract_z
 _atom_site_occupancy
  Ag  Ag0  1  -0.00119728  0.33686944  0.32352066  1
  Ag  Ag1  1  0.34578829  0.84576350  0.16754335  1
  Ag  Ag2  1  0.66139823  0.16537837  0.84124538  1
  Ag  Ag3  1  0.65699409  0.84043525  0.16434447  1
  Ag  Ag4  1  0.66022010  0.15824225  0.15749009  1
  Ag  Ag5  1  0.83232176  0.33323819  0.83358259  1
  Ag  Ag6  1  0.66448781  0.00292094  0.00930043  1
  Ag  Ag7  1  0.34238221  0.16399659  0.84623525  1
  Ag  Ag8  1  0.49831000  0.48521538  0.01093766  1
  Ag  Ag9  1  0.83388447  0.66907194  0.50387178  1
  Ag  Ag10  1  0.00080491  0.32248667  0.00355120  1
  Ag  Ag11  1  -0.00950512  -0.00155533  0.66406526  1
  Ag  Ag12  1  -0.00383264  0.83210279  0.49952235  1
  Ag  Ag13  1  0.66480110  0.66772711  0.33642586  1
  Ag  Ag14  1  0.50281231  0.50573289  0.32700802  1
  Ag  Ag15  1  0.34479895  0.49670086  0.16596007  1
  Ag  Ag16  1  0.34096945  0.32141405  0.00148792  1
  Ag  Ag17  1  -0.00932925  0.00532373  0.00501309  1
  Ag  Ag18  1  0.82750771  0.83304452  0.66711673  1
  Ag  Ag19  1  0.17906004  0.83452220  0.33538464  1
  Ag  Ag20  1  0.50022716  0.68104807  0.16653905  1
  Ag  Ag21  1  0.34280688  0.15692722  0.15668687  1
  Ag  Ag22  1  0.50626842  -0.00293314  0.49635122  1
  Ag  Ag23  1  0.49612078  0.16408188  0.00083814  1
  Ag  Ag24  1  -0.00120486  0.16571313  0.16036358  1
  Ag  Ag25  1  0.49809581  -0.00288179  0.16452907  1
  Ag  Ag26  1  0.82744660  0.00082525  0.15799047  1
  Ag  Ag27  1  0.50593323  0.84109725  0.66652472  1
  Ag  Ag28  1  0.66672704  -0.00077095  0.66616679  1
  Ag  Ag29  1  0.82720657  -0.00267387  0.50103308  1
  Ag  Ag30  1  0.33708544  -0.00366117  0.32002643  1
  Ag  Ag31  1  0.50169935  0.84520078  0.00990806  1
  Ag  Ag32  1  0.15741939  0.50060583  0.66433207  1
  Ag  Ag33  1  0.67127569  0.67818298  0.66317466  1
  Ag  Ag34  1  0.49751696  0.33005427  0.16121555  1
  Ag  Ag35  1  0.83063870  0.66575648  0.82380924  1
  Ag  Ag36  1  0.00064713  0.49208762  0.17044380  1
  Ag  Ag37  1  0.83529544  0.50808044  0.65704868  1
  Ag  Ag38  1  0.33742457  0.83557310  0.49114262  1
  Ag  Ag39  1  0.82717561  0.84292842  -0.00172313  1
  Ag  Ag40  1  0.82988265  0.16098012  0.00162988  1
  Ag  Ag41  1  0.18128527  0.16543784  0.00194171  1
  Ag  Ag42  1  0.83449431  0.34148795  0.50239308  1
  Ag  Ag43  1  0.34602775  0.00927059  0.00845304  1
  Ag  Ag44  1  0.49947415  0.32659863  0.84385587  1
  Ag  Ag45  1  0.49812082  0.83549308  0.32137855  1
  Ag  Ag46  1  0.66745753  0.16075493  0.50130678  1
  Ag  Ag47  1  0.16830834  0.33119254  0.83815465  1
  Ag  Ag48  1  0.33756022  0.83941826  0.84430672  1
  Ag  Ag49  1  0.83295797  0.49915797  0.33761649  1
  Ag  Ag50  1  0.18256955  0.00111786  0.16422023  1
  Ag  Ag51  1  0.15647850  0.67041925  0.49985696  1
  Ag  Ag52  1  -0.00669450  0.50280377  0.49676786  1
  Ag  Ag53  1  0.50413215  0.15762409  0.67948313  1
  Sb  Sb54  1  0.34006310  0.66956720  0.66486324  1
  Sb  Sb55  1  -0.00129856  0.49742558  0.83300867  1
  Sb  Sb56  1  0.83236262  0.32855593  0.16425028  1
  Sb  Sb57  1  0.33917193  -0.00200393  0.66970098  1
  Sb  Sb58  1  0.16638076  0.83075901  0.66148383  1
  Sb  Sb59  1  0.66676556  0.83793135  0.49947015  1
  Sb  Sb60  1  0.50486710  0.32711938  0.49728540  1
  Sb  Sb61  1  0.17039619  0.84317050  0.00554568  1
  Sb  Sb62  1  0.16707438  0.32713604  0.16131488  1
  Sb  Sb63  1  0.16400777  0.66415892  0.82742955  1
  Sb  Sb64  1  0.66224286  -0.00434816  0.32963845  1
  Sb  Sb65  1  0.83159506  0.16781976  0.32920555  1
  Sb  Sb66  1  0.33138178  0.32920102  0.32445830  1
  Sb  Sb67  1  0.66316497  0.49982807  0.16681859  1
  Sb  Sb68  1  0.67328551  0.49942364  0.49942186  1
  Sb  Sb69  1  0.33526344  0.49718125  0.83920529  1
  Sb  Sb70  1  0.50492629  0.67416706  0.49482569  1
  Sb  Sb71  1  0.00025130  0.83583922  0.83043867  1
  Sb  Sb72  1  0.82910785  0.83124906  0.33521499  1
  Sb  Sb73  1  0.33401208  0.33240629  0.67538124  1
  Sb  Sb74  1  0.16657671  -0.00451889  0.49590963  1
  Sb  Sb75  1  0.66998977  0.33641509  0.33210266  1
  Sb  Sb76  1  0.66305019  0.83951545  0.83471810  1
  Sb  Sb77  1  0.16544947  0.50439461  0.33472349  1
  Sb  Sb78  1  0.83105805  0.00109832  0.83536961  1
  Sb  Sb79  1  0.33947988  0.67570472  0.33190769  1
  Sb  Sb80  1  -0.00314588  0.32954938  0.66930881  1
  Sb  Sb81  1  0.32990659  0.50503370  0.49375567  1
  Sb  Sb82  1  0.50517268  0.66636253  0.83745015  1
  Sb  Sb83  1  0.82746104  0.66980249  0.16868333  1
  Sb  Sb84  1  -0.00124266  0.83803833  0.16966171  1
  Sb  Sb85  1  0.50120366  0.00540775  0.83954279  1
  Sb  Sb86  1  -0.00292212  0.66848417  0.00253929  1
  Sb  Sb87  1  0.17200509  0.67124182  0.17140142  1
  Sb  Sb88  1  0.66728863  0.49522450  0.83391876  1
  Sb  Sb89  1  -0.00862301  0.66961015  0.66298815  1
  Sb  Sb90  1  0.66522184  0.67506731  0.00090905  1
  Sb  Sb91  1  0.50479552  0.50095335  0.66473593  1
  Sb  Sb92  1  0.34007261  0.15940715  0.49771263  1
  Sb  Sb93  1  0.17083255  0.16726984  0.67386166  1
  Sb  Sb94  1  0.82992497  0.49754662  0.00212023  1
  Sb  Sb95  1  0.16039762  0.33771114  0.50382140  1
  Sb  Sb96  1  0.66331686  0.32298331  0.00038401  1
  Sb  Sb97  1  0.16658579  0.16172234  0.32503166  1
  Sb  Sb98  1  0.82765784  0.16198805  0.67063499  1
  Sb  Sb99  1  0.00136168  0.00184630  0.32934060  1
  Sb  Sb100  1  -0.00638942  0.16600604  0.49627550  1
  Sb  Sb101  1  0.50144037  0.16278637  0.32413803  1
  Sb  Sb102  1  -0.00560643  0.66355725  0.33541414  1
  Sb  Sb103  1  0.16968469  0.49152881  -0.00116615  1
  Sb  Sb104  1  0.33554969  0.67172188  0.00210675  1
  Sb  Sb105  1  0.16890730  0.00480258  0.84058841  1
  Sb  Sb106  1  -0.00313282  0.16719607  0.84175173  1
  Sb  Sb107  1  0.66853586  0.32758967  0.66743034  1
  Te  Te108  1  0.16196712  0.16139989  0.16169374  1
  Te  Te109  1  0.16829723  0.16754165  0.50160745  1
  Te  Te110  1  0.17149362  0.17184064  0.83894277  1
  Te  Te111  1  0.16139358  0.50221691  0.16705417  1
  Te  Te112  1  0.16194661  0.50564581  0.50307188  1
  Te  Te113  1  0.16739457  0.49588331  0.82692374  1
  Te  Te114  1  0.16745731  0.83745160  0.17269038  1
  Te  Te115  1  0.16500003  0.83061967  0.49665204  1
  Te  Te116  1  0.17406115  0.83131321  0.83273618  1
  Te  Te117  1  0.50073996  0.16524330  0.16401731  1
  Te  Te118  1  0.50448212  0.16158694  0.49984337  1
  Te  Te119  1  0.50049234  0.16758206  0.83603362  1
  Te  Te120  1  0.50263527  0.49018368  0.16742470  1
  Te  Te121  1  0.49951944  0.49917645  0.49461064  1
  Te  Te122  1  0.49933915  0.49359397  0.83443960  1
  Te  Te123  1  0.50058197  0.83648405  0.16531263  1
  Te  Te124  1  0.49918563  0.83631669  0.50616387  1
  Te  Te125  1  0.49601168  0.82991570  0.82751809  1
  Te  Te126  1  0.83300406  0.16438775  0.16385471  1
  Te  Te127  1  0.83011359  0.16065333  0.50117129  1
  Te  Te128  1  0.83010099  0.17181058  0.83692823  1
  Te  Te129  1  0.83548522  0.50021173  0.17094420  1
  Te  Te130  1  0.83483075  0.49968926  0.49899720  1
  Te  Te131  1  0.83337847  0.49829298  0.83260970  1
  Te  Te132  1  0.83221337  0.83648652  0.16353515  1
  Te  Te133  1  0.83365490  0.83429085  0.50130136  1
  Te  Te134  1  0.83275525  0.83021053  0.83338824  1
  Te  Te135  1  0.16194736  0.00557427  0.00532327  1
  Te  Te136  1  0.17020587  -0.00502234  0.32777672  1
  Te  Te137  1  0.16157680  0.00019209  0.66730936  1
  Te  Te138  1  0.16260529  0.32827925  -0.00344072  1
  Te  Te139  1  0.16033202  0.33399921  0.33460920  1
  Te  Te140  1  0.16571626  0.33751627  0.67312490  1
  Te  Te141  1  0.16570404  0.66669659  -0.00197125  1
  Te  Te142  1  0.16604452  0.67273974  0.33889302  1
  Te  Te143  1  0.16705784  0.66195291  0.66171575  1
  Te  Te144  1  0.50335619  0.00192461  0.00130650  1
  Te  Te145  1  0.49697617  -0.00272347  0.33417137  1
  Te  Te146  1  0.50190662  0.00010613  0.66451016  1
  Te  Te147  1  0.50039210  0.32902931  0.00007123  1
  Te  Te148  1  0.49931633  0.33752600  0.32997747  1
  Te  Te149  1  0.50015030  0.33126591  0.66692370  1
  Te  Te150  1  0.50052542  0.67119689  0.00457925  1
  Te  Te151  1  0.50443071  0.66771169  0.33021767  1
  Te  Te152  1  0.50831416  0.66740440  0.66649869  1
  Te  Te153  1  0.83011294  0.00023617  -0.00264208  1
  Te  Te154  1  0.83389019  -0.00037777  0.34136638  1
  Te  Te155  1  0.83138838  -0.00270463  0.66640326  1
  Te  Te156  1  0.83628142  0.33356345  -0.00358642  1
  Te  Te157  1  0.83708616  0.33800643  0.33571632  1
  Te  Te158  1  0.83399350  0.33457734  0.66756301  1
  Te  Te159  1  0.83225330  0.66946098  -0.00163628  1
  Te  Te160  1  0.82757419  0.66324329  0.33711036  1
  Te  Te161  1  0.83037947  0.66891640  0.66387200  1
  Te  Te162  1  -0.01040955  0.16541194  0.00125074  1
  Te  Te163  1  0.00005019  0.17316537  0.32719654  1
  Te  Te164  1  0.00139249  0.15964194  0.66637136  1
  Te  Te165  1  0.00029595  0.49933598  0.00502192  1
  Te  Te166  1  -0.00101578  0.49783744  0.33466411  1
  Te  Te167  1  -0.00401420  0.49892433  0.66338851  1
  Te  Te168  1  -0.00206674  0.83767460  -0.00024483  1
  Te  Te169  1  -0.00061149  0.83302162  0.33889386  1
  Te  Te170  1  -0.00251515  0.83818322  0.66249277  1
  Te  Te171  1  0.33561765  0.16653997  0.00179683  1
  Te  Te172  1  0.33259394  0.16027152  0.32825211  1
  Te  Te173  1  0.34003867  0.16655003  0.66902969  1
  Te  Te174  1  0.33734078  0.50078085  0.00481299  1
  Te  Te175  1  0.33592989  0.49826942  0.32792788  1
  Te  Te176  1  0.33319184  0.50080262  0.66499325  1
  Te  Te177  1  0.33559002  0.83760601  0.00446018  1
  Te  Te178  1  0.33805329  0.83653828  0.33032971  1
  Te  Te179  1  0.33606723  0.83271402  0.66426786  1
  Te  Te180  1  0.66931854  0.16270486  0.00087412  1
  Te  Te181  1  0.66686502  0.16797188  0.33803007  1
  Te  Te182  1  0.66317999  0.16201572  0.66436007  1
  Te  Te183  1  0.65851296  0.50274621  -0.00014427  1
  Te  Te184  1  0.66649588  0.50462167  0.33325912  1
  Te  Te185  1  0.67328429  0.50288060  0.66684371  1
  Te  Te186  1  0.66582884  0.84001226  0.00127228  1
  Te  Te187  1  0.66185046  0.82880717  0.32809227  1
  Te  Te188  1  0.66779629  0.83691960  0.66839902  1
  Te  Te189  1  -0.01338848  0.00240188  0.16546462  1
  Te  Te190  1  -0.00140924  -0.00205155  0.49946069  1
  Te  Te191  1  0.00145859  -0.00037158  0.83415777  1
  Te  Te192  1  -0.00031546  0.33158193  0.16417451  1
  Te  Te193  1  -0.00537317  0.33567826  0.50019457  1
  Te  Te194  1  -0.00163148  0.33274422  0.83842506  1
  Te  Te195  1  0.00092071  0.66060052  0.16762234  1
  Te  Te196  1  -0.00410991  0.66676752  0.50021098  1
  Te  Te197  1  -0.00750644  0.66691241  0.83415683  1
  Te  Te198  1  0.33790467  0.00092323  0.16374553  1
  Te  Te199  1  0.33528819  -0.00546169  0.50102176  1
  Te  Te200  1  0.33288150  -0.00003574  0.83799422  1
  Te  Te201  1  0.33339117  0.33503054  0.16159485  1
  Te  Te202  1  0.33209099  0.33314130  0.49849672  1
  Te  Te203  1  0.33578062  0.33094722  0.84001983  1
  Te  Te204  1  0.33874892  0.65774039  0.16757782  1
  Te  Te205  1  0.33152250  0.67395230  0.49910432  1
  Te  Te206  1  0.33315050  0.67177035  0.83288907  1
  Te  Te207  1  0.66769512  0.00040471  0.16871856  1
  Te  Te208  1  0.66578438  0.00077465  0.49925874  1
  Te  Te209  1  0.66663095  0.00606733  0.82569410  1
  Te  Te210  1  0.66207463  0.32616036  0.16750362  1
  Te  Te211  1  0.67401177  0.32624204  0.49975714  1
  Te  Te212  1  0.66667430  0.32704695  0.83315693  1
  Te  Te213  1  0.66158951  0.67036977  0.16903974  1
  Te  Te214  1  0.67146897  0.66609215  0.50089064  1
  Te  Te215  1  0.67152758  0.66703585  0.82914196  1
