# generated using pymatgen
data_AgSbTe2
_symmetry_space_group_name_H-M   'P 1'
_cell_length_a   18.36270008
_cell_length_b   18.35458909
_cell_length_c   18.36158573
_cell_angle_alpha   90.00316328
_cell_angle_beta   90.00040268
_cell_angle_gamma   89.99990778
_symmetry_Int_Tables_number   1
_chemical_formula_structural   AgSbTe2
_chemical_formula_sum   'Ag54 Sb54 Te108'
_cell_volume   6188.58543804
_cell_formula_units_Z   54
loop_
 _symmetry_equiv_pos_site_id
 _symmetry_equiv_pos_as_xyz
  1  'x, y, z'
loop_
 _atom_site_type_symbol
 _atom_site_label
 _atom_site_symmetry_multiplicity
 _atom_site_fract_x
 _atom_site_fract_y
 _atom_site_fract_z
 _atom_site_occupancy
  Ag  Ag0  1  0.16575316  0.66821348  0.84003398  1
  Ag  Ag1  1  0.33333875  0.32012728  0.33078668  1
  Ag  Ag2  1  0.66051383  0.33449568  0.67070484  1
  Ag  Ag3  1  0.00144973  0.66846884  -0.00106691  1
  Ag  Ag4  1  0.49866066  0.16264791  0.00438055  1
  Ag  Ag5  1  0.65924339  0.83532420  0.84205618  1
  Ag  Ag6  1  0.00539594  -0.00132484  0.32467265  1
  Ag  Ag7  1  0.16807438  0.66695955  0.15792153  1
  Ag  Ag8  1  0.83015922  0.83197187  0.00056870  1
  Ag  Ag9  1  0.65629409  0.15365732  0.84531643  1
  Ag  Ag10  1  0.17423392  0.50251805  0.68013060  1
  Ag  Ag11  1  0.17204315  0.83683727  0.32923162  1
  Ag  Ag12  1  0.17287422  0.50880954  -0.00226447  1
  Ag  Ag13  1  0.33413861  0.16375917  0.48520297  1
  Ag  Ag14  1  0.49635046  0.67336428  0.84467893  1
  Ag  Ag15  1  -0.00099623  0.66744216  0.68088514  1
  Ag  Ag16  1  0.33887763  0.00497638  0.33021222  1
  Ag  Ag17  1  0.50658966  0.82647332  0.00135201  1
  Ag  Ag18  1  -0.00144360  0.34255260  0.00171469  1
  Ag  Ag19  1  0.82507837  0.83140080  0.67650231  1
  Ag  Ag20  1  0.17410120  -0.00727935  0.83403009  1
  Ag  Ag21  1  0.33738475  0.66356001  0.00138168  1
  Ag  Ag22  1  0.66509700  0.67889150  0.31884055  1
  Ag  Ag23  1  0.33904596  0.33353278  0.66716514  1
  Ag  Ag24  1  0.51096452  0.67771545  0.15602844  1
  Ag  Ag25  1  0.33976478  0.50036374  0.15861766  1
  Ag  Ag26  1  0.82593557  0.16217693  0.32743743  1
  Ag  Ag27  1  0.65922460  0.51538688  0.16568606  1
  Ag  Ag28  1  0.82056897  -0.00394027  0.16838598  1
  Ag  Ag29  1  -0.01066542  0.83347667  0.16063897  1
  Ag  Ag30  1  0.49238326  -0.00074819  0.48251358  1
  Ag  Ag31  1  0.83203661  0.32901105  0.16571282  1
  Ag  Ag32  1  0.66689883  0.83161595  0.16269518  1
  Ag  Ag33  1  0.33118602  0.49975619  0.83987208  1
  Ag  Ag34  1  0.01245481  0.51632439  0.83645426  1
  Ag  Ag35  1  0.00165151  0.50438762  0.50733761  1
  Ag  Ag36  1  0.34114330  0.16903733  0.17103489  1
  Ag  Ag37  1  0.17227976  0.00032899  0.48518229  1
  Ag  Ag38  1  0.82471573  0.67292403  0.16427231  1
  Ag  Ag39  1  0.50360170  0.83059508  0.68251854  1
  Ag  Ag40  1  0.65428646  -0.00221925  0.32726095  1
  Ag  Ag41  1  0.49325678  0.15385259  0.31956623  1
  Ag  Ag42  1  0.17886123  0.15547395  0.33044206  1
  Ag  Ag43  1  0.00303565  -0.01271348  0.00497087  1
  Ag  Ag44  1  0.65359713  0.66944842  0.00477471  1
  Ag  Ag45  1  0.65871524  0.16062540  0.16528979  1
  Ag  Ag46  1  0.50010311  0.83978311  0.32150015  1
  Ag  Ag47  1  -0.00201008  0.83171147  0.84280844  1
  Ag  Ag48  1  0.49146245  0.51167957  -0.00198038  1
  Ag  Ag49  1  0.33856032  0.16837007  0.83694812  1
  Ag  Ag50  1  0.49501162  0.50699068  0.67659211  1
  Ag  Ag51  1  0.49793024  -0.00734907  0.83877090  1
  Ag  Ag52  1  0.83453364  0.66897125  0.48946805  1
  Ag  Ag53  1  0.50267812  -0.00528769  0.16698321  1
  Sb  Sb54  1  0.66206355  0.50411205  0.83787171  1
  Sb  Sb55  1  0.50217412  0.33173264  0.16738644  1
  Sb  Sb56  1  -0.00178359  0.83049966  0.49837528  1
  Sb  Sb57  1  0.66501246  -0.00848607  0.00775958  1
  Sb  Sb58  1  0.33200545  0.66165376  0.67379269  1
  Sb  Sb59  1  0.16978551  0.16912242  0.66576212  1
  Sb  Sb60  1  0.16809422  0.50305550  0.32997057  1
  Sb  Sb61  1  0.66825478  0.33623100  0.00097564  1
  Sb  Sb62  1  0.83254784  0.50596877  0.66720891  1
  Sb  Sb63  1  0.83440577  0.66902189  0.83906412  1
  Sb  Sb64  1  0.83038921  -0.00458610  0.84093609  1
  Sb  Sb65  1  0.50417919  0.67213304  0.49764398  1
  Sb  Sb66  1  0.17143763  -0.00505042  0.16818044  1
  Sb  Sb67  1  0.17005119  0.16759908  0.00311809  1
  Sb  Sb68  1  0.16756138  0.32985145  0.49884168  1
  Sb  Sb69  1  0.33828016  0.83279861  0.16561829  1
  Sb  Sb70  1  0.66843053  0.66640126  0.67162851  1
  Sb  Sb71  1  0.49905021  0.33441716  0.83319709  1
  Sb  Sb72  1  0.66369974  0.00038739  0.66605471  1
  Sb  Sb73  1  0.83044997  0.83655925  0.32550718  1
  Sb  Sb74  1  0.83332536  0.50000293  0.32942224  1
  Sb  Sb75  1  -0.00233808  0.67182121  0.32731183  1
  Sb  Sb76  1  0.32995097  0.49498948  0.50233017  1
  Sb  Sb77  1  0.16201248  0.66980396  0.50096457  1
  Sb  Sb78  1  0.83246347  -0.00563269  0.49028682  1
  Sb  Sb79  1  0.00455917  0.16785445  0.49565852  1
  Sb  Sb80  1  0.83035099  0.16133130  0.66408880  1
  Sb  Sb81  1  0.66334665  0.32868637  0.33173581  1
  Sb  Sb82  1  0.00246215  0.16061769  0.83683425  1
  Sb  Sb83  1  0.66029337  0.16410177  0.49536255  1
  Sb  Sb84  1  0.83359102  0.33641734  0.49529344  1
  Sb  Sb85  1  0.49848207  0.32807389  0.50065992  1
  Sb  Sb86  1  0.33472510  0.83892316  0.49714948  1
  Sb  Sb87  1  0.66815218  0.50152735  0.49760892  1
  Sb  Sb88  1  0.33600734  0.83100816  0.83524232  1
  Sb  Sb89  1  -0.00019810  0.50718212  0.16118544  1
  Sb  Sb90  1  0.00000933  -0.00729592  0.66917616  1
  Sb  Sb91  1  0.16887216  0.83033155  0.66731805  1
  Sb  Sb92  1  0.16841865  0.33802353  0.83451482  1
  Sb  Sb93  1  0.66672454  0.83330522  0.49628557  1
  Sb  Sb94  1  0.33322701  -0.00237312  0.00275896  1
  Sb  Sb95  1  0.33758203  0.66945543  0.32433328  1
  Sb  Sb96  1  0.50014354  0.50162828  0.32825878  1
  Sb  Sb97  1  0.83305344  0.33244598  0.83931297  1
  Sb  Sb98  1  0.00145345  0.34384288  0.67260705  1
  Sb  Sb99  1  0.16547545  0.33699129  0.16565571  1
  Sb  Sb100  1  0.33519120  0.00366583  0.66544854  1
  Sb  Sb101  1  0.49851494  0.16461912  0.66969237  1
  Sb  Sb102  1  0.83249715  0.50792067  0.00150333  1
  Sb  Sb103  1  0.16496136  0.82711324  0.00426159  1
  Sb  Sb104  1  0.00309147  0.32897159  0.32701275  1
  Sb  Sb105  1  0.00103298  0.15867332  0.16629388  1
  Sb  Sb106  1  0.82896028  0.16106035  0.00595297  1
  Sb  Sb107  1  0.33261861  0.33748098  0.00130170  1
  Te  Te108  1  0.16975562  0.16878823  0.17156362  1
  Te  Te109  1  0.17131475  0.16129850  0.49804645  1
  Te  Te110  1  0.17082349  0.16251128  0.83381549  1
  Te  Te111  1  0.16987556  0.50464071  0.16287698  1
  Te  Te112  1  0.16194411  0.50079497  0.49916264  1
  Te  Te113  1  0.16829452  0.50227957  0.83614377  1
  Te  Te114  1  0.16925329  0.82900708  0.16992567  1
  Te  Te115  1  0.16623522  0.83920811  0.49703987  1
  Te  Te116  1  0.16442253  0.83072249  0.83197143  1
  Te  Te117  1  0.49878985  0.17011664  0.16506981  1
  Te  Te118  1  0.49344034  0.16007614  0.50274450  1
  Te  Te119  1  0.50101906  0.16794214  0.83275105  1
  Te  Te120  1  0.49954193  0.49855481  0.16375193  1
  Te  Te121  1  0.50030675  0.50065898  0.50404465  1
  Te  Te122  1  0.49833320  0.50252009  0.83554043  1
  Te  Te123  1  0.50009890  0.83374444  0.16312125  1
  Te  Te124  1  0.50102059  0.83956344  0.49658051  1
  Te  Te125  1  0.49860813  0.83161621  0.83866254  1
  Te  Te126  1  0.83542318  0.16112430  0.16927416  1
  Te  Te127  1  0.83331451  0.16731797  0.49275800  1
  Te  Te128  1  0.82728203  0.16429276  0.83269545  1
  Te  Te129  1  0.82995228  0.50432688  0.16630193  1
  Te  Te130  1  0.83722175  0.50579798  0.49919305  1
  Te  Te131  1  0.83729206  0.49761687  0.83276797  1
  Te  Te132  1  0.83061000  0.83407562  0.16553135  1
  Te  Te133  1  0.83316731  0.82716895  0.50695421  1
  Te  Te134  1  0.83430135  0.83409423  0.83593850  1
  Te  Te135  1  0.16445926  0.00151351  -0.00628842  1
  Te  Te136  1  0.16518850  -0.00170309  0.32980635  1
  Te  Te137  1  0.16637035  0.00015007  0.67553058  1
  Te  Te138  1  0.16036239  0.33784563  0.00077302  1
  Te  Te139  1  0.17154736  0.33018762  0.33320238  1
  Te  Te140  1  0.16893561  0.34133245  0.66592920  1
  Te  Te141  1  0.16432185  0.66702968  -0.00313792  1
  Te  Te142  1  0.16803891  0.67375202  0.33252935  1
  Te  Te143  1  0.16317926  0.66198358  0.66758552  1
  Te  Te144  1  0.49872103  0.00309600  -0.00099514  1
  Te  Te145  1  0.49964970  -0.00065179  0.32814872  1
  Te  Te146  1  0.50049421  -0.00659057  0.67959095  1
  Te  Te147  1  0.50064329  0.32909654  -0.00004401  1
  Te  Te148  1  0.49408109  0.33245107  0.33604725  1
  Te  Te149  1  0.49898571  0.33673432  0.66590300  1
  Te  Te150  1  0.49769350  0.66503613  0.00162309  1
  Te  Te151  1  0.50522737  0.66942554  0.32993665  1
  Te  Te152  1  0.50027046  0.66732202  0.66634722  1
  Te  Te153  1  0.84058585  -0.00489241  0.00702957  1
  Te  Te154  1  0.84211166  0.00193835  0.32984866  1
  Te  Te155  1  0.83296441  -0.00750333  0.66353693  1
  Te  Te156  1  0.83675105  0.32980206  0.00622411  1
  Te  Te157  1  0.83348611  0.32824913  0.32809190  1
  Te  Te158  1  0.83115902  0.33160192  0.66517208  1
  Te  Te159  1  0.84034631  0.67143557  0.00455360  1
  Te  Te160  1  0.82816214  0.66701257  0.32967428  1
  Te  Te161  1  0.83637716  0.67169098  0.66898077  1
  Te  Te162  1  0.00042569  0.16882345  -0.00106803  1
  Te  Te163  1  -0.00128480  0.16213754  0.33348304  1
  Te  Te164  1  -0.00122078  0.16840556  0.66641070  1
  Te  Te165  1  -0.00054435  0.50247478  -0.00260813  1
  Te  Te166  1  0.00168783  0.49786259  0.33640060  1
  Te  Te167  1  -0.00008386  0.50506358  0.67045637  1
  Te  Te168  1  0.00505994  0.83019296  0.00063869  1
  Te  Te169  1  -0.00072542  0.83799132  0.33114987  1
  Te  Te170  1  0.00132362  0.82729000  0.66737560  1
  Te  Te171  1  0.33643643  0.16743933  -0.00163521  1
  Te  Te172  1  0.33463787  0.16459053  0.32994168  1
  Te  Te173  1  0.33213946  0.17320394  0.67794321  1
  Te  Te174  1  0.33215195  0.49882495  0.00062458  1
  Te  Te175  1  0.33261419  0.49963469  0.33215840  1
  Te  Te176  1  0.33414823  0.49597389  0.66685148  1
  Te  Te177  1  0.34202245  0.82689291  -0.00060908  1
  Te  Te178  1  0.33565275  0.83936705  0.33247670  1
  Te  Te179  1  0.34171412  0.83237681  0.66546459  1
  Te  Te180  1  0.66278730  0.16875743  0.00112110  1
  Te  Te181  1  0.66432659  0.16388332  0.32968268  1
  Te  Te182  1  0.66752042  0.17076714  0.66740221  1
  Te  Te183  1  0.66466276  0.50417574  0.00514707  1
  Te  Te184  1  0.66593468  0.49893526  0.32673104  1
  Te  Te185  1  0.66258280  0.49786989  0.66710438  1
  Te  Te186  1  0.66852825  0.83192856  0.00128276  1
  Te  Te187  1  0.66485220  0.83661729  0.33039442  1
  Te  Te188  1  0.66521321  0.83296430  0.66916259  1
  Te  Te189  1  0.00706284  -0.00626346  0.16469316  1
  Te  Te190  1  0.00444170  0.00011592  0.50051541  1
  Te  Te191  1  -0.00102791  -0.00666633  0.83687475  1
  Te  Te192  1  -0.00565675  0.33639221  0.16316528  1
  Te  Te193  1  -0.00083522  0.34088130  0.50080305  1
  Te  Te194  1  -0.00036804  0.33052353  0.83991181  1
  Te  Te195  1  0.00591883  0.67144865  0.16452500  1
  Te  Te196  1  -0.00523569  0.66284513  0.49416990  1
  Te  Te197  1  -0.00206415  0.67091552  0.83631471  1
  Te  Te198  1  0.33812630  0.00512345  0.16946453  1
  Te  Te199  1  0.33291629  0.00397054  0.49961119  1
  Te  Te200  1  0.33387576  0.00268633  0.83304479  1
  Te  Te201  1  0.33274602  0.33413421  0.16913440  1
  Te  Te202  1  0.33304831  0.32710967  0.50196465  1
  Te  Te203  1  0.33307833  0.33604628  0.83045500  1
  Te  Te204  1  0.32963410  0.66307673  0.16301288  1
  Te  Te205  1  0.33316080  0.66500790  0.49830573  1
  Te  Te206  1  0.33331620  0.66255295  0.83715795  1
  Te  Te207  1  0.66375443  0.00031445  0.16719917  1
  Te  Te208  1  0.66284076  0.00095970  0.49313706  1
  Te  Te209  1  0.66337913  -0.00233338  0.83184101  1
  Te  Te210  1  0.67395660  0.32352972  0.16810488  1
  Te  Te211  1  0.66710669  0.33307697  0.50756297  1
  Te  Te212  1  0.66872422  0.33485344  0.82976143  1
  Te  Te213  1  0.66620516  0.67019652  0.16462535  1
  Te  Te214  1  0.67366803  0.66485725  0.49897174  1
  Te  Te215  1  0.66238009  0.67187528  0.83842390  1
