# generated using pymatgen
data_AgSbTe2
_symmetry_space_group_name_H-M   'P 1'
_cell_length_a   18.33855273
_cell_length_b   18.33582224
_cell_length_c   18.34130205
_cell_angle_alpha   89.99834108
_cell_angle_beta   89.99690936
_cell_angle_gamma   89.99973370
_symmetry_Int_Tables_number   1
_chemical_formula_structural   AgSbTe2
_chemical_formula_sum   'Ag54 Sb54 Te108'
_cell_volume   6167.30761167
_cell_formula_units_Z   54
loop_
 _symmetry_equiv_pos_site_id
 _symmetry_equiv_pos_as_xyz
  1  'x, y, z'
loop_
 _atom_site_type_symbol
 _atom_site_label
 _atom_site_symmetry_multiplicity
 _atom_site_fract_x
 _atom_site_fract_y
 _atom_site_fract_z
 _atom_site_occupancy
  Ag  Ag0  1  0.67153109  -0.00032517  0.01019653  1
  Ag  Ag1  1  0.33582307  -0.00169606  0.67008822  1
  Ag  Ag2  1  0.00175900  0.17760853  0.16603130  1
  Ag  Ag3  1  -0.00878540  0.49150698  0.50195869  1
  Ag  Ag4  1  0.67231535  0.65998391  0.66593870  1
  Ag  Ag5  1  0.32121296  0.33552028  -0.00023870  1
  Ag  Ag6  1  0.83072572  0.00393371  0.49791143  1
  Ag  Ag7  1  -0.01327473  0.48739321  0.15148491  1
  Ag  Ag8  1  0.50924434  0.66871551  0.16589661  1
  Ag  Ag9  1  0.33130399  0.83419213  0.16073707  1
  Ag  Ag10  1  0.49790094  0.33362702  0.83244771  1
  Ag  Ag11  1  0.16164434  0.67153750  0.83372284  1
  Ag  Ag12  1  0.00609184  0.82842575  0.84070192  1
  Ag  Ag13  1  0.83066731  0.49543777  0.32873653  1
  Ag  Ag14  1  0.15568689  0.49685973  -0.00118943  1
  Ag  Ag15  1  0.16178849  0.66532292  0.50759495  1
  Ag  Ag16  1  0.50922148  -0.00366796  0.16212838  1
  Ag  Ag17  1  0.32435437  0.50282442  0.83392019  1
  Ag  Ag18  1  0.00449813  0.34603056  0.01255143  1
  Ag  Ag19  1  0.49521422  0.00208605  0.83333194  1
  Ag  Ag20  1  0.67488505  0.49664148  0.49290333  1
  Ag  Ag21  1  0.83854542  0.34091525  0.49451847  1
  Ag  Ag22  1  0.67687138  0.50239326  0.17236361  1
  Ag  Ag23  1  -0.00131998  0.83316276  0.15887276  1
  Ag  Ag24  1  0.49567221  0.16413987  0.00133474  1
  Ag  Ag25  1  0.84358277  0.34459406  0.17494844  1
  Ag  Ag26  1  0.00385749  0.50284433  0.84201294  1
  Ag  Ag27  1  0.51017454  0.49624755  0.33562525  1
  Ag  Ag28  1  0.83439939  0.65521875  0.16560208  1
  Ag  Ag29  1  0.83760543  0.49938065  0.66247689  1
  Ag  Ag30  1  0.50569692  0.33657222  0.50209195  1
  Ag  Ag31  1  0.67520819  0.33845665  0.33375554  1
  Ag  Ag32  1  0.15499968  0.33190048  0.16194916  1
  Ag  Ag33  1  -0.00165500  0.65660949  0.67392462  1
  Ag  Ag34  1  0.16602706  -0.00544461  0.83462380  1
  Ag  Ag35  1  0.00032150  0.00076168  0.67276059  1
  Ag  Ag36  1  0.16201498  0.83455863  -0.00291434  1
  Ag  Ag37  1  -0.00569612  0.33484309  0.32374461  1
  Ag  Ag38  1  0.66817370  0.00390937  0.32671108  1
  Ag  Ag39  1  0.83141790  -0.00080070  0.16795856  1
  Ag  Ag40  1  0.66946847  0.83476950  0.16606385  1
  Ag  Ag41  1  0.00003040  -0.00024469  -0.00107361  1
  Ag  Ag42  1  0.33223597  0.83629619  0.50696884  1
  Ag  Ag43  1  0.32534118  0.83502744  0.83545557  1
  Ag  Ag44  1  0.00061824  0.17517084  0.49814666  1
  Ag  Ag45  1  0.16409168  0.17043681  -0.00038559  1
  Ag  Ag46  1  0.50684640  0.49840770  0.66421801  1
  Ag  Ag47  1  0.16135612  0.16446452  0.67019814  1
  Ag  Ag48  1  0.84507358  0.49851559  0.01528189  1
  Ag  Ag49  1  0.00208176  0.65662515  -0.00250747  1
  Ag  Ag50  1  0.66792788  -0.00261120  0.66426961  1
  Ag  Ag51  1  0.50837075  0.00467411  0.50350015  1
  Ag  Ag52  1  0.16040731  0.16791898  0.32798886  1
  Ag  Ag53  1  -0.00075766  0.34123284  0.66520258  1
  Sb  Sb54  1  0.16430499  -0.00189605  0.50644110  1
  Sb  Sb55  1  0.67287828  0.66998430  0.00110622  1
  Sb  Sb56  1  0.84238263  0.66402937  0.83742037  1
  Sb  Sb57  1  0.84072448  0.16902876  0.00415359  1
  Sb  Sb58  1  0.16048013  0.49685303  0.67210004  1
  Sb  Sb59  1  0.32850165  0.16397689  0.50164742  1
  Sb  Sb60  1  -0.00580719  0.00697320  0.33010848  1
  Sb  Sb61  1  0.66331396  0.83407188  0.49628197  1
  Sb  Sb62  1  0.16522429  0.83801266  0.32824820  1
  Sb  Sb63  1  0.16005611  0.66439429  0.16235902  1
  Sb  Sb64  1  0.49681767  0.16688290  0.66881393  1
  Sb  Sb65  1  0.32950180  0.66898393  0.66811827  1
  Sb  Sb66  1  0.66612246  0.83592256  0.83800192  1
  Sb  Sb67  1  0.33409523  0.50274438  0.50602295  1
  Sb  Sb68  1  -0.00137838  0.65887523  0.32976808  1
  Sb  Sb69  1  0.32653961  0.66439812  -0.00041598  1
  Sb  Sb70  1  0.49742893  0.16876675  0.33047189  1
  Sb  Sb71  1  0.49915663  0.83312575  0.66698783  1
  Sb  Sb72  1  0.33353107  0.66613469  0.33233145  1
  Sb  Sb73  1  0.49469088  0.83943388  0.00237361  1
  Sb  Sb74  1  0.66727510  0.66140091  0.33352818  1
  Sb  Sb75  1  0.16109445  0.00340492  0.15921331  1
  Sb  Sb76  1  0.83295263  0.83202771  0.32999796  1
  Sb  Sb77  1  0.33131009  0.00174549  -0.00411366  1
  Sb  Sb78  1  0.00356990  0.83328395  0.50110675  1
  Sb  Sb79  1  0.33204632  0.50322890  0.16157600  1
  Sb  Sb80  1  0.33078627  0.16453645  0.83495542  1
  Sb  Sb81  1  0.83854213  0.17427188  0.33248603  1
  Sb  Sb82  1  0.83492201  0.82977183  0.66537411  1
  Sb  Sb83  1  0.66993683  0.33511514  0.66156456  1
  Sb  Sb84  1  0.16069282  0.49571299  0.32878391  1
  Sb  Sb85  1  0.67127124  0.33026434  0.00550306  1
  Sb  Sb86  1  0.32795662  0.16202551  0.16362345  1
  Sb  Sb87  1  0.84359764  0.83059674  0.00455764  1
  Sb  Sb88  1  0.83448145  0.33744340  0.83387957  1
  Sb  Sb89  1  0.50174239  0.49536462  0.00015000  1
  Sb  Sb90  1  0.33749427  -0.00094520  0.33574217  1
  Sb  Sb91  1  0.83728822  -0.00064002  0.83355123  1
  Sb  Sb92  1  0.66340556  0.16509143  0.83399060  1
  Sb  Sb93  1  0.16538363  0.83681172  0.67544508  1
  Sb  Sb94  1  0.49889099  0.66440385  0.49811402  1
  Sb  Sb95  1  0.33158335  0.33431217  0.32967972  1
  Sb  Sb96  1  0.33048974  0.33127581  0.67164758  1
  Sb  Sb97  1  0.00366978  0.16782938  0.83543884  1
  Sb  Sb98  1  0.67266982  0.16517476  0.16698859  1
  Sb  Sb99  1  0.49573600  0.66671516  0.83654832  1
  Sb  Sb100  1  0.50126494  0.83206941  0.33033714  1
  Sb  Sb101  1  0.83718159  0.66104457  0.49750628  1
  Sb  Sb102  1  0.16043752  0.33574273  0.49750930  1
  Sb  Sb103  1  0.16744236  0.33462335  0.84023247  1
  Sb  Sb104  1  0.84111126  0.16904215  0.66367467  1
  Sb  Sb105  1  0.50322994  0.33342529  0.16594862  1
  Sb  Sb106  1  0.67202109  0.16937878  0.49902309  1
  Sb  Sb107  1  0.66866855  0.50125497  0.83336329  1
  Te  Te108  1  0.16221350  0.16954716  0.16229748  1
  Te  Te109  1  0.16123025  0.16683861  0.50333775  1
  Te  Te110  1  0.16676666  0.16079245  0.83507399  1
  Te  Te111  1  0.16469090  0.49627024  0.16189531  1
  Te  Te112  1  0.16623540  0.50407273  0.49859488  1
  Te  Te113  1  0.16533929  0.50024966  0.83675278  1
  Te  Te114  1  0.16678417  0.83253768  0.16178102  1
  Te  Te115  1  0.17212544  0.82981251  0.49680463  1
  Te  Te116  1  0.16569723  0.83344564  0.83625838  1
  Te  Te117  1  0.49901059  0.16158422  0.16285733  1
  Te  Te118  1  0.49861084  0.16516121  0.49931785  1
  Te  Te119  1  0.49736470  0.16535637  0.83739889  1
  Te  Te120  1  0.50012059  0.50203535  0.16917568  1
  Te  Te121  1  0.49989104  0.49953766  0.50159041  1
  Te  Te122  1  0.50049980  0.49916200  0.83069195  1
  Te  Te123  1  0.50224964  0.83455704  0.16644020  1
  Te  Te124  1  0.49410697  0.83665371  0.49827312  1
  Te  Te125  1  0.49466158  0.83747553  0.83461613  1
  Te  Te126  1  0.84145462  0.15825224  0.16704081  1
  Te  Te127  1  0.84014609  0.16490675  0.49850447  1
  Te  Te128  1  0.83199430  0.16858386  0.83436440  1
  Te  Te129  1  0.83321012  0.49919699  0.17070099  1
  Te  Te130  1  0.83197037  0.50024029  0.50244294  1
  Te  Te131  1  0.83825582  0.49957862  0.82297703  1
  Te  Te132  1  0.83155827  0.84050491  0.16641417  1
  Te  Te133  1  0.83287970  0.84056139  0.49757566  1
  Te  Te134  1  0.84037548  0.83229985  0.83425323  1
  Te  Te135  1  0.16537176  -0.00035936  -0.00430672  1
  Te  Te136  1  0.16728778  0.00626793  0.33331559  1
  Te  Te137  1  0.16275802  0.00243371  0.67017088  1
  Te  Te138  1  0.16325146  0.33367676  0.00013204  1
  Te  Te139  1  0.16381406  0.32933511  0.32842589  1
  Te  Te140  1  0.16322340  0.32736561  0.66636296  1
  Te  Te141  1  0.16171759  0.66548524  -0.00283128  1
  Te  Te142  1  0.16649442  0.66684436  0.33826912  1
  Te  Te143  1  0.16191549  0.66539187  0.66927095  1
  Te  Te144  1  0.49771386  0.00351597  -0.00077965  1
  Te  Te145  1  0.50472859  0.00137047  0.33506621  1
  Te  Te146  1  0.49876906  0.00048573  0.66676601  1
  Te  Te147  1  0.50329080  0.32769696  -0.00319747  1
  Te  Te148  1  0.50097886  0.33535778  0.33691263  1
  Te  Te149  1  0.49943430  0.33389983  0.66641913  1
  Te  Te150  1  0.50273941  0.66637991  0.00541184  1
  Te  Te151  1  0.50072059  0.65916801  0.32784092  1
  Te  Te152  1  0.50272647  0.66127424  0.66704921  1
  Te  Te153  1  0.83224063  0.00124713  0.00121619  1
  Te  Te154  1  0.82864792  -0.00082942  0.33406760  1
  Te  Te155  1  0.83414440  0.00004400  0.66501022  1
  Te  Te156  1  0.83925595  0.33684729  0.00236300  1
  Te  Te157  1  0.83394263  0.33515819  0.33471223  1
  Te  Te158  1  0.83659384  0.33595939  0.66211652  1
  Te  Te159  1  0.83881357  0.66042159  0.00514641  1
  Te  Te160  1  0.83241602  0.65948668  0.32723595  1
  Te  Te161  1  0.83533920  0.66287363  0.66531518  1
  Te  Te162  1  0.00420311  0.15950294  0.00190872  1
  Te  Te163  1  0.00328557  0.17235912  0.33241226  1
  Te  Te164  1  0.00270461  0.16021287  0.66664813  1
  Te  Te165  1  0.00005979  0.50111137  -0.00228083  1
  Te  Te166  1  -0.00249004  0.49488463  0.34084913  1
  Te  Te167  1  0.00129787  0.50135505  0.66030776  1
  Te  Te168  1  0.00266947  0.84050206  -0.00090137  1
  Te  Te169  1  0.00051525  0.83243027  0.32694532  1
  Te  Te170  1  -0.00042284  0.83748764  0.66911937  1
  Te  Te171  1  0.33112786  0.17409067  0.00033140  1
  Te  Te172  1  0.32286897  0.16696680  0.33295383  1
  Te  Te173  1  0.32586289  0.15971389  0.66697448  1
  Te  Te174  1  0.33360959  0.49559571  -0.00599130  1
  Te  Te175  1  0.33826425  0.49937268  0.33466485  1
  Te  Te176  1  0.33705727  0.50005017  0.67343446  1
  Te  Te177  1  0.32679103  0.83251131  -0.00151240  1
  Te  Te178  1  0.33309470  0.83354274  0.32748980  1
  Te  Te179  1  0.33266630  0.83728841  0.66872879  1
  Te  Te180  1  0.66174934  0.15991753  0.00056363  1
  Te  Te181  1  0.66370454  0.16585360  0.33362793  1
  Te  Te182  1  0.66631148  0.15853983  0.66663372  1
  Te  Te183  1  0.67132329  0.50049764  0.00358036  1
  Te  Te184  1  0.66838837  0.49919370  0.33347522  1
  Te  Te185  1  0.66612913  0.49946290  0.66667049  1
  Te  Te186  1  0.66615544  0.83858767  0.00563084  1
  Te  Te187  1  0.66649920  0.84029191  0.32733139  1
  Te  Te188  1  0.66700557  0.83566087  0.66623262  1
  Te  Te189  1  -0.00232756  -0.00687048  0.16561041  1
  Te  Te190  1  -0.00348804  -0.00012318  0.49909697  1
  Te  Te191  1  0.00153607  0.00058946  0.83380657  1
  Te  Te192  1  -0.00078612  0.33345991  0.16732268  1
  Te  Te193  1  -0.00058442  0.33244966  0.50568079  1
  Te  Te194  1  0.00026767  0.33844910  0.82618855  1
  Te  Te195  1  -0.00272060  0.67155136  0.16397003  1
  Te  Te196  1  0.00243562  0.66755047  0.50202280  1
  Te  Te197  1  0.00262825  0.66570338  0.83386185  1
  Te  Te198  1  0.33714981  -0.00533733  0.16663436  1
  Te  Te199  1  0.33555603  -0.00377786  0.50392767  1
  Te  Te200  1  0.33328744  -0.00262491  0.83142286  1
  Te  Te201  1  0.33279633  0.33375039  0.16104834  1
  Te  Te202  1  0.34019372  0.33331968  0.50024916  1
  Te  Te203  1  0.33720338  0.33754348  0.83682774  1
  Te  Te204  1  0.33607449  0.67271064  0.16593028  1
  Te  Te205  1  0.32871692  0.67340920  0.50022165  1
  Te  Te206  1  0.32791495  0.66850630  0.83323768  1
  Te  Te207  1  0.66614052  0.00277993  0.16682706  1
  Te  Te208  1  0.66720738  -0.00004661  0.50253122  1
  Te  Te209  1  0.66225400  -0.00203548  0.82921468  1
  Te  Te210  1  0.67097204  0.33614106  0.17240678  1
  Te  Te211  1  0.66670420  0.33596954  0.49683412  1
  Te  Te212  1  0.65942143  0.33321975  0.83380226  1
  Te  Te213  1  0.66936129  0.66638898  0.16651708  1
  Te  Te214  1  0.66676379  0.66417834  0.50543998  1
  Te  Te215  1  0.66560616  0.66974152  0.82681429  1
