# generated using pymatgen
data_AgSbTe2
_symmetry_space_group_name_H-M   'P 1'
_cell_length_a   18.36002025
_cell_length_b   18.35344826
_cell_length_c   18.36272487
_cell_angle_alpha   90.00072533
_cell_angle_beta   89.99787886
_cell_angle_gamma   90.00321524
_symmetry_Int_Tables_number   1
_chemical_formula_structural   AgSbTe2
_chemical_formula_sum   'Ag54 Sb54 Te108'
_cell_volume   6187.68153740
_cell_formula_units_Z   54
loop_
 _symmetry_equiv_pos_site_id
 _symmetry_equiv_pos_as_xyz
  1  'x, y, z'
loop_
 _atom_site_type_symbol
 _atom_site_label
 _atom_site_symmetry_multiplicity
 _atom_site_fract_x
 _atom_site_fract_y
 _atom_site_fract_z
 _atom_site_occupancy
  Ag  Ag0  1  0.66838425  0.17374281  0.16567109  1
  Ag  Ag1  1  0.34344966  0.82038806  0.83249841  1
  Ag  Ag2  1  0.34249123  0.00955899  -0.01152142  1
  Ag  Ag3  1  -0.00718078  0.65995152  -0.00941295  1
  Ag  Ag4  1  0.66146309  0.49705050  0.50932749  1
  Ag  Ag5  1  0.50926603  0.33894431  0.83717306  1
  Ag  Ag6  1  0.34521701  0.66061640  0.67201655  1
  Ag  Ag7  1  0.83126263  0.01400648  0.15694971  1
  Ag  Ag8  1  0.66909973  0.33744881  0.67402340  1
  Ag  Ag9  1  0.50667561  0.49680773  -0.01211611  1
  Ag  Ag10  1  0.50747065  0.33437821  0.15828840  1
  Ag  Ag11  1  0.50307901  0.65594093  0.51303196  1
  Ag  Ag12  1  0.34658298  0.49300283  0.50739976  1
  Ag  Ag13  1  0.34853791  0.50203181  0.82856074  1
  Ag  Ag14  1  0.50265547  0.49857094  0.67187619  1
  Ag  Ag15  1  0.66315191  0.82143157  0.83260363  1
  Ag  Ag16  1  0.66541966  0.33143942  -0.00657086  1
  Ag  Ag17  1  -0.00922220  0.33985045  0.66717486  1
  Ag  Ag18  1  0.34465793  0.33113758  0.00231879  1
  Ag  Ag19  1  0.66437064  0.50011046  0.83021335  1
  Ag  Ag20  1  -0.00882063  0.66061571  0.32635097  1
  Ag  Ag21  1  0.49933889  0.33763279  0.50369777  1
  Ag  Ag22  1  0.16311858  0.66398164  0.83046216  1
  Ag  Ag23  1  -0.00285102  0.49660444  0.51230328  1
  Ag  Ag24  1  0.83193081  0.65653877  0.15735169  1
  Ag  Ag25  1  0.33547131  0.01012147  0.34042357  1
  Ag  Ag26  1  0.33877738  0.17049189  0.17127375  1
  Ag  Ag27  1  -0.00706305  0.50175270  0.83076692  1
  Ag  Ag28  1  0.82896885  0.49513050  -0.00360007  1
  Ag  Ag29  1  0.82943589  0.65422950  0.83572062  1
  Ag  Ag30  1  0.66391050  0.65492863  0.67131531  1
  Ag  Ag31  1  -0.01357133  0.17692534  0.16222753  1
  Ag  Ag32  1  0.50492050  0.65311629  0.83214990  1
  Ag  Ag33  1  0.82506761  0.00308768  0.83428376  1
  Ag  Ag34  1  0.83412826  0.00977610  0.51458310  1
  Ag  Ag35  1  0.51013122  0.65587963  0.16479868  1
  Ag  Ag36  1  -0.00772073  0.49751270  0.15709156  1
  Ag  Ag37  1  0.18083623  0.33322761  0.50315102  1
  Ag  Ag38  1  -0.00580974  0.18032292  0.83358343  1
  Ag  Ag39  1  0.83132334  0.17536353  0.00058101  1
  Ag  Ag40  1  0.82671883  0.33270284  0.15645025  1
  Ag  Ag41  1  0.50851787  0.00292407  0.83341610  1
  Ag  Ag42  1  0.66587877  0.01020959  -0.00987064  1
  Ag  Ag43  1  0.33909238  0.32997321  0.33717321  1
  Ag  Ag44  1  0.66661961  0.66432202  0.33224001  1
  Ag  Ag45  1  0.82670125  0.33783890  0.83741420  1
  Ag  Ag46  1  0.33637937  0.17396086  0.49498626  1
  Ag  Ag47  1  -0.00891026  0.00285752  0.66740673  1
  Ag  Ag48  1  0.17025958  0.00685889  0.50350908  1
  Ag  Ag49  1  -0.00560167  0.65513704  0.67122218  1
  Ag  Ag50  1  0.49628601  0.17004490  0.33108114  1
  Ag  Ag51  1  0.66653511  0.00280727  0.67382944  1
  Ag  Ag52  1  0.34150244  -0.00140008  0.67001607  1
  Ag  Ag53  1  0.82932829  0.33340200  0.50781773  1
  Sb  Sb54  1  0.33508234  0.83398292  0.50641598  1
  Sb  Sb55  1  0.16901417  0.83267940  -0.00499609  1
  Sb  Sb56  1  0.33861662  0.83915781  0.16028063  1
  Sb  Sb57  1  0.16732670  0.33293939  0.16863623  1
  Sb  Sb58  1  0.33378842  0.66215447  -0.00768805  1
  Sb  Sb59  1  0.50325378  0.00745583  0.16139718  1
  Sb  Sb60  1  0.16785267  0.66216789  0.50699876  1
  Sb  Sb61  1  -0.00518427  0.82607916  0.83182738  1
  Sb  Sb62  1  0.33023239  0.17078730  0.83271714  1
  Sb  Sb63  1  0.49998595  0.00394292  0.50744091  1
  Sb  Sb64  1  0.83030804  0.83156497  -0.00305273  1
  Sb  Sb65  1  -0.00373822  -0.00044015  -0.00444216  1
  Sb  Sb66  1  0.50059735  0.83566695  0.33312221  1
  Sb  Sb67  1  0.16524266  0.00335238  0.17018303  1
  Sb  Sb68  1  -0.00407639  0.83062491  0.16549923  1
  Sb  Sb69  1  0.16748736  0.83345489  0.33562603  1
  Sb  Sb70  1  0.66421621  0.17289430  0.49523073  1
  Sb  Sb71  1  0.83099809  0.83373272  0.66882567  1
  Sb  Sb72  1  0.82826072  0.49784810  0.67470782  1
  Sb  Sb73  1  0.33822767  0.33501743  0.66577684  1
  Sb  Sb74  1  0.83373861  0.16832594  0.67428563  1
  Sb  Sb75  1  0.66407751  -0.00229562  0.33457209  1
  Sb  Sb76  1  0.16643524  0.16675738  0.66581445  1
  Sb  Sb77  1  0.16562306  0.33877347  0.82894489  1
  Sb  Sb78  1  0.50192247  0.17286711  0.66613460  1
  Sb  Sb79  1  0.66676596  0.82859036  0.50799567  1
  Sb  Sb80  1  0.00157934  0.33658933  0.33618532  1
  Sb  Sb81  1  0.67233529  0.17168054  0.83843279  1
  Sb  Sb82  1  0.16085263  0.66405302  0.16159998  1
  Sb  Sb83  1  0.33867701  0.66324282  0.33829259  1
  Sb  Sb84  1  0.50231340  0.82791618  -0.00581890  1
  Sb  Sb85  1  0.17249363  0.16775959  0.33533987  1
  Sb  Sb86  1  0.50532166  0.17523135  0.00126532  1
  Sb  Sb87  1  0.16634947  -0.00408952  0.82864858  1
  Sb  Sb88  1  0.66647383  0.83319175  0.15930176  1
  Sb  Sb89  1  0.33428087  0.49543868  0.16495745  1
  Sb  Sb90  1  0.50080268  0.82495923  0.67010543  1
  Sb  Sb91  1  0.16906684  0.49903639  0.66724450  1
  Sb  Sb92  1  0.83319666  0.49977562  0.32956123  1
  Sb  Sb93  1  0.50226649  0.49550570  0.33648062  1
  Sb  Sb94  1  0.16520259  0.49920537  0.33596457  1
  Sb  Sb95  1  -0.00182587  0.82894369  0.50286273  1
  Sb  Sb96  1  0.00101804  0.17237802  0.50188686  1
  Sb  Sb97  1  0.16429218  0.16841307  -0.00087506  1
  Sb  Sb98  1  0.16531745  0.49857371  -0.00306234  1
  Sb  Sb99  1  0.00006751  -0.00043592  0.33758107  1
  Sb  Sb100  1  0.66858563  0.66061665  -0.00683099  1
  Sb  Sb101  1  0.66883975  0.49662138  0.16168657  1
  Sb  Sb102  1  0.66206544  0.33918039  0.33380417  1
  Sb  Sb103  1  0.83017507  0.65918850  0.50315185  1
  Sb  Sb104  1  0.83194935  0.83180439  0.33384401  1
  Sb  Sb105  1  0.16826130  0.83330887  0.66836197  1
  Sb  Sb106  1  -0.00556222  0.33725126  -0.00398980  1
  Sb  Sb107  1  0.82944578  0.16774487  0.32736241  1
  Te  Te108  1  0.16928611  0.16653647  0.16660581  1
  Te  Te109  1  0.17039597  0.16827620  0.50049681  1
  Te  Te110  1  0.15392946  0.16671438  0.83290439  1
  Te  Te111  1  0.15425172  0.50025829  0.16694293  1
  Te  Te112  1  0.15879668  0.49519601  0.49989948  1
  Te  Te113  1  0.15897731  0.50598322  0.83342110  1
  Te  Te114  1  0.16837412  0.83331457  0.16610130  1
  Te  Te115  1  0.16634372  0.84316742  0.50043311  1
  Te  Te116  1  0.17599904  0.82427252  0.83315225  1
  Te  Te117  1  0.49773136  0.17140431  0.16746847  1
  Te  Te118  1  0.49606538  0.17206957  0.49642607  1
  Te  Te119  1  0.49624379  0.16328296  0.83341579  1
  Te  Te120  1  0.50000370  0.49615918  0.16565537  1
  Te  Te121  1  0.50120976  0.49917153  0.49864225  1
  Te  Te122  1  0.50252747  0.49558310  0.83233377  1
  Te  Te123  1  0.50052633  0.81871377  0.16529034  1
  Te  Te124  1  0.50083127  0.81905002  0.49831286  1
  Te  Te125  1  0.50198065  0.84518770  0.83331181  1
  Te  Te126  1  0.83037735  0.17052476  0.16391258  1
  Te  Te127  1  0.83337305  0.16916266  0.49664855  1
  Te  Te128  1  0.83779294  0.16563051  0.83917560  1
  Te  Te129  1  0.83400252  0.49796172  0.16247328  1
  Te  Te130  1  0.83654315  0.49540430  0.49771006  1
  Te  Te131  1  0.83291377  0.49667472  0.83588224  1
  Te  Te132  1  0.83181384  0.83056965  0.16654013  1
  Te  Te133  1  0.83318778  0.84804370  0.49933728  1
  Te  Te134  1  0.82652318  0.84337494  0.83310470  1
  Te  Te135  1  0.17093969  -0.00016145  0.00061899  1
  Te  Te136  1  0.17192336  -0.00061493  0.33875206  1
  Te  Te137  1  0.16751326  0.00006247  0.66199302  1
  Te  Te138  1  0.18000485  0.33324456  -0.00019230  1
  Te  Te139  1  0.17314867  0.33364429  0.34071464  1
  Te  Te140  1  0.15508275  0.33200750  0.66167235  1
  Te  Te141  1  0.16390322  0.66610614  -0.00768231  1
  Te  Te142  1  0.16435704  0.66773622  0.33524719  1
  Te  Te143  1  0.16086577  0.66772538  0.67121517  1
  Te  Te144  1  0.50057520  -0.00165889  -0.00226247  1
  Te  Te145  1  0.49525108  0.00422163  0.33225387  1
  Te  Te146  1  0.50175481  0.00117309  0.66935247  1
  Te  Te147  1  0.50360980  0.33535423  -0.00205038  1
  Te  Te148  1  0.49816890  0.33004215  0.33331383  1
  Te  Te149  1  0.50459725  0.33735153  0.66845494  1
  Te  Te150  1  0.49996350  0.65917183  -0.00174092  1
  Te  Te151  1  0.50337084  0.66832292  0.32473949  1
  Te  Te152  1  0.50231620  0.66262394  0.67140675  1
  Te  Te153  1  0.83235095  -0.00183012  -0.00129976  1
  Te  Te154  1  0.83400278  -0.00098084  0.32611160  1
  Te  Te155  1  0.83122433  0.00124757  0.67073354  1
  Te  Te156  1  0.83362409  0.33419412  -0.00231017  1
  Te  Te157  1  0.83407481  0.33235738  0.33177255  1
  Te  Te158  1  0.83030091  0.33212088  0.66890972  1
  Te  Te159  1  0.83386385  0.66570374  -0.00101193  1
  Te  Te160  1  0.83182868  0.66706672  0.33434968  1
  Te  Te161  1  0.83271526  0.66890218  0.67090691  1
  Te  Te162  1  -0.00477523  0.16631454  0.00079485  1
  Te  Te163  1  -0.00033242  0.16605480  0.32449409  1
  Te  Te164  1  -0.00029464  0.16229666  0.66980310  1
  Te  Te165  1  -0.00143991  0.50105317  -0.00257275  1
  Te  Te166  1  -0.00051049  0.50431586  0.33334399  1
  Te  Te167  1  0.00048127  0.49799842  0.66958985  1
  Te  Te168  1  0.00158732  0.82442530  -0.00035521  1
  Te  Te169  1  -0.00007491  0.82391047  0.33398862  1
  Te  Te170  1  0.00078859  0.84214399  0.66624629  1
  Te  Te171  1  0.33097968  0.16849581  0.00091124  1
  Te  Te172  1  0.33470147  0.16866506  0.33437326  1
  Te  Te173  1  0.33446003  0.16262442  0.66345017  1
  Te  Te174  1  0.33525926  0.49467006  -0.00268509  1
  Te  Te175  1  0.33240834  0.49615894  0.33680838  1
  Te  Te176  1  0.33441973  0.50099552  0.66630275  1
  Te  Te177  1  0.33505278  0.84059107  -0.00681567  1
  Te  Te178  1  0.33337783  0.83681658  0.33175555  1
  Te  Te179  1  0.33412543  0.83576643  0.67283163  1
  Te  Te180  1  0.67026298  0.17000580  0.00589312  1
  Te  Te181  1  0.65913129  0.16549533  0.32616580  1
  Te  Te182  1  0.66719702  0.16291765  0.66048005  1
  Te  Te183  1  0.66758493  0.49519980  -0.00312787  1
  Te  Te184  1  0.66752275  0.50833769  0.34317125  1
  Te  Te185  1  0.66625023  0.49729425  0.66792434  1
  Te  Te186  1  0.66544961  0.84844812  -0.00731606  1
  Te  Te187  1  0.66589023  0.82292049  0.33377927  1
  Te  Te188  1  0.66573476  0.84348355  0.67414481  1
  Te  Te189  1  -0.00532654  0.00058649  0.16591530  1
  Te  Te190  1  -0.00324194  0.00144859  0.50237339  1
  Te  Te191  1  0.00018963  -0.00690456  0.82874530  1
  Te  Te192  1  -0.00056211  0.33449319  0.16596999  1
  Te  Te193  1  -0.01057410  0.33510104  0.50124749  1
  Te  Te194  1  0.00043659  0.33623772  0.82972107  1
  Te  Te195  1  -0.00414255  0.66361052  0.16921817  1
  Te  Te196  1  -0.00056550  0.66119710  0.50834836  1
  Te  Te197  1  -0.00843117  0.66597820  0.83139218  1
  Te  Te198  1  0.33345446  0.00561471  0.16690523  1
  Te  Te199  1  0.33562704  -0.00058789  0.50331326  1
  Te  Te200  1  0.33014316  0.00543599  0.83163812  1
  Te  Te201  1  0.33329383  0.33164290  0.16740944  1
  Te  Te202  1  0.33666483  0.33412224  0.50417334  1
  Te  Te203  1  0.33329779  0.33888849  0.83358298  1
  Te  Te204  1  0.33127998  0.66664845  0.16720912  1
  Te  Te205  1  0.33527089  0.66500939  0.50608319  1
  Te  Te206  1  0.34359103  0.66315288  0.83276943  1
  Te  Te207  1  0.67123099  -0.00017929  0.16850458  1
  Te  Te208  1  0.67114435  -0.00185565  0.50126269  1
  Te  Te209  1  0.66786584  0.01223716  0.83382622  1
  Te  Te210  1  0.66695561  0.33306630  0.16783351  1
  Te  Te211  1  0.66744189  0.33704457  0.49936093  1
  Te  Te212  1  0.66718222  0.33306894  0.83287876  1
  Te  Te213  1  0.66998222  0.66558264  0.16339113  1
  Te  Te214  1  0.66600907  0.66398158  0.51021796  1
  Te  Te215  1  0.66765154  0.66470025  0.83344988  1
