# generated using pymatgen
data_AgSbTe2
_symmetry_space_group_name_H-M   'P 1'
_cell_length_a   18.32489732
_cell_length_b   18.32811933
_cell_length_c   18.32494395
_cell_angle_alpha   89.99951022
_cell_angle_beta   90.00158579
_cell_angle_gamma   90.00010974
_symmetry_Int_Tables_number   1
_chemical_formula_structural   AgSbTe2
_chemical_formula_sum   'Ag54 Sb54 Te108'
_cell_volume   6154.63225299
_cell_formula_units_Z   54
loop_
 _symmetry_equiv_pos_site_id
 _symmetry_equiv_pos_as_xyz
  1  'x, y, z'
loop_
 _atom_site_type_symbol
 _atom_site_label
 _atom_site_symmetry_multiplicity
 _atom_site_fract_x
 _atom_site_fract_y
 _atom_site_fract_z
 _atom_site_occupancy
  Ag  Ag0  1  0.49192425  0.83202708  0.67359399  1
  Ag  Ag1  1  0.49667550  0.16988265  0.32882496  1
  Ag  Ag2  1  0.16453142  0.16895557  0.33440928  1
  Ag  Ag3  1  0.66153208  0.66931001  0.66933110  1
  Ag  Ag4  1  0.32570535  0.50613341  0.49065346  1
  Ag  Ag5  1  0.49441832  0.32860001  0.84141427  1
  Ag  Ag6  1  0.01084010  0.82839070  0.49981610  1
  Ag  Ag7  1  0.00723300  -0.00115305  0.00720813  1
  Ag  Ag8  1  0.16988864  0.66664165  0.84144711  1
  Ag  Ag9  1  0.17053703  0.83317288  0.66340542  1
  Ag  Ag10  1  0.65775578  0.83133010  0.83579181  1
  Ag  Ag11  1  0.00864405  0.50134592  0.49790395  1
  Ag  Ag12  1  0.16535615  0.33686059  0.49827368  1
  Ag  Ag13  1  0.84108790  0.00109910  0.16549116  1
  Ag  Ag14  1  0.17055391  0.66405578  0.16363910  1
  Ag  Ag15  1  0.17103121  0.82637448  -0.00297878  1
  Ag  Ag16  1  0.33233329  0.66715601  0.00273543  1
  Ag  Ag17  1  0.00603535  0.33339400  0.66800785  1
  Ag  Ag18  1  0.16406519  0.33628716  0.16012220  1
  Ag  Ag19  1  0.16812941  -0.01005564  0.49588555  1
  Ag  Ag20  1  0.83889913  0.66678029  0.16659843  1
  Ag  Ag21  1  0.66285099  0.66426840  0.33188701  1
  Ag  Ag22  1  0.65635287  0.16925674  0.83528071  1
  Ag  Ag23  1  0.00657041  0.50154832  0.83485354  1
  Ag  Ag24  1  0.33711136  0.17075049  0.83860130  1
  Ag  Ag25  1  0.33341353  0.82794455  0.16319527  1
  Ag  Ag26  1  0.17022407  0.16851658  0.66400417  1
  Ag  Ag27  1  0.00279785  0.66650861  0.33200217  1
  Ag  Ag28  1  0.49599158  0.17638960  -0.00387774  1
  Ag  Ag29  1  0.00863065  0.82851643  0.83734982  1
  Ag  Ag30  1  0.32787765  -0.00172264  0.32810631  1
  Ag  Ag31  1  0.49597183  0.82583942  0.32656647  1
  Ag  Ag32  1  0.16672111  0.33694293  0.84305880  1
  Ag  Ag33  1  0.32847444  0.82978701  0.49443009  1
  Ag  Ag34  1  0.48882821  0.50081297  0.00259980  1
  Ag  Ag35  1  0.49668169  0.50420444  0.32461678  1
  Ag  Ag36  1  0.00504178  0.33065877  0.32624184  1
  Ag  Ag37  1  0.16676841  0.66879853  0.49687324  1
  Ag  Ag38  1  0.84475322  0.33127669  0.16690548  1
  Ag  Ag39  1  0.33055444  0.33740587  -0.00013347  1
  Ag  Ag40  1  0.01069352  0.33168844  0.00579779  1
  Ag  Ag41  1  0.48929387  0.66745355  0.16173310  1
  Ag  Ag42  1  0.66484798  0.33291496  0.32781820  1
  Ag  Ag43  1  0.49270689  0.82798117  -0.00151433  1
  Ag  Ag44  1  0.49411967  0.66807486  0.84407113  1
  Ag  Ag45  1  0.00731037  0.00369241  0.32690290  1
  Ag  Ag46  1  0.65555900  0.33158857  0.00358944  1
  Ag  Ag47  1  0.32890210  -0.00786072  0.00559449  1
  Ag  Ag48  1  0.84585938  0.16910698  0.32748991  1
  Ag  Ag49  1  0.00173675  0.17154352  0.16869897  1
  Ag  Ag50  1  0.17058144  0.50092737  0.00076159  1
  Ag  Ag51  1  0.33269578  0.50705411  0.16439157  1
  Ag  Ag52  1  0.49308958  0.16653100  0.68030269  1
  Ag  Ag53  1  0.84277367  0.83308791  0.00241864  1
  Sb  Sb54  1  0.00653656  0.83457471  0.16575466  1
  Sb  Sb55  1  0.16696521  0.49988820  0.66846387  1
  Sb  Sb56  1  0.66667646  0.33523354  0.66939250  1
  Sb  Sb57  1  0.00896232  0.49600534  0.16749516  1
  Sb  Sb58  1  0.49200854  -0.00205687  0.49694586  1
  Sb  Sb59  1  0.17046282  0.49731612  0.33108888  1
  Sb  Sb60  1  0.83621101  0.50086843  0.66674728  1
  Sb  Sb61  1  0.00564780  0.16859673  0.49046941  1
  Sb  Sb62  1  0.33055087  0.33060535  0.32779418  1
  Sb  Sb63  1  0.32912028  0.49716577  0.84021259  1
  Sb  Sb64  1  0.66311813  0.16840945  0.50126955  1
  Sb  Sb65  1  0.84666878  -0.00152795  0.48897676  1
  Sb  Sb66  1  0.49694702  0.50133771  0.67159990  1
  Sb  Sb67  1  0.83251110  0.83513596  0.32518125  1
  Sb  Sb68  1  0.32597202  0.33218852  0.67260476  1
  Sb  Sb69  1  0.16778916  -0.00107885  0.83399983  1
  Sb  Sb70  1  0.49570508  0.33720435  0.16131956  1
  Sb  Sb71  1  0.83732810  0.33202989  0.84195035  1
  Sb  Sb72  1  0.65831596  0.66480578  0.00274251  1
  Sb  Sb73  1  0.16527815  -0.00048186  0.16894807  1
  Sb  Sb74  1  0.49284684  0.33419934  0.50048549  1
  Sb  Sb75  1  0.66154539  0.82990633  0.16162967  1
  Sb  Sb76  1  0.83122346  0.16516740  0.00578442  1
  Sb  Sb77  1  0.65886757  0.50039063  0.16633913  1
  Sb  Sb78  1  0.32935763  0.16558036  0.50040484  1
  Sb  Sb79  1  0.83482800  0.66890736  0.84048063  1
  Sb  Sb80  1  0.83642876  0.83233179  0.67292605  1
  Sb  Sb81  1  0.49707835  0.00070272  0.83662420  1
  Sb  Sb82  1  0.66329671  -0.00390081  0.66919710  1
  Sb  Sb83  1  0.00938246  0.66687583  0.00440729  1
  Sb  Sb84  1  0.66702943  0.50139576  0.83682559  1
  Sb  Sb85  1  0.66846670  0.17037893  0.16470808  1
  Sb  Sb86  1  0.49170016  0.66704154  0.49721564  1
  Sb  Sb87  1  0.83322316  0.49621405  0.32983698  1
  Sb  Sb88  1  0.66453482  0.00160787  0.33159458  1
  Sb  Sb89  1  0.83619741  -0.00075467  0.84153273  1
  Sb  Sb90  1  0.84318420  0.33325692  0.49054687  1
  Sb  Sb91  1  0.66375824  0.00189257  0.00061653  1
  Sb  Sb92  1  0.33270292  0.83516942  0.83970161  1
  Sb  Sb93  1  0.32977829  0.16650125  0.16301781  1
  Sb  Sb94  1  0.00134830  0.66537108  0.66478598  1
  Sb  Sb95  1  0.00375031  0.16820977  0.83914504  1
  Sb  Sb96  1  0.17156005  0.16920725  0.00075063  1
  Sb  Sb97  1  0.33114311  -0.00134547  0.66727642  1
  Sb  Sb98  1  0.66419044  0.50157795  0.49681589  1
  Sb  Sb99  1  0.83771355  0.50256838  0.00350438  1
  Sb  Sb100  1  0.33156417  0.67117532  0.32561115  1
  Sb  Sb101  1  0.00383779  0.00279317  0.66596807  1
  Sb  Sb102  1  0.84052711  0.66782086  0.49333000  1
  Sb  Sb103  1  0.33343761  0.66785609  0.67125823  1
  Sb  Sb104  1  0.49970062  -0.00380542  0.16584423  1
  Sb  Sb105  1  0.83611518  0.16873637  0.66295204  1
  Sb  Sb106  1  0.66332993  0.82976819  0.50345920  1
  Sb  Sb107  1  0.16990278  0.83601992  0.33457567  1
  Te  Te108  1  0.16299327  0.17065184  0.17050403  1
  Te  Te109  1  0.16634245  0.17270806  0.50186716  1
  Te  Te110  1  0.16889312  0.16997345  0.82936517  1
  Te  Te111  1  0.17194278  0.50091765  0.16387049  1
  Te  Te112  1  0.16628537  0.50117271  0.50060319  1
  Te  Te113  1  0.16517627  0.49953791  0.83507602  1
  Te  Te114  1  0.17209041  0.82933401  0.16265637  1
  Te  Te115  1  0.16782883  0.83029403  0.49800692  1
  Te  Te116  1  0.16651206  0.83241951  0.83451586  1
  Te  Te117  1  0.49976368  0.16520885  0.16735742  1
  Te  Te118  1  0.49785098  0.16632594  0.49565710  1
  Te  Te119  1  0.49970250  0.16542864  0.83615278  1
  Te  Te120  1  0.49354649  0.50358721  0.16411841  1
  Te  Te121  1  0.49592292  0.49950302  0.49620488  1
  Te  Te122  1  0.49964788  0.50256462  0.83809088  1
  Te  Te123  1  0.49595286  0.82985428  0.16646999  1
  Te  Te124  1  0.49534585  0.83299009  0.50254463  1
  Te  Te125  1  0.49800609  0.83170734  0.83336256  1
  Te  Te126  1  0.83545523  0.17014376  0.16993698  1
  Te  Te127  1  0.83210090  0.16529478  0.49167596  1
  Te  Te128  1  0.82517326  0.16639621  0.83212942  1
  Te  Te129  1  0.83261318  0.50390953  0.16619901  1
  Te  Te130  1  0.84371080  0.50090248  0.49880593  1
  Te  Te131  1  0.84362579  0.50063846  0.83456777  1
  Te  Te132  1  0.83214144  0.82947134  0.16064905  1
  Te  Te133  1  0.83820674  0.83398410  0.50085526  1
  Te  Te134  1  0.83583062  0.83309424  0.84107663  1
  Te  Te135  1  0.16693771  -0.00171974  0.00136857  1
  Te  Te136  1  0.16689593  0.00288382  0.33441382  1
  Te  Te137  1  0.16631673  0.00020152  0.66091576  1
  Te  Te138  1  0.16817381  0.33133496  0.00004266  1
  Te  Te139  1  0.16527019  0.33078660  0.33371318  1
  Te  Te140  1  0.16358410  0.33221161  0.66635287  1
  Te  Te141  1  0.16948744  0.66564981  0.00013183  1
  Te  Te142  1  0.16326284  0.66606697  0.33208625  1
  Te  Te143  1  0.16590832  0.67238997  0.66841001  1
  Te  Te144  1  0.49511277  -0.00496059  0.00190355  1
  Te  Te145  1  0.49576781  0.00063858  0.33293761  1
  Te  Te146  1  0.49837229  0.00080236  0.66487922  1
  Te  Te147  1  0.49810088  0.33475727  -0.00011857  1
  Te  Te148  1  0.50040289  0.33298603  0.33296338  1
  Te  Te149  1  0.50083800  0.32838363  0.67127083  1
  Te  Te150  1  0.49755930  0.66605076  0.00121617  1
  Te  Te151  1  0.49875436  0.66652327  0.33147052  1
  Te  Te152  1  0.50139845  0.66966873  0.66816596  1
  Te  Te153  1  0.83699185  -0.00395826  0.00659364  1
  Te  Te154  1  0.83711521  0.00499171  0.32580016  1
  Te  Te155  1  0.83354392  0.00148332  0.66438055  1
  Te  Te156  1  0.83592742  0.33402130  0.00694166  1
  Te  Te157  1  0.83346626  0.32982950  0.32744663  1
  Te  Te158  1  0.83968027  0.33292314  0.66600002  1
  Te  Te159  1  0.83041378  0.67082375  0.00648042  1
  Te  Te160  1  0.83362333  0.66647475  0.32718056  1
  Te  Te161  1  0.82507231  0.66796963  0.66675693  1
  Te  Te162  1  -0.00034006  0.16555971  0.00507791  1
  Te  Te163  1  0.00364765  0.16765255  0.33023511  1
  Te  Te164  1  0.00416914  0.17153545  0.66910756  1
  Te  Te165  1  0.00491483  0.49699927  -0.00226975  1
  Te  Te166  1  0.00035152  0.49945995  0.33606861  1
  Te  Te167  1  0.00010018  0.49472069  0.66687184  1
  Te  Te168  1  0.00359352  0.83325206  0.00003977  1
  Te  Te169  1  -0.00168757  0.83280701  0.33494774  1
  Te  Te170  1  0.00427509  0.83425542  0.66852036  1
  Te  Te171  1  0.33682981  0.16823028  -0.00097680  1
  Te  Te172  1  0.33266749  0.16159622  0.33237213  1
  Te  Te173  1  0.33293521  0.16555117  0.67043501  1
  Te  Te174  1  0.33098050  0.49991414  0.00056320  1
  Te  Te175  1  0.33769564  0.49896594  0.33101023  1
  Te  Te176  1  0.33431724  0.50013405  0.65205377  1
  Te  Te177  1  0.33180467  0.83277290  -0.00001261  1
  Te  Te178  1  0.33626472  0.83662307  0.33282611  1
  Te  Te179  1  0.33202255  0.83450578  0.66334938  1
  Te  Te180  1  0.66182515  0.16951395  -0.00358706  1
  Te  Te181  1  0.65847721  0.17007697  0.33387165  1
  Te  Te182  1  0.66266550  0.16747498  0.67211622  1
  Te  Te183  1  0.66375977  0.49191909  -0.00062745  1
  Te  Te184  1  0.66031262  0.49909518  0.33336374  1
  Te  Te185  1  0.66695670  0.50747029  0.66565031  1
  Te  Te186  1  0.65873353  0.83381268  -0.00506018  1
  Te  Te187  1  0.66013334  0.83101151  0.33462060  1
  Te  Te188  1  0.66429322  0.82939123  0.67131234  1
  Te  Te189  1  -0.00011361  0.00076597  0.16704166  1
  Te  Te190  1  0.00925260  -0.00508413  0.49576262  1
  Te  Te191  1  0.00033045  -0.00483480  0.83925114  1
  Te  Te192  1  0.00308699  0.33416429  0.16637870  1
  Te  Te193  1  0.00504000  0.33512626  0.49695656  1
  Te  Te194  1  0.00313094  0.33329348  0.83802054  1
  Te  Te195  1  0.00350785  0.66547913  0.17149169  1
  Te  Te196  1  0.00480826  0.66713929  0.49796438  1
  Te  Te197  1  0.00339849  0.66733233  0.83286128  1
  Te  Te198  1  0.33295078  -0.00422260  0.16627848  1
  Te  Te199  1  0.32613338  -0.00475686  0.49576809  1
  Te  Te200  1  0.33185190  0.00949695  0.84133821  1
  Te  Te201  1  0.32762215  0.33537215  0.16046990  1
  Te  Te202  1  0.32636173  0.33600216  0.50032143  1
  Te  Te203  1  0.33310976  0.33170035  0.83748256  1
  Te  Te204  1  0.33148526  0.66729670  0.16437509  1
  Te  Te205  1  0.32677565  0.66842558  0.50154814  1
  Te  Te206  1  0.33244448  0.66577801  0.83881729  1
  Te  Te207  1  0.67823272  -0.00054155  0.16679918  1
  Te  Te208  1  0.66964151  -0.00114009  0.50022727  1
  Te  Te209  1  0.66852238  -0.00487516  0.83432411  1
  Te  Te210  1  0.66835364  0.33459144  0.16822450  1
  Te  Te211  1  0.66785679  0.33508929  0.49456926  1
  Te  Te212  1  0.66451986  0.33210124  0.83600553  1
  Te  Te213  1  0.66673610  0.66616682  0.17272520  1
  Te  Te214  1  0.66852151  0.66605504  0.49399528  1
  Te  Te215  1  0.66480933  0.66943381  0.83279718  1
