# generated using pymatgen
data_AgSbTe2
_symmetry_space_group_name_H-M   'P 1'
_cell_length_a   18.35087921
_cell_length_b   18.34925741
_cell_length_c   18.34297187
_cell_angle_alpha   89.99881581
_cell_angle_beta   90.00146281
_cell_angle_gamma   90.00098732
_symmetry_Int_Tables_number   1
_chemical_formula_structural   AgSbTe2
_chemical_formula_sum   'Ag54 Sb54 Te108'
_cell_volume   6176.53731482
_cell_formula_units_Z   54
loop_
 _symmetry_equiv_pos_site_id
 _symmetry_equiv_pos_as_xyz
  1  'x, y, z'
loop_
 _atom_site_type_symbol
 _atom_site_label
 _atom_site_symmetry_multiplicity
 _atom_site_fract_x
 _atom_site_fract_y
 _atom_site_fract_z
 _atom_site_occupancy
  Ag  Ag0  1  0.83274784  0.34153907  0.16493585  1
  Ag  Ag1  1  0.83538006  -0.00941138  0.16526634  1
  Ag  Ag2  1  0.50408705  0.49715995  0.00571420  1
  Ag  Ag3  1  0.00957473  0.00175637  0.32570802  1
  Ag  Ag4  1  0.33051197  -0.01222139  0.32171644  1
  Ag  Ag5  1  0.16450828  0.16187117  0.32653626  1
  Ag  Ag6  1  0.17352701  0.16539818  0.00819462  1
  Ag  Ag7  1  0.82239383  0.66466688  0.48822538  1
  Ag  Ag8  1  0.49771990  0.15807254  0.00155493  1
  Ag  Ag9  1  0.34111654  0.82573664  0.48345447  1
  Ag  Ag10  1  0.34554834  0.33632990  0.67380487  1
  Ag  Ag11  1  0.66461264  0.00511037  0.66770221  1
  Ag  Ag12  1  0.34644814  0.50186298  0.49422974  1
  Ag  Ag13  1  0.49842550  0.84497025  0.00920205  1
  Ag  Ag14  1  -0.00276840  0.49491070  0.83462956  1
  Ag  Ag15  1  0.33543092  0.83370399  0.84862604  1
  Ag  Ag16  1  0.50495902  0.33989873  0.49927690  1
  Ag  Ag17  1  0.16042239  0.67761031  0.16914597  1
  Ag  Ag18  1  0.49223769  0.82617152  0.32831654  1
  Ag  Ag19  1  0.16909652  0.50133498  0.33189838  1
  Ag  Ag20  1  0.66654362  0.49496857  0.83921930  1
  Ag  Ag21  1  0.65867719  0.82212805  0.49634161  1
  Ag  Ag22  1  -0.00225481  0.50014486  0.49116992  1
  Ag  Ag23  1  0.66447939  0.65999657  0.01088644  1
  Ag  Ag24  1  0.83418249  0.66649193  0.16925044  1
  Ag  Ag25  1  -0.00374096  0.33821466  0.66693081  1
  Ag  Ag26  1  0.50150725  0.00227851  0.84738429  1
  Ag  Ag27  1  0.66812962  0.49871445  0.16906921  1
  Ag  Ag28  1  0.16715170  -0.00981180  0.16761266  1
  Ag  Ag29  1  0.81980768  0.83393011  0.00484060  1
  Ag  Ag30  1  0.50236861  0.50565936  0.33372105  1
  Ag  Ag31  1  0.66117510  0.66130389  0.33188114  1
  Ag  Ag32  1  0.66191983  0.50091865  0.48692721  1
  Ag  Ag33  1  0.17828484  0.83767846  0.01397336  1
  Ag  Ag34  1  -0.00156578  0.33871511  0.33014649  1
  Ag  Ag35  1  0.66164917  0.34052267  -0.00343449  1
  Ag  Ag36  1  0.32504686  0.83610709  0.17003129  1
  Ag  Ag37  1  0.49183633  -0.00443859  0.16159893  1
  Ag  Ag38  1  0.34408817  0.32937764  -0.00243823  1
  Ag  Ag39  1  0.50276145  0.33432032  0.84107490  1
  Ag  Ag40  1  0.66597375  0.34330737  0.33375581  1
  Ag  Ag41  1  0.50585410  0.65835085  0.49309903  1
  Ag  Ag42  1  0.01145071  0.83693871  0.16722640  1
  Ag  Ag43  1  -0.00072930  0.65491736  0.66305734  1
  Ag  Ag44  1  0.34298589  0.67577452  0.33367495  1
  Ag  Ag45  1  0.34205527  -0.00701828  0.00565878  1
  Ag  Ag46  1  0.65314704  -0.00101771  0.00244656  1
  Ag  Ag47  1  0.17982670  0.83007979  0.32338203  1
  Ag  Ag48  1  0.82315204  0.33693257  0.83987817  1
  Ag  Ag49  1  -0.00347966  0.50040292  0.17075555  1
  Ag  Ag50  1  0.16833570  0.33475359  0.83631077  1
  Ag  Ag51  1  0.66457020  0.18282009  0.49793495  1
  Ag  Ag52  1  0.00174806  0.15779601  0.16892985  1
  Ag  Ag53  1  0.66528107  0.33477943  0.66569666  1
  Sb  Sb54  1  -0.00297940  0.33551755  0.00344737  1
  Sb  Sb55  1  0.83023197  0.16528069  0.00384726  1
  Sb  Sb56  1  0.49653484  0.16673062  0.32794935  1
  Sb  Sb57  1  0.16684770  0.66276785  0.84181280  1
  Sb  Sb58  1  0.66139620  0.83000310  0.83554419  1
  Sb  Sb59  1  0.00533556  0.82942030  0.84203425  1
  Sb  Sb60  1  0.82578076  0.00296985  0.84123327  1
  Sb  Sb61  1  -0.00558283  0.66581290  0.00371325  1
  Sb  Sb62  1  0.82715629  0.34101723  0.49734691  1
  Sb  Sb63  1  0.16866557  0.66464119  0.48975214  1
  Sb  Sb64  1  0.33550957  0.16758178  0.83789950  1
  Sb  Sb65  1  0.66330920  -0.00216541  0.32801064  1
  Sb  Sb66  1  0.33586369  0.49938780  0.83060662  1
  Sb  Sb67  1  0.33011262  0.66266141  0.65813675  1
  Sb  Sb68  1  0.50474164  0.33183218  0.16257693  1
  Sb  Sb69  1  0.83081202  0.17082778  0.66626037  1
  Sb  Sb70  1  0.33411655  0.33568469  0.32993777  1
  Sb  Sb71  1  -0.00062014  0.66197325  0.33226241  1
  Sb  Sb72  1  0.32715898  0.16006551  0.16486315  1
  Sb  Sb73  1  0.17228007  0.00296322  0.84538549  1
  Sb  Sb74  1  0.50157903  -0.00133336  0.49495572  1
  Sb  Sb75  1  0.33597104  0.50494632  0.17177008  1
  Sb  Sb76  1  0.00069005  0.82640570  0.49046032  1
  Sb  Sb77  1  0.66970641  0.17060312  0.16846126  1
  Sb  Sb78  1  0.16841034  -0.00144787  0.48763748  1
  Sb  Sb79  1  0.33984971  0.67069932  0.00888437  1
  Sb  Sb80  1  0.33916810  0.00261248  0.67061503  1
  Sb  Sb81  1  0.82873380  0.50078171  0.33133731  1
  Sb  Sb82  1  0.00222891  0.17475205  0.84128460  1
  Sb  Sb83  1  0.83207027  0.83136294  0.32532471  1
  Sb  Sb84  1  0.66473522  0.82912982  0.16692393  1
  Sb  Sb85  1  -0.00462239  0.17593039  0.49143473  1
  Sb  Sb86  1  0.82857268  -0.00674550  0.49227817  1
  Sb  Sb87  1  0.50246023  0.49694571  0.66192811  1
  Sb  Sb88  1  0.16338376  0.49876351  0.66226556  1
  Sb  Sb89  1  0.50041771  0.66414981  0.83333502  1
  Sb  Sb90  1  0.83134053  0.83191107  0.67011077  1
  Sb  Sb91  1  0.00225338  -0.00014477  0.00785112  1
  Sb  Sb92  1  0.50154023  0.16985156  0.67011047  1
  Sb  Sb93  1  0.49995665  0.83441411  0.66441482  1
  Sb  Sb94  1  0.16846588  0.83287475  0.66321632  1
  Sb  Sb95  1  0.50275269  0.67022128  0.17188870  1
  Sb  Sb96  1  0.33792440  0.16862058  0.49696374  1
  Sb  Sb97  1  0.16655354  0.17052317  0.66735279  1
  Sb  Sb98  1  0.17156272  0.49961201  0.00648797  1
  Sb  Sb99  1  0.83646643  0.16745344  0.33054232  1
  Sb  Sb100  1  0.16175072  0.33231108  0.16505447  1
  Sb  Sb101  1  0.66955690  0.66129110  0.66195175  1
  Sb  Sb102  1  0.83255810  0.66119646  0.83708623  1
  Sb  Sb103  1  0.83373906  0.49938924  0.66610783  1
  Sb  Sb104  1  -0.00481746  0.00340011  0.65907527  1
  Sb  Sb105  1  0.82454236  0.50180430  0.00373940  1
  Sb  Sb106  1  0.17093228  0.33535691  0.50107118  1
  Sb  Sb107  1  0.66418060  0.17462659  0.83357086  1
  Te  Te108  1  0.16209783  0.16695051  0.16742841  1
  Te  Te109  1  0.16583392  0.16682146  0.49309644  1
  Te  Te110  1  0.16766903  0.17261886  0.83962412  1
  Te  Te111  1  0.16554648  0.50119633  0.17103647  1
  Te  Te112  1  0.15776659  0.49945816  0.49304942  1
  Te  Te113  1  0.16533762  0.49578304  0.83500046  1
  Te  Te114  1  0.16612411  0.83399408  0.16835398  1
  Te  Te115  1  0.17199435  0.83254647  0.49436201  1
  Te  Te116  1  0.17280074  0.83390325  0.83640384  1
  Te  Te117  1  0.50133232  0.15937093  0.16157043  1
  Te  Te118  1  0.50499676  0.17091546  0.49805959  1
  Te  Te119  1  0.50044812  0.16740135  0.84017699  1
  Te  Te120  1  0.50330084  0.50064384  0.17025683  1
  Te  Te121  1  0.50269470  0.49848021  0.49829059  1
  Te  Te122  1  0.50203185  0.49620777  0.83446459  1
  Te  Te123  1  0.50089923  0.83550282  0.16777944  1
  Te  Te124  1  0.49945474  0.83402553  0.49784985  1
  Te  Te125  1  0.49634925  0.83296081  0.83508681  1
  Te  Te126  1  0.84080787  0.16793974  0.16608182  1
  Te  Te127  1  0.82482131  0.16376915  0.49873088  1
  Te  Te128  1  0.83470759  0.17596988  0.83538064  1
  Te  Te129  1  0.83352270  0.50157197  0.16609679  1
  Te  Te130  1  0.83651730  0.50652061  0.49987659  1
  Te  Te131  1  0.83510033  0.49503408  0.83563651  1
  Te  Te132  1  0.83083097  0.83060452  0.16219246  1
  Te  Te133  1  0.83153665  0.82555828  0.50100429  1
  Te  Te134  1  0.83498275  0.83365870  0.84323052  1
  Te  Te135  1  0.16975977  0.00036852  0.00513640  1
  Te  Te136  1  0.16905444  -0.00197703  0.32819763  1
  Te  Te137  1  0.16554813  0.00271332  0.66820467  1
  Te  Te138  1  0.16767986  0.33202460  -0.00268793  1
  Te  Te139  1  0.16478043  0.33712361  0.33355640  1
  Te  Te140  1  0.15959730  0.33266127  0.67223246  1
  Te  Te141  1  0.16793322  0.67093317  0.00730439  1
  Te  Te142  1  0.16533006  0.66629615  0.32775892  1
  Te  Te143  1  0.15964305  0.66669528  0.66866323  1
  Te  Te144  1  0.49755191  0.00010042  0.00239521  1
  Te  Te145  1  0.49484147  -0.00157994  0.32783434  1
  Te  Te146  1  0.50548884  0.00232361  0.67048535  1
  Te  Te147  1  0.50262975  0.33750412  0.00162877  1
  Te  Te148  1  0.50269380  0.33394942  0.33420847  1
  Te  Te149  1  0.50342389  0.33250242  0.66638642  1
  Te  Te150  1  0.50580569  0.65876753  -0.00119665  1
  Te  Te151  1  0.50181172  0.66635232  0.33476749  1
  Te  Te152  1  0.49941324  0.66671862  0.65750725  1
  Te  Te153  1  0.83308118  -0.00377976  0.00497622  1
  Te  Te154  1  0.83672393  -0.00061742  0.32512169  1
  Te  Te155  1  0.82640436  0.00029173  0.66771039  1
  Te  Te156  1  0.82704081  0.33257728  0.00236310  1
  Te  Te157  1  0.83258428  0.33261421  0.32978467  1
  Te  Te158  1  0.83212108  0.33337521  0.66942335  1
  Te  Te159  1  0.82703180  0.67268842  0.00370593  1
  Te  Te160  1  0.82686792  0.66731642  0.33095791  1
  Te  Te161  1  0.83977140  0.66807670  0.66714986  1
  Te  Te162  1  0.00567476  0.16740903  0.00796307  1
  Te  Te163  1  0.00371885  0.16894779  0.32891407  1
  Te  Te164  1  -0.00028609  0.17242795  0.66513143  1
  Te  Te165  1  0.00261039  0.50130282  -0.00083287  1
  Te  Te166  1  0.00179082  0.49946292  0.33154546  1
  Te  Te167  1  -0.00011761  0.49565903  0.67043120  1
  Te  Te168  1  0.00559206  0.83268746  0.00572464  1
  Te  Te169  1  0.00030896  0.83463788  0.32779282  1
  Te  Te170  1  0.00011488  0.83514509  0.66667089  1
  Te  Te171  1  0.33389374  0.16947673  0.00001272  1
  Te  Te172  1  0.32702672  0.16423670  0.33370171  1
  Te  Te173  1  0.33251027  0.17647021  0.66567378  1
  Te  Te174  1  0.33995206  0.49983298  -0.00034859  1
  Te  Te175  1  0.33431194  0.50035863  0.33623748  1
  Te  Te176  1  0.33102545  0.49400389  0.65914816  1
  Te  Te177  1  0.33768672  0.83220560  0.00616873  1
  Te  Te178  1  0.33565808  0.83279567  0.32938434  1
  Te  Te179  1  0.33207006  0.83301400  0.66550065  1
  Te  Te180  1  0.66316741  0.16329258  0.00048575  1
  Te  Te181  1  0.66514078  0.16776279  0.33723475  1
  Te  Te182  1  0.66598660  0.16905024  0.66086952  1
  Te  Te183  1  0.66438393  0.49985122  0.00164996  1
  Te  Te184  1  0.66440895  0.50092765  0.33077344  1
  Te  Te185  1  0.66744991  0.49423414  0.67375908  1
  Te  Te186  1  0.66000379  0.83558829  -0.00118368  1
  Te  Te187  1  0.66405974  0.83211491  0.33737087  1
  Te  Te188  1  0.66685552  0.83463345  0.66366274  1
  Te  Te189  1  0.00067548  -0.00266981  0.16898281  1
  Te  Te190  1  -0.00220475  0.00115700  0.49212756  1
  Te  Te191  1  -0.00222606  0.00080084  0.82763197  1
  Te  Te192  1  -0.00441764  0.34077986  0.16951929  1
  Te  Te193  1  -0.00215338  0.33839328  0.49852380  1
  Te  Te194  1  0.00137020  0.33591716  0.83379645  1
  Te  Te195  1  -0.00353362  0.66280531  0.16701259  1
  Te  Te196  1  -0.00070407  0.66238048  0.50222896  1
  Te  Te197  1  0.00020369  0.66076123  0.82799861  1
  Te  Te198  1  0.33122001  -0.00095618  0.16441654  1
  Te  Te199  1  0.33412645  -0.00235756  0.50277511  1
  Te  Te200  1  0.33920594  -0.00448307  0.83628312  1
  Te  Te201  1  0.33371301  0.33358838  0.15947589  1
  Te  Te202  1  0.33849692  0.33674034  0.50031247  1
  Te  Te203  1  0.33672771  0.33493765  0.83434398  1
  Te  Te204  1  0.32888053  0.67122790  0.17370878  1
  Te  Te205  1  0.33483435  0.66499347  0.49507748  1
  Te  Te206  1  0.33277339  0.67169533  0.82926804  1
  Te  Te207  1  0.67251796  0.00268255  0.16348809  1
  Te  Te208  1  0.66693176  -0.00623144  0.50185312  1
  Te  Te209  1  0.66259495  -0.00072853  0.83497299  1
  Te  Te210  1  0.67034595  0.33600945  0.16916281  1
  Te  Te211  1  0.66644476  0.34037873  0.49865585  1
  Te  Te212  1  0.66444938  0.33519250  0.83539544  1
  Te  Te213  1  0.66838825  0.66285181  0.16847815  1
  Te  Te214  1  0.66570593  0.66230880  0.50051608  1
  Te  Te215  1  0.66703099  0.65911478  0.83260984  1
