# generated using pymatgen
data_AgSbTe2
_symmetry_space_group_name_H-M   'P 1'
_cell_length_a   18.33894295
_cell_length_b   18.33829641
_cell_length_c   18.33889483
_cell_angle_alpha   89.99895348
_cell_angle_beta   90.00492496
_cell_angle_gamma   90.00076482
_symmetry_Int_Tables_number   1
_chemical_formula_structural   AgSbTe2
_chemical_formula_sum   'Ag54 Sb54 Te108'
_cell_volume   6167.46148054
_cell_formula_units_Z   54
loop_
 _symmetry_equiv_pos_site_id
 _symmetry_equiv_pos_as_xyz
  1  'x, y, z'
loop_
 _atom_site_type_symbol
 _atom_site_label
 _atom_site_symmetry_multiplicity
 _atom_site_fract_x
 _atom_site_fract_y
 _atom_site_fract_z
 _atom_site_occupancy
  Ag  Ag0  1  0.00248120  0.67350148  0.67392175  1
  Ag  Ag1  1  0.15879130  0.83159347  0.67147916  1
  Ag  Ag2  1  0.33637691  0.33666091  -0.00028399  1
  Ag  Ag3  1  0.49863942  0.16829141  0.66262144  1
  Ag  Ag4  1  0.50499919  0.50404012  0.33718555  1
  Ag  Ag5  1  0.82797105  0.50528478  0.66933347  1
  Ag  Ag6  1  -0.00478729  -0.00489074  0.66700058  1
  Ag  Ag7  1  0.16555858  -0.01403643  0.16187476  1
  Ag  Ag8  1  0.50179218  0.66780873  0.49361274  1
  Ag  Ag9  1  0.82706198  0.50595868  -0.00547025  1
  Ag  Ag10  1  0.00140954  0.16921673  0.50835233  1
  Ag  Ag11  1  0.50011124  0.17879212  0.34473554  1
  Ag  Ag12  1  0.82128604  0.50245981  0.33432598  1
  Ag  Ag13  1  0.83875878  0.82397357  -0.00928528  1
  Ag  Ag14  1  0.67177196  0.82757691  0.83022114  1
  Ag  Ag15  1  0.16012323  0.16763954  0.66992160  1
  Ag  Ag16  1  0.66791219  0.50431579  0.83496503  1
  Ag  Ag17  1  0.82484577  -0.00268334  0.50488500  1
  Ag  Ag18  1  0.65572497  0.65962812  0.33284772  1
  Ag  Ag19  1  0.15906496  0.66976464  0.83884813  1
  Ag  Ag20  1  0.66568475  -0.00480580  -0.00815967  1
  Ag  Ag21  1  0.50636575  -0.00273566  0.82096007  1
  Ag  Ag22  1  0.33677510  0.66571528  0.66358862  1
  Ag  Ag23  1  0.00266755  0.16032928  0.82355343  1
  Ag  Ag24  1  0.32519545  0.82818587  0.16629113  1
  Ag  Ag25  1  0.51002711  0.49920776  -0.00049051  1
  Ag  Ag26  1  0.50860652  0.83405734  0.66253619  1
  Ag  Ag27  1  0.16494187  0.16702696  -0.00646316  1
  Ag  Ag28  1  0.49951626  0.33545371  0.50123214  1
  Ag  Ag29  1  0.00027284  0.33952969  0.34123221  1
  Ag  Ag30  1  0.17022306  0.33158991  0.50438096  1
  Ag  Ag31  1  -0.00510682  0.83025044  0.83057870  1
  Ag  Ag32  1  0.16528780  0.50911490  -0.00053529  1
  Ag  Ag33  1  0.66162860  0.34221403  -0.00341957  1
  Ag  Ag34  1  0.00288722  0.67036558  -0.00610432  1
  Ag  Ag35  1  0.50215638  0.81837987  0.34405376  1
  Ag  Ag36  1  0.34103605  0.33766532  0.66100585  1
  Ag  Ag37  1  0.16712067  0.66960514  0.16000992  1
  Ag  Ag38  1  0.00236445  0.33002887  0.66217017  1
  Ag  Ag39  1  0.50521136  -0.00973954  0.50396935  1
  Ag  Ag40  1  0.50620778  0.50008039  0.66387971  1
  Ag  Ag41  1  0.00714066  0.82849974  0.15642733  1
  Ag  Ag42  1  0.66428965  0.50121003  0.16595789  1
  Ag  Ag43  1  0.66199339  0.83576973  0.51187328  1
  Ag  Ag44  1  0.66087691  0.33669066  0.66503578  1
  Ag  Ag45  1  0.34304162  0.34005884  0.34028387  1
  Ag  Ag46  1  0.15935796  0.82770641  -0.00064110  1
  Ag  Ag47  1  0.65965565  0.34257036  0.34114285  1
  Ag  Ag48  1  0.83717052  0.66902762  0.83093090  1
  Ag  Ag49  1  0.66361903  -0.01200659  0.66952450  1
  Ag  Ag50  1  0.82956060  0.82715482  0.67120031  1
  Ag  Ag51  1  0.34445606  0.66258490  0.33389585  1
  Ag  Ag52  1  0.00061608  0.66409368  0.33380330  1
  Ag  Ag53  1  0.49573999  0.66529904  0.18017251  1
  Sb  Sb54  1  0.16998626  0.50124698  0.32880570  1
  Sb  Sb55  1  0.32926570  0.16763215  0.83060372  1
  Sb  Sb56  1  0.33435885  0.17025877  0.50195499  1
  Sb  Sb57  1  0.83005440  -0.00941750  0.82681265  1
  Sb  Sb58  1  0.82906100  0.82554338  0.33592826  1
  Sb  Sb59  1  0.33908775  0.50168089  0.83384896  1
  Sb  Sb60  1  -0.00450355  0.83473607  0.50687704  1
  Sb  Sb61  1  -0.00370077  0.50670437  0.16683343  1
  Sb  Sb62  1  0.83679078  -0.00590454  0.16778788  1
  Sb  Sb63  1  0.33653091  -0.00356412  0.33322732  1
  Sb  Sb64  1  0.83593791  0.66540017  0.16348820  1
  Sb  Sb65  1  0.16765676  0.33794886  0.16806867  1
  Sb  Sb66  1  0.50166390  0.33174026  0.82467121  1
  Sb  Sb67  1  0.33673760  0.49881326  0.50085036  1
  Sb  Sb68  1  0.17047307  0.17054395  0.33648806  1
  Sb  Sb69  1  0.66721533  0.82673531  0.16312530  1
  Sb  Sb70  1  -0.00288090  -0.00812232  -0.00641648  1
  Sb  Sb71  1  0.49972351  0.34110531  0.17357890  1
  Sb  Sb72  1  0.16959313  0.66405987  0.50154540  1
  Sb  Sb73  1  0.33534028  0.00161160  0.00020791  1
  Sb  Sb74  1  0.83307374  0.34076653  0.83030032  1
  Sb  Sb75  1  0.33816222  -0.00238364  0.66645814  1
  Sb  Sb76  1  0.49774874  -0.00893391  0.17006876  1
  Sb  Sb77  1  0.16641637  0.50104446  0.67178923  1
  Sb  Sb78  1  0.33305182  0.16501957  0.16734833  1
  Sb  Sb79  1  0.50093735  0.82872596  -0.00293423  1
  Sb  Sb80  1  0.32813684  0.66292971  0.00133425  1
  Sb  Sb81  1  0.82934570  0.17360245  0.33764700  1
  Sb  Sb82  1  0.49714151  0.17290071  -0.00440156  1
  Sb  Sb83  1  0.83249362  0.33739243  0.16734328  1
  Sb  Sb84  1  0.00424360  0.16205154  0.16717470  1
  Sb  Sb85  1  -0.00560384  0.50739391  0.83237693  1
  Sb  Sb86  1  0.34014788  0.83047853  0.49939266  1
  Sb  Sb87  1  0.83072337  0.33208851  0.50237184  1
  Sb  Sb88  1  0.82911678  0.66957931  0.50474329  1
  Sb  Sb89  1  0.33265242  0.82988516  0.83425972  1
  Sb  Sb90  1  0.16734230  -0.00492987  0.83481860  1
  Sb  Sb91  1  0.66363312  0.17275292  0.16687642  1
  Sb  Sb92  1  0.16504292  0.33803072  0.82867350  1
  Sb  Sb93  1  0.66520508  0.16308457  0.50351756  1
  Sb  Sb94  1  0.83684188  0.16714856  -0.00318597  1
  Sb  Sb95  1  0.66417491  0.50436639  0.50066029  1
  Sb  Sb96  1  0.50262576  0.66785451  0.82947431  1
  Sb  Sb97  1  0.33991227  0.50657902  0.16560593  1
  Sb  Sb98  1  0.00051690  0.33872714  -0.00265180  1
  Sb  Sb99  1  0.67020483  0.66286954  0.00187693  1
  Sb  Sb100  1  -0.00018362  -0.00225503  0.33940977  1
  Sb  Sb101  1  -0.00128998  0.49668380  0.50081312  1
  Sb  Sb102  1  0.16821952  0.00288120  0.50202804  1
  Sb  Sb103  1  0.83593485  0.16491410  0.66633313  1
  Sb  Sb104  1  0.66457439  0.66676051  0.66324850  1
  Sb  Sb105  1  0.17083022  0.83048931  0.33232625  1
  Sb  Sb106  1  0.67040519  0.16623535  0.83000850  1
  Sb  Sb107  1  0.66446455  -0.00118645  0.33582719  1
  Te  Te108  1  0.16764118  0.16536361  0.16261996  1
  Te  Te109  1  0.16217233  0.17051397  0.50440382  1
  Te  Te110  1  0.16282535  0.16436570  0.83106048  1
  Te  Te111  1  0.16593376  0.50585045  0.15965357  1
  Te  Te112  1  0.16666672  0.49062210  0.50002639  1
  Te  Te113  1  0.16668832  0.50696677  0.83974373  1
  Te  Te114  1  0.16485410  0.82885976  0.16872866  1
  Te  Te115  1  0.16769416  0.83447480  0.50726512  1
  Te  Te116  1  0.16590649  0.83099983  0.83242558  1
  Te  Te117  1  0.49876611  0.16302459  0.16955053  1
  Te  Te118  1  0.49998247  0.17354247  0.50327047  1
  Te  Te119  1  0.50113955  0.16004889  0.82748297  1
  Te  Te120  1  0.50435411  0.50573245  0.16549306  1
  Te  Te121  1  0.50104600  0.50008031  0.50246148  1
  Te  Te122  1  0.50665615  0.49926977  0.83280877  1
  Te  Te123  1  0.49883556  0.82630248  0.16636915  1
  Te  Te124  1  0.50177056  0.83033895  0.50189456  1
  Te  Te125  1  0.50362879  0.83549643  0.83031244  1
  Te  Te126  1  0.83391870  0.16416879  0.16759577  1
  Te  Te127  1  0.84015929  0.15858545  0.49964356  1
  Te  Te128  1  0.84330123  0.16689748  0.83365892  1
  Te  Te129  1  0.82654813  0.50105164  0.16818524  1
  Te  Te130  1  0.83165279  0.50113046  0.50184236  1
  Te  Te131  1  0.82912342  0.50602275  0.83222100  1
  Te  Te132  1  0.83932898  0.83259980  0.16199372  1
  Te  Te133  1  0.82779948  0.83735812  0.50395949  1
  Te  Te134  1  0.83297724  0.83025965  0.83201144  1
  Te  Te135  1  0.16672957  0.00011661  0.00184488  1
  Te  Te136  1  0.16767835  0.00139170  0.32789798  1
  Te  Te137  1  0.16723957  0.00153850  0.66656288  1
  Te  Te138  1  0.16762718  0.33147092  -0.00009099  1
  Te  Te139  1  0.16367412  0.33399557  0.33821981  1
  Te  Te140  1  0.16441135  0.33291413  0.66485536  1
  Te  Te141  1  0.16541290  0.66918163  -0.00001961  1
  Te  Te142  1  0.16108640  0.66583181  0.33314866  1
  Te  Te143  1  0.16352498  0.66802346  0.66509744  1
  Te  Te144  1  0.50455692  0.00230088  0.00191283  1
  Te  Te145  1  0.50033329  0.00420969  0.33869228  1
  Te  Te146  1  0.50072521  -0.00266084  0.66347720  1
  Te  Te147  1  0.50029828  0.33660554  0.00118440  1
  Te  Te148  1  0.50029536  0.33686212  0.33515985  1
  Te  Te149  1  0.49928836  0.33504613  0.66417303  1
  Te  Te150  1  0.49747055  0.65961304  -0.00207969  1
  Te  Te151  1  0.49999379  0.66322808  0.33534214  1
  Te  Te152  1  0.49764623  0.66576019  0.66641206  1
  Te  Te153  1  0.82683920  -0.00106765  0.00037355  1
  Te  Te154  1  0.83277208  -0.00049662  0.34018185  1
  Te  Te155  1  0.83104367  -0.00137371  0.66426707  1
  Te  Te156  1  0.82952430  0.33929166  -0.00071477  1
  Te  Te157  1  0.83380249  0.34075277  0.33489564  1
  Te  Te158  1  0.83081967  0.33787905  0.66606066  1
  Te  Te159  1  0.83627880  0.66600571  -0.00215192  1
  Te  Te160  1  0.84021469  0.66139706  0.33358276  1
  Te  Te161  1  0.83559474  0.66673845  0.66815175  1
  Te  Te162  1  0.00535353  0.16712928  -0.00184268  1
  Te  Te163  1  -0.00016650  0.16885523  0.33596179  1
  Te  Te164  1  -0.00143536  0.16884229  0.66703421  1
  Te  Te165  1  -0.00121532  0.50469485  -0.00014524  1
  Te  Te166  1  0.00166507  0.49904260  0.33249137  1
  Te  Te167  1  -0.00279735  0.49817593  0.66769917  1
  Te  Te168  1  0.00013337  0.83129814  -0.00354011  1
  Te  Te169  1  -0.00088981  0.82981529  0.33439069  1
  Te  Te170  1  -0.00082724  0.83325944  0.66833299  1
  Te  Te171  1  0.32727343  0.17295528  -0.00038882  1
  Te  Te172  1  0.33927969  0.17356601  0.33276832  1
  Te  Te173  1  0.33362121  0.17175421  0.66726803  1
  Te  Te174  1  0.33063416  0.49540080  -0.00038168  1
  Te  Te175  1  0.33840651  0.50059961  0.33134518  1
  Te  Te176  1  0.33659102  0.49879876  0.66821210  1
  Te  Te177  1  0.32952830  0.83324483  0.00425398  1
  Te  Te178  1  0.33856311  0.82864571  0.32946710  1
  Te  Te179  1  0.33235978  0.82960464  0.66669280  1
  Te  Te180  1  0.66711783  0.17203600  -0.00112438  1
  Te  Te181  1  0.66106869  0.17256046  0.33339863  1
  Te  Te182  1  0.66295800  0.17363684  0.66739614  1
  Te  Te183  1  0.66796043  0.50148129  -0.00143930  1
  Te  Te184  1  0.66538235  0.49932342  0.33651359  1
  Te  Te185  1  0.66679869  0.50098761  0.66729457  1
  Te  Te186  1  0.66912297  0.83489637  -0.00445137  1
  Te  Te187  1  0.66240794  0.83151263  0.33126616  1
  Te  Te188  1  0.66753534  0.83135302  0.66930911  1
  Te  Te189  1  0.00477299  -0.00636746  0.16716764  1
  Te  Te190  1  0.00139375  0.00456352  0.50638328  1
  Te  Te191  1  0.00064056  -0.00325040  0.82738325  1
  Te  Te192  1  0.00056331  0.33211351  0.17289001  1
  Te  Te193  1  -0.00300909  0.33092880  0.50120811  1
  Te  Te194  1  -0.00010445  0.32866771  0.82798792  1
  Te  Te195  1  0.00237045  0.66983430  0.16621406  1
  Te  Te196  1  0.00078193  0.66608497  0.49841946  1
  Te  Te197  1  -0.00118926  0.66906562  0.83291504  1
  Te  Te198  1  0.32705256  -0.00729202  0.16625017  1
  Te  Te199  1  0.34298580  0.00091550  0.49857798  1
  Te  Te200  1  0.34441476  -0.00054143  0.83473776  1
  Te  Te201  1  0.33224949  0.33350096  0.16571373  1
  Te  Te202  1  0.33443081  0.33340245  0.50030313  1
  Te  Te203  1  0.33323874  0.33413887  0.83448774  1
  Te  Te204  1  0.33202105  0.66886436  0.16862017  1
  Te  Te205  1  0.33740187  0.66578447  0.49915231  1
  Te  Te206  1  0.32616122  0.66604737  0.82493279  1
  Te  Te207  1  0.66773057  0.00095126  0.16185967  1
  Te  Te208  1  0.66435602  -0.00286717  0.50308236  1
  Te  Te209  1  0.66515564  -0.00000616  0.83036534  1
  Te  Te210  1  0.66616024  0.33922264  0.16429622  1
  Te  Te211  1  0.66300185  0.32978661  0.50129424  1
  Te  Te212  1  0.66695634  0.33675314  0.83198902  1
  Te  Te213  1  0.66340902  0.66202508  0.17150458  1
  Te  Te214  1  0.66281485  0.67531606  0.49322659  1
  Te  Te215  1  0.67043986  0.66702845  0.83394596  1
