# generated using pymatgen
data_AgSbTe2
_symmetry_space_group_name_H-M   'P 1'
_cell_length_a   18.32961866
_cell_length_b   18.31985332
_cell_length_c   18.32515080
_cell_angle_alpha   89.99681512
_cell_angle_beta   89.99992305
_cell_angle_gamma   89.99972204
_symmetry_Int_Tables_number   1
_chemical_formula_structural   AgSbTe2
_chemical_formula_sum   'Ag54 Sb54 Te108'
_cell_volume   6153.51095980
_cell_formula_units_Z   54
loop_
 _symmetry_equiv_pos_site_id
 _symmetry_equiv_pos_as_xyz
  1  'x, y, z'
loop_
 _atom_site_type_symbol
 _atom_site_label
 _atom_site_symmetry_multiplicity
 _atom_site_fract_x
 _atom_site_fract_y
 _atom_site_fract_z
 _atom_site_occupancy
  Ag  Ag0  1  0.32848220  0.50088047  0.83852168  1
  Ag  Ag1  1  0.50336983  0.00009662  0.16610136  1
  Ag  Ag2  1  0.00237598  0.49902503  0.83567658  1
  Ag  Ag3  1  0.33918606  0.00510086  0.67105643  1
  Ag  Ag4  1  0.01032388  0.66430630  0.67471325  1
  Ag  Ag5  1  0.67802861  0.16076155  0.16488891  1
  Ag  Ag6  1  0.83501472  0.49629526  0.32459438  1
  Ag  Ag7  1  0.49924183  0.83393560  0.66581390  1
  Ag  Ag8  1  0.17147359  0.17003989  0.67670532  1
  Ag  Ag9  1  0.33319619  0.16398595  0.50530674  1
  Ag  Ag10  1  0.49316132  0.49871843  0.00485584  1
  Ag  Ag11  1  0.84360795  0.66316640  0.83355867  1
  Ag  Ag12  1  0.16582069  0.66191467  0.83367763  1
  Ag  Ag13  1  0.17535438  0.65860690  0.16672146  1
  Ag  Ag14  1  0.17789999  0.66505323  0.50234086  1
  Ag  Ag15  1  0.66240430  0.84046689  0.16946201  1
  Ag  Ag16  1  0.49463105  0.50855366  0.32551410  1
  Ag  Ag17  1  0.16166419  0.17234206  0.00142241  1
  Ag  Ag18  1  0.33151835  0.66706273  0.66692880  1
  Ag  Ag19  1  0.32959350  0.32315797  0.67041240  1
  Ag  Ag20  1  0.16323259  0.33484462  0.16441674  1
  Ag  Ag21  1  0.83897920  0.32345063  0.15873391  1
  Ag  Ag22  1  0.66156044  0.00258092  0.66699133  1
  Ag  Ag23  1  -0.00189366  0.82320240  0.83749678  1
  Ag  Ag24  1  0.49390413  0.66904784  0.17140004  1
  Ag  Ag25  1  0.16899682  0.17229655  0.32559300  1
  Ag  Ag26  1  -0.00265692  0.33128120  -0.00301043  1
  Ag  Ag27  1  0.83961546  0.49083620  0.00167208  1
  Ag  Ag28  1  0.49514432  0.67155259  0.49375721  1
  Ag  Ag29  1  0.00278077  0.17577344  0.83971483  1
  Ag  Ag30  1  0.33677178  0.66243303  0.32603953  1
  Ag  Ag31  1  0.82335385  0.01166714  0.16277759  1
  Ag  Ag32  1  0.00233514  0.33330401  0.67785284  1
  Ag  Ag33  1  0.50345359  -0.00360591  0.49878548  1
  Ag  Ag34  1  0.65451230  0.66479329  0.33115789  1
  Ag  Ag35  1  0.82332863  0.00196920  0.50039734  1
  Ag  Ag36  1  0.49854605  0.16476708  0.00464174  1
  Ag  Ag37  1  0.83168813  0.16905446  0.31993151  1
  Ag  Ag38  1  0.16947417  0.49589082  0.00339691  1
  Ag  Ag39  1  0.49299195  0.66417048  0.83410149  1
  Ag  Ag40  1  0.49919083  0.16727497  0.32435537  1
  Ag  Ag41  1  0.17233972  0.50118871  0.32161818  1
  Ag  Ag42  1  0.66650562  0.32477538  0.66889783  1
  Ag  Ag43  1  -0.00891501  0.16631473  0.15925906  1
  Ag  Ag44  1  0.83902380  0.17036610  0.00480484  1
  Ag  Ag45  1  0.32717553  0.16971127  0.83108740  1
  Ag  Ag46  1  0.66414920  0.00362091  0.00843769  1
  Ag  Ag47  1  0.83389170  0.00850529  0.83995113  1
  Ag  Ag48  1  0.32988634  0.50468625  0.16148266  1
  Ag  Ag49  1  0.83947452  0.33180504  0.84006404  1
  Ag  Ag50  1  0.33917758  0.82432891  0.16528785  1
  Ag  Ag51  1  0.66278664  0.83634898  0.49646747  1
  Ag  Ag52  1  -0.00073560  0.83618467  0.16020486  1
  Ag  Ag53  1  0.33948411  0.00725064  -0.00129934  1
  Sb  Sb54  1  0.66396675  0.49929351  0.16618688  1
  Sb  Sb55  1  0.33222683  0.16791996  0.16331719  1
  Sb  Sb56  1  0.49447686  0.16146277  0.66825675  1
  Sb  Sb57  1  0.16787419  0.33620076  0.49780527  1
  Sb  Sb58  1  0.17105287  0.83210546  0.66817618  1
  Sb  Sb59  1  0.16925866  0.00274112  0.16472089  1
  Sb  Sb60  1  0.49723179  0.50523461  0.66911972  1
  Sb  Sb61  1  0.83355170  0.32875856  0.49950135  1
  Sb  Sb62  1  0.66561956  0.67023909  0.00373156  1
  Sb  Sb63  1  0.82873039  0.83474051  0.66882248  1
  Sb  Sb64  1  0.83483845  0.49848766  0.67132626  1
  Sb  Sb65  1  0.33279631  0.50126016  0.49950432  1
  Sb  Sb66  1  0.66193987  0.67002365  0.66409339  1
  Sb  Sb67  1  0.32796033  0.33130632  -0.00423189  1
  Sb  Sb68  1  0.66909468  0.83493715  0.83474404  1
  Sb  Sb69  1  -0.00015141  0.00018569  0.67074829  1
  Sb  Sb70  1  0.66539580  -0.00200023  0.33018271  1
  Sb  Sb71  1  -0.00411775  0.83199618  0.50205215  1
  Sb  Sb72  1  0.00017227  0.33313056  0.32840964  1
  Sb  Sb73  1  0.16838067  0.49754268  0.67166887  1
  Sb  Sb74  1  0.83720507  0.16633244  0.67121751  1
  Sb  Sb75  1  0.83128374  0.83476770  0.33045701  1
  Sb  Sb76  1  -0.00273070  0.00845266  -0.00018520  1
  Sb  Sb77  1  0.49946952  0.33272455  0.16505188  1
  Sb  Sb78  1  0.00001406  0.65973377  -0.00581845  1
  Sb  Sb79  1  0.33355825  0.66506795  0.00104794  1
  Sb  Sb80  1  0.50182249  -0.00247827  0.83510484  1
  Sb  Sb81  1  0.83076911  0.66952185  0.50144566  1
  Sb  Sb82  1  0.83346251  0.66524242  0.16293738  1
  Sb  Sb83  1  0.50134736  0.33619227  0.83450785  1
  Sb  Sb84  1  0.16877076  0.83004208  0.33070596  1
  Sb  Sb85  1  0.17062701  -0.00026774  0.50154982  1
  Sb  Sb86  1  0.00403716  0.66390012  0.33295817  1
  Sb  Sb87  1  0.50085659  0.83083673  0.33273854  1
  Sb  Sb88  1  0.67308975  0.32812210  -0.00109435  1
  Sb  Sb89  1  0.49865869  0.33224236  0.50094920  1
  Sb  Sb90  1  0.00358547  0.16644454  0.50101109  1
  Sb  Sb91  1  0.66204541  0.16005948  0.49563251  1
  Sb  Sb92  1  0.33263710  0.33614446  0.33402550  1
  Sb  Sb93  1  0.49908487  0.83437619  0.00116061  1
  Sb  Sb94  1  0.66456133  0.50527041  0.49834815  1
  Sb  Sb95  1  -0.00145709  0.00237175  0.32994743  1
  Sb  Sb96  1  0.16012129  0.33578294  0.83916098  1
  Sb  Sb97  1  0.66762024  0.33534277  0.33417019  1
  Sb  Sb98  1  0.16383531  0.00185036  0.83469500  1
  Sb  Sb99  1  0.33093020  0.83141163  0.83656433  1
  Sb  Sb100  1  0.66812140  0.50002710  0.83538705  1
  Sb  Sb101  1  0.33933051  0.83398572  0.49863733  1
  Sb  Sb102  1  0.83456167  0.83850926  0.00007819  1
  Sb  Sb103  1  0.16671589  0.83171538  0.00073600  1
  Sb  Sb104  1  0.00506955  0.49844110  0.15988367  1
  Sb  Sb105  1  0.66806078  0.16528436  0.83863668  1
  Sb  Sb106  1  0.00142941  0.50087648  0.50453989  1
  Sb  Sb107  1  0.33679104  -0.00029889  0.33135610  1
  Te  Te108  1  0.16680232  0.16867157  0.16490722  1
  Te  Te109  1  0.17162647  0.16662818  0.49521949  1
  Te  Te110  1  0.16636026  0.16730089  0.83564531  1
  Te  Te111  1  0.16626421  0.49963613  0.16409634  1
  Te  Te112  1  0.16617985  0.50671785  0.49161519  1
  Te  Te113  1  0.16744977  0.50211128  0.83694023  1
  Te  Te114  1  0.16485199  0.83155845  0.16634836  1
  Te  Te115  1  0.16532653  0.82571526  0.49936353  1
  Te  Te116  1  0.15990735  0.82626075  0.83382871  1
  Te  Te117  1  0.49733933  0.16572833  0.16514605  1
  Te  Te118  1  0.49520193  0.16379992  0.49835886  1
  Te  Te119  1  0.49596828  0.16701011  0.84044964  1
  Te  Te120  1  0.49779649  0.49994208  0.16613779  1
  Te  Te121  1  0.49952993  0.50476428  0.49230715  1
  Te  Te122  1  0.49645333  0.50390928  0.83713240  1
  Te  Te123  1  0.50050885  0.83372321  0.16594023  1
  Te  Te124  1  0.50253772  0.83472088  0.50119818  1
  Te  Te125  1  0.49991787  0.82611879  0.82973614  1
  Te  Te126  1  0.83471233  0.16748754  0.16506858  1
  Te  Te127  1  0.83432657  0.16091238  0.49702089  1
  Te  Te128  1  0.83509827  0.16711416  0.83671239  1
  Te  Te129  1  0.83416651  0.49785156  0.16419117  1
  Te  Te130  1  0.83320983  0.49906442  0.49137622  1
  Te  Te131  1  0.83547723  0.49948685  0.83642238  1
  Te  Te132  1  0.83371919  0.83428614  0.16614518  1
  Te  Te133  1  0.82708774  0.83988292  0.49895646  1
  Te  Te134  1  0.83779809  0.82850851  0.83441968  1
  Te  Te135  1  0.17352367  0.00751498  -0.00047977  1
  Te  Te136  1  0.16782629  0.00869609  0.33469310  1
  Te  Te137  1  0.17312926  0.00529151  0.66618472  1
  Te  Te138  1  0.16253318  0.33323632  0.00454726  1
  Te  Te139  1  0.16642226  0.33450295  0.32853695  1
  Te  Te140  1  0.16861919  0.33038162  0.66468668  1
  Te  Te141  1  0.16628715  0.66301252  0.00065795  1
  Te  Te142  1  0.16934182  0.66357763  0.32946821  1
  Te  Te143  1  0.16926882  0.66541091  0.66829375  1
  Te  Te144  1  0.50167830  0.00136537  0.00143027  1
  Te  Te145  1  0.49947203  0.00652095  0.33247146  1
  Te  Te146  1  0.49979865  -0.00303985  0.66767115  1
  Te  Te147  1  0.50222150  0.33493638  0.00013086  1
  Te  Te148  1  0.50072356  0.33014820  0.33355117  1
  Te  Te149  1  0.49916289  0.33443730  0.66689445  1
  Te  Te150  1  0.50068024  0.66312500  0.00092449  1
  Te  Te151  1  0.49721408  0.66676967  0.33141811  1
  Te  Te152  1  0.49807861  0.66992844  0.66602633  1
  Te  Te153  1  0.83099561  0.00419444  0.00098739  1
  Te  Te154  1  0.83229421  0.00476511  0.32905762  1
  Te  Te155  1  0.82999670  0.00033044  0.66680412  1
  Te  Te156  1  0.83427934  0.33177605  -0.00028385  1
  Te  Te157  1  0.83321080  0.33316049  0.33125814  1
  Te  Te158  1  0.83589386  0.33296990  0.66851340  1
  Te  Te159  1  0.83241790  0.65999194  -0.00620976  1
  Te  Te160  1  0.83506819  0.66041579  0.33392491  1
  Te  Te161  1  0.83313608  0.66608069  0.67139464  1
  Te  Te162  1  0.00022090  0.16922979  -0.00040723  1
  Te  Te163  1  0.00123529  0.16857021  0.33073724  1
  Te  Te164  1  0.00613323  0.16839411  0.66965255  1
  Te  Te165  1  -0.00012757  0.49426087  -0.00492877  1
  Te  Te166  1  -0.00083049  0.49881406  0.33532403  1
  Te  Te167  1  0.00120621  0.50114329  0.67315153  1
  Te  Te168  1  0.00048444  0.83544670  -0.00012490  1
  Te  Te169  1  0.00008530  0.83300414  0.32612738  1
  Te  Te170  1  0.00112856  0.82861378  0.67126304  1
  Te  Te171  1  0.33557842  0.16696373  -0.00343945  1
  Te  Te172  1  0.33391565  0.16796677  0.33514526  1
  Te  Te173  1  0.33294039  0.16511154  0.66975377  1
  Te  Te174  1  0.33256220  0.49783056  -0.00051149  1
  Te  Te175  1  0.33314507  0.50253584  0.33325416  1
  Te  Te176  1  0.33305370  0.50585422  0.67100638  1
  Te  Te177  1  0.33240114  0.84393906  0.00536793  1
  Te  Te178  1  0.33326763  0.82617730  0.32691444  1
  Te  Te179  1  0.33770507  0.83114123  0.66735441  1
  Te  Te180  1  0.66399235  0.16272016  0.00374381  1
  Te  Te181  1  0.66565354  0.16809721  0.32834680  1
  Te  Te182  1  0.66585971  0.16436697  0.66553451  1
  Te  Te183  1  0.66344718  0.50027317  0.00060911  1
  Te  Te184  1  0.66477526  0.50388992  0.33297041  1
  Te  Te185  1  0.66603122  0.49414047  0.66612818  1
  Te  Te186  1  0.66709799  0.84171900  0.00683440  1
  Te  Te187  1  0.66726673  0.82556658  0.33119528  1
  Te  Te188  1  0.66132423  0.83793573  0.66373564  1
  Te  Te189  1  -0.00183629  -0.00009587  0.16586557  1
  Te  Te190  1  -0.00637224  -0.00221554  0.50092329  1
  Te  Te191  1  -0.00569931  0.00026457  0.83304977  1
  Te  Te192  1  0.00021099  0.33126314  0.16360236  1
  Te  Te193  1  0.00005526  0.33275687  0.51361814  1
  Te  Te194  1  -0.00178096  0.33310170  0.83508670  1
  Te  Te195  1  0.00236141  0.67107937  0.16563139  1
  Te  Te196  1  0.00091054  0.66829366  0.50864737  1
  Te  Te197  1  0.00179756  0.66395524  0.83246949  1
  Te  Te198  1  0.33749843  -0.00182758  0.16403672  1
  Te  Te199  1  0.33792353  0.00164430  0.50299690  1
  Te  Te200  1  0.33306158  0.00029353  0.83302231  1
  Te  Te201  1  0.32816885  0.34195158  0.16640020  1
  Te  Te202  1  0.33281298  0.32776382  0.50860179  1
  Te  Te203  1  0.33404691  0.33461268  0.82920725  1
  Te  Te204  1  0.33433784  0.66483952  0.16472718  1
  Te  Te205  1  0.33512179  0.66751226  0.50402596  1
  Te  Te206  1  0.33263974  0.66580458  0.83367974  1
  Te  Te207  1  0.66447583  0.00071455  0.16812237  1
  Te  Te208  1  0.66381126  -0.00301444  0.50136557  1
  Te  Te209  1  0.67229662  -0.00129972  0.82864187  1
  Te  Te210  1  0.67270753  0.32651519  0.16696999  1
  Te  Te211  1  0.66686108  0.33265906  0.50866187  1
  Te  Te212  1  0.67381885  0.33253443  0.82748454  1
  Te  Te213  1  0.66469834  0.66923698  0.17106678  1
  Te  Te214  1  0.66242145  0.67264719  0.49594498  1
  Te  Te215  1  0.66371775  0.66815346  0.83375385  1
