# generated using pymatgen
data_AgSbTe2
_symmetry_space_group_name_H-M   'P 1'
_cell_length_a   18.31808389
_cell_length_b   18.32646664
_cell_length_c   18.32509639
_cell_angle_alpha   89.99924786
_cell_angle_beta   90.00291822
_cell_angle_gamma   89.99708521
_symmetry_Int_Tables_number   1
_chemical_formula_structural   AgSbTe2
_chemical_formula_sum   'Ag54 Sb54 Te108'
_cell_volume   6151.84026980
_cell_formula_units_Z   54
loop_
 _symmetry_equiv_pos_site_id
 _symmetry_equiv_pos_as_xyz
  1  'x, y, z'
loop_
 _atom_site_type_symbol
 _atom_site_label
 _atom_site_symmetry_multiplicity
 _atom_site_fract_x
 _atom_site_fract_y
 _atom_site_fract_z
 _atom_site_occupancy
  Ag  Ag0  1  0.49215227  0.33498476  0.83401581  1
  Ag  Ag1  1  0.33053041  0.16123324  0.49744368  1
  Ag  Ag2  1  0.32758447  -0.00472326  0.00092060  1
  Ag  Ag3  1  0.84023155  0.32511347  0.49768070  1
  Ag  Ag4  1  0.83627188  0.49686236  0.33718428  1
  Ag  Ag5  1  0.16521856  0.33177806  0.49844430  1
  Ag  Ag6  1  0.16701710  0.16689679  0.33044342  1
  Ag  Ag7  1  0.49393836  0.67775295  0.50176385  1
  Ag  Ag8  1  0.33569770  -0.00155440  0.65951332  1
  Ag  Ag9  1  0.48804109  0.66924265  0.16518360  1
  Ag  Ag10  1  0.83400966  0.00132792  0.50277170  1
  Ag  Ag11  1  0.66475863  0.50202465  0.83077357  1
  Ag  Ag12  1  0.01095606  0.82847914  0.15777029  1
  Ag  Ag13  1  0.16871033  0.33926583  0.84217184  1
  Ag  Ag14  1  0.17095034  0.67587327  0.49420017  1
  Ag  Ag15  1  0.66485688  0.16438631  0.16501863  1
  Ag  Ag16  1  0.49229507  -0.00426032  0.50721264  1
  Ag  Ag17  1  0.17062553  0.83129376  0.66600040  1
  Ag  Ag18  1  0.84087330  0.16697620  0.33940280  1
  Ag  Ag19  1  0.49839141  -0.00172461  0.82930400  1
  Ag  Ag20  1  0.16362788  0.50250613  -0.00369030  1
  Ag  Ag21  1  0.66011650  0.66744858  0.66353587  1
  Ag  Ag22  1  0.00645549  0.33652084  -0.00007592  1
  Ag  Ag23  1  0.00589910  0.83340877  0.49804792  1
  Ag  Ag24  1  0.16847081  0.67286319  0.16417447  1
  Ag  Ag25  1  0.49295479  0.83734134  0.66267527  1
  Ag  Ag26  1  0.66749974  0.50800906  0.50555610  1
  Ag  Ag27  1  0.16962012  0.16140995  0.00679203  1
  Ag  Ag28  1  0.66098234  -0.00066846  -0.00070681  1
  Ag  Ag29  1  0.49659452  0.83164508  0.34339385  1
  Ag  Ag30  1  0.01083179  0.67314522  0.00465967  1
  Ag  Ag31  1  0.50070296  0.15651150  0.67014723  1
  Ag  Ag32  1  0.00547549  0.50944993  0.16004548  1
  Ag  Ag33  1  0.32844508  0.67412969  0.00752224  1
  Ag  Ag34  1  0.83084945  -0.00078887  0.83270646  1
  Ag  Ag35  1  0.00858516  0.50540227  0.84142183  1
  Ag  Ag36  1  0.84928999  0.83720944  -0.00037178  1
  Ag  Ag37  1  0.00286235  0.82989502  0.84614796  1
  Ag  Ag38  1  0.49785958  0.66954435  0.83057623  1
  Ag  Ag39  1  0.16885626  -0.00836882  0.16014199  1
  Ag  Ag40  1  0.49178810  0.16081382  -0.00540318  1
  Ag  Ag41  1  0.32970085  -0.00246873  0.33955547  1
  Ag  Ag42  1  0.17404097  -0.00476956  0.49652796  1
  Ag  Ag43  1  0.01103828  0.66875361  0.32567574  1
  Ag  Ag44  1  0.32897878  0.67103166  0.32868657  1
  Ag  Ag45  1  0.16330425  0.83109978  0.00615812  1
  Ag  Ag46  1  0.65600715  0.83132878  0.50224011  1
  Ag  Ag47  1  0.32527250  0.50106636  0.83395913  1
  Ag  Ag48  1  0.16713174  0.50732645  0.67306340  1
  Ag  Ag49  1  0.00850678  -0.01178977  -0.00023732  1
  Ag  Ag50  1  0.32824574  0.32932640  0.33462518  1
  Ag  Ag51  1  0.16640775  0.33339296  0.15955087  1
  Ag  Ag52  1  0.82746311  0.16225623  0.65863682  1
  Ag  Ag53  1  0.32808136  0.83137765  0.16518651  1
  Sb  Sb54  1  0.66864311  0.32924396  -0.00156367  1
  Sb  Sb55  1  0.66430504  0.83629603  0.16815418  1
  Sb  Sb56  1  0.66367865  0.16706305  0.83613069  1
  Sb  Sb57  1  0.67092985  0.49933716  0.16539755  1
  Sb  Sb58  1  0.84193349  0.66725683  0.16743837  1
  Sb  Sb59  1  0.84286587  0.50464474  0.00131661  1
  Sb  Sb60  1  0.83227812  0.67116010  0.83422035  1
  Sb  Sb61  1  0.00202019  0.66851089  0.66898149  1
  Sb  Sb62  1  0.00616197  0.33784901  0.33028317  1
  Sb  Sb63  1  0.66352701  0.66736215  0.33850143  1
  Sb  Sb64  1  0.83634513  0.15935193  0.00085925  1
  Sb  Sb65  1  0.16481392  0.49931358  0.33124047  1
  Sb  Sb66  1  0.49796050  0.33050484  0.50427969  1
  Sb  Sb67  1  0.33113886  0.16031451  0.16917255  1
  Sb  Sb68  1  0.49413712  0.16118404  0.33394639  1
  Sb  Sb69  1  0.33452127  0.16749084  0.83171263  1
  Sb  Sb70  1  0.33217923  0.32883170  0.66545802  1
  Sb  Sb71  1  0.83937989  0.00001817  0.16661615  1
  Sb  Sb72  1  0.32875416  0.83075267  0.83801516  1
  Sb  Sb73  1  0.32507303  0.33231407  0.00184059  1
  Sb  Sb74  1  0.83642913  0.32989058  0.82986751  1
  Sb  Sb75  1  0.66003639  -0.00435806  0.66801882  1
  Sb  Sb76  1  0.84057698  0.33175784  0.17061691  1
  Sb  Sb77  1  0.32440149  0.50798068  0.16130777  1
  Sb  Sb78  1  0.49564536  0.50360626  0.66955909  1
  Sb  Sb79  1  0.33308597  0.49822672  0.50342687  1
  Sb  Sb80  1  0.16886809  0.00056695  0.83710511  1
  Sb  Sb81  1  0.00406604  0.16180268  0.49897553  1
  Sb  Sb82  1  0.83336400  0.83493419  0.33317078  1
  Sb  Sb83  1  0.66533013  0.16307938  0.49718211  1
  Sb  Sb84  1  0.17146645  0.66337427  0.83937360  1
  Sb  Sb85  1  0.00012729  0.50494940  0.49909550  1
  Sb  Sb86  1  0.66261389  0.67117206  -0.00373891  1
  Sb  Sb87  1  0.83429032  0.83814278  0.66807691  1
  Sb  Sb88  1  0.66450899  0.33237991  0.33469798  1
  Sb  Sb89  1  0.50072017  0.50637500  0.33471489  1
  Sb  Sb90  1  0.66706442  0.83217360  0.82953780  1
  Sb  Sb91  1  0.49512648  0.83743913  -0.00287346  1
  Sb  Sb92  1  0.16947140  0.16398083  0.66504921  1
  Sb  Sb93  1  0.33365321  0.83894992  0.49321933  1
  Sb  Sb94  1  0.49313092  0.49899826  -0.00426409  1
  Sb  Sb95  1  0.00481917  -0.00267952  0.66988567  1
  Sb  Sb96  1  0.49247403  -0.00455721  0.16555554  1
  Sb  Sb97  1  0.17278749  0.83515563  0.33105939  1
  Sb  Sb98  1  0.33432044  0.67324705  0.66526498  1
  Sb  Sb99  1  0.83631770  0.49727446  0.66299961  1
  Sb  Sb100  1  0.49056836  0.33493050  0.16228119  1
  Sb  Sb101  1  0.66530660  0.33677831  0.66641858  1
  Sb  Sb102  1  0.00745999  -0.00609538  0.33115823  1
  Sb  Sb103  1  0.00168914  0.16372084  0.83577676  1
  Sb  Sb104  1  0.00288905  0.16382749  0.16554473  1
  Sb  Sb105  1  0.83397978  0.67066252  0.49934288  1
  Sb  Sb106  1  0.00305985  0.33375484  0.66961468  1
  Sb  Sb107  1  0.66302427  0.00061477  0.33155570  1
  Te  Te108  1  0.16751485  0.16835039  0.16692984  1
  Te  Te109  1  0.16911081  0.16720928  0.50009559  1
  Te  Te110  1  0.16724208  0.17494833  0.83484808  1
  Te  Te111  1  0.16251700  0.49985946  0.16446998  1
  Te  Te112  1  0.16600533  0.49605260  0.50423249  1
  Te  Te113  1  0.16589149  0.50011285  0.83378911  1
  Te  Te114  1  0.16705223  0.83338164  0.16740102  1
  Te  Te115  1  0.16754739  0.83477581  0.49899806  1
  Te  Te116  1  0.16197187  0.83313893  0.82946526  1
  Te  Te117  1  0.50266133  0.16790502  0.16327289  1
  Te  Te118  1  0.49716189  0.16277576  0.50291891  1
  Te  Te119  1  0.49962829  0.16254520  0.83413995  1
  Te  Te120  1  0.50145041  0.50645331  0.16494369  1
  Te  Te121  1  0.50680804  0.50036531  0.50196621  1
  Te  Te122  1  0.50277913  0.49995169  0.83287326  1
  Te  Te123  1  0.49888987  0.82776898  0.16679668  1
  Te  Te124  1  0.49772248  0.83461908  0.50235539  1
  Te  Te125  1  0.49903177  0.83423032  0.82890102  1
  Te  Te126  1  0.82922576  0.16737738  0.17218306  1
  Te  Te127  1  0.83269533  0.16485262  0.49852693  1
  Te  Te128  1  0.83249291  0.16085308  0.82975340  1
  Te  Te129  1  0.83975953  0.49883350  0.17229332  1
  Te  Te130  1  0.83086140  0.49930330  0.49826825  1
  Te  Te131  1  0.83152111  0.49875259  0.83245947  1
  Te  Te132  1  0.83371880  0.83429285  0.16189832  1
  Te  Te133  1  0.83527445  0.83901328  0.50023267  1
  Te  Te134  1  0.83805367  0.83885498  0.83572596  1
  Te  Te135  1  0.16726872  0.00004540  -0.00179932  1
  Te  Te136  1  0.16984694  0.00467899  0.33682441  1
  Te  Te137  1  0.17226551  -0.00312151  0.66419797  1
  Te  Te138  1  0.16578709  0.33388979  0.00020857  1
  Te  Te139  1  0.16946052  0.33142589  0.33740651  1
  Te  Te140  1  0.16732142  0.33314572  0.66244469  1
  Te  Te141  1  0.16813772  0.66845768  -0.00022866  1
  Te  Te142  1  0.16789630  0.66552367  0.33480079  1
  Te  Te143  1  0.16746012  0.66928928  0.66002453  1
  Te  Te144  1  0.49810980  0.00211755  -0.00031866  1
  Te  Te145  1  0.49445336  -0.00465408  0.33549985  1
  Te  Te146  1  0.49875746  -0.00181565  0.66720750  1
  Te  Te147  1  0.49960926  0.32743173  -0.00566576  1
  Te  Te148  1  0.49079801  0.33297470  0.33296951  1
  Te  Te149  1  0.49926018  0.32783528  0.67385585  1
  Te  Te150  1  0.49539911  0.66726749  -0.00221980  1
  Te  Te151  1  0.49640354  0.66997278  0.33714870  1
  Te  Te152  1  0.49984215  0.66927578  0.66501646  1
  Te  Te153  1  0.83690683  -0.00223357  -0.00110984  1
  Te  Te154  1  0.83413896  0.00416499  0.33627037  1
  Te  Te155  1  0.83317910  0.00265355  0.66698881  1
  Te  Te156  1  0.84049418  0.33225269  0.00000245  1
  Te  Te157  1  0.83355097  0.33136785  0.33787994  1
  Te  Te158  1  0.83353353  0.32714834  0.66010609  1
  Te  Te159  1  0.83439122  0.67394098  -0.00004681  1
  Te  Te160  1  0.83594852  0.66340802  0.33399157  1
  Te  Te161  1  0.82556746  0.66695583  0.66687740  1
  Te  Te162  1  0.00592829  0.17082590  0.00097653  1
  Te  Te163  1  0.00220365  0.16659162  0.33259514  1
  Te  Te164  1  -0.00777041  0.16553574  0.66721224  1
  Te  Te165  1  0.00298438  0.50151210  -0.00022555  1
  Te  Te166  1  -0.00359710  0.50551887  0.33147057  1
  Te  Te167  1  0.00554760  0.50124705  0.67413331  1
  Te  Te168  1  0.00416664  0.83235529  0.00196963  1
  Te  Te169  1  -0.00254884  0.82711791  0.33746462  1
  Te  Te170  1  0.00507383  0.83279534  0.65850225  1
  Te  Te171  1  0.33156002  0.16348836  0.00118075  1
  Te  Te172  1  0.32932520  0.16331686  0.33519971  1
  Te  Te173  1  0.33747942  0.16012257  0.66254728  1
  Te  Te174  1  0.32677197  0.50265664  -0.00532008  1
  Te  Te175  1  0.33373303  0.50418497  0.33405005  1
  Te  Te176  1  0.32736623  0.49967593  0.67170714  1
  Te  Te177  1  0.32907402  0.83355299  0.00361549  1
  Te  Te178  1  0.33731409  0.83254890  0.32701968  1
  Te  Te179  1  0.33191642  0.83870684  0.67174447  1
  Te  Te180  1  0.66634650  0.16175533  0.00350454  1
  Te  Te181  1  0.66879831  0.16680482  0.32808498  1
  Te  Te182  1  0.66467884  0.16632168  0.66605199  1
  Te  Te183  1  0.66901768  0.50053325  -0.00401020  1
  Te  Te184  1  0.67356099  0.49927292  0.33497433  1
  Te  Te185  1  0.66740930  0.50446857  0.66662592  1
  Te  Te186  1  0.66701154  0.83945679  -0.00084870  1
  Te  Te187  1  0.66084902  0.83453919  0.33921578  1
  Te  Te188  1  0.66450806  0.82899144  0.66216297  1
  Te  Te189  1  0.00685767  -0.00516065  0.16274056  1
  Te  Te190  1  -0.00026493  -0.00453338  0.49994692  1
  Te  Te191  1  -0.00170600  -0.00412515  0.83768612  1
  Te  Te192  1  0.00703682  0.33500882  0.16296083  1
  Te  Te193  1  0.00065469  0.33411057  0.49923181  1
  Te  Te194  1  0.00304286  0.33740719  0.83699911  1
  Te  Te195  1  0.00403115  0.66845343  0.16600497  1
  Te  Te196  1  0.00429733  0.67037089  0.49962786  1
  Te  Te197  1  -0.00083821  0.66787493  0.83700188  1
  Te  Te198  1  0.32838279  -0.00495238  0.16384039  1
  Te  Te199  1  0.33350527  0.00098935  0.49905407  1
  Te  Te200  1  0.33797185  0.00035257  0.83839349  1
  Te  Te201  1  0.32656848  0.33534208  0.17283605  1
  Te  Te202  1  0.33043077  0.32988371  0.49620254  1
  Te  Te203  1  0.33253848  0.33724681  0.83368581  1
  Te  Te204  1  0.33037563  0.66847136  0.16675342  1
  Te  Te205  1  0.33291364  0.66445229  0.49727623  1
  Te  Te206  1  0.33921995  0.66292825  0.83349825  1
  Te  Te207  1  0.66584361  0.00327601  0.16164225  1
  Te  Te208  1  0.66820548  -0.00416149  0.49971136  1
  Te  Te209  1  0.66575134  -0.00031186  0.83803796  1
  Te  Te210  1  0.66518115  0.32983619  0.16607592  1
  Te  Te211  1  0.66912096  0.33762076  0.49935333  1
  Te  Te212  1  0.66495645  0.33986109  0.83409524  1
  Te  Te213  1  0.66127594  0.66622887  0.16629696  1
  Te  Te214  1  0.66603582  0.66856407  0.50272624  1
  Te  Te215  1  0.66114837  0.66364557  0.82992071  1
