# generated using pymatgen
data_AgSbTe2
_symmetry_space_group_name_H-M   'P 1'
_cell_length_a   18.35375377
_cell_length_b   18.34299765
_cell_length_c   18.33810035
_cell_angle_alpha   90.00375713
_cell_angle_beta   89.99864655
_cell_angle_gamma   89.99957514
_symmetry_Int_Tables_number   1
_chemical_formula_structural   AgSbTe2
_chemical_formula_sum   'Ag54 Sb54 Te108'
_cell_volume   6173.75733610
_cell_formula_units_Z   54
loop_
 _symmetry_equiv_pos_site_id
 _symmetry_equiv_pos_as_xyz
  1  'x, y, z'
loop_
 _atom_site_type_symbol
 _atom_site_label
 _atom_site_symmetry_multiplicity
 _atom_site_fract_x
 _atom_site_fract_y
 _atom_site_fract_z
 _atom_site_occupancy
  Ag  Ag0  1  0.15843514  0.49429432  0.33912414  1
  Ag  Ag1  1  0.83666993  0.17386266  0.33507693  1
  Ag  Ag2  1  0.00714084  0.83287099  0.82697196  1
  Ag  Ag3  1  0.49730590  0.33232326  0.49605635  1
  Ag  Ag4  1  0.84357906  0.83928016  -0.00216507  1
  Ag  Ag5  1  0.00154453  0.49908191  0.17577936  1
  Ag  Ag6  1  0.83898724  0.33248420  0.83045049  1
  Ag  Ag7  1  0.67740579  -0.00234956  0.00147756  1
  Ag  Ag8  1  0.32958151  -0.00656957  0.66550617  1
  Ag  Ag9  1  0.16813810  0.82499918  0.66747111  1
  Ag  Ag10  1  0.32795405  0.17023503  0.17969056  1
  Ag  Ag11  1  0.17251812  0.17524208  0.33972864  1
  Ag  Ag12  1  0.48788703  0.17686476  0.33887376  1
  Ag  Ag13  1  0.16515203  0.33665717  0.82807653  1
  Ag  Ag14  1  0.32600237  0.83168337  0.81976208  1
  Ag  Ag15  1  0.83465806  0.16016699  0.00170489  1
  Ag  Ag16  1  0.66133159  0.49793119  0.17286076  1
  Ag  Ag17  1  0.33084534  0.16461444  0.50126870  1
  Ag  Ag18  1  0.00246087  0.16639382  0.17177627  1
  Ag  Ag19  1  0.17071922  0.16578692  0.65907010  1
  Ag  Ag20  1  0.17028895  0.83432177  -0.01083913  1
  Ag  Ag21  1  0.00012837  -0.00690487  0.00231120  1
  Ag  Ag22  1  0.50230412  0.83275394  0.34188419  1
  Ag  Ag23  1  0.50135339  0.49213130  0.33125926  1
  Ag  Ag24  1  0.66686711  0.65874819  0.33466213  1
  Ag  Ag25  1  0.32147558  0.68053105  0.66784836  1
  Ag  Ag26  1  0.66794759  0.33163649  0.00493915  1
  Ag  Ag27  1  0.16769133  0.67132744  0.81969881  1
  Ag  Ag28  1  0.66572311  0.33818469  0.33235434  1
  Ag  Ag29  1  0.83870034  -0.00411610  0.50078027  1
  Ag  Ag30  1  0.48233701  0.83583728  0.65953913  1
  Ag  Ag31  1  0.33359903  0.49624261  0.17104811  1
  Ag  Ag32  1  0.33188638  0.67820995  -0.00486928  1
  Ag  Ag33  1  0.16536661  -0.00705185  0.50293670  1
  Ag  Ag34  1  0.00190905  0.83012866  0.50375541  1
  Ag  Ag35  1  0.49806895  0.50172430  0.00982688  1
  Ag  Ag36  1  0.16380265  0.51198682  0.65885345  1
  Ag  Ag37  1  -0.00112464  0.83369705  0.16571831  1
  Ag  Ag38  1  0.32866206  0.32938214  0.65916935  1
  Ag  Ag39  1  0.83884161  0.49356153  0.33688472  1
  Ag  Ag40  1  0.00276851  0.50308276  0.49625938  1
  Ag  Ag41  1  0.49023065  0.83325869  -0.00096992  1
  Ag  Ag42  1  0.48631770  0.16396495  0.65776144  1
  Ag  Ag43  1  0.84361499  0.50092583  0.65710035  1
  Ag  Ag44  1  0.84098999  0.83421893  0.66055791  1
  Ag  Ag45  1  0.01048517  0.67335348  0.66419937  1
  Ag  Ag46  1  0.00100715  0.33725770  0.33355873  1
  Ag  Ag47  1  0.83627327  0.16477328  0.65883938  1
  Ag  Ag48  1  0.33029229  -0.00640074  -0.00325443  1
  Ag  Ag49  1  0.66997010  0.83388632  0.49715455  1
  Ag  Ag50  1  0.16587576  0.67402842  0.50603563  1
  Ag  Ag51  1  0.33501653  0.33034153  0.33837827  1
  Ag  Ag52  1  0.32853565  0.83906511  0.50780458  1
  Ag  Ag53  1  0.83326144  0.83323141  0.34281253  1
  Sb  Sb54  1  0.49930019  0.33474885  0.17478217  1
  Sb  Sb55  1  0.16662914  -0.00504101  0.82750737  1
  Sb  Sb56  1  0.67177329  0.50460602  0.49267522  1
  Sb  Sb57  1  -0.00063111  0.00192669  0.33203556  1
  Sb  Sb58  1  0.16628733  -0.00005698  0.17059608  1
  Sb  Sb59  1  0.66731117  0.17122895  0.16965443  1
  Sb  Sb60  1  0.66764103  0.83243673  0.83167739  1
  Sb  Sb61  1  0.49719802  -0.00074926  0.83313355  1
  Sb  Sb62  1  0.33113937  0.50484050  0.83403097  1
  Sb  Sb63  1  0.00080542  0.16268920  0.83427901  1
  Sb  Sb64  1  0.83475740  0.00008239  0.16775177  1
  Sb  Sb65  1  0.66192702  0.66826918  0.00570796  1
  Sb  Sb66  1  0.49472359  0.50132618  0.66159634  1
  Sb  Sb67  1  0.49713419  0.33350363  0.82853291  1
  Sb  Sb68  1  0.32754502  0.49851178  0.49582816  1
  Sb  Sb69  1  0.83566037  0.66658648  0.16809447  1
  Sb  Sb70  1  0.00477218  0.16635350  0.49575829  1
  Sb  Sb71  1  0.33517757  0.66240477  0.33541387  1
  Sb  Sb72  1  0.66876184  0.49835460  0.83814159  1
  Sb  Sb73  1  0.16442215  0.16103069  -0.00004997  1
  Sb  Sb74  1  0.83064873  0.33006250  0.50044658  1
  Sb  Sb75  1  0.49764875  0.66521789  0.16833039  1
  Sb  Sb76  1  0.49330725  0.66746213  0.49899599  1
  Sb  Sb77  1  0.16652299  0.66650951  0.16984009  1
  Sb  Sb78  1  0.66672588  0.66920904  0.65866340  1
  Sb  Sb79  1  0.67034392  0.82969086  0.17124490  1
  Sb  Sb80  1  0.66519550  0.33337851  0.66317493  1
  Sb  Sb81  1  0.50181346  0.16516000  0.00352747  1
  Sb  Sb82  1  0.33680138  0.33204887  0.00067525  1
  Sb  Sb83  1  0.17096792  0.33317549  0.50085103  1
  Sb  Sb84  1  0.66454395  -0.00121387  0.66740974  1
  Sb  Sb85  1  0.49226224  0.66879929  0.83321705  1
  Sb  Sb86  1  0.83103582  0.49924620  0.00412582  1
  Sb  Sb87  1  0.17056892  0.50430854  0.00166894  1
  Sb  Sb88  1  0.66401588  0.16236687  0.49756963  1
  Sb  Sb89  1  0.66849487  0.16741756  0.83431985  1
  Sb  Sb90  1  0.00496289  0.33583088  0.66143807  1
  Sb  Sb91  1  0.49757570  -0.00082913  0.16659097  1
  Sb  Sb92  1  0.84001987  0.67313209  0.49967491  1
  Sb  Sb93  1  0.49688784  0.00002201  0.50083841  1
  Sb  Sb94  1  0.16515975  0.83232173  0.33984785  1
  Sb  Sb95  1  0.32969700  0.83366583  0.16745673  1
  Sb  Sb96  1  0.66832979  0.00113298  0.33213562  1
  Sb  Sb97  1  0.16639505  0.33325316  0.16642197  1
  Sb  Sb98  1  0.84044528  0.66577099  0.83077837  1
  Sb  Sb99  1  0.83341512  0.33325440  0.16857845  1
  Sb  Sb100  1  0.00265210  0.50327344  0.83177499  1
  Sb  Sb101  1  0.83572942  0.00154803  0.83070374  1
  Sb  Sb102  1  -0.00208962  0.66290030  0.33889601  1
  Sb  Sb103  1  0.33284625  0.00429688  0.33701866  1
  Sb  Sb104  1  0.33054428  0.16224801  0.82671853  1
  Sb  Sb105  1  0.00607063  0.67362759  -0.00378246  1
  Sb  Sb106  1  -0.00366962  0.33032682  0.00364436  1
  Sb  Sb107  1  0.00541400  -0.00521358  0.66637520  1
  Te  Te108  1  0.16530379  0.16644405  0.16909621  1
  Te  Te109  1  0.16868720  0.16653654  0.49819537  1
  Te  Te110  1  0.16535624  0.17192380  0.82981090  1
  Te  Te111  1  0.16567198  0.49984127  0.17105690  1
  Te  Te112  1  0.16356325  0.49900962  0.50013517  1
  Te  Te113  1  0.16657268  0.50080278  0.82968335  1
  Te  Te114  1  0.16052547  0.83354242  0.16746226  1
  Te  Te115  1  0.16682565  0.83390901  0.50074587  1
  Te  Te116  1  0.16671464  0.83342286  0.83064098  1
  Te  Te117  1  0.49511410  0.16637137  0.17352711  1
  Te  Te118  1  0.49795378  0.16600303  0.49874384  1
  Te  Te119  1  0.50046266  0.16761488  0.82198675  1
  Te  Te120  1  0.49833655  0.50006173  0.17002687  1
  Te  Te121  1  0.50087774  0.49730296  0.49497028  1
  Te  Te122  1  0.50064358  0.50029180  0.83876242  1
  Te  Te123  1  0.50065554  0.83265910  0.16454175  1
  Te  Te124  1  0.49467253  0.83388016  0.50202056  1
  Te  Te125  1  0.49778009  0.83326955  0.83449423  1
  Te  Te126  1  0.83666651  0.16626290  0.16875536  1
  Te  Te127  1  0.83399206  0.16255131  0.49746816  1
  Te  Te128  1  0.83505610  0.17091187  0.83658539  1
  Te  Te129  1  0.83894976  0.50014653  0.17261050  1
  Te  Te130  1  0.83714727  0.49953496  0.49837221  1
  Te  Te131  1  0.83496844  0.49513151  0.83149322  1
  Te  Te132  1  0.83806940  0.83349971  0.16281512  1
  Te  Te133  1  0.83822920  0.83398117  0.50076809  1
  Te  Te134  1  0.83587765  0.83312538  0.83476692  1
  Te  Te135  1  0.16725952  -0.00482876  0.00031617  1
  Te  Te136  1  0.16637889  0.00452080  0.34108866  1
  Te  Te137  1  0.16914297  0.00692671  0.66249710  1
  Te  Te138  1  0.16647449  0.33342935  -0.00866974  1
  Te  Te139  1  0.16743993  0.33457378  0.33205326  1
  Te  Te140  1  0.16772555  0.32482941  0.66767990  1
  Te  Te141  1  0.17241926  0.67178853  -0.00084648  1
  Te  Te142  1  0.16675798  0.66004711  0.33912149  1
  Te  Te143  1  0.16667201  0.66712626  0.66423269  1
  Te  Te144  1  0.49312147  -0.00257404  -0.00032061  1
  Te  Te145  1  0.50131816  -0.00724172  0.33369136  1
  Te  Te146  1  0.49677294  -0.00125844  0.66710272  1
  Te  Te147  1  0.50601519  0.33435809  -0.00331431  1
  Te  Te148  1  0.49787403  0.33252932  0.33621904  1
  Te  Te149  1  0.49732005  0.33149814  0.66155138  1
  Te  Te150  1  0.49459059  0.66774786  0.00012577  1
  Te  Te151  1  0.50358123  0.67349631  0.33419978  1
  Te  Te152  1  0.49646739  0.67187455  0.66662495  1
  Te  Te153  1  0.83534573  0.00012613  -0.00065857  1
  Te  Te154  1  0.83294668  -0.00481163  0.33736450  1
  Te  Te155  1  0.83258184  -0.00082416  0.66424316  1
  Te  Te156  1  0.82883315  0.33262627  -0.00488662  1
  Te  Te157  1  0.83334014  0.33438621  0.33458690  1
  Te  Te158  1  0.83361227  0.33452066  0.66753522  1
  Te  Te159  1  0.83208547  0.67264494  -0.00213595  1
  Te  Te160  1  0.82865445  0.66954240  0.33380858  1
  Te  Te161  1  0.83423258  0.66493979  0.66678726  1
  Te  Te162  1  -0.00435781  0.16307526  0.00497558  1
  Te  Te163  1  -0.00311548  0.16845938  0.33118069  1
  Te  Te164  1  -0.00500195  0.16529364  0.66546580  1
  Te  Te165  1  -0.00005238  0.50065359  0.00709795  1
  Te  Te166  1  -0.00087810  0.50011202  0.33457408  1
  Te  Te167  1  0.00240236  0.50148932  0.66567099  1
  Te  Te168  1  0.00153427  0.83336887  0.00216583  1
  Te  Te169  1  -0.00268094  0.83257260  0.33321963  1
  Te  Te170  1  0.00202142  0.83443583  0.66556071  1
  Te  Te171  1  0.33509792  0.16263062  -0.00097004  1
  Te  Te172  1  0.33237473  0.16762386  0.33678025  1
  Te  Te173  1  0.33111826  0.16903127  0.66517420  1
  Te  Te174  1  0.33790190  0.49823981  0.00503048  1
  Te  Te175  1  0.33817863  0.49776798  0.33099778  1
  Te  Te176  1  0.33069290  0.49221922  0.66580645  1
  Te  Te177  1  0.33208234  0.83456430  0.00752901  1
  Te  Te178  1  0.33534523  0.83262862  0.33447124  1
  Te  Te179  1  0.32849201  0.83623323  0.66495842  1
  Te  Te180  1  0.66988919  0.16747569  0.00211501  1
  Te  Te181  1  0.67323092  0.17110081  0.33202063  1
  Te  Te182  1  0.67831159  0.16585269  0.66603632  1
  Te  Te183  1  0.66299527  0.49917012  0.00660237  1
  Te  Te184  1  0.66521907  0.49818085  0.33264294  1
  Te  Te185  1  0.66861372  0.50115345  0.66613455  1
  Te  Te186  1  0.66380327  0.83458903  0.00125484  1
  Te  Te187  1  0.66890101  0.83523434  0.33514736  1
  Te  Te188  1  0.67752745  0.83401043  0.66251486  1
  Te  Te189  1  0.00053977  0.00043573  0.16244260  1
  Te  Te190  1  0.00088267  -0.00349847  0.49966592  1
  Te  Te191  1  0.00055805  -0.00665664  0.84246762  1
  Te  Te192  1  0.00006505  0.33217549  0.17181900  1
  Te  Te193  1  -0.00303950  0.33784305  0.49375083  1
  Te  Te194  1  0.00088168  0.33307872  0.83427376  1
  Te  Te195  1  0.00106944  0.66608373  0.16559862  1
  Te  Te196  1  0.00489956  0.66684812  0.50440708  1
  Te  Te197  1  0.00632948  0.67144044  0.82770142  1
  Te  Te198  1  0.33146310  0.00651524  0.16254018  1
  Te  Te199  1  0.33063351  0.00119381  0.50263781  1
  Te  Te200  1  0.33194900  -0.00671692  0.83269260  1
  Te  Te201  1  0.33256647  0.33139477  0.16890863  1
  Te  Te202  1  0.33704701  0.33188491  0.49815356  1
  Te  Te203  1  0.32903377  0.33362416  0.83095971  1
  Te  Te204  1  0.33138178  0.65991354  0.16199956  1
  Te  Te205  1  0.32751192  0.66973287  0.50390668  1
  Te  Te206  1  0.32735218  0.67060937  0.83244387  1
  Te  Te207  1  0.66583290  0.00010323  0.15889622  1
  Te  Te208  1  0.67402092  -0.00703760  0.49990519  1
  Te  Te209  1  0.66708111  -0.00028246  0.84346155  1
  Te  Te210  1  0.66730775  0.33828570  0.16766462  1
  Te  Te211  1  0.66060452  0.33317291  0.49459696  1
  Te  Te212  1  0.67000978  0.33392355  0.83603894  1
  Te  Te213  1  0.66762242  0.65879344  0.17360591  1
  Te  Te214  1  0.66397864  0.67476189  0.49358155  1
  Te  Te215  1  0.66672950  0.66555639  0.83330926  1
