# generated using pymatgen
data_AgSbTe2
_symmetry_space_group_name_H-M   'P 1'
_cell_length_a   18.34856342
_cell_length_b   18.34928288
_cell_length_c   18.34864737
_cell_angle_alpha   89.99841367
_cell_angle_beta   90.00049961
_cell_angle_gamma   89.99736296
_symmetry_Int_Tables_number   1
_chemical_formula_structural   AgSbTe2
_chemical_formula_sum   'Ag54 Sb54 Te108'
_cell_volume   6177.67727824
_cell_formula_units_Z   54
loop_
 _symmetry_equiv_pos_site_id
 _symmetry_equiv_pos_as_xyz
  1  'x, y, z'
loop_
 _atom_site_type_symbol
 _atom_site_label
 _atom_site_symmetry_multiplicity
 _atom_site_fract_x
 _atom_site_fract_y
 _atom_site_fract_z
 _atom_site_occupancy
  Ag  Ag0  1  0.33029708  -0.01291227  0.66679052  1
  Ag  Ag1  1  0.00369098  0.34231118  0.32989680  1
  Ag  Ag2  1  0.84854110  0.34279035  0.83195231  1
  Ag  Ag3  1  0.16822482  0.82372057  0.34203000  1
  Ag  Ag4  1  0.16775370  0.17928284  -0.00117567  1
  Ag  Ag5  1  0.83295728  0.66826139  0.83034325  1
  Ag  Ag6  1  0.84134619  -0.01044356  0.50742921  1
  Ag  Ag7  1  0.16594891  0.33854735  0.84305334  1
  Ag  Ag8  1  0.01172416  0.66345033  0.34166109  1
  Ag  Ag9  1  0.16810435  0.51108053  0.32221381  1
  Ag  Ag10  1  0.16047608  0.67034942  0.48868130  1
  Ag  Ag11  1  0.49619472  0.17171298  0.33280294  1
  Ag  Ag12  1  0.49633135  0.82709301  0.33509940  1
  Ag  Ag13  1  0.84297594  0.67073031  0.51347151  1
  Ag  Ag14  1  0.83721203  0.51350080  0.67123311  1
  Ag  Ag15  1  -0.00696239  0.82434081  0.82634561  1
  Ag  Ag16  1  0.32544637  0.66959910  0.66648844  1
  Ag  Ag17  1  0.32351953  0.66482970  0.33450494  1
  Ag  Ag18  1  0.84494241  0.82935117  0.67502268  1
  Ag  Ag19  1  0.50969294  0.82863294  -0.00671341  1
  Ag  Ag20  1  0.48953834  0.34543281  0.83453226  1
  Ag  Ag21  1  0.00144048  0.34220936  0.67690053  1
  Ag  Ag22  1  0.00234518  0.16247703  0.49929221  1
  Ag  Ag23  1  0.32481653  0.17466402  0.16016657  1
  Ag  Ag24  1  0.66454577  0.67144546  -0.00565976  1
  Ag  Ag25  1  0.00124736  0.50166701  0.83339475  1
  Ag  Ag26  1  0.00217700  0.83032403  0.50856289  1
  Ag  Ag27  1  0.00253207  0.66812790  0.66519638  1
  Ag  Ag28  1  0.49807832  0.83000700  0.66961441  1
  Ag  Ag29  1  0.49211401  0.50878261  0.33176848  1
  Ag  Ag30  1  0.00865458  0.49772065  0.16080384  1
  Ag  Ag31  1  0.49936130  -0.00492435  0.49993266  1
  Ag  Ag32  1  0.32896478  0.17524746  0.83600613  1
  Ag  Ag33  1  0.00956889  0.17743658  0.16854301  1
  Ag  Ag34  1  0.16525925  0.16469264  0.66961612  1
  Ag  Ag35  1  0.67454863  0.50681188  0.83178738  1
  Ag  Ag36  1  0.16132730  -0.01202514  0.50407418  1
  Ag  Ag37  1  0.66309082  0.83006319  0.15074944  1
  Ag  Ag38  1  0.16634260  0.49352819  0.01017516  1
  Ag  Ag39  1  0.83344069  -0.01642720  0.82849670  1
  Ag  Ag40  1  0.32770480  0.49831505  0.83800867  1
  Ag  Ag41  1  0.16602188  0.34822479  0.15357162  1
  Ag  Ag42  1  0.82087934  0.83249328  -0.01426296  1
  Ag  Ag43  1  0.16495980  0.82926896  -0.00328679  1
  Ag  Ag44  1  0.66740538  -0.01550044  -0.00304757  1
  Ag  Ag45  1  0.66801131  0.50435094  0.50824791  1
  Ag  Ag46  1  0.17043734  0.65850595  0.17645585  1
  Ag  Ag47  1  0.16159033  0.82977211  0.66632332  1
  Ag  Ag48  1  0.68148780  0.82399402  0.83953533  1
  Ag  Ag49  1  0.49121586  0.66782701  0.16507645  1
  Ag  Ag50  1  0.50427881  0.66597961  0.83517380  1
  Ag  Ag51  1  0.01138317  0.33663132  -0.00458197  1
  Ag  Ag52  1  0.31967748  0.50127805  0.15922657  1
  Ag  Ag53  1  0.32273751  0.33510887  -0.00274464  1
  Sb  Sb54  1  0.67148649  0.66859921  0.67377837  1
  Sb  Sb55  1  0.84673058  0.33531936  0.15780940  1
  Sb  Sb56  1  0.33369020  0.66284801  -0.00018308  1
  Sb  Sb57  1  0.49791201  -0.00849735  0.16932852  1
  Sb  Sb58  1  0.16200314  0.50383307  0.66753554  1
  Sb  Sb59  1  0.33308840  -0.00470173  0.33722810  1
  Sb  Sb60  1  0.32658642  0.33957151  0.32653581  1
  Sb  Sb61  1  0.50096028  0.33208579  0.50385251  1
  Sb  Sb62  1  0.66323930  0.16151935  0.16448985  1
  Sb  Sb63  1  0.33514525  0.50285484  0.49951932  1
  Sb  Sb64  1  0.16512148  0.66289875  0.83479313  1
  Sb  Sb65  1  -0.00128426  0.50702120  0.50273726  1
  Sb  Sb66  1  0.16770340  -0.00214580  0.16918903  1
  Sb  Sb67  1  0.67060147  0.82823083  0.50496751  1
  Sb  Sb68  1  0.66519355  -0.00399478  0.67046738  1
  Sb  Sb69  1  0.67357342  0.33689803  0.67037648  1
  Sb  Sb70  1  0.00104347  0.82800691  0.16467135  1
  Sb  Sb71  1  0.83654187  0.66664227  0.16329590  1
  Sb  Sb72  1  0.66710590  0.33940015  -0.00360172  1
  Sb  Sb73  1  -0.00064191  0.00116583  -0.00270157  1
  Sb  Sb74  1  0.50254629  0.50661263  0.66840020  1
  Sb  Sb75  1  0.33099190  0.82842777  0.83201347  1
  Sb  Sb76  1  0.49909759  0.67188534  0.50069747  1
  Sb  Sb77  1  0.66515161  0.66756531  0.33002987  1
  Sb  Sb78  1  0.50183686  -0.00709403  0.83035559  1
  Sb  Sb79  1  0.83618458  0.83064202  0.33675604  1
  Sb  Sb80  1  0.49246885  0.33941704  0.16247592  1
  Sb  Sb81  1  0.48966731  0.16221461  0.66549506  1
  Sb  Sb82  1  0.84018177  0.50553928  -0.00922306  1
  Sb  Sb83  1  0.00538230  -0.00561411  0.66622825  1
  Sb  Sb84  1  0.84359594  0.16192444  0.66845908  1
  Sb  Sb85  1  0.16820453  0.16706713  0.33258921  1
  Sb  Sb86  1  0.83565216  0.16703633  0.33440812  1
  Sb  Sb87  1  0.33482535  0.82800111  0.16619852  1
  Sb  Sb88  1  0.83857663  0.50230060  0.33931733  1
  Sb  Sb89  1  0.84127469  0.16239172  -0.00353719  1
  Sb  Sb90  1  0.66452822  -0.00369898  0.33186482  1
  Sb  Sb91  1  0.32452436  0.83233269  0.50254404  1
  Sb  Sb92  1  0.66863045  0.33638566  0.33192960  1
  Sb  Sb93  1  0.49426601  0.50574206  -0.00061827  1
  Sb  Sb94  1  0.49300841  0.16336256  0.00292460  1
  Sb  Sb95  1  0.00206081  -0.00376782  0.33639020  1
  Sb  Sb96  1  0.66457191  0.50682699  0.16166544  1
  Sb  Sb97  1  0.83468175  -0.00287073  0.16476035  1
  Sb  Sb98  1  0.66240201  0.16679749  0.83518384  1
  Sb  Sb99  1  0.16315708  0.33713145  0.50006228  1
  Sb  Sb100  1  0.33457738  0.00264485  -0.00572126  1
  Sb  Sb101  1  0.67070862  0.16701972  0.50022567  1
  Sb  Sb102  1  0.00686842  0.17143519  0.83217789  1
  Sb  Sb103  1  0.32676483  0.16378066  0.50057803  1
  Sb  Sb104  1  0.84021330  0.33705493  0.50660031  1
  Sb  Sb105  1  -0.00008764  0.66388191  -0.00335718  1
  Sb  Sb106  1  0.16393881  0.00063451  0.82830379  1
  Sb  Sb107  1  0.32570400  0.33808980  0.67619576  1
  Te  Te108  1  0.16703992  0.16271598  0.16603790  1
  Te  Te109  1  0.16180713  0.16690609  0.50126100  1
  Te  Te110  1  0.16943697  0.16726444  0.83429885  1
  Te  Te111  1  0.16452295  0.50252419  0.16720202  1
  Te  Te112  1  0.16695929  0.50584205  0.49618351  1
  Te  Te113  1  0.16497374  0.49782991  0.83186590  1
  Te  Te114  1  0.16695283  0.83043563  0.16643088  1
  Te  Te115  1  0.16321362  0.83075142  0.50232292  1
  Te  Te116  1  0.16374036  0.83338990  0.82956767  1
  Te  Te117  1  0.49616725  0.16810161  0.17165791  1
  Te  Te118  1  0.50132575  0.16307002  0.49627699  1
  Te  Te119  1  0.49350451  0.16780736  0.83410748  1
  Te  Te120  1  0.49906650  0.50592646  0.17001712  1
  Te  Te121  1  0.50530994  0.50027159  0.49637216  1
  Te  Te122  1  0.49798075  0.50348584  0.83340579  1
  Te  Te123  1  0.50127195  0.82816096  0.16735891  1
  Te  Te124  1  0.50307621  0.83553917  0.50137463  1
  Te  Te125  1  0.49722165  0.82947264  0.83329015  1
  Te  Te126  1  0.83672808  0.16658397  0.16614011  1
  Te  Te127  1  0.83881219  0.16192811  0.50036648  1
  Te  Te128  1  0.83208569  0.17215189  0.83275602  1
  Te  Te129  1  0.83769791  0.50017323  0.16611297  1
  Te  Te130  1  0.82928888  0.50450298  0.50651176  1
  Te  Te131  1  0.83659996  0.50229848  0.83147293  1
  Te  Te132  1  0.82841531  0.83347916  0.16575249  1
  Te  Te133  1  0.83679724  0.83114846  0.50137794  1
  Te  Te134  1  0.83650230  0.82824787  0.83064760  1
  Te  Te135  1  0.16735598  -0.00895962  -0.00001826  1
  Te  Te136  1  0.16821456  -0.00657860  0.34179976  1
  Te  Te137  1  0.17051915  -0.00211149  0.66274825  1
  Te  Te138  1  0.16714928  0.33429326  -0.00067311  1
  Te  Te139  1  0.16201294  0.33449438  0.33217453  1
  Te  Te140  1  0.16038908  0.33183685  0.66715421  1
  Te  Te141  1  0.16676151  0.66772614  0.00177640  1
  Te  Te142  1  0.16758382  0.66810988  0.33272812  1
  Te  Te143  1  0.16438878  0.66883560  0.66917265  1
  Te  Te144  1  0.50317438  -0.00679881  -0.00001560  1
  Te  Te145  1  0.49929018  -0.00716445  0.33782319  1
  Te  Te146  1  0.49440357  -0.00397104  0.66246488  1
  Te  Te147  1  0.49828878  0.33242474  -0.00555457  1
  Te  Te148  1  0.49971102  0.33470701  0.33348678  1
  Te  Te149  1  0.49948044  0.33259998  0.67302315  1
  Te  Te150  1  0.49987138  0.66971216  0.00002112  1
  Te  Te151  1  0.49982062  0.66756879  0.33377958  1
  Te  Te152  1  0.49454741  0.66991972  0.66828901  1
  Te  Te153  1  0.82994953  -0.00526490  -0.00285043  1
  Te  Te154  1  0.83242254  -0.00039511  0.34173283  1
  Te  Te155  1  0.83218047  -0.00456818  0.66672124  1
  Te  Te156  1  0.83559491  0.33215491  -0.00833528  1
  Te  Te157  1  0.84076829  0.33361367  0.33215058  1
  Te  Te158  1  0.84055290  0.33129220  0.67316486  1
  Te  Te159  1  0.83056047  0.67199507  -0.00391170  1
  Te  Te160  1  0.83778311  0.66654977  0.33429246  1
  Te  Te161  1  0.83416223  0.67019545  0.66912741  1
  Te  Te162  1  0.00665681  0.17045850  0.00310235  1
  Te  Te163  1  0.00051244  0.16733062  0.33279603  1
  Te  Te164  1  0.00661981  0.16856258  0.66439848  1
  Te  Te165  1  0.00417009  0.49806363  -0.00219851  1
  Te  Te166  1  0.00221612  0.50185096  0.33601657  1
  Te  Te167  1  -0.00311884  0.50172441  0.66895437  1
  Te  Te168  1  0.00433650  0.83266765  -0.00087730  1
  Te  Te169  1  0.00393321  0.82823538  0.33340108  1
  Te  Te170  1  0.00120901  0.83124891  0.66633230  1
  Te  Te171  1  0.32903330  0.16915482  -0.00076732  1
  Te  Te172  1  0.33685444  0.16736698  0.33175859  1
  Te  Te173  1  0.32489090  0.16997467  0.66911405  1
  Te  Te174  1  0.32908676  0.49715234  -0.00047424  1
  Te  Te175  1  0.33225237  0.50374096  0.33307513  1
  Te  Te176  1  0.33382018  0.50569078  0.67114774  1
  Te  Te177  1  0.32616477  0.83493173  -0.00031170  1
  Te  Te178  1  0.33445166  0.82795559  0.33226161  1
  Te  Te179  1  0.33397918  0.82978117  0.66759950  1
  Te  Te180  1  0.66611613  0.16408916  0.00111502  1
  Te  Te181  1  0.65822972  0.16712825  0.33277714  1
  Te  Te182  1  0.66523798  0.16766700  0.66607045  1
  Te  Te183  1  0.66686882  0.50663492  -0.00651601  1
  Te  Te184  1  0.66419435  0.49952844  0.33126449  1
  Te  Te185  1  0.67186249  0.50079719  0.67050235  1
  Te  Te186  1  0.66537769  0.82887128  -0.00480486  1
  Te  Te187  1  0.66169105  0.83294602  0.33376195  1
  Te  Te188  1  0.65888185  0.83420618  0.67265359  1
  Te  Te189  1  -0.00027921  0.00886955  0.16760923  1
  Te  Te190  1  0.00091580  -0.00229265  0.50083345  1
  Te  Te191  1  -0.00686000  -0.00466500  0.83331385  1
  Te  Te192  1  0.00545884  0.33622285  0.16623539  1
  Te  Te193  1  -0.00011120  0.32808843  0.49662543  1
  Te  Te194  1  0.00507666  0.33300008  0.83424010  1
  Te  Te195  1  0.00362309  0.66187704  0.16850932  1
  Te  Te196  1  0.00014701  0.66817697  0.50251193  1
  Te  Te197  1  -0.00116894  0.66497123  0.83186615  1
  Te  Te198  1  0.33347406  0.01091817  0.16644747  1
  Te  Te199  1  0.33490974  0.00024102  0.50539775  1
  Te  Te200  1  0.33318804  0.00557965  0.82719765  1
  Te  Te201  1  0.32828997  0.33616167  0.16199077  1
  Te  Te202  1  0.33357022  0.33320452  0.50081754  1
  Te  Te203  1  0.33002715  0.33624168  0.83629304  1
  Te  Te204  1  0.33247857  0.66291871  0.16745445  1
  Te  Te205  1  0.32929425  0.66597390  0.50031780  1
  Te  Te206  1  0.33631687  0.66211345  0.83143760  1
  Te  Te207  1  0.66653869  -0.00685036  0.16039679  1
  Te  Te208  1  0.66623396  0.00020196  0.50038561  1
  Te  Te209  1  0.67036000  -0.00060465  0.83738707  1
  Te  Te210  1  0.66844687  0.33251301  0.16499546  1
  Te  Te211  1  0.66982962  0.34116952  0.50056706  1
  Te  Te212  1  0.66199985  0.33803367  0.83401138  1
  Te  Te213  1  0.66633294  0.67055839  0.16123297  1
  Te  Te214  1  0.66988255  0.66267738  0.49820816  1
  Te  Te215  1  0.66549977  0.66631774  0.83387862  1
