# generated using pymatgen
data_AgSbTe2
_symmetry_space_group_name_H-M   'P 1'
_cell_length_a   18.32551469
_cell_length_b   18.32158104
_cell_length_c   18.32639624
_cell_angle_alpha   89.99983378
_cell_angle_beta   89.99988232
_cell_angle_gamma   90.00129880
_symmetry_Int_Tables_number   1
_chemical_formula_structural   AgSbTe2
_chemical_formula_sum   'Ag54 Sb54 Te108'
_cell_volume   6153.13156630
_cell_formula_units_Z   54
loop_
 _symmetry_equiv_pos_site_id
 _symmetry_equiv_pos_as_xyz
  1  'x, y, z'
loop_
 _atom_site_type_symbol
 _atom_site_label
 _atom_site_symmetry_multiplicity
 _atom_site_fract_x
 _atom_site_fract_y
 _atom_site_fract_z
 _atom_site_occupancy
  Ag  Ag0  1  0.00396142  0.66261805  0.33682469  1
  Ag  Ag1  1  0.66265971  0.66115999  0.00370533  1
  Ag  Ag2  1  0.00144433  0.82783529  0.49948285  1
  Ag  Ag3  1  0.01148261  0.49793128  0.83722253  1
  Ag  Ag4  1  0.16141580  0.66537495  0.50295681  1
  Ag  Ag5  1  0.16756658  0.18169427  0.33371631  1
  Ag  Ag6  1  0.49628156  0.00161282  0.83920058  1
  Ag  Ag7  1  0.32846922  0.66595684  0.67397265  1
  Ag  Ag8  1  0.83047015  -0.00637248  0.16959851  1
  Ag  Ag9  1  0.49713619  0.82688216  0.32971080  1
  Ag  Ag10  1  0.00667770  0.66636215  0.66205438  1
  Ag  Ag11  1  0.16819845  0.50249754  -0.00266308  1
  Ag  Ag12  1  0.84177072  0.50560000  0.32702218  1
  Ag  Ag13  1  0.83217235  0.16429673  0.66462989  1
  Ag  Ag14  1  0.16693599  0.66668647  0.16939612  1
  Ag  Ag15  1  0.32606481  0.66096511  0.33424693  1
  Ag  Ag16  1  0.66859633  0.16685922  0.50226973  1
  Ag  Ag17  1  0.84043053  0.67010255  0.49714416  1
  Ag  Ag18  1  0.00981920  0.33759142  0.67298511  1
  Ag  Ag19  1  0.33285444  0.82093245  0.83300153  1
  Ag  Ag20  1  0.66522834  0.66709994  0.66737340  1
  Ag  Ag21  1  0.66153258  0.50381813  0.84193031  1
  Ag  Ag22  1  0.17103449  0.34215961  0.83003626  1
  Ag  Ag23  1  0.33546088  0.17123679  0.16471157  1
  Ag  Ag24  1  0.82746484  0.50198090  0.00302760  1
  Ag  Ag25  1  0.01010692  0.33792768  -0.00849393  1
  Ag  Ag26  1  0.16715557  0.82572586  0.66821377  1
  Ag  Ag27  1  0.33342034  0.33383080  -0.00340019  1
  Ag  Ag28  1  0.00228497  0.17901941  0.83171209  1
  Ag  Ag29  1  0.01140211  0.34334187  0.33359545  1
  Ag  Ag30  1  0.16839813  0.82012383  -0.00607938  1
  Ag  Ag31  1  0.49747900  0.17799301  -0.00449553  1
  Ag  Ag32  1  0.16426203  0.50104162  0.32780115  1
  Ag  Ag33  1  0.16552489  0.33697558  0.50045185  1
  Ag  Ag34  1  0.33525622  0.00490409  -0.00014648  1
  Ag  Ag35  1  0.83329122  0.66598299  0.17311809  1
  Ag  Ag36  1  0.67057484  0.66435045  0.32767294  1
  Ag  Ag37  1  0.49432978  0.33545658  0.15686672  1
  Ag  Ag38  1  0.32832654  0.33857596  0.67963258  1
  Ag  Ag39  1  0.17223687  0.65930472  0.83111020  1
  Ag  Ag40  1  0.00075484  0.82665165  0.17186144  1
  Ag  Ag41  1  0.16196794  -0.00664504  0.49969213  1
  Ag  Ag42  1  0.49900957  -0.00275923  0.16037197  1
  Ag  Ag43  1  0.50057771  0.16602458  0.67580632  1
  Ag  Ag44  1  0.50174291  0.66573372  0.16062470  1
  Ag  Ag45  1  0.33076099  0.50244648  0.83457203  1
  Ag  Ag46  1  0.49798775  0.49812232  -0.00225147  1
  Ag  Ag47  1  0.84073808  0.82858542  0.66357064  1
  Ag  Ag48  1  0.49482019  0.82974003  0.66957174  1
  Ag  Ag49  1  0.49146400  0.66263843  0.83610577  1
  Ag  Ag50  1  0.66588464  0.50454410  0.15936044  1
  Ag  Ag51  1  0.48950142  0.34212976  0.83881291  1
  Ag  Ag52  1  0.83896342  -0.00791337  0.49853361  1
  Ag  Ag53  1  0.32828079  0.34096050  0.32999816  1
  Sb  Sb54  1  0.83322600  0.82425596  0.33643792  1
  Sb  Sb55  1  0.16546212  0.50562543  0.67159715  1
  Sb  Sb56  1  0.17135253  0.34149816  0.16666012  1
  Sb  Sb57  1  0.65835914  0.82374070  0.83127123  1
  Sb  Sb58  1  0.66070616  0.17081995  0.16931211  1
  Sb  Sb59  1  0.00491053  0.16591516  0.16463778  1
  Sb  Sb60  1  0.66632154  -0.00401549  0.66651068  1
  Sb  Sb61  1  0.66332241  0.34043967  0.33338444  1
  Sb  Sb62  1  0.33119484  0.83075930  0.16181124  1
  Sb  Sb63  1  0.16973563  0.82403481  0.33605969  1
  Sb  Sb64  1  0.66808648  0.82350696  0.16731157  1
  Sb  Sb65  1  0.67191482  0.83280619  0.50103419  1
  Sb  Sb66  1  0.49890467  0.50379715  0.67741731  1
  Sb  Sb67  1  0.83647122  0.50371878  0.66812186  1
  Sb  Sb68  1  0.33323459  0.17256048  0.83706765  1
  Sb  Sb69  1  0.00041031  -0.00295136  0.66689340  1
  Sb  Sb70  1  0.17283924  0.17180515  0.00320403  1
  Sb  Sb71  1  0.82977035  0.17228334  -0.00349058  1
  Sb  Sb72  1  0.32690829  0.83070059  0.50592323  1
  Sb  Sb73  1  0.00356873  0.50690810  0.50051922  1
  Sb  Sb74  1  0.66002805  0.34187661  -0.00108735  1
  Sb  Sb75  1  0.83413488  0.66480083  0.83186629  1
  Sb  Sb76  1  0.65984847  -0.00652039  0.00167147  1
  Sb  Sb77  1  0.33439662  0.66174680  -0.00270982  1
  Sb  Sb78  1  0.83793641  0.17096663  0.33681664  1
  Sb  Sb79  1  0.33193265  -0.00235602  0.32911934  1
  Sb  Sb80  1  0.82878297  0.00007018  0.83267247  1
  Sb  Sb81  1  0.49265552  0.82880344  -0.00253661  1
  Sb  Sb82  1  0.16790755  0.16911199  0.66420804  1
  Sb  Sb83  1  0.49305767  0.33156450  0.50302133  1
  Sb  Sb84  1  0.00099030  -0.00377519  0.33374083  1
  Sb  Sb85  1  -0.00107724  0.16490721  0.50409627  1
  Sb  Sb86  1  0.84174750  0.33666930  0.50070185  1
  Sb  Sb87  1  0.66418835  0.33782405  0.66821670  1
  Sb  Sb88  1  0.83948345  0.33716614  0.83281768  1
  Sb  Sb89  1  0.49598888  0.50701178  0.32382829  1
  Sb  Sb90  1  0.66377245  0.17374501  0.83000288  1
  Sb  Sb91  1  0.66722133  -0.00644874  0.33297249  1
  Sb  Sb92  1  0.17190847  -0.00062921  0.83080133  1
  Sb  Sb93  1  0.33636168  0.49810751  0.16106030  1
  Sb  Sb94  1  -0.00218147  0.50496922  0.16419686  1
  Sb  Sb95  1  0.84038763  0.82662740  -0.00157792  1
  Sb  Sb96  1  0.00728906  0.82663046  0.83089378  1
  Sb  Sb97  1  0.33366934  0.16786760  0.49727275  1
  Sb  Sb98  1  0.32984596  0.50064291  0.50429649  1
  Sb  Sb99  1  0.83080676  0.33854823  0.16576307  1
  Sb  Sb100  1  0.00500922  0.00320646  0.00041031  1
  Sb  Sb101  1  0.49956652  -0.00132158  0.50087511  1
  Sb  Sb102  1  0.66913624  0.50127737  0.49960033  1
  Sb  Sb103  1  0.49603783  0.16565387  0.33090532  1
  Sb  Sb104  1  0.33426019  -0.00156942  0.67228630  1
  Sb  Sb105  1  0.49899639  0.66770306  0.50208410  1
  Sb  Sb106  1  0.00171311  0.65946084  -0.00002341  1
  Sb  Sb107  1  0.16871654  -0.00635331  0.17001306  1
  Te  Te108  1  0.17209613  0.16278019  0.17175948  1
  Te  Te109  1  0.16626150  0.17044842  0.49617356  1
  Te  Te110  1  0.16184001  0.16805596  0.83345287  1
  Te  Te111  1  0.16700032  0.50766063  0.16435355  1
  Te  Te112  1  0.16665815  0.50031124  0.49103582  1
  Te  Te113  1  0.16849736  0.49979619  0.83459387  1
  Te  Te114  1  0.16286162  0.82797330  0.16420680  1
  Te  Te115  1  0.16209545  0.82905725  0.50256930  1
  Te  Te116  1  0.17133408  0.83328341  0.83168626  1
  Te  Te117  1  0.49681398  0.16654723  0.16455712  1
  Te  Te118  1  0.50526307  0.16437589  0.50323799  1
  Te  Te119  1  0.49975516  0.16597287  0.83434345  1
  Te  Te120  1  0.50294345  0.50407240  0.16029449  1
  Te  Te121  1  0.50079884  0.49837327  0.49880472  1
  Te  Te122  1  0.49755444  0.50194055  0.83712602  1
  Te  Te123  1  0.50017631  0.83094076  0.16706918  1
  Te  Te124  1  0.50019017  0.83576644  0.50626944  1
  Te  Te125  1  0.49472808  0.82838933  0.83056797  1
  Te  Te126  1  0.83198665  0.16215324  0.16676910  1
  Te  Te127  1  0.83182101  0.16576760  0.50404084  1
  Te  Te128  1  0.83508236  0.16696239  0.82725832  1
  Te  Te129  1  0.82970298  0.50392455  0.16547547  1
  Te  Te130  1  0.83448310  0.50678340  0.49443559  1
  Te  Te131  1  0.82829747  0.50033416  0.83932890  1
  Te  Te132  1  0.83755182  0.83223039  0.16630430  1
  Te  Te133  1  0.83759854  0.83234099  0.50237054  1
  Te  Te134  1  0.83413097  0.83455904  0.82593645  1
  Te  Te135  1  0.17310812  0.00153277  0.00068618  1
  Te  Te136  1  0.16683565  0.00184571  0.33894009  1
  Te  Te137  1  0.16788532  -0.00535668  0.66085252  1
  Te  Te138  1  0.16866647  0.33629698  -0.00023022  1
  Te  Te139  1  0.16772034  0.33780856  0.32822488  1
  Te  Te140  1  0.16797780  0.33246265  0.66806278  1
  Te  Te141  1  0.16720849  0.66381042  -0.00150985  1
  Te  Te142  1  0.16544743  0.66468503  0.33265357  1
  Te  Te143  1  0.16785825  0.66638184  0.66689312  1
  Te  Te144  1  0.49674266  -0.00431176  0.00060756  1
  Te  Te145  1  0.50011078  -0.00553458  0.32836955  1
  Te  Te146  1  0.50006679  0.00006514  0.66980723  1
  Te  Te147  1  0.49799222  0.33576769  -0.00101659  1
  Te  Te148  1  0.49340838  0.33431886  0.33248854  1
  Te  Te149  1  0.49572265  0.33046292  0.66936866  1
  Te  Te150  1  0.50082298  0.66427379  -0.00074577  1
  Te  Te151  1  0.49744131  0.66895275  0.33512896  1
  Te  Te152  1  0.49669449  0.66886592  0.66789372  1
  Te  Te153  1  0.83204252  0.00016508  0.00504502  1
  Te  Te154  1  0.83344612  0.00126462  0.33274217  1
  Te  Te155  1  0.83313462  0.00010215  0.66382050  1
  Te  Te156  1  0.83871822  0.33935089  0.00114917  1
  Te  Te157  1  0.83585772  0.34079282  0.33310351  1
  Te  Te158  1  0.83615204  0.32949463  0.66504151  1
  Te  Te159  1  0.83102846  0.66276295  0.00398745  1
  Te  Te160  1  0.83519160  0.66566205  0.33284000  1
  Te  Te161  1  0.83589250  0.66819993  0.66459043  1
  Te  Te162  1  -0.00111444  0.17334904  -0.00383376  1
  Te  Te163  1  0.00539803  0.17045396  0.33345942  1
  Te  Te164  1  -0.00101680  0.16904242  0.67050920  1
  Te  Te165  1  0.00469599  0.49588782  -0.00191385  1
  Te  Te166  1  0.00135057  0.50218223  0.33195462  1
  Te  Te167  1  -0.00153041  0.49878806  0.67364181  1
  Te  Te168  1  0.00830425  0.83480451  0.00068484  1
  Te  Te169  1  0.00058134  0.82833114  0.33312277  1
  Te  Te170  1  0.00160631  0.82955016  0.66578152  1
  Te  Te171  1  0.33814410  0.16920749  0.00304005  1
  Te  Te172  1  0.33035271  0.16821353  0.32865260  1
  Te  Te173  1  0.33873065  0.17004019  0.66581899  1
  Te  Te174  1  0.33303631  0.49574403  -0.00423446  1
  Te  Te175  1  0.32953074  0.50122649  0.33382153  1
  Te  Te176  1  0.33307991  0.49963096  0.67171928  1
  Te  Te177  1  0.32639769  0.83578293  -0.00502424  1
  Te  Te178  1  0.33776355  0.82914840  0.33373781  1
  Te  Te179  1  0.33300138  0.83124139  0.67128427  1
  Te  Te180  1  0.65953583  0.16607980  -0.00066310  1
  Te  Te181  1  0.66703143  0.16813103  0.33855711  1
  Te  Te182  1  0.66592064  0.16734438  0.66460948  1
  Te  Te183  1  0.66662133  0.50269056  -0.00028875  1
  Te  Te184  1  0.66774241  0.50594785  0.33186254  1
  Te  Te185  1  0.66830371  0.50663429  0.66875257  1
  Te  Te186  1  0.67031914  0.82334518  -0.00110192  1
  Te  Te187  1  0.65862446  0.82529934  0.33457897  1
  Te  Te188  1  0.66489904  0.82741220  0.66589487  1
  Te  Te189  1  -0.00449824  -0.00530421  0.16626431  1
  Te  Te190  1  -0.00076552  -0.00566693  0.49998511  1
  Te  Te191  1  -0.00140477  0.00486775  0.83506866  1
  Te  Te192  1  -0.00075284  0.33117543  0.17160554  1
  Te  Te193  1  0.00654821  0.33279372  0.49921211  1
  Te  Te194  1  0.00198306  0.33677778  0.83237524  1
  Te  Te195  1  -0.00018729  0.66867221  0.16635833  1
  Te  Te196  1  0.00076446  0.66743372  0.50114650  1
  Te  Te197  1  0.00506221  0.66126051  0.83018478  1
  Te  Te198  1  0.33701932  0.00140089  0.16210530  1
  Te  Te199  1  0.32582787  -0.00060655  0.49888285  1
  Te  Te200  1  0.33791641  0.00059154  0.83879262  1
  Te  Te201  1  0.33638841  0.33211178  0.16644938  1
  Te  Te202  1  0.32522176  0.33415272  0.49447917  1
  Te  Te203  1  0.33144138  0.33378524  0.83561567  1
  Te  Te204  1  0.33483802  0.66579130  0.17079661  1
  Te  Te205  1  0.32774474  0.66654825  0.49900280  1
  Te  Te206  1  0.33192322  0.66398242  0.83360791  1
  Te  Te207  1  0.66582636  0.00132975  0.16709621  1
  Te  Te208  1  0.67276336  0.00455979  0.49913370  1
  Te  Te209  1  0.65788759  0.00038854  0.83471557  1
  Te  Te210  1  0.65887876  0.33999899  0.16789934  1
  Te  Te211  1  0.66788721  0.32898506  0.50035141  1
  Te  Te212  1  0.65915263  0.34174973  0.83214421  1
  Te  Te213  1  0.66470514  0.66379053  0.16792323  1
  Te  Te214  1  0.67070476  0.66671833  0.50311049  1
  Te  Te215  1  0.66626521  0.66238762  0.83074503  1
