# generated using pymatgen
data_AgSbTe2
_symmetry_space_group_name_H-M   'P 1'
_cell_length_a   18.33920512
_cell_length_b   18.34007839
_cell_length_c   18.34846947
_cell_angle_alpha   90.00033955
_cell_angle_beta   90.00031286
_cell_angle_gamma   90.00028582
_symmetry_Int_Tables_number   1
_chemical_formula_structural   AgSbTe2
_chemical_formula_sum   'Ag54 Sb54 Te108'
_cell_volume   6171.36934739
_cell_formula_units_Z   54
loop_
 _symmetry_equiv_pos_site_id
 _symmetry_equiv_pos_as_xyz
  1  'x, y, z'
loop_
 _atom_site_type_symbol
 _atom_site_label
 _atom_site_symmetry_multiplicity
 _atom_site_fract_x
 _atom_site_fract_y
 _atom_site_fract_z
 _atom_site_occupancy
  Ag  Ag0  1  0.00451560  0.17730820  0.16745820  1
  Ag  Ag1  1  0.50236931  0.50545320  0.33750687  1
  Ag  Ag2  1  0.48687471  0.83030811  0.33461037  1
  Ag  Ag3  1  0.66630351  0.00227527  0.66647790  1
  Ag  Ag4  1  -0.00963228  0.66000082  -0.00297057  1
  Ag  Ag5  1  0.66771268  0.16861959  0.50311165  1
  Ag  Ag6  1  0.16013332  0.50303539  0.33695003  1
  Ag  Ag7  1  0.32673320  0.33478730  0.66028857  1
  Ag  Ag8  1  0.34055427  0.49483762  0.83226146  1
  Ag  Ag9  1  0.00144595  0.82080778  0.49587347  1
  Ag  Ag10  1  0.33155709  -0.01202316  0.32975564  1
  Ag  Ag11  1  0.83174961  0.50259988  0.65573785  1
  Ag  Ag12  1  0.32793418  0.16138535  0.16460857  1
  Ag  Ag13  1  0.67511912  0.50092791  0.17665025  1
  Ag  Ag14  1  0.17346950  0.82744243  0.33783286  1
  Ag  Ag15  1  -0.00334309  0.34228530  0.01284109  1
  Ag  Ag16  1  -0.00755363  0.50248075  0.49618512  1
  Ag  Ag17  1  0.83580653  0.50247413  0.34055236  1
  Ag  Ag18  1  0.66114666  -0.00277977  -0.00366236  1
  Ag  Ag19  1  0.83387888  0.50275818  0.00035184  1
  Ag  Ag20  1  0.17021944  -0.00418844  0.49672764  1
  Ag  Ag21  1  0.84211903  0.34640142  0.49998261  1
  Ag  Ag22  1  0.15720408  0.66405860  0.49722191  1
  Ag  Ag23  1  0.32227946  0.83441204  0.49197905  1
  Ag  Ag24  1  0.83410388  0.82086460  0.00279242  1
  Ag  Ag25  1  0.83749480  0.66061185  0.50247624  1
  Ag  Ag26  1  0.32505806  0.33708118  0.33768206  1
  Ag  Ag27  1  0.49454448  -0.00049703  0.17097352  1
  Ag  Ag28  1  0.51238770  0.49986563  0.65925381  1
  Ag  Ag29  1  0.83397818  0.34437961  0.83049764  1
  Ag  Ag30  1  0.33581119  0.17005887  0.83666846  1
  Ag  Ag31  1  0.83914245  0.34022798  0.17130656  1
  Ag  Ag32  1  0.67599426  0.66460677  0.00286756  1
  Ag  Ag33  1  0.49679656  -0.00245968  0.49728929  1
  Ag  Ag34  1  0.33474440  0.84223895  0.18083758  1
  Ag  Ag35  1  0.16755811  0.16999321  0.66611026  1
  Ag  Ag36  1  -0.00592675  0.65796410  0.65512858  1
  Ag  Ag37  1  0.00164937  0.34178851  0.33626058  1
  Ag  Ag38  1  0.67856928  0.49885538  0.49682575  1
  Ag  Ag39  1  -0.00915246  0.49486630  0.17956269  1
  Ag  Ag40  1  0.50237411  0.00186054  0.83443257  1
  Ag  Ag41  1  0.66436058  0.16682400  0.83119236  1
  Ag  Ag42  1  0.83689469  0.82246833  0.33736761  1
  Ag  Ag43  1  0.33750188  -0.00281910  0.01146036  1
  Ag  Ag44  1  0.67086260  0.66238746  0.33200561  1
  Ag  Ag45  1  0.83256183  0.66192593  0.83425159  1
  Ag  Ag46  1  0.67321638  0.49866843  0.83045672  1
  Ag  Ag47  1  0.33426902  0.67484318  0.33270686  1
  Ag  Ag48  1  0.33197498  0.66980446  0.00618973  1
  Ag  Ag49  1  0.16808805  0.16648652  -0.00268006  1
  Ag  Ag50  1  0.83414009  0.82025222  0.65647419  1
  Ag  Ag51  1  0.16031225  0.33561549  0.49958128  1
  Ag  Ag52  1  0.00881467  -0.00101036  0.33514649  1
  Ag  Ag53  1  -0.00142681  0.33936024  0.65428177  1
  Sb  Sb54  1  0.33358590  0.49920305  0.16830398  1
  Sb  Sb55  1  0.50166779  0.33144048  0.17091041  1
  Sb  Sb56  1  0.16228816  0.33445300  0.82777422  1
  Sb  Sb57  1  0.33349855  0.16388296  0.49847015  1
  Sb  Sb58  1  0.16476395  0.83503658  0.00775823  1
  Sb  Sb59  1  0.66685956  0.16918136  0.16526500  1
  Sb  Sb60  1  0.50527222  0.66813262  0.83311895  1
  Sb  Sb61  1  0.33829289  0.00354875  0.66366413  1
  Sb  Sb62  1  0.49683984  0.16393390  0.33452138  1
  Sb  Sb63  1  -0.00139884  0.66331510  0.33505435  1
  Sb  Sb64  1  0.50204848  0.66785082  0.49745145  1
  Sb  Sb65  1  0.50263625  0.33242020  0.83170661  1
  Sb  Sb66  1  0.50666035  0.50279299  0.00240460  1
  Sb  Sb67  1  0.83624806  0.17201393  0.66654185  1
  Sb  Sb68  1  0.16229006  0.66253981  0.82912726  1
  Sb  Sb69  1  -0.00015463  0.17043708  0.83701526  1
  Sb  Sb70  1  0.49445590  0.16378201  -0.00138501  1
  Sb  Sb71  1  0.49973565  0.33264408  0.49954288  1
  Sb  Sb72  1  0.00120496  0.82958547  0.17497356  1
  Sb  Sb73  1  0.67087391  0.82995475  0.49824590  1
  Sb  Sb74  1  0.67163641  0.34206255  0.33495623  1
  Sb  Sb75  1  0.16077879  0.33206249  0.17417394  1
  Sb  Sb76  1  0.32710205  0.66138898  0.66210970  1
  Sb  Sb77  1  0.16674015  0.16762292  0.33562041  1
  Sb  Sb78  1  0.82953231  0.00293905  0.16743543  1
  Sb  Sb79  1  0.50289767  0.83541059  0.00633005  1
  Sb  Sb80  1  -0.00671260  0.49898089  0.82964561  1
  Sb  Sb81  1  0.32432766  0.33189800  0.00083530  1
  Sb  Sb82  1  0.66261865  -0.00661118  0.33433834  1
  Sb  Sb83  1  0.66883780  0.83213448  0.83426050  1
  Sb  Sb84  1  0.16074751  0.49874074  0.00430192  1
  Sb  Sb85  1  0.83483761  0.17222249  0.33446322  1
  Sb  Sb86  1  0.49841830  0.17089267  0.66645669  1
  Sb  Sb87  1  0.83562052  0.65856664  0.16751215  1
  Sb  Sb88  1  0.66496208  0.82820316  0.16812139  1
  Sb  Sb89  1  -0.00333262  0.83173709  0.82759229  1
  Sb  Sb90  1  0.50408859  0.83140153  0.65978223  1
  Sb  Sb91  1  0.16148636  0.49610271  0.65977606  1
  Sb  Sb92  1  0.82726726  -0.00133162  0.83331128  1
  Sb  Sb93  1  0.00051724  -0.00097903  0.00799477  1
  Sb  Sb94  1  0.67060684  0.33358886  0.66530756  1
  Sb  Sb95  1  0.67419328  0.66533130  0.66545915  1
  Sb  Sb96  1  0.83658598  0.17004470  -0.00088995  1
  Sb  Sb97  1  0.33248685  0.50249783  0.49843423  1
  Sb  Sb98  1  -0.00352031  0.00151167  0.65825707  1
  Sb  Sb99  1  -0.00160328  0.17167383  0.49532714  1
  Sb  Sb100  1  0.83307165  -0.00265469  0.49863709  1
  Sb  Sb101  1  0.49946035  0.66972592  0.16985882  1
  Sb  Sb102  1  0.17208376  0.00180385  0.17398586  1
  Sb  Sb103  1  0.67556095  0.33699063  -0.00186302  1
  Sb  Sb104  1  0.33498337  0.83465352  0.83389880  1
  Sb  Sb105  1  0.16128928  0.83678516  0.65658996  1
  Sb  Sb106  1  0.17253263  0.00302611  0.82834181  1
  Sb  Sb107  1  0.16631343  0.66600365  0.17543411  1
  Te  Te108  1  0.16669146  0.16674353  0.16201469  1
  Te  Te109  1  0.16647457  0.17035080  0.50382474  1
  Te  Te110  1  0.17171595  0.16751004  0.83239190  1
  Te  Te111  1  0.16221864  0.49915382  0.17379407  1
  Te  Te112  1  0.16632710  0.49925861  0.49615361  1
  Te  Te113  1  0.17950897  0.49953269  0.83454392  1
  Te  Te114  1  0.17242927  0.83368579  0.17596451  1
  Te  Te115  1  0.16283042  0.83446777  0.49645908  1
  Te  Te116  1  0.16647558  0.83294816  0.83248665  1
  Te  Te117  1  0.49674639  0.16177784  0.16681060  1
  Te  Te118  1  0.50704469  0.16109389  0.50091695  1
  Te  Te119  1  0.50131518  0.16310808  0.83240771  1
  Te  Te120  1  0.50596299  0.49906941  0.17250675  1
  Te  Te121  1  0.50099632  0.50008929  0.49904467  1
  Te  Te122  1  0.50193098  0.50034216  0.83276989  1
  Te  Te123  1  0.49607720  0.83841551  0.17318853  1
  Te  Te124  1  0.50104149  0.83635667  0.49533218  1
  Te  Te125  1  0.50046748  0.84056628  0.83005277  1
  Te  Te126  1  0.83663522  0.17462177  0.16664288  1
  Te  Te127  1  0.82707680  0.16849833  0.50105623  1
  Te  Te128  1  0.82687804  0.16873155  0.83286816  1
  Te  Te129  1  0.83382115  0.49706381  0.16287960  1
  Te  Te130  1  0.83466079  0.50098592  0.50017061  1
  Te  Te131  1  0.83249968  0.50122860  0.84000995  1
  Te  Te132  1  0.83328818  0.83548521  0.16633810  1
  Te  Te133  1  0.83760149  0.83137081  0.49874102  1
  Te  Te134  1  0.83392021  0.82771840  0.83832682  1
  Te  Te135  1  0.17107567  0.00256036  -0.00252015  1
  Te  Te136  1  0.16970288  0.00150327  0.33831136  1
  Te  Te137  1  0.16638719  0.00523555  0.65999309  1
  Te  Te138  1  0.15699991  0.32985110  -0.00206889  1
  Te  Te139  1  0.16362167  0.33401303  0.33852982  1
  Te  Te140  1  0.16509382  0.33126498  0.66203193  1
  Te  Te141  1  0.17306942  0.66742955  -0.00210085  1
  Te  Te142  1  0.16991862  0.66545882  0.33866432  1
  Te  Te143  1  0.15709181  0.66805408  0.66046933  1
  Te  Te144  1  0.49873869  -0.00118412  -0.00046461  1
  Te  Te145  1  0.49760632  -0.00343880  0.33448281  1
  Te  Te146  1  0.50530714  -0.00088375  0.66250727  1
  Te  Te147  1  0.49959856  0.33379568  0.00147474  1
  Te  Te148  1  0.49389880  0.33807457  0.33378326  1
  Te  Te149  1  0.49156703  0.34127847  0.66683003  1
  Te  Te150  1  0.49019855  0.66870882  -0.00042069  1
  Te  Te151  1  0.49717764  0.66711066  0.33375894  1
  Te  Te152  1  0.49947503  0.65947482  0.66642726  1
  Te  Te153  1  0.82977335  -0.00214880  0.00031667  1
  Te  Te154  1  0.83225144  -0.00091463  0.33247184  1
  Te  Te155  1  0.82763385  -0.00099615  0.66708998  1
  Te  Te156  1  0.83909206  0.33613505  -0.00312595  1
  Te  Te157  1  0.83740609  0.33834391  0.33592911  1
  Te  Te158  1  0.83662036  0.33763684  0.66491324  1
  Te  Te159  1  0.83266641  0.66441699  0.00383485  1
  Te  Te160  1  0.83249314  0.66306650  0.33450180  1
  Te  Te161  1  0.83492814  0.66404142  0.66607283  1
  Te  Te162  1  0.00501016  0.16610380  0.00474854  1
  Te  Te163  1  0.00005154  0.16267779  0.32783915  1
  Te  Te164  1  0.00449857  0.16993875  0.66838222  1
  Te  Te165  1  -0.00164053  0.49985896  -0.00374266  1
  Te  Te166  1  -0.00073671  0.50107249  0.33546016  1
  Te  Te167  1  -0.00377729  0.49894949  0.66375561  1
  Te  Te168  1  -0.00336080  0.83029945  0.00168215  1
  Te  Te169  1  -0.00322424  0.83448315  0.33564860  1
  Te  Te170  1  -0.00634322  0.83321799  0.65965096  1
  Te  Te171  1  0.32886510  0.16551493  -0.00052878  1
  Te  Te172  1  0.33256673  0.17359750  0.33025749  1
  Te  Te173  1  0.33113970  0.17137740  0.66898821  1
  Te  Te174  1  0.33354830  0.50119674  -0.00072016  1
  Te  Te175  1  0.33433738  0.49742601  0.33192717  1
  Te  Te176  1  0.33009400  0.49583359  0.66892538  1
  Te  Te177  1  0.33288016  0.83546595  0.00149822  1
  Te  Te178  1  0.33118486  0.83201223  0.33634532  1
  Te  Te179  1  0.33392404  0.83225649  0.66128814  1
  Te  Te180  1  0.66676071  0.16390402  -0.00312575  1
  Te  Te181  1  0.66595041  0.16649024  0.33568079  1
  Te  Te182  1  0.66605324  0.16546093  0.66852303  1
  Te  Te183  1  0.66969866  0.50333058  -0.00531816  1
  Te  Te184  1  0.66813672  0.50254277  0.33584280  1
  Te  Te185  1  0.66957488  0.50012592  0.66791072  1
  Te  Te186  1  0.67048060  0.83037511  0.00126815  1
  Te  Te187  1  0.67677124  0.82518509  0.33269334  1
  Te  Te188  1  0.67275709  0.83754371  0.66638135  1
  Te  Te189  1  -0.00099418  0.00097185  0.17377985  1
  Te  Te190  1  0.00281155  0.00341900  0.49445183  1
  Te  Te191  1  0.00047342  0.00096614  0.83350560  1
  Te  Te192  1  -0.00148221  0.33546157  0.17056689  1
  Te  Te193  1  0.00022774  0.33320793  0.49712963  1
  Te  Te194  1  -0.00580589  0.33203005  0.82984116  1
  Te  Te195  1  0.00281417  0.66240625  0.15569509  1
  Te  Te196  1  -0.00134418  0.66349044  0.49825305  1
  Te  Te197  1  -0.00488538  0.66648618  0.83694835  1
  Te  Te198  1  0.33459959  0.00135691  0.16894662  1
  Te  Te199  1  0.33387285  -0.00140852  0.49684953  1
  Te  Te200  1  0.33942317  0.00351089  0.83272575  1
  Te  Te201  1  0.33303699  0.32880156  0.16953920  1
  Te  Te202  1  0.33214148  0.33204663  0.50005825  1
  Te  Te203  1  0.33377817  0.33119315  0.83363961  1
  Te  Te204  1  0.33279380  0.66750249  0.16823685  1
  Te  Te205  1  0.33192876  0.67099622  0.49598969  1
  Te  Te206  1  0.33427711  0.66490915  0.83184756  1
  Te  Te207  1  0.66091850  0.00155094  0.16183972  1
  Te  Te208  1  0.66482065  0.00076771  0.50070476  1
  Te  Te209  1  0.66328960  0.00123034  0.83590506  1
  Te  Te210  1  0.67214559  0.33802189  0.16642502  1
  Te  Te211  1  0.66790954  0.33441160  0.50071405  1
  Te  Te212  1  0.67044649  0.33367134  0.83223133  1
  Te  Te213  1  0.66464563  0.66108447  0.16505157  1
  Te  Te214  1  0.67071565  0.66166258  0.49715694  1
  Te  Te215  1  0.67082982  0.66258929  0.83732140  1
