# generated using pymatgen
data_AgSbTe2
_symmetry_space_group_name_H-M   'P 1'
_cell_length_a   18.37172676
_cell_length_b   18.37962408
_cell_length_c   18.35962792
_cell_angle_alpha   90.00132376
_cell_angle_beta   90.00350744
_cell_angle_gamma   90.00187916
_symmetry_Int_Tables_number   1
_chemical_formula_structural   AgSbTe2
_chemical_formula_sum   'Ag54 Sb54 Te108'
_cell_volume   6199.41166790
_cell_formula_units_Z   54
loop_
 _symmetry_equiv_pos_site_id
 _symmetry_equiv_pos_as_xyz
  1  'x, y, z'
loop_
 _atom_site_type_symbol
 _atom_site_label
 _atom_site_symmetry_multiplicity
 _atom_site_fract_x
 _atom_site_fract_y
 _atom_site_fract_z
 _atom_site_occupancy
  Ag  Ag0  1  -0.00316814  0.84049075  0.82969079  1
  Ag  Ag1  1  0.48793495  0.65642336  0.49090168  1
  Ag  Ag2  1  0.48983950  0.33015501  0.17432628  1
  Ag  Ag3  1  -0.00061737  0.83065271  0.49919671  1
  Ag  Ag4  1  0.49872932  0.65803894  0.83194042  1
  Ag  Ag5  1  0.33369498  0.33249382  0.66270686  1
  Ag  Ag6  1  0.83145528  0.66980831  0.83183714  1
  Ag  Ag7  1  0.83843689  -0.00407351  0.83172702  1
  Ag  Ag8  1  0.16949886  0.16913428  0.65760340  1
  Ag  Ag9  1  0.48425544  0.33929137  0.49419331  1
  Ag  Ag10  1  0.49129776  0.49708481  0.33679755  1
  Ag  Ag11  1  0.17152655  0.66025081  0.49637883  1
  Ag  Ag12  1  0.49121995  0.17441750  0.33054299  1
  Ag  Ag13  1  0.33646853  0.49123801  0.49731860  1
  Ag  Ag14  1  0.48843818  0.33759755  0.83393867  1
  Ag  Ag15  1  -0.00023145  0.66905907  -0.00186320  1
  Ag  Ag16  1  0.67473062  0.83411872  0.83504146  1
  Ag  Ag17  1  0.18208979  0.33118516  0.18354225  1
  Ag  Ag18  1  0.33287159  0.33342551  0.33409504  1
  Ag  Ag19  1  0.83326397  0.50472007  0.33758342  1
  Ag  Ag20  1  0.33915400  0.48711824  0.83197202  1
  Ag  Ag21  1  0.83915482  -0.00050943  0.49576527  1
  Ag  Ag22  1  0.00976813  0.17850285  0.49734381  1
  Ag  Ag23  1  0.49954843  0.83039531  0.33673233  1
  Ag  Ag24  1  0.18034782  0.32486682  0.82792023  1
  Ag  Ag25  1  0.49146796  0.17279003  0.00802754  1
  Ag  Ag26  1  0.34238313  0.65929130  0.33795578  1
  Ag  Ag27  1  0.83616424  0.33233576  0.82905646  1
  Ag  Ag28  1  0.16933949  0.00771649  0.83395646  1
  Ag  Ag29  1  0.49386618  0.49032821  -0.00673686  1
  Ag  Ag30  1  0.49436813  0.49777878  0.66080998  1
  Ag  Ag31  1  0.32971982  0.83063474  0.49522191  1
  Ag  Ag32  1  0.33823404  0.01968530  0.33286293  1
  Ag  Ag33  1  0.33484364  0.32703596  0.00210216  1
  Ag  Ag34  1  0.65117818  0.16572355  0.17022371  1
  Ag  Ag35  1  0.65708012  -0.00355321  0.33364850  1
  Ag  Ag36  1  0.83430806  0.00188926  0.17960267  1
  Ag  Ag37  1  -0.00203321  0.66207861  0.34467946  1
  Ag  Ag38  1  0.33589210  0.48319820  0.18072022  1
  Ag  Ag39  1  0.84153702  0.33549696  0.49666351  1
  Ag  Ag40  1  0.17812285  0.17009034  0.33836285  1
  Ag  Ag41  1  0.65954994  0.67122950  0.33617418  1
  Ag  Ag42  1  0.00082800  -0.00128321  -0.01007825  1
  Ag  Ag43  1  0.00430061  0.49725042  0.49645736  1
  Ag  Ag44  1  0.17157290  0.33177734  0.50008257  1
  Ag  Ag45  1  0.83761415  0.66481374  0.49088401  1
  Ag  Ag46  1  0.33395302  0.17489671  0.17512276  1
  Ag  Ag47  1  0.33400562  0.17775446  0.83498538  1
  Ag  Ag48  1  0.48927001  0.00371747  0.83461911  1
  Ag  Ag49  1  0.32823014  0.17963404  0.48833268  1
  Ag  Ag50  1  0.83139333  0.82883681  0.33886222  1
  Ag  Ag51  1  -0.00007825  0.00090607  0.66902022  1
  Ag  Ag52  1  0.33464296  0.00996853  0.00009297  1
  Ag  Ag53  1  0.01113818  0.33658217  0.34060834  1
  Sb  Sb54  1  0.65915017  0.16394039  0.83774086  1
  Sb  Sb55  1  0.66793303  0.66706972  0.00273802  1
  Sb  Sb56  1  0.16830704  0.65756938  0.17798708  1
  Sb  Sb57  1  0.83034925  0.49853657  0.65899329  1
  Sb  Sb58  1  0.17513629  0.16765481  -0.00006244  1
  Sb  Sb59  1  0.65995611  0.50249416  0.83419522  1
  Sb  Sb60  1  0.65862658  0.49305735  0.17228775  1
  Sb  Sb61  1  0.65992199  0.33296504  0.66646530  1
  Sb  Sb62  1  0.83205784  0.16632734  0.33516584  1
  Sb  Sb63  1  0.83303560  0.32968367  0.17132528  1
  Sb  Sb64  1  0.49122160  0.17177840  0.66463497  1
  Sb  Sb65  1  0.33167098  0.66503874  0.00290352  1
  Sb  Sb66  1  0.33495780  0.65837898  0.65735426  1
  Sb  Sb67  1  0.17204269  0.49124879  0.33795367  1
  Sb  Sb68  1  0.65474531  0.33208728  -0.00148244  1
  Sb  Sb69  1  0.66266362  0.16735245  0.49396827  1
  Sb  Sb70  1  0.16587543  0.83505182  -0.00231495  1
  Sb  Sb71  1  0.33014153  0.00693262  0.66426030  1
  Sb  Sb72  1  0.67006206  -0.00005570  0.66440080  1
  Sb  Sb73  1  0.83461692  0.83346802  0.66292502  1
  Sb  Sb74  1  0.50121854  0.00861421  0.16696509  1
  Sb  Sb75  1  0.00527314  0.16661335  0.17256774  1
  Sb  Sb76  1  0.16596547  0.00672755  0.16438737  1
  Sb  Sb77  1  0.83429969  0.67035855  0.17247951  1
  Sb  Sb78  1  0.00652476  0.33184112  0.00078892  1
  Sb  Sb79  1  0.66070495  0.50045230  0.49597236  1
  Sb  Sb80  1  0.49854845  0.65785141  0.17227220  1
  Sb  Sb81  1  0.00145863  0.00133762  0.33822562  1
  Sb  Sb82  1  0.17225240  0.49307345  0.66281601  1
  Sb  Sb83  1  0.33277221  0.83536144  0.82822439  1
  Sb  Sb84  1  -0.00032055  0.67042280  0.66143719  1
  Sb  Sb85  1  0.49841691  0.00140652  0.49925532  1
  Sb  Sb86  1  0.16538118  0.84000934  0.66328301  1
  Sb  Sb87  1  0.17292286  0.49829563  -0.00163906  1
  Sb  Sb88  1  0.66552768  0.00126325  0.00202332  1
  Sb  Sb89  1  0.66051532  0.33196873  0.33462042  1
  Sb  Sb90  1  0.49719936  0.83500151  0.00144280  1
  Sb  Sb91  1  0.83001143  0.49947019  0.00162789  1
  Sb  Sb92  1  0.00546245  0.49973048  0.17561484  1
  Sb  Sb93  1  0.16830424  0.66644212  0.82767380  1
  Sb  Sb94  1  0.33613916  0.83841303  0.17569585  1
  Sb  Sb95  1  0.00210925  0.50218957  0.82809120  1
  Sb  Sb96  1  0.16861089  0.83708900  0.33766198  1
  Sb  Sb97  1  0.00612521  0.16207426  0.82899306  1
  Sb  Sb98  1  0.83565646  0.83498712  -0.00078555  1
  Sb  Sb99  1  -0.00062216  0.83488252  0.17005816  1
  Sb  Sb100  1  0.66807925  0.83229201  0.49881295  1
  Sb  Sb101  1  0.16394110  0.00737629  0.50228972  1
  Sb  Sb102  1  0.82995244  0.16568606  -0.00131041  1
  Sb  Sb103  1  0.49748423  0.82936422  0.66350064  1
  Sb  Sb104  1  0.00684945  0.32921517  0.66063242  1
  Sb  Sb105  1  0.66673575  0.83822455  0.16886209  1
  Sb  Sb106  1  0.66534865  0.66674438  0.66208111  1
  Sb  Sb107  1  0.84081279  0.16686728  0.66521140  1
  Te  Te108  1  0.17179074  0.17199121  0.17215497  1
  Te  Te109  1  0.16883698  0.16803922  0.49822457  1
  Te  Te110  1  0.16870157  0.16633143  0.83444918  1
  Te  Te111  1  0.17477427  0.49068776  0.16491604  1
  Te  Te112  1  0.16651822  0.49877575  0.50089193  1
  Te  Te113  1  0.17168919  0.49811218  0.83040994  1
  Te  Te114  1  0.16734392  0.83275372  0.16665982  1
  Te  Te115  1  0.16424315  0.82925700  0.50003967  1
  Te  Te116  1  0.15976474  0.83483264  0.83079286  1
  Te  Te117  1  0.49393489  0.16880825  0.16789475  1
  Te  Te118  1  0.49486541  0.17029096  0.49657783  1
  Te  Te119  1  0.49729104  0.16644028  0.83132308  1
  Te  Te120  1  0.49451691  0.49321028  0.17238937  1
  Te  Te121  1  0.49841757  0.49905555  0.49702714  1
  Te  Te122  1  0.49941475  0.49879353  0.83419694  1
  Te  Te123  1  0.50129542  0.83236320  0.17408926  1
  Te  Te124  1  0.50022147  0.83191898  0.49614318  1
  Te  Te125  1  0.49844532  0.83740802  0.83284334  1
  Te  Te126  1  0.83570699  0.16112126  0.16617641  1
  Te  Te127  1  0.83391070  0.16378860  0.50046055  1
  Te  Te128  1  0.83169502  0.16673617  0.83278025  1
  Te  Te129  1  0.83268259  0.49954989  0.17084652  1
  Te  Te130  1  0.83320622  0.50263945  0.49770972  1
  Te  Te131  1  0.83264063  0.50310699  0.83261117  1
  Te  Te132  1  0.83268842  0.84077261  0.17355059  1
  Te  Te133  1  0.83404468  0.83243905  0.49798732  1
  Te  Te134  1  0.83734035  0.83231211  0.83317375  1
  Te  Te135  1  0.16670041  0.00088826  -0.00362323  1
  Te  Te136  1  0.17369260  0.00541180  0.33239558  1
  Te  Te137  1  0.16290596  0.00594303  0.67178307  1
  Te  Te138  1  0.17102436  0.33349589  -0.01213543  1
  Te  Te139  1  0.16807753  0.33057489  0.33947408  1
  Te  Te140  1  0.17147397  0.32853320  0.66740136  1
  Te  Te141  1  0.16189717  0.66690414  -0.00022618  1
  Te  Te142  1  0.15681181  0.66917003  0.33805036  1
  Te  Te143  1  0.16741115  0.66678597  0.65871222  1
  Te  Te144  1  0.49717787  0.00212624  -0.00397595  1
  Te  Te145  1  0.49780325  -0.00217070  0.33420130  1
  Te  Te146  1  0.50109780  0.00019438  0.67222057  1
  Te  Te147  1  0.49528986  0.33187701  -0.00541520  1
  Te  Te148  1  0.50065611  0.33505458  0.33493930  1
  Te  Te149  1  0.49589542  0.33641665  0.66683159  1
  Te  Te150  1  0.50016238  0.66647364  -0.00332157  1
  Te  Te151  1  0.50145740  0.66366256  0.33413352  1
  Te  Te152  1  0.50018733  0.66237891  0.66965128  1
  Te  Te153  1  0.83595186  0.00043212  -0.00884954  1
  Te  Te154  1  0.83706356  0.00002912  0.33681578  1
  Te  Te155  1  0.83720431  0.00041779  0.66826514  1
  Te  Te156  1  0.83474898  0.33429060  -0.00158565  1
  Te  Te157  1  0.83099725  0.33668303  0.33516304  1
  Te  Te158  1  0.83311254  0.33357387  0.66679854  1
  Te  Te159  1  0.83609303  0.66605034  -0.00353514  1
  Te  Te160  1  0.83913749  0.66820532  0.33216883  1
  Te  Te161  1  0.83238412  0.66534642  0.67293068  1
  Te  Te162  1  -0.00117094  0.16214625  0.00125858  1
  Te  Te163  1  0.00002681  0.17002601  0.33867140  1
  Te  Te164  1  0.00687877  0.16239014  0.65916835  1
  Te  Te165  1  -0.00056404  0.50249076  0.00022700  1
  Te  Te166  1  -0.00252650  0.49970779  0.33661953  1
  Te  Te167  1  -0.00109055  0.49975180  0.65845047  1
  Te  Te168  1  0.00003171  0.83535090  -0.00307906  1
  Te  Te169  1  -0.00256547  0.83293411  0.33651050  1
  Te  Te170  1  -0.00014625  0.83922563  0.66549139  1
  Te  Te171  1  0.33517458  0.16574785  -0.00648454  1
  Te  Te172  1  0.33628711  0.17347237  0.33446219  1
  Te  Te173  1  0.32835161  0.17050556  0.67424419  1
  Te  Te174  1  0.33682768  0.50211436  -0.00747454  1
  Te  Te175  1  0.33277710  0.49830384  0.33767154  1
  Te  Te176  1  0.33677864  0.49409444  0.66806068  1
  Te  Te177  1  0.33262348  0.83885277  0.00187139  1
  Te  Te178  1  0.33518249  0.82080345  0.33718432  1
  Te  Te179  1  0.33246474  0.83422824  0.65722430  1
  Te  Te180  1  0.65813945  0.16582512  0.00826188  1
  Te  Te181  1  0.66265141  0.16116101  0.32972885  1
  Te  Te182  1  0.66618523  0.16600465  0.66638280  1
  Te  Te183  1  0.65668884  0.50051802  0.00385897  1
  Te  Te184  1  0.67186595  0.50552928  0.33212641  1
  Te  Te185  1  0.65629561  0.49960958  0.66666282  1
  Te  Te186  1  0.66548929  0.83316452  -0.00596498  1
  Te  Te187  1  0.66738700  0.83525572  0.33342239  1
  Te  Te188  1  0.66484953  0.83376400  0.67696973  1
  Te  Te189  1  -0.00302465  -0.00021188  0.16138706  1
  Te  Te190  1  -0.00114136  -0.00704412  0.50131613  1
  Te  Te191  1  0.00024096  0.00111507  0.83161850  1
  Te  Te192  1  0.00309254  0.33374315  0.17101110  1
  Te  Te193  1  -0.00005796  0.33493167  0.49888809  1
  Te  Te194  1  -0.00484093  0.33340081  0.83282830  1
  Te  Te195  1  0.00124425  0.66723835  0.15947620  1
  Te  Te196  1  -0.00404476  0.66855585  0.50126594  1
  Te  Te197  1  0.00125424  0.66842777  0.83313904  1
  Te  Te198  1  0.33315704  0.00499123  0.16761992  1
  Te  Te199  1  0.33240343  -0.00550158  0.49584585  1
  Te  Te200  1  0.33037430  -0.00241390  0.83228469  1
  Te  Te201  1  0.33515901  0.32997555  0.16367444  1
  Te  Te202  1  0.33085556  0.33415210  0.49845755  1
  Te  Te203  1  0.33448800  0.33259641  0.83777184  1
  Te  Te204  1  0.33192417  0.66621788  0.17252947  1
  Te  Te205  1  0.33235380  0.66530111  0.49739187  1
  Te  Te206  1  0.33611396  0.66843476  0.83320418  1
  Te  Te207  1  0.67149959  0.00417786  0.17051509  1
  Te  Te208  1  0.67298648  -0.00011340  0.49543642  1
  Te  Te209  1  0.67353378  -0.00244180  0.83318756  1
  Te  Te210  1  0.66419413  0.32557349  0.16612872  1
  Te  Te211  1  0.68163830  0.33272903  0.50121017  1
  Te  Te212  1  0.67654062  0.33203462  0.83297872  1
  Te  Te213  1  0.66702971  0.66704257  0.17336423  1
  Te  Te214  1  0.67505804  0.66724308  0.49518378  1
  Te  Te215  1  0.66594361  0.66986373  0.83434336  1
