# generated using pymatgen
data_AgSbTe2
_symmetry_space_group_name_H-M   'P 1'
_cell_length_a   18.33887773
_cell_length_b   18.35112384
_cell_length_c   18.34557073
_cell_angle_alpha   90.00013836
_cell_angle_beta   89.99898711
_cell_angle_gamma   90.00128490
_symmetry_Int_Tables_number   1
_chemical_formula_structural   AgSbTe2
_chemical_formula_sum   'Ag54 Sb54 Te108'
_cell_volume   6174.00032105
_cell_formula_units_Z   54
loop_
 _symmetry_equiv_pos_site_id
 _symmetry_equiv_pos_as_xyz
  1  'x, y, z'
loop_
 _atom_site_type_symbol
 _atom_site_label
 _atom_site_symmetry_multiplicity
 _atom_site_fract_x
 _atom_site_fract_y
 _atom_site_fract_z
 _atom_site_occupancy
  Ag  Ag0  1  0.50290382  0.82812777  0.66422115  1
  Ag  Ag1  1  0.34237259  0.83325624  0.82274713  1
  Ag  Ag2  1  0.34621699  0.83488095  0.50564339  1
  Ag  Ag3  1  0.82887596  0.66851699  0.82170199  1
  Ag  Ag4  1  -0.00752891  0.49360842  0.49660543  1
  Ag  Ag5  1  0.83440760  0.83138457  -0.00617664  1
  Ag  Ag6  1  0.15917532  0.49413350  0.33400771  1
  Ag  Ag7  1  0.67621462  0.32995646  0.33297996  1
  Ag  Ag8  1  0.16332838  0.33262078  0.16546134  1
  Ag  Ag9  1  -0.00492088  0.33688364  0.33633067  1
  Ag  Ag10  1  0.83310669  0.50506859  0.66339479  1
  Ag  Ag11  1  0.33803340  0.16974128  0.50488713  1
  Ag  Ag12  1  0.66853316  0.00753239  0.33687218  1
  Ag  Ag13  1  -0.00423760  0.66890347  -0.00293942  1
  Ag  Ag14  1  0.66926951  0.33035428  -0.00141882  1
  Ag  Ag15  1  0.83541713  0.49344227  0.34415695  1
  Ag  Ag16  1  0.33492355  0.01084739  0.66750174  1
  Ag  Ag17  1  0.66179890  0.17309963  0.82856365  1
  Ag  Ag18  1  0.33646728  0.17225673  0.16989226  1
  Ag  Ag19  1  -0.00090551  0.48961470  0.17608810  1
  Ag  Ag20  1  0.83573929  0.33465122  0.49749291  1
  Ag  Ag21  1  0.33297332  0.33187080  -0.01433470  1
  Ag  Ag22  1  -0.00875936  0.65928329  0.66465331  1
  Ag  Ag23  1  0.16906935  0.00789799  0.83205627  1
  Ag  Ag24  1  0.49722032  0.17577673  0.66662665  1
  Ag  Ag25  1  0.50453781  0.65938276  0.82476718  1
  Ag  Ag26  1  0.33843158  0.65434940  0.33676268  1
  Ag  Ag27  1  0.50311407  0.82629708  0.34712229  1
  Ag  Ag28  1  0.50400222  0.67052536  0.50651320  1
  Ag  Ag29  1  0.82874456  0.17337725  0.33887209  1
  Ag  Ag30  1  0.33408804  0.32999586  0.67200554  1
  Ag  Ag31  1  -0.00251086  -0.00335998  0.00074972  1
  Ag  Ag32  1  0.82972016  0.82627930  0.66268939  1
  Ag  Ag33  1  0.83293491  0.66749051  0.50376426  1
  Ag  Ag34  1  0.83318217  -0.00101515  0.49991630  1
  Ag  Ag35  1  0.67154078  0.83827364  0.17365895  1
  Ag  Ag36  1  0.66176888  0.49514702  0.83051135  1
  Ag  Ag37  1  0.34132828  0.17675488  0.82150566  1
  Ag  Ag38  1  0.67083951  0.16471495  0.49623557  1
  Ag  Ag39  1  0.17882182  0.33190159  0.83645761  1
  Ag  Ag40  1  -0.00284290  0.17434077  0.17344393  1
  Ag  Ag41  1  0.66821730  0.16850628  0.17853813  1
  Ag  Ag42  1  -0.01344445  0.83093201  0.49967172  1
  Ag  Ag43  1  0.66471950  0.83163714  0.82476724  1
  Ag  Ag44  1  0.49305153  0.33965824  0.82929151  1
  Ag  Ag45  1  0.33308219  0.33493736  0.33602917  1
  Ag  Ag46  1  0.50340810  0.50158073  0.66768380  1
  Ag  Ag47  1  -0.01333979  0.17761084  0.49490366  1
  Ag  Ag48  1  0.66780088  0.83595474  0.50029627  1
  Ag  Ag49  1  -0.00159208  0.33385531  0.00497807  1
  Ag  Ag50  1  0.00037790  0.33581260  0.65438373  1
  Ag  Ag51  1  -0.00562203  0.83337166  0.17022234  1
  Ag  Ag52  1  0.50120256  0.50036620  0.34102000  1
  Ag  Ag53  1  0.34176888  0.48739820  0.82825757  1
  Sb  Sb54  1  0.16536678  0.17063847  -0.00083064  1
  Sb  Sb55  1  0.66403358  0.66420336  0.33619371  1
  Sb  Sb56  1  0.16914680  0.82726867  0.33461035  1
  Sb  Sb57  1  0.16329628  0.17310018  0.33268451  1
  Sb  Sb58  1  0.50269865  0.33661838  0.50306758  1
  Sb  Sb59  1  0.50616635  -0.00445764  0.50161693  1
  Sb  Sb60  1  0.00219722  0.00298390  0.66688257  1
  Sb  Sb61  1  0.50785688  0.83146103  -0.00688034  1
  Sb  Sb62  1  0.16487312  0.66548183  0.50012829  1
  Sb  Sb63  1  0.32981986  0.66334263  -0.00083993  1
  Sb  Sb64  1  0.16396355  0.00099840  0.50263698  1
  Sb  Sb65  1  0.83630812  0.50225353  -0.00366659  1
  Sb  Sb66  1  0.16262332  0.66008937  0.16862500  1
  Sb  Sb67  1  0.82868569  0.16882558  0.66058607  1
  Sb  Sb68  1  0.67134193  0.49582170  0.16709200  1
  Sb  Sb69  1  0.50082534  0.00170575  0.17007755  1
  Sb  Sb70  1  0.32880705  0.49197403  0.16837586  1
  Sb  Sb71  1  0.16474617  0.49511286  0.00173233  1
  Sb  Sb72  1  0.16024647  0.83354172  -0.00149164  1
  Sb  Sb73  1  0.33999008  0.00511787  0.34168829  1
  Sb  Sb74  1  0.16522349  0.49703105  0.66280323  1
  Sb  Sb75  1  0.83972338  0.33231435  0.17351237  1
  Sb  Sb76  1  0.82877993  0.83151118  0.33940417  1
  Sb  Sb77  1  0.49673002  0.00135069  0.82871540  1
  Sb  Sb78  1  0.83381825  -0.00045320  0.17294062  1
  Sb  Sb79  1  0.67201757  0.00264824  0.00303703  1
  Sb  Sb80  1  0.83469934  -0.00477311  0.82816657  1
  Sb  Sb81  1  0.16324026  0.00667619  0.16273430  1
  Sb  Sb82  1  0.83445945  0.16547261  0.00397751  1
  Sb  Sb83  1  0.32650258  0.00715603  -0.00883324  1
  Sb  Sb84  1  0.66377167  -0.00143319  0.66278995  1
  Sb  Sb85  1  0.16777259  0.66322448  0.83204167  1
  Sb  Sb86  1  0.50032138  0.66717416  0.16931032  1
  Sb  Sb87  1  0.16831304  0.83273515  0.66755526  1
  Sb  Sb88  1  -0.00012038  0.17050289  0.83127010  1
  Sb  Sb89  1  0.33350622  0.49877461  0.50126825  1
  Sb  Sb90  1  -0.00041067  0.49841833  0.83009752  1
  Sb  Sb91  1  0.17250571  0.16953756  0.66685507  1
  Sb  Sb92  1  0.50044020  0.16871567  -0.00646767  1
  Sb  Sb93  1  0.83467832  0.66783199  0.17015235  1
  Sb  Sb94  1  0.33455557  0.66386636  0.66380458  1
  Sb  Sb95  1  0.50435060  0.17113904  0.34018342  1
  Sb  Sb96  1  0.00045767  0.66047755  0.33732981  1
  Sb  Sb97  1  0.83121078  0.33824649  0.82800384  1
  Sb  Sb98  1  0.67147390  0.49920523  0.50325474  1
  Sb  Sb99  1  0.67101643  0.66779414  0.66660073  1
  Sb  Sb100  1  0.66543779  0.33274329  0.66569562  1
  Sb  Sb101  1  -0.00573692  0.00478472  0.33203491  1
  Sb  Sb102  1  0.33459949  0.83983647  0.17064964  1
  Sb  Sb103  1  0.67164846  0.66404258  -0.00471875  1
  Sb  Sb104  1  0.50078739  0.49736594  -0.00493087  1
  Sb  Sb105  1  -0.00262957  0.83174217  0.83032546  1
  Sb  Sb106  1  0.16346084  0.33286635  0.49852251  1
  Sb  Sb107  1  0.49698841  0.33342563  0.16609414  1
  Te  Te108  1  0.16313276  0.17258423  0.16712418  1
  Te  Te109  1  0.17303246  0.16515083  0.49930212  1
  Te  Te110  1  0.17005136  0.16954023  0.83304961  1
  Te  Te111  1  0.16092508  0.49363979  0.17242450  1
  Te  Te112  1  0.15812301  0.49983961  0.49369167  1
  Te  Te113  1  0.17291320  0.49515915  0.83237338  1
  Te  Te114  1  0.16107087  0.83465538  0.16681780  1
  Te  Te115  1  0.16813143  0.83396449  0.49924466  1
  Te  Te116  1  0.17406720  0.83224883  0.83358718  1
  Te  Te117  1  0.50433523  0.16741726  0.16889439  1
  Te  Te118  1  0.49865978  0.16735925  0.50548248  1
  Te  Te119  1  0.50012014  0.16751367  0.82811507  1
  Te  Te120  1  0.50100712  0.50195986  0.17409555  1
  Te  Te121  1  0.50160463  0.50503572  0.50235544  1
  Te  Te122  1  0.50140926  0.50026513  0.83195169  1
  Te  Te123  1  0.50484081  0.83370395  0.16482671  1
  Te  Te124  1  0.50326847  0.83161116  0.50323038  1
  Te  Te125  1  0.50321153  0.83313589  0.82969923  1
  Te  Te126  1  0.83206528  0.16570253  0.17208110  1
  Te  Te127  1  0.83074434  0.16908895  0.49920836  1
  Te  Te128  1  0.82644660  0.16451571  0.83194914  1
  Te  Te129  1  0.83889298  0.50161602  0.16946333  1
  Te  Te130  1  0.83245904  0.50006582  0.50311641  1
  Te  Te131  1  0.83019021  0.50647019  0.82870578  1
  Te  Te132  1  0.83328171  0.83398057  0.16741337  1
  Te  Te133  1  0.82873936  0.82987708  0.50035462  1
  Te  Te134  1  0.83048774  0.83026934  0.82920814  1
  Te  Te135  1  0.15836514  0.00031977  -0.00706667  1
  Te  Te136  1  0.16825373  -0.00179645  0.33164996  1
  Te  Te137  1  0.17268735  0.00003742  0.67265416  1
  Te  Te138  1  0.16765050  0.33424477  0.00038923  1
  Te  Te139  1  0.16746127  0.33624284  0.33178364  1
  Te  Te140  1  0.16569800  0.33438944  0.67194996  1
  Te  Te141  1  0.15681683  0.66539518  0.00009939  1
  Te  Te142  1  0.17703059  0.65883343  0.33329761  1
  Te  Te143  1  0.15205348  0.66519498  0.66742866  1
  Te  Te144  1  0.49901668  -0.00018128  0.00099778  1
  Te  Te145  1  0.50755420  -0.00903129  0.33459510  1
  Te  Te146  1  0.49350182  -0.00672192  0.66577356  1
  Te  Te147  1  0.49922060  0.33286140  -0.00633253  1
  Te  Te148  1  0.49694877  0.33757329  0.33442727  1
  Te  Te149  1  0.49918054  0.33641751  0.66825498  1
  Te  Te150  1  0.49870446  0.66517234  -0.00725994  1
  Te  Te151  1  0.49782186  0.66580224  0.33516343  1
  Te  Te152  1  0.49706699  0.66538552  0.66697218  1
  Te  Te153  1  0.83871640  -0.00556608  -0.00128672  1
  Te  Te154  1  0.82825875  0.00359295  0.33973333  1
  Te  Te155  1  0.83402964  -0.00594886  0.66067564  1
  Te  Te156  1  0.83239362  0.33384106  -0.00246083  1
  Te  Te157  1  0.83482056  0.33349100  0.33630224  1
  Te  Te158  1  0.83655547  0.33660085  0.66125836  1
  Te  Te159  1  0.83785188  0.67037725  0.00002600  1
  Te  Te160  1  0.83249015  0.65951164  0.34006374  1
  Te  Te161  1  0.83471515  0.66628859  0.66507470  1
  Te  Te162  1  -0.00196037  0.17193064  0.00344657  1
  Te  Te163  1  -0.00282208  0.16930421  0.33456955  1
  Te  Te164  1  -0.00156196  0.17188360  0.66047024  1
  Te  Te165  1  -0.00023226  0.49615021  0.00348506  1
  Te  Te166  1  -0.00241749  0.49924552  0.33533318  1
  Te  Te167  1  -0.00231174  0.49693353  0.66391939  1
  Te  Te168  1  -0.00451687  0.83213259  -0.00187817  1
  Te  Te169  1  -0.00000313  0.83344705  0.33483954  1
  Te  Te170  1  -0.00283368  0.83515507  0.66236866  1
  Te  Te171  1  0.33402347  0.17302553  0.00515527  1
  Te  Te172  1  0.33524639  0.16969188  0.33459276  1
  Te  Te173  1  0.33637338  0.16915997  0.66573891  1
  Te  Te174  1  0.33313556  0.49407809  -0.00272366  1
  Te  Te175  1  0.33887082  0.49737253  0.33384539  1
  Te  Te176  1  0.33545100  0.49598694  0.66794021  1
  Te  Te177  1  0.33374459  0.83411766  0.00096115  1
  Te  Te178  1  0.33832787  0.83648772  0.33597025  1
  Te  Te179  1  0.33490237  0.82749447  0.66407859  1
  Te  Te180  1  0.66725270  0.17010622  -0.00170854  1
  Te  Te181  1  0.66578525  0.16875635  0.33587395  1
  Te  Te182  1  0.66084081  0.16544625  0.66742181  1
  Te  Te183  1  0.66816043  0.49271141  -0.00302853  1
  Te  Te184  1  0.66646701  0.49409540  0.33247503  1
  Te  Te185  1  0.66543883  0.49896481  0.67070593  1
  Te  Te186  1  0.67389814  0.83442689  0.00139129  1
  Te  Te187  1  0.66503275  0.83066054  0.33434518  1
  Te  Te188  1  0.66580606  0.83461710  0.66556165  1
  Te  Te189  1  0.00005308  -0.00154804  0.16247224  1
  Te  Te190  1  -0.00355457  -0.00448173  0.49993966  1
  Te  Te191  1  0.00507462  0.00135891  0.83626285  1
  Te  Te192  1  0.00066526  0.33220492  0.16836593  1
  Te  Te193  1  -0.00011300  0.33342530  0.49728826  1
  Te  Te194  1  -0.00018068  0.33273132  0.84035838  1
  Te  Te195  1  -0.00021278  0.67397277  0.16393343  1
  Te  Te196  1  -0.00214412  0.67065172  0.50121246  1
  Te  Te197  1  -0.00213820  0.66536814  0.83228916  1
  Te  Te198  1  0.33147226  0.00952354  0.16517011  1
  Te  Te199  1  0.33128244  -0.00131213  0.50560223  1
  Te  Te200  1  0.32989529  -0.00394110  0.82952641  1
  Te  Te201  1  0.33052193  0.32977233  0.17522881  1
  Te  Te202  1  0.33308272  0.33211215  0.49882124  1
  Te  Te203  1  0.33539173  0.33144346  0.82991023  1
  Te  Te204  1  0.33184083  0.66911925  0.16958979  1
  Te  Te205  1  0.33570041  0.66871590  0.49735440  1
  Te  Te206  1  0.33547179  0.67272139  0.83481231  1
  Te  Te207  1  0.66765832  0.00133213  0.17131718  1
  Te  Te208  1  0.67160569  0.00117337  0.49756445  1
  Te  Te209  1  0.66692069  -0.00199395  0.83419244  1
  Te  Te210  1  0.66497295  0.33065878  0.16666429  1
  Te  Te211  1  0.66977600  0.33008205  0.49648656  1
  Te  Te212  1  0.66641736  0.33309045  0.83278654  1
  Te  Te213  1  0.66635862  0.67332087  0.16369298  1
  Te  Te214  1  0.66587285  0.67091179  0.49981136  1
  Te  Te215  1  0.66652169  0.66968611  0.83376159  1
