# generated using pymatgen
data_AgSbTe2
_symmetry_space_group_name_H-M   'P 1'
_cell_length_a   18.33285427
_cell_length_b   18.33460904
_cell_length_c   18.33915559
_cell_angle_alpha   89.99675213
_cell_angle_beta   89.99951636
_cell_angle_gamma   90.00037864
_symmetry_Int_Tables_number   1
_chemical_formula_structural   AgSbTe2
_chemical_formula_sum   'Ag54 Sb54 Te108'
_cell_volume   6164.26178637
_cell_formula_units_Z   54
loop_
 _symmetry_equiv_pos_site_id
 _symmetry_equiv_pos_as_xyz
  1  'x, y, z'
loop_
 _atom_site_type_symbol
 _atom_site_label
 _atom_site_symmetry_multiplicity
 _atom_site_fract_x
 _atom_site_fract_y
 _atom_site_fract_z
 _atom_site_occupancy
  Ag  Ag0  1  0.66406291  0.50857279  0.16786689  1
  Ag  Ag1  1  0.49855067  -0.00390510  0.18342485  1
  Ag  Ag2  1  0.34102423  0.67523755  0.33696774  1
  Ag  Ag3  1  0.00084499  0.33082085  0.33658023  1
  Ag  Ag4  1  0.81975114  0.83245113  0.33284502  1
  Ag  Ag5  1  0.16859072  0.50207359  0.33197939  1
  Ag  Ag6  1  0.50112003  0.32646783  0.50304886  1
  Ag  Ag7  1  0.49313369  0.15478763  0.34532913  1
  Ag  Ag8  1  0.00499549  0.15969398  0.82273140  1
  Ag  Ag9  1  0.16767000  0.84018323  0.33099553  1
  Ag  Ag10  1  0.16449784  0.00189003  0.83018842  1
  Ag  Ag11  1  0.16996421  -0.00348541  0.17942085  1
  Ag  Ag12  1  -0.00176175  0.00251370  0.66806096  1
  Ag  Ag13  1  0.17238220  0.15901575  -0.00225990  1
  Ag  Ag14  1  0.00823721  0.15869196  0.50432056  1
  Ag  Ag15  1  0.16308779  0.84146278  0.00598037  1
  Ag  Ag16  1  0.33595093  0.16688315  0.49931729  1
  Ag  Ag17  1  -0.00239477  0.84275766  0.83190338  1
  Ag  Ag18  1  0.50110339  0.67665032  0.18029316  1
  Ag  Ag19  1  0.83060695  0.67660572  0.83226541  1
  Ag  Ag20  1  0.34184700  0.66391118  0.65821279  1
  Ag  Ag21  1  0.49244749  0.16703466  -0.00322025  1
  Ag  Ag22  1  0.33880368  0.50216917  0.83157986  1
  Ag  Ag23  1  0.49912589  0.15967752  0.66258980  1
  Ag  Ag24  1  0.66212358  0.83490789  0.49039731  1
  Ag  Ag25  1  0.82990868  0.50874199  0.33521854  1
  Ag  Ag26  1  0.17251950  0.15578441  0.34277086  1
  Ag  Ag27  1  0.65422242  -0.01327751  0.34133913  1
  Ag  Ag28  1  0.49755847  -0.00128360  0.49863641  1
  Ag  Ag29  1  0.34194071  -0.00701261  0.33620774  1
  Ag  Ag30  1  0.49933050  0.50982531  0.66549611  1
  Ag  Ag31  1  -0.00275292  0.84054550  0.49650711  1
  Ag  Ag32  1  0.83653569  0.83292361  -0.00024725  1
  Ag  Ag33  1  0.65918373  0.33421178  -0.00111854  1
  Ag  Ag34  1  -0.00078884  0.83548012  0.17538685  1
  Ag  Ag35  1  0.66494377  0.83070933  0.17739608  1
  Ag  Ag36  1  0.50900116  0.84114483  0.33959574  1
  Ag  Ag37  1  0.16654413  0.16041173  0.65984401  1
  Ag  Ag38  1  0.83356845  0.16087603  0.66491581  1
  Ag  Ag39  1  0.65798175  -0.00499696  0.66398681  1
  Ag  Ag40  1  0.33674907  0.49858939  0.50045559  1
  Ag  Ag41  1  0.33852168  0.33432293  -0.00411658  1
  Ag  Ag42  1  0.49866816  0.00412793  0.82493193  1
  Ag  Ag43  1  0.65863969  0.67574012  0.33732689  1
  Ag  Ag44  1  0.17234077  0.50052086  0.00317292  1
  Ag  Ag45  1  0.82651319  0.33154124  0.49836207  1
  Ag  Ag46  1  0.17340502  0.00273074  0.49571366  1
  Ag  Ag47  1  0.65766584  0.50177538  0.83438723  1
  Ag  Ag48  1  0.65881734  0.67499690  0.66116471  1
  Ag  Ag49  1  0.84171394  -0.00389732  0.82853514  1
  Ag  Ag50  1  0.49907118  0.67751565  0.49764455  1
  Ag  Ag51  1  0.50259994  0.83606869  0.65686129  1
  Ag  Ag52  1  0.33348784  0.66306412  -0.00417941  1
  Ag  Ag53  1  0.49968691  0.32707061  0.82813436  1
  Sb  Sb54  1  0.82583769  0.49762062  0.66233647  1
  Sb  Sb55  1  0.66056869  0.66469676  0.00105474  1
  Sb  Sb56  1  0.17246144  0.32743897  0.83559039  1
  Sb  Sb57  1  0.33576736  0.83383970  0.17032109  1
  Sb  Sb58  1  0.66071796  0.16017972  0.50104463  1
  Sb  Sb59  1  0.83324179  0.50477809  0.00256760  1
  Sb  Sb60  1  0.00397374  -0.00191381  -0.00830255  1
  Sb  Sb61  1  0.82643546  0.66670729  0.50169502  1
  Sb  Sb62  1  -0.00166262  0.67642387  0.66613263  1
  Sb  Sb63  1  0.17397181  0.67401808  0.16769329  1
  Sb  Sb64  1  0.16679387  0.32869499  0.16830572  1
  Sb  Sb65  1  0.50227809  0.66686728  0.82792914  1
  Sb  Sb66  1  0.33195127  0.00062653  0.00339694  1
  Sb  Sb67  1  0.00184783  0.33071713  0.00331987  1
  Sb  Sb68  1  0.00470679  0.67195353  -0.00002502  1
  Sb  Sb69  1  0.00257054  -0.00015110  0.34127573  1
  Sb  Sb70  1  0.00529268  0.49904787  0.49846820  1
  Sb  Sb71  1  0.33216258  0.16805933  0.82904690  1
  Sb  Sb72  1  0.66151767  0.33171436  0.66836484  1
  Sb  Sb73  1  0.66728866  0.33435994  0.33178870  1
  Sb  Sb74  1  0.66325946  0.00114619  -0.00180837  1
  Sb  Sb75  1  0.65845688  0.50471386  0.50005076  1
  Sb  Sb76  1  0.33725979  -0.00207920  0.66081294  1
  Sb  Sb77  1  0.66351801  0.16207052  0.16777809  1
  Sb  Sb78  1  0.33852370  0.83622292  0.49751107  1
  Sb  Sb79  1  0.83134928  0.00210915  0.50421481  1
  Sb  Sb80  1  0.33087895  0.83109295  0.83284533  1
  Sb  Sb81  1  0.17008835  0.32507573  0.49836342  1
  Sb  Sb82  1  0.82775434  0.83888919  0.66570054  1
  Sb  Sb83  1  -0.00128171  0.32284423  0.66038271  1
  Sb  Sb84  1  -0.00025152  0.67012171  0.33524464  1
  Sb  Sb85  1  0.33409605  0.16455555  0.17157948  1
  Sb  Sb86  1  0.00183886  0.49958308  0.83339308  1
  Sb  Sb87  1  0.83397829  0.16218350  0.34095899  1
  Sb  Sb88  1  0.49544339  0.49621150  -0.00545218  1
  Sb  Sb89  1  0.82589946  0.67102952  0.16555289  1
  Sb  Sb90  1  0.33752787  0.50276790  0.16712026  1
  Sb  Sb91  1  0.17096076  0.83957473  0.66350987  1
  Sb  Sb92  1  0.83227782  -0.00451676  0.16450240  1
  Sb  Sb93  1  0.33194559  0.33239689  0.33344906  1
  Sb  Sb94  1  0.66379588  0.16697283  0.83125134  1
  Sb  Sb95  1  0.83092236  0.33498438  0.17223229  1
  Sb  Sb96  1  0.83438829  0.16104805  -0.00890021  1
  Sb  Sb97  1  0.82790743  0.33008512  0.82860524  1
  Sb  Sb98  1  0.49880345  0.50463938  0.33833020  1
  Sb  Sb99  1  0.50072120  0.33194894  0.16753813  1
  Sb  Sb100  1  -0.00121073  0.50663129  0.16971396  1
  Sb  Sb101  1  0.49856868  0.83701616  0.00300835  1
  Sb  Sb102  1  0.17475871  0.49597870  0.66512496  1
  Sb  Sb103  1  0.00442761  0.15755756  0.17037635  1
  Sb  Sb104  1  0.16534730  0.67235409  0.83416259  1
  Sb  Sb105  1  0.17630185  0.67468972  0.49709345  1
  Sb  Sb106  1  0.33791729  0.33503608  0.66820556  1
  Sb  Sb107  1  0.66920463  0.83164464  0.83316505  1
  Te  Te108  1  0.16709468  0.15947211  0.16301481  1
  Te  Te109  1  0.16785634  0.16408114  0.49945955  1
  Te  Te110  1  0.16599967  0.16314928  0.83643616  1
  Te  Te111  1  0.16565939  0.50120784  0.16765267  1
  Te  Te112  1  0.17374182  0.50050650  0.49698681  1
  Te  Te113  1  0.17124470  0.49996831  0.83557319  1
  Te  Te114  1  0.16499266  0.83713792  0.16570234  1
  Te  Te115  1  0.16304191  0.84043575  0.49753469  1
  Te  Te116  1  0.16187122  0.83887542  0.83412066  1
  Te  Te117  1  0.50029463  0.16054916  0.16081705  1
  Te  Te118  1  0.50014843  0.16411794  0.50182853  1
  Te  Te119  1  0.49838436  0.16801613  0.83305880  1
  Te  Te120  1  0.50532744  0.50076551  0.16641232  1
  Te  Te121  1  0.49612301  0.49661235  0.50467515  1
  Te  Te122  1  0.49878993  0.50019124  0.82947932  1
  Te  Te123  1  0.50309390  0.83566814  0.16772804  1
  Te  Te124  1  0.50066393  0.83577985  0.49747601  1
  Te  Te125  1  0.49988198  0.83920602  0.83387415  1
  Te  Te126  1  0.83440991  0.16569572  0.16430317  1
  Te  Te127  1  0.83666844  0.17064184  0.50371001  1
  Te  Te128  1  0.83807317  0.16160978  0.82719972  1
  Te  Te129  1  0.82921719  0.50263724  0.17307327  1
  Te  Te130  1  0.83515684  0.49604086  0.49470587  1
  Te  Te131  1  0.83205179  0.49976258  0.83305583  1
  Te  Te132  1  0.83465647  0.83373397  0.16745449  1
  Te  Te133  1  0.83471636  0.83270534  0.49622385  1
  Te  Te134  1  0.83569850  0.83593523  0.83196803  1
  Te  Te135  1  0.16865904  -0.00048885  -0.00341575  1
  Te  Te136  1  0.16316787  0.00109890  0.33523797  1
  Te  Te137  1  0.17047393  0.00243197  0.66658107  1
  Te  Te138  1  0.16972784  0.33397193  0.00136403  1
  Te  Te139  1  0.16390830  0.33771771  0.33260282  1
  Te  Te140  1  0.16690540  0.32366410  0.66724691  1
  Te  Te141  1  0.17267299  0.66546776  0.00067543  1
  Te  Te142  1  0.16976281  0.66220465  0.33244507  1
  Te  Te143  1  0.17228717  0.66582794  0.66613214  1
  Te  Te144  1  0.49855658  0.00540084  -0.00965539  1
  Te  Te145  1  0.49885267  -0.00051387  0.33787046  1
  Te  Te146  1  0.49791103  -0.00164843  0.66421494  1
  Te  Te147  1  0.49950444  0.33042901  0.00028481  1
  Te  Te148  1  0.49971571  0.32799196  0.33647816  1
  Te  Te149  1  0.50046551  0.32638792  0.66678591  1
  Te  Te150  1  0.49344313  0.66760083  0.00070093  1
  Te  Te151  1  0.49976907  0.66559650  0.33627046  1
  Te  Te152  1  0.50058807  0.66820456  0.66674945  1
  Te  Te153  1  0.83154182  -0.00649846  -0.00752889  1
  Te  Te154  1  0.82849887  -0.00663773  0.33292458  1
  Te  Te155  1  0.83417075  0.00283990  0.67006432  1
  Te  Te156  1  0.83071446  0.33405054  -0.00056545  1
  Te  Te157  1  0.83558932  0.33191586  0.33856060  1
  Te  Te158  1  0.83085733  0.32774016  0.65929411  1
  Te  Te159  1  0.83261731  0.67188064  -0.00553143  1
  Te  Te160  1  0.83016534  0.66948614  0.33395983  1
  Te  Te161  1  0.82915851  0.66600664  0.67039566  1
  Te  Te162  1  0.00424326  0.16767175  -0.00182271  1
  Te  Te163  1  0.00286001  0.16869556  0.33766456  1
  Te  Te164  1  0.00270584  0.16297711  0.66452676  1
  Te  Te165  1  0.00836099  0.49990674  0.00132745  1
  Te  Te166  1  0.00044193  0.49806542  0.33327632  1
  Te  Te167  1  0.00086016  0.50026079  0.66726080  1
  Te  Te168  1  0.00050663  0.83315552  -0.00493110  1
  Te  Te169  1  0.00909059  0.83373258  0.33591970  1
  Te  Te170  1  0.00097967  0.83998763  0.66679405  1
  Te  Te171  1  0.33242113  0.16826413  -0.00136393  1
  Te  Te172  1  0.33244907  0.16667417  0.33719880  1
  Te  Te173  1  0.33544911  0.16739766  0.66167245  1
  Te  Te174  1  0.33114439  0.50125264  0.00001483  1
  Te  Te175  1  0.33107846  0.49955177  0.33558535  1
  Te  Te176  1  0.33770681  0.50232451  0.66652110  1
  Te  Te177  1  0.32714451  0.82812985  0.00060965  1
  Te  Te178  1  0.32677739  0.83335741  0.33424645  1
  Te  Te179  1  0.34047224  0.82453233  0.66607147  1
  Te  Te180  1  0.66556200  0.17292802  -0.00036657  1
  Te  Te181  1  0.66301401  0.16433144  0.33279614  1
  Te  Te182  1  0.66453819  0.16046252  0.66719333  1
  Te  Te183  1  0.66825439  0.49742578  -0.00098899  1
  Te  Te184  1  0.66967353  0.50132866  0.33163412  1
  Te  Te185  1  0.66103368  0.50282851  0.66987490  1
  Te  Te186  1  0.67092453  0.83270774  0.00391906  1
  Te  Te187  1  0.66401549  0.83120109  0.33326683  1
  Te  Te188  1  0.66290467  0.83396392  0.66668350  1
  Te  Te189  1  0.00373824  -0.00690616  0.16681208  1
  Te  Te190  1  -0.00284281  0.00033729  0.50580818  1
  Te  Te191  1  0.00215787  0.00036380  0.83006236  1
  Te  Te192  1  -0.00150197  0.33347083  0.17457874  1
  Te  Te193  1  0.00017286  0.33141191  0.49580256  1
  Te  Te194  1  -0.00162227  0.32880835  0.83324173  1
  Te  Te195  1  -0.00050215  0.67647201  0.16735054  1
  Te  Te196  1  0.00080296  0.67285918  0.50183916  1
  Te  Te197  1  -0.00665096  0.66941751  0.83238543  1
  Te  Te198  1  0.33424999  0.00026650  0.17413529  1
  Te  Te199  1  0.33374631  0.00342025  0.49582211  1
  Te  Te200  1  0.33359295  -0.00039776  0.83400326  1
  Te  Te201  1  0.33399242  0.33448415  0.15515030  1
  Te  Te202  1  0.33935875  0.33288633  0.49978415  1
  Te  Te203  1  0.33943534  0.33908854  0.83714225  1
  Te  Te204  1  0.34083550  0.66695296  0.17367377  1
  Te  Te205  1  0.33907803  0.66415954  0.49824448  1
  Te  Te206  1  0.33224296  0.66236242  0.83529798  1
  Te  Te207  1  0.66298288  -0.00503404  0.16775937  1
  Te  Te208  1  0.66556209  -0.00478105  0.50140371  1
  Te  Te209  1  0.66125450  -0.00018622  0.82952005  1
  Te  Te210  1  0.66690564  0.33804911  0.16134014  1
  Te  Te211  1  0.66411718  0.33474966  0.50006290  1
  Te  Te212  1  0.66110282  0.33853999  0.83647018  1
  Te  Te213  1  0.66113203  0.66826842  0.16819160  1
  Te  Te214  1  0.66176373  0.67121523  0.50059650  1
  Te  Te215  1  0.66929428  0.66239377  0.83249944  1
