# generated using pymatgen
data_AgSbTe2
_symmetry_space_group_name_H-M   'P 1'
_cell_length_a   18.32103968
_cell_length_b   18.32329020
_cell_length_c   18.32450840
_cell_angle_alpha   90.00123943
_cell_angle_beta   89.99960162
_cell_angle_gamma   89.99959267
_symmetry_Int_Tables_number   1
_chemical_formula_structural   AgSbTe2
_chemical_formula_sum   'Ag54 Sb54 Te108'
_cell_volume   6151.56910865
_cell_formula_units_Z   54
loop_
 _symmetry_equiv_pos_site_id
 _symmetry_equiv_pos_as_xyz
  1  'x, y, z'
loop_
 _atom_site_type_symbol
 _atom_site_label
 _atom_site_symmetry_multiplicity
 _atom_site_fract_x
 _atom_site_fract_y
 _atom_site_fract_z
 _atom_site_occupancy
  Ag  Ag0  1  0.16966079  0.84184117  0.33285018  1
  Ag  Ag1  1  0.16914165  0.66089040  0.83839336  1
  Ag  Ag2  1  0.33369539  0.83127093  0.16599996  1
  Ag  Ag3  1  0.17002813  0.49991791  0.67705281  1
  Ag  Ag4  1  0.16700683  0.33208545  0.49772966  1
  Ag  Ag5  1  0.66890395  0.65844771  -0.00854554  1
  Ag  Ag6  1  0.66264235  0.33108055  0.67459696  1
  Ag  Ag7  1  0.49936913  0.49637451  0.33658209  1
  Ag  Ag8  1  0.65737930  0.50638679  0.83540545  1
  Ag  Ag9  1  -0.00239847  0.00252103  0.65904854  1
  Ag  Ag10  1  0.16263349  0.00412436  0.49757718  1
  Ag  Ag11  1  0.81852859  0.66503123  0.83835486  1
  Ag  Ag12  1  -0.00181316  0.16564057  0.16738987  1
  Ag  Ag13  1  0.33710994  0.50482362  0.83492419  1
  Ag  Ag14  1  0.50066378  0.50043499  0.67200312  1
  Ag  Ag15  1  -0.00116461  0.66363994  0.00178272  1
  Ag  Ag16  1  0.83668408  0.66483865  0.15946643  1
  Ag  Ag17  1  0.00271031  0.66771739  0.32539241  1
  Ag  Ag18  1  0.00788679  -0.00066665  0.33625928  1
  Ag  Ag19  1  0.49675021  0.16924210  0.33022709  1
  Ag  Ag20  1  0.66131275  0.49534631  0.15762639  1
  Ag  Ag21  1  0.17087879  0.17220463  0.00446196  1
  Ag  Ag22  1  0.50590829  0.66189326  0.83014951  1
  Ag  Ag23  1  0.66339033  0.66244983  0.67845371  1
  Ag  Ag24  1  0.00941383  0.50359273  0.83042980  1
  Ag  Ag25  1  0.49961154  0.83371192  -0.01006003  1
  Ag  Ag26  1  0.16706357  0.49959109  -0.00490988  1
  Ag  Ag27  1  0.34228506  0.16649774  0.83431359  1
  Ag  Ag28  1  0.82303160  0.16528995  0.66810865  1
  Ag  Ag29  1  0.83016187  0.32894580  0.50014586  1
  Ag  Ag30  1  0.33892165  0.82966828  0.83424633  1
  Ag  Ag31  1  0.16769748  -0.00277105  0.82814760  1
  Ag  Ag32  1  0.65391719  0.81888549  0.83172818  1
  Ag  Ag33  1  0.32598290  -0.00121254  0.33288976  1
  Ag  Ag34  1  0.66466914  0.33730564  -0.00617076  1
  Ag  Ag35  1  0.33476736  0.50337108  0.16217348  1
  Ag  Ag36  1  0.66738035  0.17152721  0.16009793  1
  Ag  Ag37  1  0.50109771  0.82533125  0.67515274  1
  Ag  Ag38  1  0.65902469  0.17029316  0.83250802  1
  Ag  Ag39  1  0.16994861  0.16141609  0.32746119  1
  Ag  Ag40  1  0.66656083  0.00972407  0.66932889  1
  Ag  Ag41  1  0.16229682  0.66014865  0.15979194  1
  Ag  Ag42  1  0.84051499  0.00501226  0.50072235  1
  Ag  Ag43  1  0.50105510  0.65945054  0.51145068  1
  Ag  Ag44  1  0.16412671  0.33413512  0.16620529  1
  Ag  Ag45  1  0.50378104  0.33692523  0.82816536  1
  Ag  Ag46  1  0.50227517  0.00502688  0.16915726  1
  Ag  Ag47  1  0.82965383  0.00761997  0.17172479  1
  Ag  Ag48  1  0.50238144  0.33683207  0.50955257  1
  Ag  Ag49  1  0.83066963  0.33053560  0.16964079  1
  Ag  Ag50  1  0.50614380  0.17022114  0.67754287  1
  Ag  Ag51  1  0.33401236  0.83531271  0.49801631  1
  Ag  Ag52  1  0.00381198  0.49935202  0.50372447  1
  Ag  Ag53  1  0.50102818  0.16479455  -0.00659230  1
  Sb  Sb54  1  0.16853430  0.16919840  0.66749937  1
  Sb  Sb55  1  0.66591287  0.16743459  0.50437948  1
  Sb  Sb56  1  0.00317056  0.82754563  0.83302468  1
  Sb  Sb57  1  0.83256789  0.16558484  0.33271251  1
  Sb  Sb58  1  0.17311997  0.83004590  0.66586785  1
  Sb  Sb59  1  0.66382073  0.00164010  -0.00450508  1
  Sb  Sb60  1  -0.00479358  0.66710694  0.66996334  1
  Sb  Sb61  1  0.33464423  0.16402843  0.50273013  1
  Sb  Sb62  1  0.49927151  0.49971542  -0.00518369  1
  Sb  Sb63  1  0.66642062  0.00191544  0.33533427  1
  Sb  Sb64  1  -0.00192138  0.33819482  0.00060464  1
  Sb  Sb65  1  0.16830532  0.00219359  0.16999256  1
  Sb  Sb66  1  0.83273877  0.50131907  -0.00021972  1
  Sb  Sb67  1  0.00237715  -0.00249800  0.00186206  1
  Sb  Sb68  1  0.49644561  -0.00041022  0.83352518  1
  Sb  Sb69  1  0.32952306  0.67063050  0.33116212  1
  Sb  Sb70  1  0.82565517  0.83841734  0.66761670  1
  Sb  Sb71  1  0.83955697  0.83510886  0.33201260  1
  Sb  Sb72  1  0.33579902  -0.00072557  0.66548883  1
  Sb  Sb73  1  0.83505800  -0.00278198  0.83194706  1
  Sb  Sb74  1  0.49835322  0.00244184  0.49827334  1
  Sb  Sb75  1  0.17380517  0.33671507  0.83377157  1
  Sb  Sb76  1  0.65874826  0.83447331  0.50887217  1
  Sb  Sb77  1  0.00532489  0.83319894  0.50037143  1
  Sb  Sb78  1  0.66783966  0.66483086  0.32984701  1
  Sb  Sb79  1  0.33338401  0.50318929  0.50196011  1
  Sb  Sb80  1  0.49958164  0.66674836  0.16203667  1
  Sb  Sb81  1  0.33844254  0.33327505  -0.00014814  1
  Sb  Sb82  1  0.66582106  0.49783482  0.50494231  1
  Sb  Sb83  1  0.33445680  0.00025254  0.00256991  1
  Sb  Sb84  1  0.66081571  0.83294940  0.15995421  1
  Sb  Sb85  1  0.82389039  0.33781691  0.83326041  1
  Sb  Sb86  1  0.00102132  0.49984484  0.16541675  1
  Sb  Sb87  1  0.17103096  0.49886911  0.33075969  1
  Sb  Sb88  1  0.49369093  0.83343815  0.33379720  1
  Sb  Sb89  1  0.83045029  0.49984178  0.33162957  1
  Sb  Sb90  1  0.17318220  0.83065834  0.00195377  1
  Sb  Sb91  1  0.50137995  0.33067027  0.16390134  1
  Sb  Sb92  1  0.34178754  0.66613179  0.67027165  1
  Sb  Sb93  1  0.34109453  0.33393109  0.66762570  1
  Sb  Sb94  1  0.82951437  0.49520007  0.66848031  1
  Sb  Sb95  1  0.00153991  0.17058276  0.83694156  1
  Sb  Sb96  1  0.00043132  0.16759438  0.49531404  1
  Sb  Sb97  1  0.33402906  0.16701137  0.16374133  1
  Sb  Sb98  1  0.00522626  0.83443521  0.16733461  1
  Sb  Sb99  1  0.83054193  0.66613291  0.50130392  1
  Sb  Sb100  1  0.82661318  0.83098751  -0.00019194  1
  Sb  Sb101  1  -0.00428780  0.33109961  0.66602199  1
  Sb  Sb102  1  0.82992977  0.16771200  -0.00068504  1
  Sb  Sb103  1  0.00210793  0.33301386  0.33281873  1
  Sb  Sb104  1  0.33399024  0.32949329  0.33179303  1
  Sb  Sb105  1  0.17006776  0.66531485  0.50089414  1
  Sb  Sb106  1  0.33508955  0.66527842  -0.00282184  1
  Sb  Sb107  1  0.66416884  0.33262210  0.33185198  1
  Te  Te108  1  0.16806148  0.16867714  0.16598167  1
  Te  Te109  1  0.16715586  0.16761151  0.49802948  1
  Te  Te110  1  0.16673169  0.16795517  0.83691890  1
  Te  Te111  1  0.16774702  0.49983929  0.16569643  1
  Te  Te112  1  0.16598675  0.49696168  0.49979777  1
  Te  Te113  1  0.17095485  0.49848392  0.83413131  1
  Te  Te114  1  0.17259472  0.82983935  0.16928777  1
  Te  Te115  1  0.17279610  0.83549782  0.49795978  1
  Te  Te116  1  0.17173694  0.83304067  0.83333078  1
  Te  Te117  1  0.50051397  0.16649382  0.16820259  1
  Te  Te118  1  0.49940537  0.17210618  0.49381601  1
  Te  Te119  1  0.49971512  0.16195895  0.83476888  1
  Te  Te120  1  0.49903676  0.49939850  0.16542911  1
  Te  Te121  1  0.49952986  0.49838134  0.50270939  1
  Te  Te122  1  0.49805720  0.50092545  0.83378928  1
  Te  Te123  1  0.49422559  0.83552516  0.16604831  1
  Te  Te124  1  0.49316831  0.83233407  0.50232713  1
  Te  Te125  1  0.49778460  0.83856983  0.83232355  1
  Te  Te126  1  0.83158220  0.16811105  0.16650575  1
  Te  Te127  1  0.83358496  0.16708043  0.50219759  1
  Te  Te128  1  0.83237306  0.16691822  0.82956268  1
  Te  Te129  1  0.82974165  0.49973181  0.16694716  1
  Te  Te130  1  0.83762434  0.49635947  0.49984567  1
  Te  Te131  1  0.83254810  0.50514654  0.83328032  1
  Te  Te132  1  0.83140880  0.82975011  0.16632814  1
  Te  Te133  1  0.83226549  0.83902108  0.49964725  1
  Te  Te134  1  0.83172307  0.82697840  0.83340375  1
  Te  Te135  1  0.16674471  0.00296721  -0.00473235  1
  Te  Te136  1  0.16584433  0.00167619  0.33255384  1
  Te  Te137  1  0.16492396  -0.00016599  0.66452415  1
  Te  Te138  1  0.16566808  0.33325367  0.00229497  1
  Te  Te139  1  0.16734198  0.32777564  0.33374095  1
  Te  Te140  1  0.16408250  0.33808834  0.66235151  1
  Te  Te141  1  0.16571486  0.66612118  0.00088634  1
  Te  Te142  1  0.16226515  0.66715884  0.33262190  1
  Te  Te143  1  0.16391673  0.66162716  0.67012431  1
  Te  Te144  1  0.50053987  0.00339084  0.00820861  1
  Te  Te145  1  0.49845195  0.00279369  0.33085137  1
  Te  Te146  1  0.50396871  0.00644302  0.66391953  1
  Te  Te147  1  0.50498521  0.32751596  -0.00384412  1
  Te  Te148  1  0.49895461  0.33334890  0.33705426  1
  Te  Te149  1  0.50305027  0.33242639  0.66764782  1
  Te  Te150  1  0.50616201  0.66948836  -0.00552323  1
  Te  Te151  1  0.49971551  0.66229060  0.33457836  1
  Te  Te152  1  0.50329778  0.66427678  0.66951634  1
  Te  Te153  1  0.83439596  -0.00098397  0.00935805  1
  Te  Te154  1  0.83783935  0.00040739  0.33326183  1
  Te  Te155  1  0.83306920  0.00390585  0.66561947  1
  Te  Te156  1  0.82675711  0.33363375  0.00775460  1
  Te  Te157  1  0.83383764  0.33234547  0.33486046  1
  Te  Te158  1  0.82787858  0.32751640  0.66317099  1
  Te  Te159  1  0.83250530  0.66627005  -0.00043976  1
  Te  Te160  1  0.84008681  0.66755024  0.33068404  1
  Te  Te161  1  0.82659676  0.66794631  0.66996426  1
  Te  Te162  1  0.00368891  0.16675363  0.00604692  1
  Te  Te163  1  0.00296414  0.16322589  0.32811581  1
  Te  Te164  1  -0.00044344  0.16140333  0.66729009  1
  Te  Te165  1  0.00595066  0.50494389  -0.00280345  1
  Te  Te166  1  0.00084060  0.50478467  0.33693136  1
  Te  Te167  1  0.00066861  0.49987473  0.66716541  1
  Te  Te168  1  0.00034347  0.82451470  -0.00043782  1
  Te  Te169  1  0.00791836  0.83348162  0.33426960  1
  Te  Te170  1  -0.00009265  0.84183076  0.66652717  1
  Te  Te171  1  0.33327476  0.16666874  -0.00505051  1
  Te  Te172  1  0.33356350  0.16159280  0.33313274  1
  Te  Te173  1  0.33857309  0.16632365  0.67385895  1
  Te  Te174  1  0.32803068  0.49931388  0.00020962  1
  Te  Te175  1  0.33942163  0.50068463  0.33047752  1
  Te  Te176  1  0.33392056  0.50006246  0.67021639  1
  Te  Te177  1  0.34026677  0.83393726  -0.00062993  1
  Te  Te178  1  0.32951847  0.83708287  0.33114000  1
  Te  Te179  1  0.34037050  0.83398582  0.67107248  1
  Te  Te180  1  0.66434024  0.16774504  0.00026764  1
  Te  Te181  1  0.66059216  0.16570810  0.32402247  1
  Te  Te182  1  0.66473248  0.16868441  0.66680356  1
  Te  Te183  1  0.66490028  0.49873570  -0.00221687  1
  Te  Te184  1  0.65905908  0.50014878  0.32704445  1
  Te  Te185  1  0.66276836  0.49856913  0.67038864  1
  Te  Te186  1  0.65967037  0.83243127  -0.00716660  1
  Te  Te187  1  0.66657165  0.83300132  0.33386750  1
  Te  Te188  1  0.65988098  0.83077202  0.67258357  1
  Te  Te189  1  -0.00343167  0.00196333  0.16969743  1
  Te  Te190  1  0.00158484  0.00025190  0.49820264  1
  Te  Te191  1  0.00558588  0.00022442  0.83267839  1
  Te  Te192  1  0.00029148  0.32935852  0.16641914  1
  Te  Te193  1  0.00070708  0.33702409  0.49940689  1
  Te  Te194  1  -0.00399594  0.34231487  0.83403830  1
  Te  Te195  1  -0.00019183  0.66680988  0.16545743  1
  Te  Te196  1  -0.00158563  0.66235558  0.50012879  1
  Te  Te197  1  0.00905153  0.66246590  0.83473733  1
  Te  Te198  1  0.33640909  -0.00240738  0.17118432  1
  Te  Te199  1  0.32951796  -0.00320622  0.49573927  1
  Te  Te200  1  0.32720908  -0.00026827  0.83290779  1
  Te  Te201  1  0.32612518  0.34044600  0.16581909  1
  Te  Te202  1  0.33071959  0.33424623  0.49937624  1
  Te  Te203  1  0.34186969  0.33384929  0.83397816  1
  Te  Te204  1  0.32996462  0.66491952  0.16525315  1
  Te  Te205  1  0.33943586  0.67256345  0.49925948  1
  Te  Te206  1  0.32938219  0.66570937  0.83384952  1
  Te  Te207  1  0.66767286  0.00162622  0.16706307  1
  Te  Te208  1  0.67296526  -0.00002230  0.50544248  1
  Te  Te209  1  0.66984161  0.00909953  0.82831137  1
  Te  Te210  1  0.66758092  0.33388512  0.16608467  1
  Te  Te211  1  0.66703394  0.33337031  0.50304844  1
  Te  Te212  1  0.66416524  0.33029003  0.83424367  1
  Te  Te213  1  0.67045747  0.66388599  0.16244665  1
  Te  Te214  1  0.66116636  0.66621495  0.50060584  1
  Te  Te215  1  0.66305905  0.66367779  0.83466454  1
