# generated using pymatgen
data_AgSbTe2
_symmetry_space_group_name_H-M   'P 1'
_cell_length_a   18.34082607
_cell_length_b   18.34113593
_cell_length_c   18.33988107
_cell_angle_alpha   89.99927305
_cell_angle_beta   90.00075078
_cell_angle_gamma   89.99819109
_symmetry_Int_Tables_number   1
_chemical_formula_structural   AgSbTe2
_chemical_formula_sum   'Ag54 Sb54 Te108'
_cell_volume   6169.38163925
_cell_formula_units_Z   54
loop_
 _symmetry_equiv_pos_site_id
 _symmetry_equiv_pos_as_xyz
  1  'x, y, z'
loop_
 _atom_site_type_symbol
 _atom_site_label
 _atom_site_symmetry_multiplicity
 _atom_site_fract_x
 _atom_site_fract_y
 _atom_site_fract_z
 _atom_site_occupancy
  Ag  Ag0  1  -0.00285185  0.16757589  0.83334163  1
  Ag  Ag1  1  0.83191494  0.65994320  0.17243115  1
  Ag  Ag2  1  0.84092788  0.01261693  0.16783304  1
  Ag  Ag3  1  -0.00838092  0.66822299  0.33351723  1
  Ag  Ag4  1  -0.00236272  0.48884557  0.16670296  1
  Ag  Ag5  1  0.16353118  0.48272554  0.66665255  1
  Ag  Ag6  1  0.68090975  0.16996968  0.50595355  1
  Ag  Ag7  1  0.16047065  0.00558302  0.49754759  1
  Ag  Ag8  1  0.32063533  0.00297342  0.00497407  1
  Ag  Ag9  1  0.31811209  0.16948384  0.17372190  1
  Ag  Ag10  1  0.66582137  0.49324802  0.83205666  1
  Ag  Ag11  1  0.67106105  0.49696464  0.50177107  1
  Ag  Ag12  1  0.49447274  0.83325753  0.32609103  1
  Ag  Ag13  1  0.83691925  0.16621913  0.00104419  1
  Ag  Ag14  1  0.50102071  0.83472103  0.00428932  1
  Ag  Ag15  1  -0.00098428  0.32359853  0.00134866  1
  Ag  Ag16  1  0.66942419  0.50129054  0.16670036  1
  Ag  Ag17  1  -0.00003978  0.16634594  0.50278972  1
  Ag  Ag18  1  0.00185333  0.00782470  0.67155961  1
  Ag  Ag19  1  0.00297314  0.32505360  0.67441578  1
  Ag  Ag20  1  0.84231429  0.00861776  0.83647022  1
  Ag  Ag21  1  0.16164349  0.00728203  0.17287633  1
  Ag  Ag22  1  0.67244331  0.66236394  0.66614397  1
  Ag  Ag23  1  0.84105126  0.00947163  0.49704553  1
  Ag  Ag24  1  0.66639769  0.66517854  0.00647731  1
  Ag  Ag25  1  0.67519050  0.66588177  0.32896468  1
  Ag  Ag26  1  0.68042487  0.17129535  0.82680390  1
  Ag  Ag27  1  0.16127335  0.32644328  0.16351170  1
  Ag  Ag28  1  0.84120728  0.32896025  0.16662042  1
  Ag  Ag29  1  0.16317691  0.84789386  0.66285038  1
  Ag  Ag30  1  0.32343141  0.32903380  0.66468495  1
  Ag  Ag31  1  0.32671177  0.00707817  0.32761432  1
  Ag  Ag32  1  -0.00246259  0.66624632  0.66339112  1
  Ag  Ag33  1  0.15764704  0.32688644  0.82828569  1
  Ag  Ag34  1  0.00063565  0.84741174  0.16781049  1
  Ag  Ag35  1  0.49940303  0.00917096  0.83430689  1
  Ag  Ag36  1  0.33170404  0.32432100  0.32713899  1
  Ag  Ag37  1  0.50231839  0.32657790  0.83578899  1
  Ag  Ag38  1  0.33106611  0.48862576  0.16799009  1
  Ag  Ag39  1  0.31968807  0.16790460  0.49302756  1
  Ag  Ag40  1  0.83280280  0.66512823  0.48912301  1
  Ag  Ag41  1  0.00027755  0.16766022  0.16308037  1
  Ag  Ag42  1  0.84152586  0.16501846  0.33138857  1
  Ag  Ag43  1  0.50881868  0.66024501  0.16352805  1
  Ag  Ag44  1  0.16591545  0.16530738  0.66313216  1
  Ag  Ag45  1  0.49280196  0.33419515  0.16170160  1
  Ag  Ag46  1  0.16042240  0.00828207  0.82984983  1
  Ag  Ag47  1  0.83944553  0.32718265  0.83393944  1
  Ag  Ag48  1  0.83343578  0.32448598  0.49685479  1
  Ag  Ag49  1  0.00184178  0.00560424  0.00270256  1
  Ag  Ag50  1  0.16740869  0.84658339  0.33372450  1
  Ag  Ag51  1  0.49341870  0.16744094  0.67030661  1
  Ag  Ag52  1  0.16306657  0.16510569  0.33343028  1
  Ag  Ag53  1  0.50649919  0.66667437  0.83768617  1
  Sb  Sb54  1  0.16511556  0.49658833  -0.00017829  1
  Sb  Sb55  1  0.00049127  0.32951998  0.33025147  1
  Sb  Sb56  1  0.33322554  0.66677974  0.33175476  1
  Sb  Sb57  1  0.50371262  0.32944322  0.50104756  1
  Sb  Sb58  1  0.00130239  0.84263339  0.83454683  1
  Sb  Sb59  1  0.83725476  0.83581938  0.33107554  1
  Sb  Sb60  1  0.66600642  0.33416024  0.33225499  1
  Sb  Sb61  1  0.50838244  0.66644671  0.49832149  1
  Sb  Sb62  1  0.67325374  0.00244265  0.66809638  1
  Sb  Sb63  1  0.49585053  0.83638015  0.66916728  1
  Sb  Sb64  1  0.33063084  0.84048017  0.49858789  1
  Sb  Sb65  1  0.66801418  0.83489001  0.49918312  1
  Sb  Sb66  1  0.83206669  0.83939748  0.00214540  1
  Sb  Sb67  1  0.83393496  0.49510247  0.33102074  1
  Sb  Sb68  1  -0.00025613  0.84190766  0.49784780  1
  Sb  Sb69  1  0.66622672  0.83421658  0.83351447  1
  Sb  Sb70  1  0.16795926  0.83933495  0.00199889  1
  Sb  Sb71  1  0.15864713  0.16520003  0.00181496  1
  Sb  Sb72  1  0.49972030  0.00353081  0.50318734  1
  Sb  Sb73  1  0.84108877  0.16817370  0.66582639  1
  Sb  Sb74  1  0.83286234  0.49306657  0.00344883  1
  Sb  Sb75  1  0.66575649  -0.00102249  0.33327864  1
  Sb  Sb76  1  0.83547886  0.49868145  0.66555794  1
  Sb  Sb77  1  0.33499577  0.49100338  0.49717036  1
  Sb  Sb78  1  0.32561210  0.00793551  0.66719745  1
  Sb  Sb79  1  0.83871331  0.83321271  0.66699952  1
  Sb  Sb80  1  0.33051568  0.83679729  0.16746966  1
  Sb  Sb81  1  0.49720843  0.16468289  0.33457039  1
  Sb  Sb82  1  0.67344813  0.17148588  0.16767230  1
  Sb  Sb83  1  0.16081317  0.32576932  0.50057353  1
  Sb  Sb84  1  0.50132767  0.50159772  0.32912808  1
  Sb  Sb85  1  0.16174055  0.66616624  0.16782928  1
  Sb  Sb86  1  -0.00267213  0.49547267  0.49962739  1
  Sb  Sb87  1  0.67112043  0.33507702  -0.00117919  1
  Sb  Sb88  1  0.16502461  0.49481136  0.33429008  1
  Sb  Sb89  1  0.67060502  0.33159566  0.66861630  1
  Sb  Sb90  1  0.00490292  0.00120862  0.32926822  1
  Sb  Sb91  1  0.50171204  0.50143198  0.00232854  1
  Sb  Sb92  1  0.15876466  0.67243122  0.50008746  1
  Sb  Sb93  1  0.67151692  -0.00012477  -0.00154478  1
  Sb  Sb94  1  0.32851110  0.16688554  0.83535159  1
  Sb  Sb95  1  0.66982414  0.82875119  0.16663817  1
  Sb  Sb96  1  0.82842304  0.66227397  0.83589484  1
  Sb  Sb97  1  0.49867547  0.00216549  0.16391168  1
  Sb  Sb98  1  -0.00580339  0.66806785  0.00284650  1
  Sb  Sb99  1  -0.00312432  0.49209040  0.83367642  1
  Sb  Sb100  1  0.33339703  0.83663349  0.83331928  1
  Sb  Sb101  1  0.32875693  0.32619391  0.00344586  1
  Sb  Sb102  1  0.16675637  0.66574724  0.82923081  1
  Sb  Sb103  1  0.33561573  0.49649534  0.83744734  1
  Sb  Sb104  1  0.33125378  0.66003006  0.66646557  1
  Sb  Sb105  1  0.50412707  0.16416004  -0.00380188  1
  Sb  Sb106  1  0.33996566  0.67087221  0.00311768  1
  Sb  Sb107  1  0.49920332  0.49510931  0.66839140  1
  Te  Te108  1  0.16302202  0.16716325  0.16602203  1
  Te  Te109  1  0.16201107  0.16620802  0.49692981  1
  Te  Te110  1  0.16380738  0.16822748  0.83311186  1
  Te  Te111  1  0.16408138  0.49664736  0.16770024  1
  Te  Te112  1  0.16744239  0.50013609  0.50532448  1
  Te  Te113  1  0.16720251  0.49701292  0.82783133  1
  Te  Te114  1  0.16241138  0.83417540  0.16984043  1
  Te  Te115  1  0.16573311  0.84003332  0.49812632  1
  Te  Te116  1  0.16625668  0.83490287  0.82963250  1
  Te  Te117  1  0.50691066  0.17145044  0.16541359  1
  Te  Te118  1  0.50278649  0.16586372  0.50551223  1
  Te  Te119  1  0.49330165  0.16794869  0.83112806  1
  Te  Te120  1  0.50454503  0.49812727  0.16726956  1
  Te  Te121  1  0.50875017  0.49868222  0.49974791  1
  Te  Te122  1  0.50428731  0.50003000  0.83329397  1
  Te  Te123  1  0.49882450  0.83436190  0.16593347  1
  Te  Te124  1  0.49859762  0.83479859  0.49478744  1
  Te  Te125  1  0.49986358  0.83057142  0.83526256  1
  Te  Te126  1  0.83306867  0.16919394  0.17061474  1
  Te  Te127  1  0.83731208  0.16661532  0.50099724  1
  Te  Te128  1  0.83513566  0.16668874  0.83007935  1
  Te  Te129  1  0.83400856  0.49881450  0.16730727  1
  Te  Te130  1  0.82873254  0.50462497  0.49864408  1
  Te  Te131  1  0.82625340  0.49302693  0.83475999  1
  Te  Te132  1  0.83884204  0.83286366  0.16668442  1
  Te  Te133  1  0.83398306  0.82860933  0.49936899  1
  Te  Te134  1  0.83395482  0.84520507  0.83376147  1
  Te  Te135  1  0.16411785  -0.00142911  -0.00352941  1
  Te  Te136  1  0.16719318  0.00336326  0.33213045  1
  Te  Te137  1  0.16408767  0.00446332  0.66739641  1
  Te  Te138  1  0.16132452  0.33451277  -0.00032512  1
  Te  Te139  1  0.17027465  0.32817256  0.33043138  1
  Te  Te140  1  0.16406075  0.32705143  0.66503820  1
  Te  Te141  1  0.16791991  0.66805440  -0.00215603  1
  Te  Te142  1  0.16519802  0.66832266  0.33467262  1
  Te  Te143  1  0.16391608  0.67103646  0.66549311  1
  Te  Te144  1  0.50434528  -0.00385212  -0.00447689  1
  Te  Te145  1  0.49600296  -0.00548770  0.33265701  1
  Te  Te146  1  0.49946034  0.00242459  0.67240841  1
  Te  Te147  1  0.49886958  0.33325929  -0.00018329  1
  Te  Te148  1  0.49522338  0.33377256  0.32866446  1
  Te  Te149  1  0.50038733  0.32816570  0.66919266  1
  Te  Te150  1  0.50415207  0.66923565  0.00083579  1
  Te  Te151  1  0.50051267  0.67102381  0.33024870  1
  Te  Te152  1  0.50126385  0.66636978  0.66851476  1
  Te  Te153  1  0.83766789  0.00499390  0.00090153  1
  Te  Te154  1  0.83175399  0.00434045  0.33418984  1
  Te  Te155  1  0.83919319  -0.00285843  0.66359456  1
  Te  Te156  1  0.83710711  0.32738763  0.00140586  1
  Te  Te157  1  0.83301385  0.32732438  0.33219221  1
  Te  Te158  1  0.83877392  0.33637270  0.66860857  1
  Te  Te159  1  0.82567448  0.66852844  0.00279967  1
  Te  Te160  1  0.83374108  0.67002536  0.33076357  1
  Te  Te161  1  0.83334086  0.66630339  0.66965604  1
  Te  Te162  1  -0.00272336  0.16620859  -0.00011089  1
  Te  Te163  1  0.00028025  0.16744460  0.33525234  1
  Te  Te164  1  0.00198105  0.16630317  0.66819229  1
  Te  Te165  1  -0.00064505  0.49839133  0.00546340  1
  Te  Te166  1  0.00075931  0.50745594  0.32904653  1
  Te  Te167  1  0.00459737  0.50378343  0.66683495  1
  Te  Te168  1  -0.00024788  0.83690546  0.00669484  1
  Te  Te169  1  0.00398474  0.82787115  0.33006235  1
  Te  Te170  1  0.00599982  0.82810607  0.66668756  1
  Te  Te171  1  0.33823908  0.16024124  0.00825358  1
  Te  Te172  1  0.33528973  0.16649756  0.33323694  1
  Te  Te173  1  0.33154619  0.17054112  0.66776382  1
  Te  Te174  1  0.33203255  0.50044628  0.00970346  1
  Te  Te175  1  0.33242936  0.49510613  0.32792030  1
  Te  Te176  1  0.32731919  0.49125553  0.66681144  1
  Te  Te177  1  0.33939650  0.84175788  0.00061592  1
  Te  Te178  1  0.33047098  0.83657290  0.33427544  1
  Te  Te179  1  0.32537044  0.83021319  0.66485000  1
  Te  Te180  1  0.67478099  0.16708812  -0.00628730  1
  Te  Te181  1  0.66793402  0.16702095  0.33850590  1
  Te  Te182  1  0.65986861  0.16641536  0.66710503  1
  Te  Te183  1  0.66763713  0.50482528  -0.00013139  1
  Te  Te184  1  0.66754524  0.50472777  0.33357059  1
  Te  Te185  1  0.66596554  0.50213932  0.66701998  1
  Te  Te186  1  0.66126117  0.82837947  -0.00028309  1
  Te  Te187  1  0.66072208  0.82890115  0.33441647  1
  Te  Te188  1  0.66431206  0.82701207  0.66594912  1
  Te  Te189  1  0.00034687  0.00375439  0.16545087  1
  Te  Te190  1  0.00026593  0.00324726  0.50229975  1
  Te  Te191  1  0.00125011  0.00350234  0.83376223  1
  Te  Te192  1  0.00187717  0.33009820  0.16724500  1
  Te  Te193  1  -0.00764190  0.33026031  0.50121645  1
  Te  Te194  1  -0.00031217  0.33126042  0.83509451  1
  Te  Te195  1  -0.00382472  0.66206367  0.16561789  1
  Te  Te196  1  -0.00597983  0.66447336  0.50051697  1
  Te  Te197  1  -0.00143162  0.66538226  0.83139243  1
  Te  Te198  1  0.33241938  0.00301672  0.16607865  1
  Te  Te199  1  0.33199389  0.00799866  0.49733548  1
  Te  Te200  1  0.33555786  -0.00058793  0.83600265  1
  Te  Te201  1  0.33323490  0.33018906  0.16488770  1
  Te  Te202  1  0.33503715  0.32790206  0.50013839  1
  Te  Te203  1  0.33593658  0.33480607  0.83308000  1
  Te  Te204  1  0.33749485  0.66434474  0.16704578  1
  Te  Te205  1  0.33421024  0.66319299  0.49968556  1
  Te  Te206  1  0.34037632  0.66520256  0.83460743  1
  Te  Te207  1  0.67392987  -0.00037376  0.16687787  1
  Te  Te208  1  0.67122438  0.00567956  0.50128644  1
  Te  Te209  1  0.66356238  0.00456247  0.83214100  1
  Te  Te210  1  0.66704249  0.33977384  0.16635059  1
  Te  Te211  1  0.67241997  0.33286731  0.49951933  1
  Te  Te212  1  0.66449244  0.33193369  0.83318767  1
  Te  Te213  1  0.66734135  0.66622730  0.16823933  1
  Te  Te214  1  0.67188206  0.66715209  0.50117075  1
  Te  Te215  1  0.66545297  0.66637211  0.82935552  1
