# generated using pymatgen
data_AgSbTe2
_symmetry_space_group_name_H-M   'P 1'
_cell_length_a   18.31679971
_cell_length_b   18.31419654
_cell_length_c   18.32252829
_cell_angle_alpha   90.00049774
_cell_angle_beta   90.00042199
_cell_angle_gamma   90.00436580
_symmetry_Int_Tables_number   1
_chemical_formula_structural   AgSbTe2
_chemical_formula_sum   'Ag54 Sb54 Te108'
_cell_volume   6146.42896209
_cell_formula_units_Z   54
loop_
 _symmetry_equiv_pos_site_id
 _symmetry_equiv_pos_as_xyz
  1  'x, y, z'
loop_
 _atom_site_type_symbol
 _atom_site_label
 _atom_site_symmetry_multiplicity
 _atom_site_fract_x
 _atom_site_fract_y
 _atom_site_fract_z
 _atom_site_occupancy
  Ag  Ag0  1  0.33243278  0.16982347  0.16011886  1
  Ag  Ag1  1  0.16320513  0.00486376  0.16600337  1
  Ag  Ag2  1  0.33635556  0.17380116  0.84221461  1
  Ag  Ag3  1  0.33305745  0.33067835  0.32466956  1
  Ag  Ag4  1  0.66830814  0.82181947  0.16472286  1
  Ag  Ag5  1  0.16213922  0.32692252  0.16202391  1
  Ag  Ag6  1  0.49664566  0.83194144  0.66608786  1
  Ag  Ag7  1  0.00339597  -0.00064340  0.65658402  1
  Ag  Ag8  1  0.83289205  0.66430085  0.83653863  1
  Ag  Ag9  1  0.83226412  0.50070973  0.66809418  1
  Ag  Ag10  1  0.50132160  0.49949748  0.33168220  1
  Ag  Ag11  1  0.84078003  0.82754754  0.32846706  1
  Ag  Ag12  1  0.82743547  0.66718747  0.48839969  1
  Ag  Ag13  1  0.66575840  0.17105485  0.49776481  1
  Ag  Ag14  1  0.65944811  0.17314145  0.83645329  1
  Ag  Ag15  1  0.00559569  0.16944870  0.16687151  1
  Ag  Ag16  1  -0.00653644  0.49386407  0.16623213  1
  Ag  Ag17  1  0.82488205  0.66590098  0.16934245  1
  Ag  Ag18  1  0.67079474  0.50987926  0.17012877  1
  Ag  Ag19  1  0.33103830  0.83357290  0.83484243  1
  Ag  Ag20  1  -0.01208484  0.67740887  0.33151135  1
  Ag  Ag21  1  0.50098603  0.16959124  0.32726664  1
  Ag  Ag22  1  0.83424101  0.33637198  0.84078434  1
  Ag  Ag23  1  0.15989533  0.83550057  0.32990404  1
  Ag  Ag24  1  0.33258717  0.48967101  0.83483501  1
  Ag  Ag25  1  0.66939250  0.66698919  0.32510993  1
  Ag  Ag26  1  0.00340566  -0.00477175  0.33414381  1
  Ag  Ag27  1  0.83545161  0.82991543  0.00463424  1
  Ag  Ag28  1  0.16598537  0.16714750  0.66398151  1
  Ag  Ag29  1  0.00834742  0.00056284  0.00471562  1
  Ag  Ag30  1  0.32794651  0.32609214  -0.00096789  1
  Ag  Ag31  1  0.00285857  0.15912000  0.49431342  1
  Ag  Ag32  1  0.00544153  0.84004046  0.49229293  1
  Ag  Ag33  1  0.16511017  0.83522275  0.00289607  1
  Ag  Ag34  1  0.49305361  0.33004124  0.83542297  1
  Ag  Ag35  1  0.00801061  0.32741511  0.00401169  1
  Ag  Ag36  1  0.83840099  0.33824054  0.16212343  1
  Ag  Ag37  1  0.16677536  0.48888590  0.00234431  1
  Ag  Ag38  1  0.00412579  0.83464529  0.83640590  1
  Ag  Ag39  1  0.16599838  0.32563171  0.49778547  1
  Ag  Ag40  1  0.66601888  0.50080387  0.49370534  1
  Ag  Ag41  1  0.66815953  0.33274830  0.66829383  1
  Ag  Ag42  1  0.50646426  0.67138092  0.49373608  1
  Ag  Ag43  1  0.17174408  0.33080279  0.84510774  1
  Ag  Ag44  1  0.32861062  0.00631639  0.00022278  1
  Ag  Ag45  1  0.49348950  -0.00554651  0.49845247  1
  Ag  Ag46  1  0.16371314  0.00131769  0.49503699  1
  Ag  Ag47  1  0.49630921  0.16414779  0.00463415  1
  Ag  Ag48  1  0.51026687  0.66703762  0.17089511  1
  Ag  Ag49  1  0.33256413  0.83400088  0.50265728  1
  Ag  Ag50  1  0.66766810  0.66865701  0.01203009  1
  Ag  Ag51  1  0.49606980  0.83621061  -0.00156569  1
  Ag  Ag52  1  0.66298378  0.16986853  0.16693648  1
  Ag  Ag53  1  0.33523973  0.67143272  0.66758839  1
  Sb  Sb54  1  0.16737845  0.00430454  0.83665507  1
  Sb  Sb55  1  0.66536272  0.66240913  0.66408759  1
  Sb  Sb56  1  0.00518238  0.33013555  0.32611467  1
  Sb  Sb57  1  0.33190593  0.16299988  0.49879542  1
  Sb  Sb58  1  0.16544590  0.66590642  0.83498016  1
  Sb  Sb59  1  -0.00338948  0.83536280  0.16797891  1
  Sb  Sb60  1  0.66282578  0.33693648  0.33328494  1
  Sb  Sb61  1  0.66618172  0.83152657  0.49539155  1
  Sb  Sb62  1  0.83897083  -0.00228503  0.16587874  1
  Sb  Sb63  1  0.16909071  0.83848441  0.66733186  1
  Sb  Sb64  1  0.83552586  0.33704033  0.49769584  1
  Sb  Sb65  1  0.16870037  0.16305643  0.33307824  1
  Sb  Sb66  1  0.50255584  0.66483582  0.83466771  1
  Sb  Sb67  1  0.32891409  0.00297328  0.33024207  1
  Sb  Sb68  1  0.50005063  0.33330672  0.16314073  1
  Sb  Sb69  1  0.66601706  0.83499243  0.83910985  1
  Sb  Sb70  1  0.49708533  0.49914362  0.00355523  1
  Sb  Sb71  1  0.66875918  0.00427611  0.66473814  1
  Sb  Sb72  1  0.49609664  0.00027780  0.16908258  1
  Sb  Sb73  1  -0.00400934  0.50031170  0.49344691  1
  Sb  Sb74  1  0.33398171  0.49433626  0.16233668  1
  Sb  Sb75  1  0.49764649  0.00284250  0.83238576  1
  Sb  Sb76  1  0.83123262  0.82812820  0.66718566  1
  Sb  Sb77  1  0.50306732  0.50295489  0.66406136  1
  Sb  Sb78  1  0.00222090  0.16450303  0.83660807  1
  Sb  Sb79  1  0.49755149  0.33247239  0.50223861  1
  Sb  Sb80  1  0.83599063  0.17089336  0.66708177  1
  Sb  Sb81  1  0.66893777  -0.00332172  0.33223982  1
  Sb  Sb82  1  0.16477433  0.66791523  0.16582795  1
  Sb  Sb83  1  0.33750195  0.66524796  0.33547734  1
  Sb  Sb84  1  0.00155438  0.67119518  0.66258813  1
  Sb  Sb85  1  0.16620093  0.67093564  0.49821990  1
  Sb  Sb86  1  0.83598376  -0.00046934  0.83515060  1
  Sb  Sb87  1  -0.00194453  0.32905057  0.67081513  1
  Sb  Sb88  1  0.66631578  0.33505030  -0.00087025  1
  Sb  Sb89  1  0.82809711  0.50592221  0.33170312  1
  Sb  Sb90  1  0.33740149  0.66818167  -0.00276755  1
  Sb  Sb91  1  0.83083567  0.16345000  0.33111595  1
  Sb  Sb92  1  0.17261423  0.16643495  0.00082956  1
  Sb  Sb93  1  0.33679485  0.50304309  0.50403440  1
  Sb  Sb94  1  0.17009243  0.50091700  0.32900122  1
  Sb  Sb95  1  0.33541691  0.83708249  0.16414231  1
  Sb  Sb96  1  0.00157858  0.50239491  0.83916905  1
  Sb  Sb97  1  0.66506502  -0.00225014  0.00200394  1
  Sb  Sb98  1  0.49692842  0.16377690  0.66711658  1
  Sb  Sb99  1  0.83025789  0.16467707  0.00180133  1
  Sb  Sb100  1  0.83631678  0.50299583  0.00125548  1
  Sb  Sb101  1  -0.00528863  0.66968179  0.00527148  1
  Sb  Sb102  1  0.83782388  -0.00491940  0.49881454  1
  Sb  Sb103  1  0.33480211  0.33460367  0.67173249  1
  Sb  Sb104  1  0.66509458  0.49589578  0.83498598  1
  Sb  Sb105  1  0.16342249  0.49396506  0.67030291  1
  Sb  Sb106  1  0.49988701  0.83302654  0.33214984  1
  Sb  Sb107  1  0.32915610  -0.00266339  0.66919725  1
  Te  Te108  1  0.16669413  0.16678103  0.16760553  1
  Te  Te109  1  0.16529345  0.16440810  0.49967398  1
  Te  Te110  1  0.16908392  0.17124076  0.82844199  1
  Te  Te111  1  0.16577823  0.49737735  0.16256907  1
  Te  Te112  1  0.16641723  0.49544021  0.49983646  1
  Te  Te113  1  0.16935258  0.49557999  0.83824406  1
  Te  Te114  1  0.16751869  0.83577211  0.16556645  1
  Te  Te115  1  0.16554796  0.83556083  0.50066535  1
  Te  Te116  1  0.16650245  0.83397992  0.83612674  1
  Te  Te117  1  0.49765987  0.16676532  0.16609995  1
  Te  Te118  1  0.50190695  0.16483995  0.49932987  1
  Te  Te119  1  0.49822741  0.16874645  0.83431843  1
  Te  Te120  1  0.50318536  0.50229797  0.17050063  1
  Te  Te121  1  0.50466830  0.50333447  0.49650829  1
  Te  Te122  1  0.49488478  0.49552808  0.83344248  1
  Te  Te123  1  0.50398741  0.83251023  0.16356825  1
  Te  Te124  1  0.49932936  0.83299466  0.49925031  1
  Te  Te125  1  0.49721894  0.83345643  0.83670667  1
  Te  Te126  1  0.83291132  0.17035296  0.16728677  1
  Te  Te127  1  0.83172591  0.16745271  0.49917663  1
  Te  Te128  1  0.83018525  0.17322218  0.83386519  1
  Te  Te129  1  0.83239721  0.50019404  0.16622096  1
  Te  Te130  1  0.82856707  0.50453675  0.50264558  1
  Te  Te131  1  0.83373055  0.49868440  0.83227916  1
  Te  Te132  1  0.83015273  0.83149532  0.16567672  1
  Te  Te133  1  0.83530905  0.82736601  0.49861458  1
  Te  Te134  1  0.83477571  0.83054487  0.83668343  1
  Te  Te135  1  0.16811016  -0.00221492  0.00207206  1
  Te  Te136  1  0.16376047  -0.00348800  0.33333973  1
  Te  Te137  1  0.16226383  0.00464027  0.66306175  1
  Te  Te138  1  0.16695083  0.33059569  0.00122439  1
  Te  Te139  1  0.17250415  0.33429595  0.33262997  1
  Te  Te140  1  0.16611979  0.32906043  0.66220091  1
  Te  Te141  1  0.16667865  0.67379325  0.00023251  1
  Te  Te142  1  0.16582988  0.67254402  0.33264963  1
  Te  Te143  1  0.17337386  0.66397854  0.66654928  1
  Te  Te144  1  0.49601373  -0.00054987  0.00032890  1
  Te  Te145  1  0.49994074  0.00455141  0.33879549  1
  Te  Te146  1  0.50040135  -0.00590383  0.65972259  1
  Te  Te147  1  0.49636166  0.33068010  -0.00433613  1
  Te  Te148  1  0.49507596  0.33175736  0.33396252  1
  Te  Te149  1  0.50561018  0.33343951  0.67224123  1
  Te  Te150  1  0.50489148  0.66897079  0.00283490  1
  Te  Te151  1  0.50269414  0.66607130  0.33336395  1
  Te  Te152  1  0.49778981  0.67064355  0.66497554  1
  Te  Te153  1  0.83809020  -0.00844886  -0.00055303  1
  Te  Te154  1  0.84048043  -0.00859942  0.33289392  1
  Te  Te155  1  0.84240470  -0.00126150  0.66755102  1
  Te  Te156  1  0.83577130  0.33361519  0.00119700  1
  Te  Te157  1  0.83422081  0.33377973  0.32653682  1
  Te  Te158  1  0.83041391  0.33830290  0.66630058  1
  Te  Te159  1  0.83005888  0.66943967  0.00184069  1
  Te  Te160  1  0.83091943  0.66786344  0.33090927  1
  Te  Te161  1  0.83353089  0.66230560  0.67103015  1
  Te  Te162  1  -0.00257364  0.16533986  0.00369801  1
  Te  Te163  1  -0.00151755  0.16269476  0.33296246  1
  Te  Te164  1  0.00320472  0.16207479  0.66541859  1
  Te  Te165  1  0.00521864  0.49782821  0.00539162  1
  Te  Te166  1  0.00133191  0.50190662  0.32626866  1
  Te  Te167  1  -0.00556282  0.50090226  0.66567305  1
  Te  Te168  1  0.00168412  0.83465116  0.00032194  1
  Te  Te169  1  0.00084193  0.83369795  0.33238080  1
  Te  Te170  1  0.00001847  0.83771290  0.66908405  1
  Te  Te171  1  0.33606640  0.16658535  -0.00026086  1
  Te  Te172  1  0.33912128  0.17038991  0.33127048  1
  Te  Te173  1  0.32858724  0.16558687  0.67153388  1
  Te  Te174  1  0.32855181  0.49855432  -0.00506364  1
  Te  Te175  1  0.33870264  0.49465309  0.33449264  1
  Te  Te176  1  0.33301068  0.50586620  0.67270679  1
  Te  Te177  1  0.33431246  0.83429126  -0.00096140  1
  Te  Te178  1  0.32852723  0.83410307  0.33741280  1
  Te  Te179  1  0.33535312  0.83264450  0.66659166  1
  Te  Te180  1  0.66117846  0.16611937  -0.00023438  1
  Te  Te181  1  0.66281541  0.16615399  0.33511401  1
  Te  Te182  1  0.66675905  0.17087649  0.66491021  1
  Te  Te183  1  0.66593453  0.50495845  0.00614254  1
  Te  Te184  1  0.66258088  0.50322655  0.33302290  1
  Te  Te185  1  0.66985372  0.49489572  0.66510058  1
  Te  Te186  1  0.66544791  0.83165225  0.00347843  1
  Te  Te187  1  0.66934000  0.82933072  0.32755085  1
  Te  Te188  1  0.65940843  0.83533185  0.66834004  1
  Te  Te189  1  0.00357153  0.00349024  0.16585682  1
  Te  Te190  1  0.00083679  0.00009379  0.49762941  1
  Te  Te191  1  0.00114865  -0.00410462  0.84089002  1
  Te  Te192  1  0.00099596  0.33133410  0.16483933  1
  Te  Te193  1  0.00421202  0.33029089  0.50004350  1
  Te  Te194  1  -0.00099144  0.33335137  0.83883109  1
  Te  Te195  1  -0.00196336  0.66198530  0.17182077  1
  Te  Te196  1  -0.00309505  0.66929369  0.49480247  1
  Te  Te197  1  -0.00500260  0.67145477  0.83328064  1
  Te  Te198  1  0.32768739  0.00529722  0.16232684  1
  Te  Te199  1  0.33035742  -0.00459513  0.50024247  1
  Te  Te200  1  0.33279951  -0.00489752  0.83840903  1
  Te  Te201  1  0.33261067  0.32984508  0.16421671  1
  Te  Te202  1  0.32886000  0.33339090  0.50120938  1
  Te  Te203  1  0.33152249  0.33218955  0.83374584  1
  Te  Te204  1  0.33895909  0.66507846  0.16725744  1
  Te  Te205  1  0.33657417  0.67110169  0.50326912  1
  Te  Te206  1  0.33382616  0.67412441  0.82997389  1
  Te  Te207  1  0.66716623  0.01172814  0.16710253  1
  Te  Te208  1  0.66529568  0.00484530  0.49990840  1
  Te  Te209  1  0.66731220  0.01130448  0.83308760  1
  Te  Te210  1  0.66952419  0.32802539  0.16696478  1
  Te  Te211  1  0.66680059  0.33338468  0.50206165  1
  Te  Te212  1  0.67154704  0.33199387  0.83279470  1
  Te  Te213  1  0.66716163  0.66586100  0.16827464  1
  Te  Te214  1  0.66678313  0.66456040  0.49961375  1
  Te  Te215  1  0.67162235  0.66506044  0.83379069  1
