# generated using pymatgen
data_AgSbTe2
_symmetry_space_group_name_H-M   'P 1'
_cell_length_a   18.33764642
_cell_length_b   18.33299677
_cell_length_c   18.33193337
_cell_angle_alpha   90.00062952
_cell_angle_beta   90.00096696
_cell_angle_gamma   90.00024088
_symmetry_Int_Tables_number   1
_chemical_formula_structural   AgSbTe2
_chemical_formula_sum   'Ag54 Sb54 Te108'
_cell_volume   6162.90291665
_cell_formula_units_Z   54
loop_
 _symmetry_equiv_pos_site_id
 _symmetry_equiv_pos_as_xyz
  1  'x, y, z'
loop_
 _atom_site_type_symbol
 _atom_site_label
 _atom_site_symmetry_multiplicity
 _atom_site_fract_x
 _atom_site_fract_y
 _atom_site_fract_z
 _atom_site_occupancy
  Ag  Ag0  1  0.16788835  0.15211342  -0.00120499  1
  Ag  Ag1  1  0.50078783  0.83145858  0.67968563  1
  Ag  Ag2  1  0.82914833  0.66909367  0.49828542  1
  Ag  Ag3  1  0.50062081  0.66730168  0.50604866  1
  Ag  Ag4  1  0.83622676  -0.00569359  0.50445619  1
  Ag  Ag5  1  0.17529765  0.50498743  0.66573868  1
  Ag  Ag6  1  0.50426778  0.83189566  -0.00562395  1
  Ag  Ag7  1  0.66776833  0.67613809  0.00393916  1
  Ag  Ag8  1  0.66999563  -0.00854035  0.33006521  1
  Ag  Ag9  1  -0.00681790  0.50084611  0.83290653  1
  Ag  Ag10  1  0.33526249  0.66514633  0.66330976  1
  Ag  Ag11  1  0.16977303  0.49940164  0.33269634  1
  Ag  Ag12  1  0.33713799  0.66308691  0.33300115  1
  Ag  Ag13  1  0.83592240  0.50313806  0.33301071  1
  Ag  Ag14  1  0.83311622  0.34517509  0.16845669  1
  Ag  Ag15  1  0.17389599  0.83162219  0.67619226  1
  Ag  Ag16  1  0.50248766  -0.00502608  0.15267891  1
  Ag  Ag17  1  0.33402253  0.50785070  0.17186773  1
  Ag  Ag18  1  0.82573419  0.83210182  0.67372178  1
  Ag  Ag19  1  0.66213842  0.82700562  0.15400645  1
  Ag  Ag20  1  0.82020756  -0.00483673  0.83114468  1
  Ag  Ag21  1  0.17205231  0.66409613  0.16522938  1
  Ag  Ag22  1  0.16783653  0.34367404  0.16878296  1
  Ag  Ag23  1  0.66091589  -0.01108812  -0.00656468  1
  Ag  Ag24  1  0.32912423  0.34500621  0.33531830  1
  Ag  Ag25  1  0.33906016  0.15516900  0.83026612  1
  Ag  Ag26  1  0.65752318  0.14985779  0.83334737  1
  Ag  Ag27  1  0.33510539  -0.00578000  -0.00458357  1
  Ag  Ag28  1  0.16323822  -0.00023030  0.50524994  1
  Ag  Ag29  1  0.66444289  0.66879183  0.32394992  1
  Ag  Ag30  1  0.00411754  -0.00760512  -0.00106083  1
  Ag  Ag31  1  -0.00592143  0.67410580  0.00036033  1
  Ag  Ag32  1  -0.00286297  0.00321959  0.33434086  1
  Ag  Ag33  1  0.82151183  0.66461324  0.16822619  1
  Ag  Ag34  1  0.66560720  0.51022440  0.16104011  1
  Ag  Ag35  1  0.81937770  0.83319714  -0.00589652  1
  Ag  Ag36  1  0.50158287  0.67659059  0.83201175  1
  Ag  Ag37  1  0.00608734  0.33421940  0.33189611  1
  Ag  Ag38  1  0.83120443  0.50636877  0.66616846  1
  Ag  Ag39  1  0.33012559  0.16799740  0.50558927  1
  Ag  Ag40  1  0.50233732  0.51166268  -0.00224535  1
  Ag  Ag41  1  0.17120770  -0.00371404  0.83594912  1
  Ag  Ag42  1  0.66176251  0.33513152  0.67162491  1
  Ag  Ag43  1  0.34394221  0.83801487  0.83880055  1
  Ag  Ag44  1  0.33818736  0.82915792  0.15647293  1
  Ag  Ag45  1  0.66905895  -0.00648182  0.67926354  1
  Ag  Ag46  1  0.33632155  0.34144352  0.66542401  1
  Ag  Ag47  1  0.00679555  0.16119684  0.49792644  1
  Ag  Ag48  1  0.50493064  -0.01099306  0.83522495  1
  Ag  Ag49  1  0.33177551  0.50232307  0.49352940  1
  Ag  Ag50  1  0.50123382  0.33464132  0.83245256  1
  Ag  Ag51  1  0.66481751  0.50449025  0.83751973  1
  Ag  Ag52  1  0.65473648  0.83838474  0.84278312  1
  Ag  Ag53  1  0.17211420  0.83514832  -0.00445864  1
  Sb  Sb54  1  0.17051894  0.50557449  0.00102662  1
  Sb  Sb55  1  0.49999006  -0.00615857  0.50598346  1
  Sb  Sb56  1  0.17023348  0.16437296  0.66911848  1
  Sb  Sb57  1  0.49860166  0.16194294  0.67017071  1
  Sb  Sb58  1  0.66610068  0.33435284  -0.00463797  1
  Sb  Sb59  1  0.00289606  0.49818895  0.50098863  1
  Sb  Sb60  1  0.83099870  0.82882942  0.33164834  1
  Sb  Sb61  1  0.33292209  -0.00280906  0.33055637  1
  Sb  Sb62  1  0.33590533  -0.00530426  0.67425285  1
  Sb  Sb63  1  0.33733410  0.50410962  0.83452220  1
  Sb  Sb64  1  0.82636533  0.67143228  0.83444015  1
  Sb  Sb65  1  0.83388683  0.16757105  0.33356496  1
  Sb  Sb66  1  -0.00334152  -0.00157621  0.66884169  1
  Sb  Sb67  1  0.00065443  0.33405686  0.00420727  1
  Sb  Sb68  1  0.66676271  0.83234137  0.50422123  1
  Sb  Sb69  1  0.66377233  0.66909439  0.67142263  1
  Sb  Sb70  1  0.49978513  0.50541933  0.67305492  1
  Sb  Sb71  1  0.00122734  0.16674487  0.16896667  1
  Sb  Sb72  1  0.16705536  0.17035188  0.33043224  1
  Sb  Sb73  1  0.82833327  0.50802865  0.00027012  1
  Sb  Sb74  1  0.17000655  -0.00511387  0.16254421  1
  Sb  Sb75  1  0.66333810  0.50379253  0.50022386  1
  Sb  Sb76  1  0.82850806  -0.00673200  0.16510858  1
  Sb  Sb77  1  0.49665814  0.50421091  0.32831494  1
  Sb  Sb78  1  0.82707661  0.33264750  0.83649051  1
  Sb  Sb79  1  -0.00121751  0.83156222  0.83655404  1
  Sb  Sb80  1  0.17240838  0.33167527  0.83590512  1
  Sb  Sb81  1  0.33126411  0.16592597  0.16395290  1
  Sb  Sb82  1  0.66478346  0.16221034  0.50587131  1
  Sb  Sb83  1  0.16827764  0.83023354  0.33074539  1
  Sb  Sb84  1  0.66589256  0.33879893  0.33491609  1
  Sb  Sb85  1  0.00174927  0.16666829  0.83103319  1
  Sb  Sb86  1  0.83643637  0.15657691  -0.00125345  1
  Sb  Sb87  1  0.49604499  0.33993975  0.50618673  1
  Sb  Sb88  1  0.49619321  0.15746140  -0.00470843  1
  Sb  Sb89  1  -0.00112840  0.66490568  0.32849237  1
  Sb  Sb90  1  0.83158021  0.16474676  0.66717562  1
  Sb  Sb91  1  -0.00091864  0.83181392  0.16273289  1
  Sb  Sb92  1  0.00206499  0.33579889  0.66299575  1
  Sb  Sb93  1  0.33386015  0.33046065  -0.00176051  1
  Sb  Sb94  1  0.16900996  0.33079473  0.49642940  1
  Sb  Sb95  1  -0.00058447  0.50147027  0.16374698  1
  Sb  Sb96  1  0.83344927  0.33520482  0.49801485  1
  Sb  Sb97  1  0.17164012  0.67189871  0.83703240  1
  Sb  Sb98  1  0.33353237  0.83107859  0.50454380  1
  Sb  Sb99  1  0.33738576  0.67363278  0.00055961  1
  Sb  Sb100  1  0.66721551  0.16310232  0.15992990  1
  Sb  Sb101  1  0.49928113  0.33396524  0.16160187  1
  Sb  Sb102  1  0.50113747  0.83076717  0.32957904  1
  Sb  Sb103  1  0.00166114  0.66643642  0.67212326  1
  Sb  Sb104  1  0.49837916  0.16584346  0.33421524  1
  Sb  Sb105  1  0.50049208  0.67109591  0.16174361  1
  Sb  Sb106  1  -0.00128074  0.83685650  0.50032701  1
  Sb  Sb107  1  0.16671079  0.66923209  0.49805917  1
  Te  Te108  1  0.16708534  0.17058473  0.15963121  1
  Te  Te109  1  0.16910474  0.16167838  0.50032948  1
  Te  Te110  1  0.17051280  0.16368320  0.83659007  1
  Te  Te111  1  0.16825564  0.50219451  0.16744194  1
  Te  Te112  1  0.17014032  0.50107439  0.50070974  1
  Te  Te113  1  0.16748564  0.50051416  0.82934494  1
  Te  Te114  1  0.17130596  0.82797637  0.16395062  1
  Te  Te115  1  0.16600219  0.83891072  0.50199777  1
  Te  Te116  1  0.16448414  0.83606179  0.83331342  1
  Te  Te117  1  0.50002026  0.15867776  0.16598653  1
  Te  Te118  1  0.49165771  0.16655258  0.50151793  1
  Te  Te119  1  0.49905736  0.17139057  0.83288186  1
  Te  Te120  1  0.50059898  0.49781347  0.16086947  1
  Te  Te121  1  0.49362890  0.50717289  0.50102867  1
  Te  Te122  1  0.50275023  0.49765972  0.83724369  1
  Te  Te123  1  0.50049319  0.83623795  0.16394661  1
  Te  Te124  1  0.49926454  0.82627247  0.50598704  1
  Te  Te125  1  0.49957288  0.83284073  0.83462200  1
  Te  Te126  1  0.83304536  0.17699671  0.16601502  1
  Te  Te127  1  0.83406115  0.16117339  0.50010854  1
  Te  Te128  1  0.83052250  0.16012987  0.83313645  1
  Te  Te129  1  0.83214890  0.50436601  0.16658799  1
  Te  Te130  1  0.83415163  0.50254152  0.49990574  1
  Te  Te131  1  0.83071266  0.50062974  0.83065816  1
  Te  Te132  1  0.82834419  0.82676732  0.16254530  1
  Te  Te133  1  0.83308638  0.83366398  0.50411342  1
  Te  Te134  1  0.83374026  0.83662617  0.83306748  1
  Te  Te135  1  0.16769994  -0.00419830  0.00176257  1
  Te  Te136  1  0.16295175  -0.00030180  0.33442646  1
  Te  Te137  1  0.16728641  -0.00336555  0.66761497  1
  Te  Te138  1  0.16635817  0.33485158  0.00653848  1
  Te  Te139  1  0.16838005  0.33682473  0.33050107  1
  Te  Te140  1  0.17125885  0.33967865  0.66696261  1
  Te  Te141  1  0.16554568  0.67081454  0.00424169  1
  Te  Te142  1  0.16754722  0.66206629  0.33025950  1
  Te  Te143  1  0.16923542  0.66663954  0.66631834  1
  Te  Te144  1  0.49993954  -0.00320278  -0.00451307  1
  Te  Te145  1  0.50427339  -0.00119595  0.33644764  1
  Te  Te146  1  0.50603502  -0.00631576  0.67146635  1
  Te  Te147  1  0.49975105  0.33437461  -0.00584641  1
  Te  Te148  1  0.49343767  0.33380308  0.33340984  1
  Te  Te149  1  0.49884612  0.33463342  0.67096503  1
  Te  Te150  1  0.50307167  0.67043845  -0.00407080  1
  Te  Te151  1  0.50002858  0.66644362  0.34048841  1
  Te  Te152  1  0.49799151  0.67036307  0.66787015  1
  Te  Te153  1  0.83442819  -0.00657549  -0.00186378  1
  Te  Te154  1  0.83389486  -0.00037531  0.33402068  1
  Te  Te155  1  0.83032747  -0.00255621  0.66702808  1
  Te  Te156  1  0.83468816  0.33157721  0.00657273  1
  Te  Te157  1  0.83310258  0.33939028  0.33108249  1
  Te  Te158  1  0.83151757  0.33822912  0.66698920  1
  Te  Te159  1  0.83195036  0.67216279  0.00138576  1
  Te  Te160  1  0.83324886  0.66312076  0.33126848  1
  Te  Te161  1  0.83332607  0.66775166  0.66518468  1
  Te  Te162  1  0.00558620  0.16188157  -0.00104631  1
  Te  Te163  1  0.00042746  0.16580204  0.33777204  1
  Te  Te164  1  0.00151779  0.16846622  0.65825569  1
  Te  Te165  1  0.00004234  0.50236754  -0.00577705  1
  Te  Te166  1  0.00164122  0.49723744  0.33334331  1
  Te  Te167  1  -0.00292531  0.49956922  0.67003785  1
  Te  Te168  1  0.00914939  0.83319895  0.00053477  1
  Te  Te169  1  -0.00025294  0.84129212  0.33108113  1
  Te  Te170  1  0.00205684  0.83238773  0.66811783  1
  Te  Te171  1  0.32959925  0.16147510  -0.00446233  1
  Te  Te172  1  0.33296722  0.16840448  0.33728586  1
  Te  Te173  1  0.33288871  0.17207777  0.66767678  1
  Te  Te174  1  0.33860019  0.49972167  0.00551512  1
  Te  Te175  1  0.33315442  0.50227879  0.33178132  1
  Te  Te176  1  0.33381988  0.50273415  0.66831789  1
  Te  Te177  1  0.33285451  0.83400922  -0.00095784  1
  Te  Te178  1  0.33341956  0.82724883  0.32877041  1
  Te  Te179  1  0.33220776  0.82932839  0.66938118  1
  Te  Te180  1  0.66772365  0.16330339  -0.00814105  1
  Te  Te181  1  0.66559976  0.16475427  0.33361276  1
  Te  Te182  1  0.66546908  0.16780517  0.67366664  1
  Te  Te183  1  0.66357753  0.50028293  0.00152452  1
  Te  Te184  1  0.67003399  0.50305621  0.33013423  1
  Te  Te185  1  0.66893053  0.50067253  0.66734357  1
  Te  Te186  1  0.66440807  0.83345009  -0.00130973  1
  Te  Te187  1  0.66724783  0.83093358  0.33151342  1
  Te  Te188  1  0.66757344  0.83437291  0.66975322  1
  Te  Te189  1  -0.00217905  0.00014889  0.16620950  1
  Te  Te190  1  -0.00119955  0.00223763  0.50076625  1
  Te  Te191  1  0.00943736  0.00318827  0.83822237  1
  Te  Te192  1  0.00139250  0.33405696  0.17203378  1
  Te  Te193  1  -0.00023258  0.32746458  0.49240542  1
  Te  Te194  1  -0.00059296  0.33768955  0.83324399  1
  Te  Te195  1  0.00316016  0.66673755  0.16098360  1
  Te  Te196  1  -0.00855776  0.66615630  0.49813969  1
  Te  Te197  1  0.00058637  0.66057054  0.83985414  1
  Te  Te198  1  0.33800129  -0.00291834  0.16337311  1
  Te  Te199  1  0.33062494  0.00242948  0.49993389  1
  Te  Te200  1  0.33147467  -0.00180256  0.83390434  1
  Te  Te201  1  0.33125095  0.33381975  0.16978789  1
  Te  Te202  1  0.33316123  0.33635230  0.50124949  1
  Te  Te203  1  0.33699555  0.33265638  0.83016810  1
  Te  Te204  1  0.33456321  0.66727376  0.16727962  1
  Te  Te205  1  0.33146734  0.66434987  0.50016363  1
  Te  Te206  1  0.33849561  0.67162436  0.82954867  1
  Te  Te207  1  0.66437455  -0.00165526  0.16890218  1
  Te  Te208  1  0.66955198  -0.00012491  0.49168212  1
  Te  Te209  1  0.66495487  -0.00546165  0.83454466  1
  Te  Te210  1  0.66870530  0.33503461  0.16848255  1
  Te  Te211  1  0.66447112  0.33189654  0.50867486  1
  Te  Te212  1  0.66423948  0.34424381  0.82969515  1
  Te  Te213  1  0.66358744  0.66718160  0.16553052  1
  Te  Te214  1  0.66931494  0.66598948  0.49395984  1
  Te  Te215  1  0.66313429  0.66485427  0.83669267  1
