# generated using pymatgen
data_AgSbTe2
_symmetry_space_group_name_H-M   'P 1'
_cell_length_a   18.33854065
_cell_length_b   18.33052248
_cell_length_c   18.33711327
_cell_angle_alpha   89.99832132
_cell_angle_beta   90.00106674
_cell_angle_gamma   89.99896898
_symmetry_Int_Tables_number   1
_chemical_formula_structural   AgSbTe2
_chemical_formula_sum   'Ag54 Sb54 Te108'
_cell_volume   6164.11288373
_cell_formula_units_Z   54
loop_
 _symmetry_equiv_pos_site_id
 _symmetry_equiv_pos_as_xyz
  1  'x, y, z'
loop_
 _atom_site_type_symbol
 _atom_site_label
 _atom_site_symmetry_multiplicity
 _atom_site_fract_x
 _atom_site_fract_y
 _atom_site_fract_z
 _atom_site_occupancy
  Ag  Ag0  1  0.49668836  0.66299286  0.83294457  1
  Ag  Ag1  1  0.33143726  0.33682571  0.65585119  1
  Ag  Ag2  1  0.00603013  0.49462116  0.49372008  1
  Ag  Ag3  1  0.16034748  0.16259357  0.00968094  1
  Ag  Ag4  1  0.17107641  0.66032656  0.49414587  1
  Ag  Ag5  1  0.00031037  -0.00194182  0.00183484  1
  Ag  Ag6  1  0.84349661  0.17803465  0.32681363  1
  Ag  Ag7  1  0.50747342  0.50265247  0.00501953  1
  Ag  Ag8  1  0.83950486  0.65894209  0.84087834  1
  Ag  Ag9  1  0.16839245  0.00464903  0.17000582  1
  Ag  Ag10  1  0.00171494  0.33674960  0.65563369  1
  Ag  Ag11  1  0.16489432  0.33495277  0.49414462  1
  Ag  Ag12  1  0.49199350  0.33753191  0.49892304  1
  Ag  Ag13  1  0.84174332  0.82093055  0.00139661  1
  Ag  Ag14  1  0.67219587  -0.00100247  0.00139149  1
  Ag  Ag15  1  0.00591982  0.82671601  0.16118684  1
  Ag  Ag16  1  0.67448762  0.33540099  0.33704556  1
  Ag  Ag17  1  0.48965742  0.65501929  0.50252743  1
  Ag  Ag18  1  0.32708616  0.00897789  0.33065971  1
  Ag  Ag19  1  0.83184004  0.50208362  0.00020528  1
  Ag  Ag20  1  -0.00166305  0.66646585  -0.00009715  1
  Ag  Ag21  1  0.32758025  0.16835421  0.83647695  1
  Ag  Ag22  1  0.49695805  0.17134604  0.66593546  1
  Ag  Ag23  1  0.32991605  0.65655710  0.65869432  1
  Ag  Ag24  1  0.00230432  0.17711407  0.49866755  1
  Ag  Ag25  1  0.16645339  0.82855403  0.66299150  1
  Ag  Ag26  1  0.16683034  0.17056734  0.32916217  1
  Ag  Ag27  1  0.67523608  0.50170238  0.84221548  1
  Ag  Ag28  1  0.32802860  0.17246698  0.16744829  1
  Ag  Ag29  1  0.32959277  0.49511887  0.17621737  1
  Ag  Ag30  1  0.16651965  0.66652864  0.83875212  1
  Ag  Ag31  1  0.66966191  0.17368596  0.49826162  1
  Ag  Ag32  1  0.84113449  0.16879705  0.00465883  1
  Ag  Ag33  1  0.83667146  0.49690560  0.67009950  1
  Ag  Ag34  1  0.16747952  0.83607001  0.32843479  1
  Ag  Ag35  1  0.84264937  0.33669443  0.17074776  1
  Ag  Ag36  1  -0.00580125  0.49827618  0.83785101  1
  Ag  Ag37  1  0.32812629  0.65231670  0.33769495  1
  Ag  Ag38  1  0.49174387  0.49682246  0.33091013  1
  Ag  Ag39  1  0.67359046  0.49871894  0.16191183  1
  Ag  Ag40  1  0.49890035  0.00197993  0.83963751  1
  Ag  Ag41  1  0.48848605  0.00250887  0.16314936  1
  Ag  Ag42  1  0.83271096  0.49412941  0.32358121  1
  Ag  Ag43  1  0.00410076  0.17395997  0.83889142  1
  Ag  Ag44  1  0.15926467  0.83419130  0.01073756  1
  Ag  Ag45  1  0.67638793  0.65850942  -0.00181446  1
  Ag  Ag46  1  0.66808287  0.33548537  0.65653954  1
  Ag  Ag47  1  0.16504196  0.33235584  0.17432027  1
  Ag  Ag48  1  0.00012314  0.49882510  0.16701264  1
  Ag  Ag49  1  0.32519422  0.33514328  0.33668273  1
  Ag  Ag50  1  0.00559160  0.33396702  0.33666783  1
  Ag  Ag51  1  0.16836328  0.00792939  0.48721425  1
  Ag  Ag52  1  0.16657382  0.66654669  0.16814954  1
  Ag  Ag53  1  0.32886922  0.49805205  0.49371396  1
  Sb  Sb54  1  0.32830658  0.66469304  0.00148103  1
  Sb  Sb55  1  0.33073886  0.83516790  0.83291146  1
  Sb  Sb56  1  0.84299160  0.83074793  0.32415586  1
  Sb  Sb57  1  0.84136642  0.82353309  0.67442243  1
  Sb  Sb58  1  0.00846292  0.65544398  0.32820940  1
  Sb  Sb59  1  0.33020175  0.00223000  0.00556983  1
  Sb  Sb60  1  0.16201903  0.50072377  0.00446174  1
  Sb  Sb61  1  0.66851341  0.33748901  0.00277588  1
  Sb  Sb62  1  0.49465441  0.83310319  0.66660984  1
  Sb  Sb63  1  0.66390998  0.17267513  0.16914369  1
  Sb  Sb64  1  0.83151579  -0.00221943  0.83840440  1
  Sb  Sb65  1  0.49479436  0.17456654  0.33649086  1
  Sb  Sb66  1  0.66613406  0.49316192  0.49724282  1
  Sb  Sb67  1  0.49868302  0.83083144  0.00146206  1
  Sb  Sb68  1  0.83493853  0.33973412  0.83751073  1
  Sb  Sb69  1  0.49185547  0.00627514  0.49757417  1
  Sb  Sb70  1  0.00315258  0.82899465  0.84174200  1
  Sb  Sb71  1  0.66089014  0.00906883  0.32763353  1
  Sb  Sb72  1  0.16455648  0.33629725  0.83293706  1
  Sb  Sb73  1  0.16960184  0.16741590  0.66450323  1
  Sb  Sb74  1  0.66854317  0.17237382  0.83246421  1
  Sb  Sb75  1  0.32460565  0.83275845  0.16858477  1
  Sb  Sb76  1  0.00535391  0.83020852  0.49332359  1
  Sb  Sb77  1  0.84165974  0.65568982  0.16043928  1
  Sb  Sb78  1  -0.00066376  0.33532083  0.00403339  1
  Sb  Sb79  1  0.00730145  0.17168231  0.16608776  1
  Sb  Sb80  1  0.49342928  0.66435495  0.16526323  1
  Sb  Sb81  1  0.49644684  0.33478646  0.17339911  1
  Sb  Sb82  1  0.49939836  0.33588216  0.82692204  1
  Sb  Sb83  1  0.50172572  0.49517896  0.66476617  1
  Sb  Sb84  1  0.16915055  -0.00125687  0.83737810  1
  Sb  Sb85  1  0.84181866  0.00497360  0.49738106  1
  Sb  Sb86  1  0.00237805  0.00692016  0.67142820  1
  Sb  Sb87  1  0.66613253  0.83730060  0.49822052  1
  Sb  Sb88  1  0.66116220  0.65803250  0.67163191  1
  Sb  Sb89  1  0.50025659  0.16915855  -0.00226234  1
  Sb  Sb90  1  0.33181153  0.49785239  0.83277833  1
  Sb  Sb91  1  0.49152450  0.82813743  0.33122897  1
  Sb  Sb92  1  0.32854944  0.17633791  0.49694525  1
  Sb  Sb93  1  0.66148304  0.65640149  0.32888418  1
  Sb  Sb94  1  0.00811381  0.65892305  0.67214060  1
  Sb  Sb95  1  0.67283756  0.82793801  0.16374011  1
  Sb  Sb96  1  0.83851918  0.00740678  0.16372876  1
  Sb  Sb97  1  0.16321049  0.50177645  0.66372103  1
  Sb  Sb98  1  0.33146753  0.33435821  0.00442395  1
  Sb  Sb99  1  0.83657339  0.66089245  0.50348623  1
  Sb  Sb100  1  0.66380686  0.00844204  0.67142178  1
  Sb  Sb101  1  0.66689413  0.82627480  0.83602491  1
  Sb  Sb102  1  0.83895482  0.33545417  0.49074812  1
  Sb  Sb103  1  0.33067299  0.00329565  0.66239407  1
  Sb  Sb104  1  0.32880695  0.82224852  0.49874292  1
  Sb  Sb105  1  0.16912095  0.49457232  0.33248843  1
  Sb  Sb106  1  0.00805164  0.00822869  0.32720874  1
  Sb  Sb107  1  0.83289972  0.17663692  0.66735184  1
  Te  Te108  1  0.16861470  0.16742589  0.16754057  1
  Te  Te109  1  0.16340688  0.16880462  0.49884544  1
  Te  Te110  1  0.16592035  0.16687748  0.83389287  1
  Te  Te111  1  0.16686561  0.49880982  0.16605693  1
  Te  Te112  1  0.16652079  0.49916996  0.49953527  1
  Te  Te113  1  0.16296757  0.50489003  0.83628802  1
  Te  Te114  1  0.16417923  0.83208717  0.16724927  1
  Te  Te115  1  0.16589649  0.82944800  0.49778150  1
  Te  Te116  1  0.16694230  0.82886822  0.83116976  1
  Te  Te117  1  0.49440883  0.16241746  0.16669817  1
  Te  Te118  1  0.50258716  0.16985950  0.50380568  1
  Te  Te119  1  0.50019684  0.16508420  0.83032790  1
  Te  Te120  1  0.49547952  0.50076374  0.16794037  1
  Te  Te121  1  0.50027937  0.49771494  0.49835041  1
  Te  Te122  1  0.49960743  0.50307523  0.83476358  1
  Te  Te123  1  0.50159287  0.84154998  0.16688273  1
  Te  Te124  1  0.50047102  0.82880485  0.49971182  1
  Te  Te125  1  0.49905708  0.83280072  0.83300326  1
  Te  Te126  1  0.83102619  0.17341541  0.16787165  1
  Te  Te127  1  0.83561692  0.16587906  0.49807363  1
  Te  Te128  1  0.83768363  0.16703311  0.83709762  1
  Te  Te129  1  0.83439737  0.49705076  0.16472613  1
  Te  Te130  1  0.83885030  0.50141874  0.50464470  1
  Te  Te131  1  0.83420330  0.50147936  0.83838477  1
  Te  Te132  1  0.84076600  0.83498782  0.16004132  1
  Te  Te133  1  0.83564589  0.83281530  0.49997578  1
  Te  Te134  1  0.83454420  0.82503505  0.84136213  1
  Te  Te135  1  0.16364384  0.00137700  0.00248863  1
  Te  Te136  1  0.16788062  0.00295572  0.33100336  1
  Te  Te137  1  0.16664356  -0.00739614  0.66524059  1
  Te  Te138  1  0.16662069  0.32572589  0.00437633  1
  Te  Te139  1  0.16562519  0.33129361  0.33414606  1
  Te  Te140  1  0.16673157  0.33367405  0.66313843  1
  Te  Te141  1  0.16275124  0.66743286  0.00106803  1
  Te  Te142  1  0.16867858  0.66939296  0.33272357  1
  Te  Te143  1  0.17116105  0.66783186  0.66520690  1
  Te  Te144  1  0.50124719  -0.00051393  0.00018135  1
  Te  Te145  1  0.49333009  -0.00155403  0.32852691  1
  Te  Te146  1  0.49877162  0.00315738  0.67035578  1
  Te  Te147  1  0.50020981  0.34007344  -0.00066470  1
  Te  Te148  1  0.49856399  0.33779997  0.33840267  1
  Te  Te149  1  0.49824321  0.33125634  0.66113008  1
  Te  Te150  1  0.50006455  0.66499554  -0.00309037  1
  Te  Te151  1  0.49385191  0.66145599  0.33660074  1
  Te  Te152  1  0.49403538  0.66765668  0.66667271  1
  Te  Te153  1  0.83529161  0.00724325  -0.00016037  1
  Te  Te154  1  0.83170522  0.00224666  0.33231832  1
  Te  Te155  1  0.83265911  -0.00370217  0.66762512  1
  Te  Te156  1  0.83258550  0.33147007  0.00733181  1
  Te  Te157  1  0.83372948  0.33370078  0.33020681  1
  Te  Te158  1  0.83422323  0.33836692  0.66857975  1
  Te  Te159  1  0.83476005  0.66383655  0.00000608  1
  Te  Te160  1  0.83240059  0.66208458  0.33345194  1
  Te  Te161  1  0.83259891  0.66015581  0.67517886  1
  Te  Te162  1  0.00064672  0.16889185  -0.00010624  1
  Te  Te163  1  0.00101137  0.17093654  0.33457189  1
  Te  Te164  1  -0.00014991  0.17338014  0.66443508  1
  Te  Te165  1  -0.00273945  0.50164787  0.00062048  1
  Te  Te166  1  -0.00548917  0.49528014  0.33236256  1
  Te  Te167  1  -0.00285109  0.49595164  0.66975237  1
  Te  Te168  1  0.00162038  0.83259171  0.00188475  1
  Te  Te169  1  0.00584530  0.83419967  0.32527192  1
  Te  Te170  1  0.00487269  0.83431543  0.66672138  1
  Te  Te171  1  0.33125339  0.16729611  -0.00005307  1
  Te  Te172  1  0.32973895  0.16993638  0.33118158  1
  Te  Te173  1  0.33605616  0.17052071  0.66875644  1
  Te  Te174  1  0.33988072  0.50012264  0.00192459  1
  Te  Te175  1  0.33305920  0.49660379  0.33362714  1
  Te  Te176  1  0.33431684  0.49769854  0.66533785  1
  Te  Te177  1  0.32511743  0.83348180  0.00005394  1
  Te  Te178  1  0.32688077  0.83703930  0.33351869  1
  Te  Te179  1  0.32711659  0.83019977  0.66589565  1
  Te  Te180  1  0.66899488  0.16318080  0.00043717  1
  Te  Te181  1  0.66671953  0.17269316  0.33722861  1
  Te  Te182  1  0.66394264  0.17422861  0.66358986  1
  Te  Te183  1  0.66735642  0.49961554  0.00132187  1
  Te  Te184  1  0.67144733  0.49548669  0.33039846  1
  Te  Te185  1  0.67102296  0.49466944  0.66760939  1
  Te  Te186  1  0.66956125  0.83585802  0.00036800  1
  Te  Te187  1  0.67012078  0.83362682  0.33172709  1
  Te  Te188  1  0.67026042  0.83434115  0.66675182  1
  Te  Te189  1  0.00501461  -0.00127512  0.16145048  1
  Te  Te190  1  0.00893236  0.00210262  0.50117600  1
  Te  Te191  1  0.00001111  0.00770735  0.83924506  1
  Te  Te192  1  0.00297115  0.33747877  0.16991277  1
  Te  Te193  1  0.00159845  0.33474611  0.49841399  1
  Te  Te194  1  0.00092989  0.33496819  0.82914533  1
  Te  Te195  1  0.00574045  0.66183490  0.16314618  1
  Te  Te196  1  0.00566976  0.66102214  0.50071983  1
  Te  Te197  1  0.00260705  0.66307632  0.83710097  1
  Te  Te198  1  0.32949650  0.00082374  0.16979334  1
  Te  Te199  1  0.32803986  0.00120310  0.49419564  1
  Te  Te200  1  0.33772215  0.00658932  0.83148659  1
  Te  Te201  1  0.33023381  0.33351423  0.17027881  1
  Te  Te202  1  0.33131230  0.33601010  0.49843172  1
  Te  Te203  1  0.33200854  0.32829783  0.82860180  1
  Te  Te204  1  0.32804380  0.66216267  0.17106594  1
  Te  Te205  1  0.33200438  0.66038912  0.49914535  1
  Te  Te206  1  0.33160037  0.66616847  0.83182799  1
  Te  Te207  1  0.66701776  0.00030243  0.16185316  1
  Te  Te208  1  0.66509042  0.00650175  0.49955267  1
  Te  Te209  1  0.66189733  0.00068000  0.83875417  1
  Te  Te210  1  0.66412621  0.33877738  0.17207117  1
  Te  Te211  1  0.66602296  0.33118382  0.49862392  1
  Te  Te212  1  0.66685192  0.34063995  0.82976810  1
  Te  Te213  1  0.66308700  0.66049078  0.16043397  1
  Te  Te214  1  0.66295473  0.66777724  0.49996705  1
  Te  Te215  1  0.66138797  0.66127008  0.83729390  1
