# generated using pymatgen
data_AgSbTe2
_symmetry_space_group_name_H-M   'P 1'
_cell_length_a   18.32252004
_cell_length_b   18.33271147
_cell_length_c   18.34172696
_cell_angle_alpha   90.00024911
_cell_angle_beta   90.00021671
_cell_angle_gamma   89.99246294
_symmetry_Int_Tables_number   1
_chemical_formula_structural   AgSbTe2
_chemical_formula_sum   'Ag54 Sb54 Te108'
_cell_volume   6161.01305599
_cell_formula_units_Z   54
loop_
 _symmetry_equiv_pos_site_id
 _symmetry_equiv_pos_as_xyz
  1  'x, y, z'
loop_
 _atom_site_type_symbol
 _atom_site_label
 _atom_site_symmetry_multiplicity
 _atom_site_fract_x
 _atom_site_fract_y
 _atom_site_fract_z
 _atom_site_occupancy
  Ag  Ag0  1  0.01057977  0.00195354  0.00094825  1
  Ag  Ag1  1  0.00652351  0.00160680  0.66689954  1
  Ag  Ag2  1  0.66454912  0.66224143  0.32716515  1
  Ag  Ag3  1  0.33092208  0.00035575  0.32446562  1
  Ag  Ag4  1  0.33139099  -0.00057979  0.00576596  1
  Ag  Ag5  1  0.33424216  0.32153214  0.33372148  1
  Ag  Ag6  1  0.66229468  0.50415581  0.49074859  1
  Ag  Ag7  1  0.00138903  0.16452639  0.16664519  1
  Ag  Ag8  1  0.17125542  0.84086949  0.00419711  1
  Ag  Ag9  1  0.33782123  -0.00159898  0.66918368  1
  Ag  Ag10  1  -0.00384990  0.66948872  0.66915934  1
  Ag  Ag11  1  0.50379960  0.50491517  0.33072144  1
  Ag  Ag12  1  0.49314190  0.83638679  0.00774504  1
  Ag  Ag13  1  0.33140532  0.49871617  0.83302906  1
  Ag  Ag14  1  0.34057294  0.50190910  0.50090879  1
  Ag  Ag15  1  0.83407967  0.50396703  0.01147939  1
  Ag  Ag16  1  0.66590982  0.66504924  0.01012493  1
  Ag  Ag17  1  0.83839796  0.66429478  0.83353455  1
  Ag  Ag18  1  0.82929412  0.65924334  0.16156499  1
  Ag  Ag19  1  0.50146399  0.67028102  0.50108860  1
  Ag  Ag20  1  0.84463952  0.17166050  0.66730188  1
  Ag  Ag21  1  0.17022110  -0.00180927  0.16675020  1
  Ag  Ag22  1  -0.01292090  0.49688129  0.16571783  1
  Ag  Ag23  1  0.49685314  0.83837535  0.66548796  1
  Ag  Ag24  1  0.16631494  0.33334686  0.83515417  1
  Ag  Ag25  1  0.33660243  0.67054999  0.66898295  1
  Ag  Ag26  1  0.83528300  0.50138188  0.66595681  1
  Ag  Ag27  1  0.01020884  0.00171533  0.33142786  1
  Ag  Ag28  1  0.67247280  0.50754100  0.17099267  1
  Ag  Ag29  1  0.32812237  0.16454620  0.83557190  1
  Ag  Ag30  1  0.00342296  0.83845140  0.83002325  1
  Ag  Ag31  1  0.49184603  0.15222284  -0.00024716  1
  Ag  Ag32  1  0.17409430  0.83895847  0.32447512  1
  Ag  Ag33  1  0.00166544  0.84159512  0.50765558  1
  Ag  Ag34  1  0.50059088  0.50556624  0.00601681  1
  Ag  Ag35  1  0.49845870  0.15728714  0.66637285  1
  Ag  Ag36  1  0.16359314  0.66461161  0.83415494  1
  Ag  Ag37  1  0.16792877  0.50168028  -0.00209034  1
  Ag  Ag38  1  0.33937192  0.83827615  0.16703513  1
  Ag  Ag39  1  0.49468625  0.83801433  0.32780894  1
  Ag  Ag40  1  0.17069033  0.15683534  0.32542190  1
  Ag  Ag41  1  0.83607331  0.34698392  0.17217600  1
  Ag  Ag42  1  0.16893067  0.15748206  0.00154484  1
  Ag  Ag43  1  0.83598562  0.33737737  0.49780697  1
  Ag  Ag44  1  -0.00249117  0.32208790  0.66706119  1
  Ag  Ag45  1  0.66628501  0.66534937  0.66506577  1
  Ag  Ag46  1  0.82447331  0.50047820  0.32280390  1
  Ag  Ag47  1  0.49359479  0.00047793  0.83403399  1
  Ag  Ag48  1  0.00794409  0.15993737  0.83048986  1
  Ag  Ag49  1  0.00027026  0.15956715  0.50879891  1
  Ag  Ag50  1  0.65912522  0.82639982  0.16655678  1
  Ag  Ag51  1  0.48983827  -0.00341366  0.16710091  1
  Ag  Ag52  1  0.49704029  -0.00509163  0.49865750  1
  Ag  Ag53  1  0.49307459  0.15405741  0.33270686  1
  Sb  Sb54  1  0.16975259  -0.00000890  0.84106867  1
  Sb  Sb55  1  0.66407503  0.82671127  0.49701204  1
  Sb  Sb56  1  0.49816065  0.67051317  0.83005371  1
  Sb  Sb57  1  0.65905425  -0.00677333  0.00256244  1
  Sb  Sb58  1  0.83575990  0.17166198  0.33591912  1
  Sb  Sb59  1  0.50197262  0.33044670  0.16886701  1
  Sb  Sb60  1  0.16999890  0.66845273  0.50398272  1
  Sb  Sb61  1  0.83672446  -0.00227731  0.83269378  1
  Sb  Sb62  1  0.00205430  0.33034285  -0.00246395  1
  Sb  Sb63  1  -0.00158905  0.50029031  0.49839875  1
  Sb  Sb64  1  0.66348511  0.16483327  0.83256710  1
  Sb  Sb65  1  0.83404203  0.82808464  0.00069804  1
  Sb  Sb66  1  0.16594873  0.16389641  0.67118142  1
  Sb  Sb67  1  0.50155680  0.33416034  0.49895478  1
  Sb  Sb68  1  0.66765227  0.17080100  0.50014920  1
  Sb  Sb69  1  0.16337412  0.32799157  0.16319725  1
  Sb  Sb70  1  0.83464230  0.00391427  0.50075949  1
  Sb  Sb71  1  0.83703321  -0.00079536  0.16635354  1
  Sb  Sb72  1  0.00075208  0.83524571  0.16502187  1
  Sb  Sb73  1  0.49272096  0.32891984  0.83392514  1
  Sb  Sb74  1  0.16343320  0.33172908  0.50272524  1
  Sb  Sb75  1  -0.00384841  0.67061586  0.33646773  1
  Sb  Sb76  1  0.16969909  0.50143061  0.32705225  1
  Sb  Sb77  1  0.50593705  0.67321088  0.17030668  1
  Sb  Sb78  1  0.33730307  0.50649622  0.16513581  1
  Sb  Sb79  1  0.00327133  0.32785305  0.33575990  1
  Sb  Sb80  1  0.83724112  0.17198497  -0.00353822  1
  Sb  Sb81  1  0.66689518  0.82938890  0.83636984  1
  Sb  Sb82  1  0.82830149  0.66060022  0.50165739  1
  Sb  Sb83  1  0.83194093  0.82876534  0.33242162  1
  Sb  Sb84  1  -0.00278391  0.66986276  -0.00461683  1
  Sb  Sb85  1  0.33266925  0.83327075  0.49817342  1
  Sb  Sb86  1  0.16769780  0.83502048  0.66989836  1
  Sb  Sb87  1  0.00367769  0.50137320  0.83653053  1
  Sb  Sb88  1  0.34042846  0.67169587  0.33782546  1
  Sb  Sb89  1  0.66423965  0.50396233  0.83575807  1
  Sb  Sb90  1  0.16930786  0.00023717  0.49303610  1
  Sb  Sb91  1  0.66716676  0.34060796  0.00242602  1
  Sb  Sb92  1  0.66382090  0.34001868  0.33312210  1
  Sb  Sb93  1  0.33212036  0.32935270  0.00410880  1
  Sb  Sb94  1  0.33040988  0.33208479  0.66520756  1
  Sb  Sb95  1  0.66827937  0.16654924  0.16692452  1
  Sb  Sb96  1  0.66247646  -0.00484922  0.66574270  1
  Sb  Sb97  1  0.33644571  0.67064063  -0.00419069  1
  Sb  Sb98  1  0.83327137  0.83114167  0.66640102  1
  Sb  Sb99  1  0.67214670  0.33807721  0.66483861  1
  Sb  Sb100  1  0.32928035  0.16028127  0.16451504  1
  Sb  Sb101  1  0.16411945  0.50136510  0.67163770  1
  Sb  Sb102  1  0.84162834  0.33885861  0.83204448  1
  Sb  Sb103  1  0.33032054  0.16672286  0.50009219  1
  Sb  Sb104  1  0.33053600  0.83667146  0.83601336  1
  Sb  Sb105  1  0.16127484  0.67021556  0.16105265  1
  Sb  Sb106  1  0.65954464  -0.00668146  0.33198284  1
  Sb  Sb107  1  0.50183063  0.50238354  0.66559976  1
  Te  Te108  1  0.16244460  0.16344982  0.16424362  1
  Te  Te109  1  0.16016804  0.16749519  0.49081539  1
  Te  Te110  1  0.16736029  0.16658418  0.83725771  1
  Te  Te111  1  0.16778038  0.50056168  0.15978161  1
  Te  Te112  1  0.17331807  0.50016084  0.49715648  1
  Te  Te113  1  0.16983216  0.50182556  0.83746846  1
  Te  Te114  1  0.16606951  0.83643116  0.16445894  1
  Te  Te115  1  0.16145767  0.83276736  0.49329428  1
  Te  Te116  1  0.16373618  0.82914695  0.83801443  1
  Te  Te117  1  0.50160618  0.16258474  0.16602966  1
  Te  Te118  1  0.49936477  0.16491624  0.49766559  1
  Te  Te119  1  0.49688063  0.16269701  0.83696765  1
  Te  Te120  1  0.50314095  0.49857809  0.16683349  1
  Te  Te121  1  0.50158128  0.50075602  0.49973088  1
  Te  Te122  1  0.49345711  0.49851458  0.83483954  1
  Te  Te123  1  0.49947929  0.83452497  0.16727274  1
  Te  Te124  1  0.49957641  0.83261132  0.50109650  1
  Te  Te125  1  0.49905812  0.83816801  0.83137796  1
  Te  Te126  1  0.83803675  0.16829726  0.16633676  1
  Te  Te127  1  0.83613225  0.17176616  0.50436546  1
  Te  Te128  1  0.83544441  0.16744018  0.82761765  1
  Te  Te129  1  0.83140283  0.50323668  0.16715853  1
  Te  Te130  1  0.83360949  0.49733220  0.50648950  1
  Te  Te131  1  0.83355038  0.50431535  0.82710753  1
  Te  Te132  1  0.82731205  0.82929383  0.16656292  1
  Te  Te133  1  0.83994566  0.83389258  0.49943103  1
  Te  Te134  1  0.83996299  0.82715370  0.83332245  1
  Te  Te135  1  0.16867741  0.00027138  0.00274979  1
  Te  Te136  1  0.16876153  -0.00070770  0.33041877  1
  Te  Te137  1  0.16732643  -0.00055937  0.66431013  1
  Te  Te138  1  0.16744941  0.33785831  -0.00402260  1
  Te  Te139  1  0.17227029  0.33183225  0.33263899  1
  Te  Te140  1  0.16037496  0.33300513  0.67163265  1
  Te  Te141  1  0.16660868  0.66436779  -0.00518288  1
  Te  Te142  1  0.16652810  0.67321721  0.33221261  1
  Te  Te143  1  0.16888452  0.66803849  0.67149573  1
  Te  Te144  1  0.49737881  -0.00363682  0.00260073  1
  Te  Te145  1  0.49771751  -0.00230621  0.33148282  1
  Te  Te146  1  0.50023367  -0.00105260  0.66619348  1
  Te  Te147  1  0.49973552  0.34008978  0.00103663  1
  Te  Te148  1  0.49449800  0.33579148  0.33376512  1
  Te  Te149  1  0.50034841  0.32304719  0.66703552  1
  Te  Te150  1  0.50382626  0.66580187  -0.00237431  1
  Te  Te151  1  0.50375555  0.66449847  0.33759246  1
  Te  Te152  1  0.49783220  0.66720791  0.66434929  1
  Te  Te153  1  0.83723358  0.00133735  -0.00118937  1
  Te  Te154  1  0.83733250  0.00108077  0.33397218  1
  Te  Te155  1  0.83544619  0.00448969  0.66694880  1
  Te  Te156  1  0.83436270  0.34134595  0.00325404  1
  Te  Te157  1  0.83450130  0.33881890  0.33389437  1
  Te  Te158  1  0.83751693  0.33271611  0.66614281  1
  Te  Te159  1  0.83039942  0.66313662  -0.00137830  1
  Te  Te160  1  0.82840942  0.66145273  0.33220025  1
  Te  Te161  1  0.83450539  0.66652268  0.66771752  1
  Te  Te162  1  0.00119657  0.16363541  -0.00207233  1
  Te  Te163  1  0.00029511  0.16289133  0.32990691  1
  Te  Te164  1  0.00318967  0.16309525  0.66803085  1
  Te  Te165  1  -0.00061988  0.49993124  0.00378418  1
  Te  Te166  1  -0.00005635  0.49998724  0.32895906  1
  Te  Te167  1  -0.00263481  0.50691717  0.66662945  1
  Te  Te168  1  0.00288373  0.83824927  -0.00298790  1
  Te  Te169  1  -0.00019580  0.83892729  0.33345166  1
  Te  Te170  1  0.00058247  0.83393199  0.66809705  1
  Te  Te171  1  0.33258987  0.16354728  -0.00164480  1
  Te  Te172  1  0.33288449  0.16202161  0.33345599  1
  Te  Te173  1  0.33575850  0.16441419  0.66886148  1
  Te  Te174  1  0.33463632  0.49982048  -0.00267261  1
  Te  Te175  1  0.33769034  0.50418152  0.33505280  1
  Te  Te176  1  0.33318335  0.50000745  0.66769981  1
  Te  Te177  1  0.33317569  0.83679401  0.00155951  1
  Te  Te178  1  0.33422850  0.83776137  0.33258571  1
  Te  Te179  1  0.33541893  0.83410387  0.66661695  1
  Te  Te180  1  0.66183508  0.16690069  0.00012491  1
  Te  Te181  1  0.65959714  0.16687061  0.33357597  1
  Te  Te182  1  0.66244306  0.16635403  0.66588998  1
  Te  Te183  1  0.66560019  0.50507642  0.00199948  1
  Te  Te184  1  0.66565661  0.50186412  0.33261222  1
  Te  Te185  1  0.67000680  0.50441468  0.66573744  1
  Te  Te186  1  0.66276268  0.82625066  0.00342456  1
  Te  Te187  1  0.66167127  0.82626126  0.33003306  1
  Te  Te188  1  0.66172664  0.82722842  0.66560067  1
  Te  Te189  1  0.00238759  0.00199255  0.16595211  1
  Te  Te190  1  -0.00008788  0.00144057  0.50214741  1
  Te  Te191  1  0.00018585  -0.00013786  0.83180562  1
  Te  Te192  1  -0.00340685  0.33275545  0.16705938  1
  Te  Te193  1  -0.00325588  0.33165081  0.50483545  1
  Te  Te194  1  0.00527482  0.32891455  0.82864785  1
  Te  Te195  1  -0.00728839  0.66351480  0.16730243  1
  Te  Te196  1  0.00075301  0.66927306  0.50594614  1
  Te  Te197  1  0.00064501  0.66717051  0.83009776  1
  Te  Te198  1  0.33204053  -0.00238962  0.16573194  1
  Te  Te199  1  0.33839968  0.00044241  0.50698452  1
  Te  Te200  1  0.33506551  0.00259923  0.82991759  1
  Te  Te201  1  0.33307279  0.33662963  0.17484054  1
  Te  Te202  1  0.33266905  0.33877357  0.49675553  1
  Te  Te203  1  0.32678925  0.33141047  0.83322803  1
  Te  Te204  1  0.33097054  0.67580797  0.16598281  1
  Te  Te205  1  0.33736854  0.66408884  0.50678210  1
  Te  Te206  1  0.33075973  0.66469993  0.82882870  1
  Te  Te207  1  0.66569291  -0.00408467  0.16703556  1
  Te  Te208  1  0.65889761  -0.00042861  0.49863972  1
  Te  Te209  1  0.65936733  -0.00223678  0.83427998  1
  Te  Te210  1  0.67472416  0.33781301  0.16715675  1
  Te  Te211  1  0.67403548  0.34174063  0.49997093  1
  Te  Te212  1  0.66727103  0.33358523  0.83326861  1
  Te  Te213  1  0.66739371  0.66569103  0.16758388  1
  Te  Te214  1  0.66262665  0.66258167  0.50336134  1
  Te  Te215  1  0.67179085  0.66705116  0.82609572  1
