# generated using pymatgen
data_AgSbTe2
_symmetry_space_group_name_H-M   'P 1'
_cell_length_a   18.31500734
_cell_length_b   18.31528149
_cell_length_c   18.31441702
_cell_angle_alpha   89.99829817
_cell_angle_beta   90.00289131
_cell_angle_gamma   90.00023754
_symmetry_Int_Tables_number   1
_chemical_formula_structural   AgSbTe2
_chemical_formula_sum   'Ag54 Sb54 Te108'
_cell_volume   6143.47072284
_cell_formula_units_Z   54
loop_
 _symmetry_equiv_pos_site_id
 _symmetry_equiv_pos_as_xyz
  1  'x, y, z'
loop_
 _atom_site_type_symbol
 _atom_site_label
 _atom_site_symmetry_multiplicity
 _atom_site_fract_x
 _atom_site_fract_y
 _atom_site_fract_z
 _atom_site_occupancy
  Ag  Ag0  1  0.33306243  0.66870641  0.33605504  1
  Ag  Ag1  1  0.49270037  -0.00525958  0.50019757  1
  Ag  Ag2  1  0.32943295  0.16006187  0.50607787  1
  Ag  Ag3  1  0.33529354  0.83272516  0.82129594  1
  Ag  Ag4  1  0.83284080  0.33182020  0.82312870  1
  Ag  Ag5  1  0.83237441  0.49444928  0.66719336  1
  Ag  Ag6  1  0.33613378  0.83832924  0.50799806  1
  Ag  Ag7  1  0.33357840  0.68051540  0.66869630  1
  Ag  Ag8  1  0.33291012  -0.00357197  0.66439008  1
  Ag  Ag9  1  0.32776986  0.33228386  0.33793830  1
  Ag  Ag10  1  0.82669584  0.66260885  0.16861587  1
  Ag  Ag11  1  0.83687118  0.17166004  0.66812050  1
  Ag  Ag12  1  0.17250648  0.00585535  0.50391224  1
  Ag  Ag13  1  0.66443769  0.17226401  0.16447817  1
  Ag  Ag14  1  0.17077700  0.00610504  0.17549978  1
  Ag  Ag15  1  0.00243919  0.17194918  0.17120497  1
  Ag  Ag16  1  0.17940467  0.67462612  0.82996017  1
  Ag  Ag17  1  0.82667247  0.50316169  -0.00020040  1
  Ag  Ag18  1  -0.00236424  0.33076114  0.65664855  1
  Ag  Ag19  1  -0.00724809  0.49546749  0.16891719  1
  Ag  Ag20  1  0.49460057  0.67157599  0.84414276  1
  Ag  Ag21  1  0.49667953  -0.00166392  0.16964586  1
  Ag  Ag22  1  0.32845880  0.32248097  0.65945048  1
  Ag  Ag23  1  0.83081694  0.66607882  0.83225878  1
  Ag  Ag24  1  0.49988139  0.83366002  0.33908038  1
  Ag  Ag25  1  0.17004272  -0.00215596  0.82132532  1
  Ag  Ag26  1  0.50032641  0.16538456  0.00244313  1
  Ag  Ag27  1  0.16505244  0.32536469  0.49522892  1
  Ag  Ag28  1  0.83761394  0.33613516  0.50429123  1
  Ag  Ag29  1  0.48955481  0.83504237  0.66177749  1
  Ag  Ag30  1  0.66357401  0.83221210  0.50026937  1
  Ag  Ag31  1  0.66440744  0.16482311  0.83394611  1
  Ag  Ag32  1  -0.00135295  0.83371767  0.49817343  1
  Ag  Ag33  1  0.83183643  0.66604642  0.49887718  1
  Ag  Ag34  1  0.50072826  0.33258246  0.16826765  1
  Ag  Ag35  1  0.00386606  0.00243710  0.33415580  1
  Ag  Ag36  1  0.17678928  0.84440857  0.66386876  1
  Ag  Ag37  1  0.33549234  0.16008457  0.82420716  1
  Ag  Ag38  1  0.65702501  0.66463570  0.00078093  1
  Ag  Ag39  1  0.50656604  0.51233974  0.00325740  1
  Ag  Ag40  1  0.17290059  0.16258904  0.66027440  1
  Ag  Ag41  1  0.66718717  0.33237462  0.33248863  1
  Ag  Ag42  1  -0.00073480  0.66813626  0.33379880  1
  Ag  Ag43  1  0.49871489  0.82438099  -0.00117434  1
  Ag  Ag44  1  0.00280272  0.33090521  0.33641815  1
  Ag  Ag45  1  0.16658382  0.16750901  0.33954050  1
  Ag  Ag46  1  0.66817045  0.49945008  0.16760677  1
  Ag  Ag47  1  0.66007649  0.00051802  0.66527620  1
  Ag  Ag48  1  0.83123093  0.83118257  0.33879389  1
  Ag  Ag49  1  0.83468607  0.00157288  0.82958624  1
  Ag  Ag50  1  0.34492638  0.66808620  -0.00732845  1
  Ag  Ag51  1  0.50377334  0.66700096  0.15792716  1
  Ag  Ag52  1  0.16714141  0.32519416  0.17684784  1
  Ag  Ag53  1  0.67034791  0.50240403  0.49678703  1
  Sb  Sb54  1  0.00463954  0.83287436  0.82544964  1
  Sb  Sb55  1  0.49771327  -0.00400427  0.83079372  1
  Sb  Sb56  1  -0.00632637  0.49921828  0.49505911  1
  Sb  Sb57  1  0.50255206  0.33361671  0.83616796  1
  Sb  Sb58  1  0.83310623  0.83444592  0.66257468  1
  Sb  Sb59  1  0.83187567  -0.00196574  0.16464566  1
  Sb  Sb60  1  -0.00400090  0.50002118  0.83609061  1
  Sb  Sb61  1  0.33448883  0.50532723  0.83224959  1
  Sb  Sb62  1  0.33793385  0.50007481  0.16653861  1
  Sb  Sb63  1  0.16764561  0.50145110  0.00181181  1
  Sb  Sb64  1  0.16565154  0.49237009  0.33269451  1
  Sb  Sb65  1  0.83284902  0.50452142  0.33409783  1
  Sb  Sb66  1  0.82742278  0.17168132  -0.00453613  1
  Sb  Sb67  1  0.49604451  0.16144835  0.66922672  1
  Sb  Sb68  1  0.66725963  0.66486876  0.33103991  1
  Sb  Sb69  1  0.32989987  0.00073641  0.34167523  1
  Sb  Sb70  1  0.00020993  0.83299492  0.17630774  1
  Sb  Sb71  1  0.50211423  0.67453070  0.49881451  1
  Sb  Sb72  1  0.83806474  0.16578567  0.33738080  1
  Sb  Sb73  1  0.33819897  0.50058462  0.50098282  1
  Sb  Sb74  1  0.66179476  0.83512541  0.82801180  1
  Sb  Sb75  1  0.16518412  0.66908928  0.50245416  1
  Sb  Sb76  1  0.66775466  0.00263298  0.33676556  1
  Sb  Sb77  1  -0.00182347  0.66580315  0.00470309  1
  Sb  Sb78  1  0.00774134  0.16578839  0.49635010  1
  Sb  Sb79  1  -0.00040967  0.16624323  0.83376706  1
  Sb  Sb80  1  0.82596744  0.82592124  0.00181084  1
  Sb  Sb81  1  0.16534060  0.33082954  0.82894243  1
  Sb  Sb82  1  0.16375445  0.49716990  0.66595877  1
  Sb  Sb83  1  0.16807060  0.66742900  0.16716684  1
  Sb  Sb84  1  0.17388661  0.83281919  -0.00615875  1
  Sb  Sb85  1  0.49871347  0.32883684  0.49549162  1
  Sb  Sb86  1  -0.00241946  0.33378758  0.00393440  1
  Sb  Sb87  1  0.33446620  0.16666142  0.16770775  1
  Sb  Sb88  1  0.49559857  0.16392079  0.32965700  1
  Sb  Sb89  1  0.66310466  0.16535542  0.50104877  1
  Sb  Sb90  1  0.50383470  0.50585118  0.67016973  1
  Sb  Sb91  1  0.16800307  0.83935133  0.34048521  1
  Sb  Sb92  1  0.66435547  0.67129192  0.66822447  1
  Sb  Sb93  1  0.33601445  0.33547255  0.00038035  1
  Sb  Sb94  1  0.66333875  -0.00283709  -0.00355709  1
  Sb  Sb95  1  0.66234761  0.83169957  0.17171791  1
  Sb  Sb96  1  0.00446601  0.00408101  0.66120642  1
  Sb  Sb97  1  0.33629365  -0.00401785  -0.00574198  1
  Sb  Sb98  1  0.33590753  0.83328462  0.16973224  1
  Sb  Sb99  1  0.00084536  0.00036537  0.00494514  1
  Sb  Sb100  1  0.66645306  0.33840723  0.00545806  1
  Sb  Sb101  1  0.50182427  0.50424376  0.32859236  1
  Sb  Sb102  1  0.83236308  0.33817091  0.17136493  1
  Sb  Sb103  1  0.66961101  0.49862097  0.83505954  1
  Sb  Sb104  1  0.66851928  0.32918203  0.66273269  1
  Sb  Sb105  1  0.17172020  0.16565977  -0.00028499  1
  Sb  Sb106  1  0.83517553  0.00012799  0.50355110  1
  Sb  Sb107  1  0.00111298  0.66321317  0.66298322  1
  Te  Te108  1  0.16673746  0.16601956  0.16560505  1
  Te  Te109  1  0.16859950  0.16707558  0.50054938  1
  Te  Te110  1  0.16949448  0.16268937  0.83173517  1
  Te  Te111  1  0.16196482  0.49630167  0.16527733  1
  Te  Te112  1  0.16715481  0.49200599  0.50058945  1
  Te  Te113  1  0.16470928  0.50601464  0.83473805  1
  Te  Te114  1  0.16640796  0.84087324  0.16494316  1
  Te  Te115  1  0.17068040  0.83364510  0.50442549  1
  Te  Te116  1  0.17073025  0.83480598  0.82814143  1
  Te  Te117  1  0.50176794  0.16783888  0.16527938  1
  Te  Te118  1  0.49343376  0.15950205  0.49885994  1
  Te  Te119  1  0.50095466  0.16669796  0.83728939  1
  Te  Te120  1  0.50415061  0.49973731  0.16333420  1
  Te  Te121  1  0.50981265  0.49987650  0.50087500  1
  Te  Te122  1  0.50211985  0.50505009  0.83958329  1
  Te  Te123  1  0.49998980  0.83377341  0.16719376  1
  Te  Te124  1  0.49892576  0.83473263  0.50056193  1
  Te  Te125  1  0.49735801  0.83067766  0.83257396  1
  Te  Te126  1  0.82900689  0.16640883  0.16512838  1
  Te  Te127  1  0.83204048  0.16976309  0.50588813  1
  Te  Te128  1  0.83234384  0.16554335  0.83085866  1
  Te  Te129  1  0.82952430  0.50237091  0.16586438  1
  Te  Te130  1  0.83014281  0.50065005  0.50150258  1
  Te  Te131  1  0.83339685  0.50255491  0.83197261  1
  Te  Te132  1  0.83165428  0.82815571  0.17102552  1
  Te  Te133  1  0.83300598  0.83268792  0.49782775  1
  Te  Te134  1  0.83409462  0.83251884  0.83272944  1
  Te  Te135  1  0.16761548  -0.00060013  0.00156762  1
  Te  Te136  1  0.16452717  0.00469251  0.33358481  1
  Te  Te137  1  0.16668485  0.00254792  0.66449574  1
  Te  Te138  1  0.16668948  0.33401080  0.00585435  1
  Te  Te139  1  0.16669164  0.32980964  0.33366630  1
  Te  Te140  1  0.16731545  0.33009938  0.66528185  1
  Te  Te141  1  0.16992446  0.66698231  -0.00556241  1
  Te  Te142  1  0.16800478  0.66678648  0.33269900  1
  Te  Te143  1  0.16961326  0.66476413  0.67039226  1
  Te  Te144  1  0.50011471  0.00369712  0.00625325  1
  Te  Te145  1  0.49990041  -0.00506339  0.33265056  1
  Te  Te146  1  0.49827655  -0.00386253  0.66499413  1
  Te  Te147  1  0.49991890  0.32855178  0.00514492  1
  Te  Te148  1  0.49904530  0.33327428  0.32820033  1
  Te  Te149  1  0.49408484  0.33602529  0.66661252  1
  Te  Te150  1  0.49990630  0.66801936  0.00152426  1
  Te  Te151  1  0.49746152  0.67154690  0.33092668  1
  Te  Te152  1  0.49581174  0.67089062  0.66915082  1
  Te  Te153  1  0.83243049  -0.00160637  -0.00810375  1
  Te  Te154  1  0.83924468  -0.00548773  0.33279843  1
  Te  Te155  1  0.83567309  0.00323665  0.67056667  1
  Te  Te156  1  0.83284457  0.34040731  -0.00808088  1
  Te  Te157  1  0.83662409  0.33185393  0.33904126  1
  Te  Te158  1  0.83106223  0.33226308  0.66451819  1
  Te  Te159  1  0.83221445  0.66289709  0.00136470  1
  Te  Te160  1  0.83360301  0.67045222  0.33490888  1
  Te  Te161  1  0.83300921  0.66417100  0.66479717  1
  Te  Te162  1  -0.00087624  0.16630057  0.01016031  1
  Te  Te163  1  0.00311368  0.16815449  0.33046479  1
  Te  Te164  1  -0.00104319  0.17207844  0.66775028  1
  Te  Te165  1  -0.00548555  0.50027826  0.00844573  1
  Te  Te166  1  -0.00017220  0.49998819  0.32808460  1
  Te  Te167  1  -0.00651866  0.49363122  0.66634810  1
  Te  Te168  1  -0.00094676  0.83321188  -0.00004149  1
  Te  Te169  1  0.00059325  0.83061429  0.33925907  1
  Te  Te170  1  0.00497124  0.83209219  0.65754096  1
  Te  Te171  1  0.33937686  0.16721373  -0.00683032  1
  Te  Te172  1  0.32805156  0.17058171  0.33747841  1
  Te  Te173  1  0.33306430  0.16523781  0.66686420  1
  Te  Te174  1  0.33907390  0.50595561  -0.00028703  1
  Te  Te175  1  0.33384670  0.50131406  0.33393677  1
  Te  Te176  1  0.33390269  0.49591038  0.66650400  1
  Te  Te177  1  0.33971567  0.82800608  -0.00178422  1
  Te  Te178  1  0.33618020  0.83057268  0.33724107  1
  Te  Te179  1  0.33264062  0.83595617  0.66551270  1
  Te  Te180  1  0.66244402  0.16706588  0.00046150  1
  Te  Te181  1  0.66733484  0.17110952  0.33004404  1
  Te  Te182  1  0.66655172  0.16180290  0.66922414  1
  Te  Te183  1  0.66665034  0.50354354  0.00210163  1
  Te  Te184  1  0.66675087  0.49415673  0.33218993  1
  Te  Te185  1  0.67176124  0.49963423  0.66262233  1
  Te  Te186  1  0.65883242  0.82688415  -0.00042885  1
  Te  Te187  1  0.66567570  0.83415216  0.33939507  1
  Te  Te188  1  0.66528707  0.83922161  0.66067358  1
  Te  Te189  1  0.00083481  0.00322115  0.17212522  1
  Te  Te190  1  0.00388809  -0.00346268  0.49424971  1
  Te  Te191  1  0.00199971  -0.00076385  0.83457507  1
  Te  Te192  1  0.00019291  0.33302267  0.17014910  1
  Te  Te193  1  -0.00062441  0.33297761  0.49819496  1
  Te  Te194  1  -0.00472314  0.33253029  0.83043735  1
  Te  Te195  1  -0.00107864  0.66440705  0.17242350  1
  Te  Te196  1  -0.00345351  0.66811504  0.49526188  1
  Te  Te197  1  -0.00649356  0.66741826  0.83355708  1
  Te  Te198  1  0.33450843  0.00089477  0.16596360  1
  Te  Te199  1  0.33283317  -0.00083123  0.50165637  1
  Te  Te200  1  0.33111901  -0.00076871  0.82874763  1
  Te  Te201  1  0.33305338  0.33375150  0.16934044  1
  Te  Te202  1  0.33274446  0.33461625  0.49841674  1
  Te  Te203  1  0.33250980  0.32967997  0.82994624  1
  Te  Te204  1  0.33630437  0.66616954  0.17138625  1
  Te  Te205  1  0.33301800  0.66835659  0.49986337  1
  Te  Te206  1  0.33530704  0.66828445  0.83060042  1
  Te  Te207  1  0.66241342  0.00453619  0.16678934  1
  Te  Te208  1  0.66422184  -0.00317475  0.50426506  1
  Te  Te209  1  0.66836904  0.00352197  0.82914158  1
  Te  Te210  1  0.66525602  0.33370555  0.17053957  1
  Te  Te211  1  0.66711869  0.33415287  0.49484945  1
  Te  Te212  1  0.67108483  0.32663208  0.83311686  1
  Te  Te213  1  0.66623824  0.66516283  0.16540712  1
  Te  Te214  1  0.67192459  0.66700346  0.49990663  1
  Te  Te215  1  0.66985280  0.66666512  0.83644232  1
