# generated using pymatgen
data_AgSbTe2
_symmetry_space_group_name_H-M   'P 1'
_cell_length_a   18.31278283
_cell_length_b   18.31248206
_cell_length_c   18.30561200
_cell_angle_alpha   89.99665517
_cell_angle_beta   90.00256778
_cell_angle_gamma   90.00028735
_symmetry_Int_Tables_number   1
_chemical_formula_structural   AgSbTe2
_chemical_formula_sum   'Ag54 Sb54 Te108'
_cell_volume   6138.83285935
_cell_formula_units_Z   54
loop_
 _symmetry_equiv_pos_site_id
 _symmetry_equiv_pos_as_xyz
  1  'x, y, z'
loop_
 _atom_site_type_symbol
 _atom_site_label
 _atom_site_symmetry_multiplicity
 _atom_site_fract_x
 _atom_site_fract_y
 _atom_site_fract_z
 _atom_site_occupancy
  Ag  Ag0  1  0.33831118  0.33799341  0.33171890  1
  Ag  Ag1  1  0.65867941  0.33568874  0.66549939  1
  Ag  Ag2  1  -0.00262004  0.16361907  0.82959837  1
  Ag  Ag3  1  0.33813851  0.66722855  0.01030608  1
  Ag  Ag4  1  0.33995705  0.50129473  0.83562088  1
  Ag  Ag5  1  0.00873522  0.00042142  0.66999707  1
  Ag  Ag6  1  0.33141303  0.82201616  0.16600729  1
  Ag  Ag7  1  0.17063968  0.16261373  0.66584274  1
  Ag  Ag8  1  0.32882777  0.16980531  0.50401812  1
  Ag  Ag9  1  0.82998229  0.66151117  0.83748116  1
  Ag  Ag10  1  0.16932723  0.84139978  0.67168490  1
  Ag  Ag11  1  0.00017888  0.66481019  -0.00359296  1
  Ag  Ag12  1  0.17734256  0.49980222  0.33026457  1
  Ag  Ag13  1  0.16688072  0.82770720  0.32374897  1
  Ag  Ag14  1  0.83536632  0.83428283  0.33143054  1
  Ag  Ag15  1  -0.00127561  0.33619818  0.00190091  1
  Ag  Ag16  1  0.83345748  0.50083582  -0.00166523  1
  Ag  Ag17  1  0.16738904  -0.00860264  0.16245315  1
  Ag  Ag18  1  0.66475577  -0.00926022  -0.00142880  1
  Ag  Ag19  1  0.49546778  0.49529718  0.33312233  1
  Ag  Ag20  1  0.65984317  0.82854812  0.16395851  1
  Ag  Ag21  1  0.50289690  0.66806725  0.83991763  1
  Ag  Ag22  1  0.00241940  0.17060621  0.16727175  1
  Ag  Ag23  1  0.66005691  0.65969741  0.32358836  1
  Ag  Ag24  1  0.83103990  0.16795000  0.33410160  1
  Ag  Ag25  1  0.00424289  0.17020772  0.50293734  1
  Ag  Ag26  1  0.16878674  -0.00264337  0.82995002  1
  Ag  Ag27  1  0.65830422  0.33900614  0.33398353  1
  Ag  Ag28  1  0.48942940  0.66376886  0.16057785  1
  Ag  Ag29  1  0.49651603  -0.00551234  0.83090150  1
  Ag  Ag30  1  0.16937437  0.33522116  0.17162608  1
  Ag  Ag31  1  0.17057401  0.83107731  0.00494630  1
  Ag  Ag32  1  0.16759748  0.33210753  0.49472358  1
  Ag  Ag33  1  0.66231766  0.49821542  0.83070164  1
  Ag  Ag34  1  -0.00205001  0.49460774  0.50050137  1
  Ag  Ag35  1  0.66917138  0.17444617  0.83191596  1
  Ag  Ag36  1  0.49800481  0.34098379  0.17191551  1
  Ag  Ag37  1  0.32807509  0.00429651  0.66851417  1
  Ag  Ag38  1  0.33728342  0.65606914  0.32323791  1
  Ag  Ag39  1  0.17712698  0.67151780  0.16639692  1
  Ag  Ag40  1  0.49283245  0.17305096  0.66588615  1
  Ag  Ag41  1  0.49966521  0.49656721  0.66690369  1
  Ag  Ag42  1  0.49748780  0.82746317  -0.00299374  1
  Ag  Ag43  1  0.33853768  0.32930168  0.66123408  1
  Ag  Ag44  1  0.00325448  0.67125422  0.67594657  1
  Ag  Ag45  1  0.50197213  0.17712611  0.33545062  1
  Ag  Ag46  1  0.65900676  0.66869055  0.00346889  1
  Ag  Ag47  1  0.33372972  0.50904011  0.16937470  1
  Ag  Ag48  1  0.49425715  0.83230002  0.67645233  1
  Ag  Ag49  1  0.83327953  0.33361736  0.16409518  1
  Ag  Ag50  1  0.83132132  0.33775289  0.83770089  1
  Ag  Ag51  1  0.66795128  0.49730350  0.50083777  1
  Ag  Ag52  1  0.00330039  0.83402492  0.83200400  1
  Ag  Ag53  1  0.83510947  0.00245054  0.49932516  1
  Sb  Sb54  1  0.49437730  0.33394804  0.49599252  1
  Sb  Sb55  1  0.83269174  0.82709138  0.00357639  1
  Sb  Sb56  1  0.00546388  0.49616583  0.16881107  1
  Sb  Sb57  1  0.33148318  0.83718410  0.49788910  1
  Sb  Sb58  1  0.66367330  0.00497315  0.67194451  1
  Sb  Sb59  1  0.33189429  0.82861778  0.83666184  1
  Sb  Sb60  1  0.66563951  0.83067073  0.83817529  1
  Sb  Sb61  1  0.83391820  0.00051973  0.83077327  1
  Sb  Sb62  1  0.66663638  0.17320321  0.50282198  1
  Sb  Sb63  1  0.83261143  0.66191454  0.16195835  1
  Sb  Sb64  1  0.33172846  0.66628254  0.66717045  1
  Sb  Sb65  1  -0.00034212  0.50122965  0.83098520  1
  Sb  Sb66  1  0.00461200  0.83511628  0.16137626  1
  Sb  Sb67  1  0.33360360  0.16932429  0.82566461  1
  Sb  Sb68  1  0.66652846  0.82819055  0.49504782  1
  Sb  Sb69  1  0.00162849  0.66604745  0.32964453  1
  Sb  Sb70  1  0.50382243  0.33582925  0.83401372  1
  Sb  Sb71  1  0.83688835  0.33071266  0.49829049  1
  Sb  Sb72  1  0.83454535  0.66811525  0.50228302  1
  Sb  Sb73  1  0.33201044  0.00203223  0.33545656  1
  Sb  Sb74  1  0.16365365  0.00526801  0.50494186  1
  Sb  Sb75  1  0.82977253  0.49845082  0.32905014  1
  Sb  Sb76  1  0.83464794  0.17185032  0.00129823  1
  Sb  Sb77  1  0.16749680  0.16895677  0.33639494  1
  Sb  Sb78  1  0.32965138  0.16954996  0.17261829  1
  Sb  Sb79  1  0.32966590  0.34119852  0.00316932  1
  Sb  Sb80  1  0.50014512  0.66369621  0.49829412  1
  Sb  Sb81  1  0.33445711  0.49436611  0.49560139  1
  Sb  Sb82  1  0.83790108  0.00314982  0.16865646  1
  Sb  Sb83  1  0.83519793  0.16736099  0.66463200  1
  Sb  Sb84  1  0.50161964  0.16314244  -0.00251665  1
  Sb  Sb85  1  0.50251225  0.50629639  -0.00058009  1
  Sb  Sb86  1  0.66966583  0.33850101  0.00038673  1
  Sb  Sb87  1  0.16538024  0.16225083  -0.00211231  1
  Sb  Sb88  1  0.16708799  0.67143195  0.83861637  1
  Sb  Sb89  1  0.33485834  -0.00714812  -0.00448680  1
  Sb  Sb90  1  0.66901311  0.16647203  0.16455359  1
  Sb  Sb91  1  0.16553215  0.66181461  0.49486646  1
  Sb  Sb92  1  0.82876132  0.49901223  0.67129704  1
  Sb  Sb93  1  0.00128912  0.00104340  0.33725141  1
  Sb  Sb94  1  0.50235480  0.00235562  0.50702481  1
  Sb  Sb95  1  0.83416077  0.83290080  0.66546041  1
  Sb  Sb96  1  0.16409588  0.50643377  0.00551579  1
  Sb  Sb97  1  0.00127082  0.83515338  0.50537551  1
  Sb  Sb98  1  0.49593836  -0.00272582  0.16236639  1
  Sb  Sb99  1  0.00162794  0.33172875  0.66991322  1
  Sb  Sb100  1  0.16379557  0.32993460  0.83411824  1
  Sb  Sb101  1  0.65944331  0.50341719  0.16597015  1
  Sb  Sb102  1  0.66580198  0.66211739  0.67064603  1
  Sb  Sb103  1  0.00162847  0.33293739  0.32880427  1
  Sb  Sb104  1  -0.00115521  -0.00167753  -0.00480450  1
  Sb  Sb105  1  0.66631878  0.00056894  0.32975338  1
  Sb  Sb106  1  0.17086114  0.49870645  0.66301341  1
  Sb  Sb107  1  0.49780650  0.82879468  0.32843867  1
  Te  Te108  1  0.16202028  0.17108100  0.16649957  1
  Te  Te109  1  0.16511477  0.17029686  0.50319075  1
  Te  Te110  1  0.16290827  0.16199228  0.82936595  1
  Te  Te111  1  0.17089338  0.49717204  0.17065063  1
  Te  Te112  1  0.16389571  0.49426839  0.49506659  1
  Te  Te113  1  0.17314076  0.49967850  0.83278018  1
  Te  Te114  1  0.16652616  0.83234939  0.16517865  1
  Te  Te115  1  0.16640048  0.83393016  0.50097047  1
  Te  Te116  1  0.16577710  0.83663779  0.83027911  1
  Te  Te117  1  0.49958416  0.16722318  0.17001635  1
  Te  Te118  1  0.49849878  0.16701323  0.50189659  1
  Te  Te119  1  0.50334079  0.16524140  0.82970147  1
  Te  Te120  1  0.49569817  0.50163671  0.16863807  1
  Te  Te121  1  0.50576512  0.49987518  0.50047387  1
  Te  Te122  1  0.50109011  0.50185298  0.83248892  1
  Te  Te123  1  0.49874237  0.83155533  0.16315081  1
  Te  Te124  1  0.50007910  0.83351433  0.50896417  1
  Te  Te125  1  0.49932785  0.83186858  0.83540902  1
  Te  Te126  1  0.83721129  0.17079907  0.17150903  1
  Te  Te127  1  0.83627407  0.16426113  0.49521820  1
  Te  Te128  1  0.83378395  0.16902988  0.83310495  1
  Te  Te129  1  0.83438973  0.49305651  0.16149832  1
  Te  Te130  1  0.83310972  0.49937619  0.49933200  1
  Te  Te131  1  0.83279005  0.50026474  0.83630941  1
  Te  Te132  1  0.83354326  0.83432079  0.17193199  1
  Te  Te133  1  0.83351745  0.83728141  0.49285497  1
  Te  Te134  1  0.83895383  0.82919150  0.83380119  1
  Te  Te135  1  0.16674774  -0.00653361  -0.00272570  1
  Te  Te136  1  0.16758149  -0.00497725  0.32870340  1
  Te  Te137  1  0.16751351  0.00061128  0.66705109  1
  Te  Te138  1  0.16111117  0.33306060  0.00386950  1
  Te  Te139  1  0.16805539  0.33435852  0.33232183  1
  Te  Te140  1  0.17100467  0.33023844  0.66659156  1
  Te  Te141  1  0.16558986  0.67109405  0.00436220  1
  Te  Te142  1  0.16772198  0.66606656  0.32828411  1
  Te  Te143  1  0.16313006  0.66927693  0.66576774  1
  Te  Te144  1  0.50285191  -0.00534851  -0.00586224  1
  Te  Te145  1  0.49965253  0.00579526  0.33407435  1
  Te  Te146  1  0.49820800  0.00065362  0.67163130  1
  Te  Te147  1  0.49940063  0.33271209  0.00909493  1
  Te  Te148  1  0.49986050  0.33393929  0.33234046  1
  Te  Te149  1  0.49955636  0.33417267  0.66812798  1
  Te  Te150  1  0.49938143  0.66739461  0.00052682  1
  Te  Te151  1  0.50068715  0.66517795  0.33112363  1
  Te  Te152  1  0.49908932  0.66569461  0.67075825  1
  Te  Te153  1  0.82607385  -0.00061575  0.00059250  1
  Te  Te154  1  0.83323938  0.00113881  0.33634932  1
  Te  Te155  1  0.83619463  -0.00120685  0.66145031  1
  Te  Te156  1  0.83625811  0.33709866  0.00036464  1
  Te  Te157  1  0.83111540  0.33054869  0.33018251  1
  Te  Te158  1  0.82734776  0.33325789  0.67226057  1
  Te  Te159  1  0.83622527  0.66288281  -0.00401774  1
  Te  Te160  1  0.82988930  0.66934598  0.33308321  1
  Te  Te161  1  0.83863356  0.66706087  0.67319243  1
  Te  Te162  1  -0.00018783  0.16908977  -0.00177383  1
  Te  Te163  1  -0.00330475  0.16652135  0.33484596  1
  Te  Te164  1  0.00172648  0.16601919  0.66753580  1
  Te  Te165  1  -0.00312829  0.50047950  -0.00083561  1
  Te  Te166  1  0.00206051  0.50063515  0.34020282  1
  Te  Te167  1  0.00147426  0.50196736  0.66155884  1
  Te  Te168  1  0.00313619  0.83051089  -0.00580613  1
  Te  Te169  1  0.00133206  0.83305983  0.33414650  1
  Te  Te170  1  0.00103813  0.83342950  0.67103383  1
  Te  Te171  1  0.33397262  0.16717182  -0.00006914  1
  Te  Te172  1  0.33686088  0.17142158  0.33985228  1
  Te  Te173  1  0.33270522  0.16859822  0.66552569  1
  Te  Te174  1  0.33215630  0.50683682  0.00107928  1
  Te  Te175  1  0.33495832  0.49824100  0.33371358  1
  Te  Te176  1  0.33868443  0.49768450  0.66589597  1
  Te  Te177  1  0.33337778  0.82835477  0.00369844  1
  Te  Te178  1  0.32952705  0.83286926  0.32935674  1
  Te  Te179  1  0.33294072  0.83531721  0.66640771  1
  Te  Te180  1  0.66753707  0.16459330  -0.00656686  1
  Te  Te181  1  0.66552426  0.17000600  0.33378249  1
  Te  Te182  1  0.66360012  0.17196444  0.67054445  1
  Te  Te183  1  0.67119857  0.50547699  -0.00422002  1
  Te  Te184  1  0.66435103  0.49903719  0.33303047  1
  Te  Te185  1  0.66222068  0.49714993  0.66893763  1
  Te  Te186  1  0.66555610  0.82928840  0.00327759  1
  Te  Te187  1  0.66763479  0.83133700  0.32830085  1
  Te  Te188  1  0.66102229  0.83327601  0.66550900  1
  Te  Te189  1  0.00610118  0.00656028  0.16458282  1
  Te  Te190  1  -0.00285169  0.00404284  0.50579823  1
  Te  Te191  1  0.00117887  0.00189761  0.83016323  1
  Te  Te192  1  -0.00018456  0.33112312  0.16312097  1
  Te  Te193  1  0.00424456  0.33157426  0.50079358  1
  Te  Te194  1  -0.00435767  0.33085080  0.83754733  1
  Te  Te195  1  0.00184089  0.66566720  0.15991961  1
  Te  Te196  1  -0.00085839  0.66278952  0.50405549  1
  Te  Te197  1  0.00057671  0.66697820  0.83493185  1
  Te  Te198  1  0.32653422  0.00007401  0.16581883  1
  Te  Te199  1  0.33430999  0.00655972  0.50683198  1
  Te  Te200  1  0.33317937  0.00074462  0.82887135  1
  Te  Te201  1  0.33255270  0.33472007  0.16932338  1
  Te  Te202  1  0.32848271  0.33041908  0.50040958  1
  Te  Te203  1  0.33318470  0.34044220  0.83334797  1
  Te  Te204  1  0.33356273  0.66627177  0.16733471  1
  Te  Te205  1  0.33260403  0.66731377  0.49228930  1
  Te  Te206  1  0.33724675  0.66139387  0.83386785  1
  Te  Te207  1  0.66614492  -0.00461919  0.16124113  1
  Te  Te208  1  0.67334185  -0.00054711  0.50005882  1
  Te  Te209  1  0.66498532  0.00117789  0.83745013  1
  Te  Te210  1  0.66595167  0.33340020  0.16966972  1
  Te  Te211  1  0.66910888  0.33815040  0.49973955  1
  Te  Te212  1  0.66981654  0.33531722  0.83424567  1
  Te  Te213  1  0.66772702  0.66907116  0.16529493  1
  Te  Te214  1  0.66821519  0.65946955  0.49554027  1
  Te  Te215  1  0.66554530  0.66383000  0.83557972  1
