# generated using pymatgen
data_AgSbTe2
_symmetry_space_group_name_H-M   'P 1'
_cell_length_a   18.32477465
_cell_length_b   18.32647820
_cell_length_c   18.32051868
_cell_angle_alpha   89.99864921
_cell_angle_beta   90.00295029
_cell_angle_gamma   89.99884987
_symmetry_Int_Tables_number   1
_chemical_formula_structural   AgSbTe2
_chemical_formula_sum   'Ag54 Sb54 Te108'
_cell_volume   6152.55382240
_cell_formula_units_Z   54
loop_
 _symmetry_equiv_pos_site_id
 _symmetry_equiv_pos_as_xyz
  1  'x, y, z'
loop_
 _atom_site_type_symbol
 _atom_site_label
 _atom_site_symmetry_multiplicity
 _atom_site_fract_x
 _atom_site_fract_y
 _atom_site_fract_z
 _atom_site_occupancy
  Ag  Ag0  1  0.16189978  0.50237377  0.34139000  1
  Ag  Ag1  1  0.49791910  0.15693326  0.66517180  1
  Ag  Ag2  1  0.67477871  0.33094805  0.33361521  1
  Ag  Ag3  1  0.33097157  0.83188422  0.83056474  1
  Ag  Ag4  1  0.17266304  0.66703420  0.83697388  1
  Ag  Ag5  1  0.83845224  0.67124646  0.16706655  1
  Ag  Ag6  1  0.84199446  0.32866717  0.49595409  1
  Ag  Ag7  1  0.49673294  -0.00143747  0.16708008  1
  Ag  Ag8  1  0.16851802  0.68346516  0.50051007  1
  Ag  Ag9  1  0.83930613  0.83527317  0.33863773  1
  Ag  Ag10  1  0.16731518  0.51088361  0.00080884  1
  Ag  Ag11  1  0.33398995  -0.00381282  0.66307093  1
  Ag  Ag12  1  0.32573202  0.67250862  -0.00176708  1
  Ag  Ag13  1  0.49568943  0.83637417  0.66358150  1
  Ag  Ag14  1  0.83020945  0.33335628  0.82598929  1
  Ag  Ag15  1  0.16445082  -0.00053547  0.49663948  1
  Ag  Ag16  1  0.00422463  0.49764612  0.49747335  1
  Ag  Ag17  1  0.66879790  0.50169271  0.83194480  1
  Ag  Ag18  1  0.00904701  0.83279758  0.49582338  1
  Ag  Ag19  1  0.16296884  0.50875508  0.65509928  1
  Ag  Ag20  1  0.66181723  -0.00533029  0.66425826  1
  Ag  Ag21  1  0.49935155  0.32806884  0.16941850  1
  Ag  Ag22  1  0.32562247  0.83538126  0.16690473  1
  Ag  Ag23  1  0.16024645  0.16294477  0.34309297  1
  Ag  Ag24  1  0.49888442  0.66786607  0.82976682  1
  Ag  Ag25  1  0.83724937  0.49324089  0.34041606  1
  Ag  Ag26  1  0.66818866  0.16817301  0.83209120  1
  Ag  Ag27  1  0.32934877  0.32823171  0.00158646  1
  Ag  Ag28  1  0.16364956  0.67259649  0.16593283  1
  Ag  Ag29  1  0.50492688  0.49996001  0.33451963  1
  Ag  Ag30  1  -0.00352412  0.33391251  0.33779941  1
  Ag  Ag31  1  0.66598602  0.67375090  0.67032995  1
  Ag  Ag32  1  0.17295601  -0.01025490  0.17548740  1
  Ag  Ag33  1  0.83749419  0.16974073  0.33630905  1
  Ag  Ag34  1  0.32164625  0.83726664  0.50573469  1
  Ag  Ag35  1  0.49436986  0.66896641  0.50574170  1
  Ag  Ag36  1  0.17411467  0.83306439  0.65546342  1
  Ag  Ag37  1  0.01110608  0.66704816  0.00379725  1
  Ag  Ag38  1  0.33271603  -0.00398066  0.00175773  1
  Ag  Ag39  1  0.83839619  -0.00055321  0.49748481  1
  Ag  Ag40  1  0.66594884  0.67151006  -0.00418322  1
  Ag  Ag41  1  0.66649679  0.83488218  0.16807124  1
  Ag  Ag42  1  0.32024525  0.15839112  0.50251859  1
  Ag  Ag43  1  0.17104157  0.15873408  0.65465826  1
  Ag  Ag44  1  0.66392386  -0.00318218  0.00315901  1
  Ag  Ag45  1  0.00887575  0.83045553  0.17681946  1
  Ag  Ag46  1  0.00765574  0.16974762  0.49727132  1
  Ag  Ag47  1  0.83554139  0.50403627  0.65840591  1
  Ag  Ag48  1  0.83599482  0.16571439  0.00484072  1
  Ag  Ag49  1  0.16120181  0.31593861  0.49731376  1
  Ag  Ag50  1  0.16628834  0.16640088  0.00021517  1
  Ag  Ag51  1  0.67003041  0.00049591  0.33480821  1
  Ag  Ag52  1  0.83139522  0.83137369  0.65884595  1
  Ag  Ag53  1  0.16215142  0.83465230  0.34077767  1
  Sb  Sb54  1  0.66534691  0.33230616  0.00331793  1
  Sb  Sb55  1  0.83822580  0.66874016  0.49719276  1
  Sb  Sb56  1  -0.00193588  0.16886394  0.82851802  1
  Sb  Sb57  1  0.33306007  0.67589491  0.66981980  1
  Sb  Sb58  1  0.50028481  -0.00567748  0.83270320  1
  Sb  Sb59  1  0.66848785  0.66869805  0.33416011  1
  Sb  Sb60  1  0.00240677  -0.00156175  0.66177880  1
  Sb  Sb61  1  0.50006600  0.16798558  0.33740765  1
  Sb  Sb62  1  0.66875936  0.16549636  0.50220584  1
  Sb  Sb63  1  0.49697674  0.83327375  -0.00242301  1
  Sb  Sb64  1  0.00597186  0.83003422  0.82990097  1
  Sb  Sb65  1  0.16879605  0.83185360  0.00459312  1
  Sb  Sb66  1  0.66753349  0.16005035  0.16447581  1
  Sb  Sb67  1  0.00214648  0.66631859  0.33144000  1
  Sb  Sb68  1  0.83197963  0.66393031  0.83506849  1
  Sb  Sb69  1  0.67340973  0.50175450  0.50189610  1
  Sb  Sb70  1  0.00151512  0.66741681  0.66752129  1
  Sb  Sb71  1  0.00178055  -0.00387520  0.00451522  1
  Sb  Sb72  1  0.83133238  0.83602121  0.00102611  1
  Sb  Sb73  1  0.83376685  0.16528728  0.66069014  1
  Sb  Sb74  1  -0.00047047  0.33420555  0.65718241  1
  Sb  Sb75  1  0.16976303  -0.00559326  0.83069136  1
  Sb  Sb76  1  0.83213731  -0.00633751  0.17345795  1
  Sb  Sb77  1  0.82972236  0.33619221  0.17320571  1
  Sb  Sb78  1  0.66874054  0.83325530  0.49937434  1
  Sb  Sb79  1  0.33090266  0.16127317  0.16896844  1
  Sb  Sb80  1  0.33036362  0.33281188  0.33143974  1
  Sb  Sb81  1  0.83695731  0.49937828  0.00036432  1
  Sb  Sb82  1  0.33565463  0.16100505  0.83086568  1
  Sb  Sb83  1  0.49821336  0.33679494  0.49595596  1
  Sb  Sb84  1  0.00153602  0.50668454  0.17379765  1
  Sb  Sb85  1  0.32253122  0.50377427  0.50072451  1
  Sb  Sb86  1  0.50029590  0.50508456  0.66208504  1
  Sb  Sb87  1  0.82822912  0.00292865  0.82769082  1
  Sb  Sb88  1  -0.00182417  0.50102576  0.82846060  1
  Sb  Sb89  1  0.32897314  0.66854453  0.33124055  1
  Sb  Sb90  1  0.33079297  0.32683224  0.66818288  1
  Sb  Sb91  1  0.49757477  -0.00392549  0.49971385  1
  Sb  Sb92  1  0.66332201  0.83131827  0.83227437  1
  Sb  Sb93  1  0.66848694  0.33248353  0.66352107  1
  Sb  Sb94  1  0.33454572  0.50695525  0.83341201  1
  Sb  Sb95  1  0.17013714  0.33397845  0.17202094  1
  Sb  Sb96  1  0.49612577  0.50226658  0.00349003  1
  Sb  Sb97  1  0.00399882  0.33604190  0.00696840  1
  Sb  Sb98  1  0.00243911  0.16014126  0.17356335  1
  Sb  Sb99  1  0.16328799  0.33812413  0.83023681  1
  Sb  Sb100  1  0.49896490  0.83090748  0.33681549  1
  Sb  Sb101  1  0.49798908  0.67098379  0.16637844  1
  Sb  Sb102  1  0.50284424  0.33678613  0.83613505  1
  Sb  Sb103  1  0.49914789  0.16441128  -0.00363094  1
  Sb  Sb104  1  0.33230593  -0.00113960  0.33456533  1
  Sb  Sb105  1  -0.00153492  0.00030879  0.33681635  1
  Sb  Sb106  1  0.33180878  0.50566206  0.16595870  1
  Sb  Sb107  1  0.66670650  0.50580218  0.16537648  1
  Te  Te108  1  0.16640388  0.16432394  0.16128644  1
  Te  Te109  1  0.16452644  0.16017971  0.49894592  1
  Te  Te110  1  0.16619755  0.16830560  0.83862835  1
  Te  Te111  1  0.16667491  0.50427650  0.16522552  1
  Te  Te112  1  0.16427303  0.50187425  0.49892201  1
  Te  Te113  1  0.16605407  0.50510239  0.83577639  1
  Te  Te114  1  0.16685403  0.83320114  0.16697271  1
  Te  Te115  1  0.16621668  0.83962051  0.49813866  1
  Te  Te116  1  0.17052151  0.82742613  0.82452700  1
  Te  Te117  1  0.49915829  0.16420060  0.16724944  1
  Te  Te118  1  0.49736640  0.16749629  0.50584914  1
  Te  Te119  1  0.50455843  0.16821155  0.82671566  1
  Te  Te120  1  0.49956401  0.49843500  0.17320615  1
  Te  Te121  1  0.49767453  0.50446603  0.49443321  1
  Te  Te122  1  0.50618026  0.50506260  0.83220125  1
  Te  Te123  1  0.50175606  0.83780663  0.16878140  1
  Te  Te124  1  0.49729550  0.82904809  0.50349789  1
  Te  Te125  1  0.49563800  0.82783287  0.82595651  1
  Te  Te126  1  0.83512008  0.16553602  0.16974034  1
  Te  Te127  1  0.83547612  0.16649604  0.49652371  1
  Te  Te128  1  0.83100266  0.17118707  0.83150210  1
  Te  Te129  1  0.83363477  0.50745307  0.17112930  1
  Te  Te130  1  0.83874974  0.50172429  0.49942731  1
  Te  Te131  1  0.83036655  0.49587191  0.83211653  1
  Te  Te132  1  0.83092439  0.83083837  0.16772756  1
  Te  Te133  1  0.83448499  0.83426874  0.49861582  1
  Te  Te134  1  0.83594814  0.83353843  0.82475983  1
  Te  Te135  1  0.16935095  0.00233015  -0.00140516  1
  Te  Te136  1  0.16713326  0.00006087  0.33409745  1
  Te  Te137  1  0.16992342  -0.00149169  0.66541861  1
  Te  Te138  1  0.16949872  0.33071443  -0.00008109  1
  Te  Te139  1  0.16469885  0.33365486  0.33646017  1
  Te  Te140  1  0.16646197  0.33291794  0.66257559  1
  Te  Te141  1  0.16897618  0.66855487  0.00150584  1
  Te  Te142  1  0.16681743  0.66692376  0.33339722  1
  Te  Te143  1  0.16676199  0.66766703  0.66321147  1
  Te  Te144  1  0.50102197  0.00013199  0.00366788  1
  Te  Te145  1  0.50857629  -0.00036068  0.32905918  1
  Te  Te146  1  0.50045528  -0.00211614  0.66638446  1
  Te  Te147  1  0.49413072  0.33332741  0.00508325  1
  Te  Te148  1  0.50230140  0.33612303  0.33001627  1
  Te  Te149  1  0.49933919  0.33043413  0.66620108  1
  Te  Te150  1  0.50490847  0.66612621  -0.00359261  1
  Te  Te151  1  0.50001878  0.66108769  0.33682763  1
  Te  Te152  1  0.50208676  0.66798390  0.66678171  1
  Te  Te153  1  0.83090727  0.00516220  0.00011718  1
  Te  Te154  1  0.82980996  -0.00210232  0.33669306  1
  Te  Te155  1  0.82896279  -0.00294160  0.66035411  1
  Te  Te156  1  0.83441372  0.32830195  0.00172118  1
  Te  Te157  1  0.83364845  0.33369358  0.33542649  1
  Te  Te158  1  0.83289715  0.33744012  0.66298342  1
  Te  Te159  1  0.82539330  0.66661847  0.00330079  1
  Te  Te160  1  0.83204093  0.67075742  0.32920563  1
  Te  Te161  1  0.83025557  0.66534643  0.66680253  1
  Te  Te162  1  -0.00103004  0.16707071  0.00026300  1
  Te  Te163  1  -0.00015947  0.16914547  0.33748069  1
  Te  Te164  1  0.00765227  0.16575520  0.66071951  1
  Te  Te165  1  0.00592226  0.50416397  0.00077157  1
  Te  Te166  1  -0.00032977  0.49780177  0.33757035  1
  Te  Te167  1  -0.00038844  0.50095032  0.66089278  1
  Te  Te168  1  -0.00196990  0.82764818  0.00119742  1
  Te  Te169  1  -0.00048010  0.83318898  0.33419455  1
  Te  Te170  1  -0.00430295  0.83249902  0.66201834  1
  Te  Te171  1  0.33110554  0.16211439  -0.00092723  1
  Te  Te172  1  0.32832696  0.16625302  0.34038091  1
  Te  Te173  1  0.33186284  0.16032760  0.66502199  1
  Te  Te174  1  0.32822143  0.50459961  -0.00036812  1
  Te  Te175  1  0.32860450  0.49954771  0.33288313  1
  Te  Te176  1  0.32646688  0.49658745  0.66827858  1
  Te  Te177  1  0.33411456  0.83517084  0.00027287  1
  Te  Te178  1  0.32943332  0.83366345  0.33105353  1
  Te  Te179  1  0.33325245  0.83605016  0.66549786  1
  Te  Te180  1  0.66933007  0.16439675  -0.00406949  1
  Te  Te181  1  0.66884121  0.16561579  0.33268293  1
  Te  Te182  1  0.66574559  0.16347664  0.67049848  1
  Te  Te183  1  0.66700551  0.50196117  -0.00447605  1
  Te  Te184  1  0.67051325  0.49847725  0.33340074  1
  Te  Te185  1  0.66870648  0.50204623  0.67001780  1
  Te  Te186  1  0.66555431  0.83576796  0.00134495  1
  Te  Te187  1  0.66913138  0.83596629  0.33051003  1
  Te  Te188  1  0.66800659  0.83411172  0.66690418  1
  Te  Te189  1  0.00920086  -0.00912096  0.16736535  1
  Te  Te190  1  -0.00063378  -0.00313875  0.50091754  1
  Te  Te191  1  -0.00152009  0.00021046  0.83474951  1
  Te  Te192  1  -0.00020465  0.33280031  0.17567524  1
  Te  Te193  1  0.00083075  0.33316967  0.49625340  1
  Te  Te194  1  -0.00996243  0.33370258  0.83668752  1
  Te  Te195  1  0.00091627  0.67136987  0.16308833  1
  Te  Te196  1  0.00614900  0.67016092  0.50146903  1
  Te  Te197  1  0.00561300  0.66518423  0.84267699  1
  Te  Te198  1  0.33329435  -0.00376366  0.16600441  1
  Te  Te199  1  0.33245996  -0.00148332  0.50164820  1
  Te  Te200  1  0.33505795  -0.00675918  0.83645997  1
  Te  Te201  1  0.33812688  0.33260462  0.16097373  1
  Te  Te202  1  0.32823891  0.32985517  0.49999027  1
  Te  Te203  1  0.33357246  0.33298789  0.84204783  1
  Te  Te204  1  0.33056034  0.67303052  0.15978506  1
  Te  Te205  1  0.33082480  0.67119631  0.50025448  1
  Te  Te206  1  0.33362005  0.67083184  0.83753650  1
  Te  Te207  1  0.66612149  -0.00401953  0.16426894  1
  Te  Te208  1  0.66860828  -0.00020779  0.50066765  1
  Te  Te209  1  0.66501550  0.00394858  0.83504885  1
  Te  Te210  1  0.66111391  0.33424870  0.17182633  1
  Te  Te211  1  0.66938130  0.33375636  0.49353718  1
  Te  Te212  1  0.67023968  0.33338838  0.83438536  1
  Te  Te213  1  0.66606780  0.67235761  0.16328697  1
  Te  Te214  1  0.66119664  0.66642244  0.50678601  1
  Te  Te215  1  0.66598351  0.66570376  0.83236968  1
