# generated using pymatgen
data_AgSbTe2
_symmetry_space_group_name_H-M   'P 1'
_cell_length_a   18.32591570
_cell_length_b   18.32354653
_cell_length_c   18.31791132
_cell_angle_alpha   89.99814653
_cell_angle_beta   89.99862025
_cell_angle_gamma   89.99808042
_symmetry_Int_Tables_number   1
_chemical_formula_structural   AgSbTe2
_chemical_formula_sum   'Ag54 Sb54 Te108'
_cell_volume   6151.07710980
_cell_formula_units_Z   54
loop_
 _symmetry_equiv_pos_site_id
 _symmetry_equiv_pos_as_xyz
  1  'x, y, z'
loop_
 _atom_site_type_symbol
 _atom_site_label
 _atom_site_symmetry_multiplicity
 _atom_site_fract_x
 _atom_site_fract_y
 _atom_site_fract_z
 _atom_site_occupancy
  Ag  Ag0  1  0.16379121  0.83793546  0.67397562  1
  Ag  Ag1  1  0.66684038  0.50031331  0.17386044  1
  Ag  Ag2  1  0.82227619  0.49960184  0.33297335  1
  Ag  Ag3  1  0.32766196  0.00095474  0.00380578  1
  Ag  Ag4  1  0.16662442  0.16125116  0.66593083  1
  Ag  Ag5  1  0.00758706  -0.00163478  0.00218372  1
  Ag  Ag6  1  0.32970863  0.16812491  0.16661867  1
  Ag  Ag7  1  0.66909096  0.66876850  0.66105638  1
  Ag  Ag8  1  0.33040396  0.32936026  0.67203506  1
  Ag  Ag9  1  0.17208250  0.82942614  0.32080192  1
  Ag  Ag10  1  0.50340124  0.16943018  0.33053102  1
  Ag  Ag11  1  0.00610530  0.83218941  0.83872074  1
  Ag  Ag12  1  0.17013382  0.49030861  0.00220390  1
  Ag  Ag13  1  0.66309936  0.65858012  0.33392913  1
  Ag  Ag14  1  0.66528208  0.16946821  0.49689678  1
  Ag  Ag15  1  0.32702468  0.83673963  0.83548090  1
  Ag  Ag16  1  -0.00277537  0.66701789  0.32845264  1
  Ag  Ag17  1  -0.00424451  0.50325299  0.83563076  1
  Ag  Ag18  1  0.50951747  0.50458511  0.32852282  1
  Ag  Ag19  1  0.83363266  0.66385422  0.17286131  1
  Ag  Ag20  1  0.66565301  0.82726154  0.16601192  1
  Ag  Ag21  1  0.34231102  0.66894325  0.33386675  1
  Ag  Ag22  1  0.82457496  0.33689685  0.16780576  1
  Ag  Ag23  1  0.49707251  0.82474059  0.32786546  1
  Ag  Ag24  1  0.83556284  0.15878785  0.66019716  1
  Ag  Ag25  1  0.66488053  0.34577385  0.32650321  1
  Ag  Ag26  1  0.50414497  0.33263694  0.16725453  1
  Ag  Ag27  1  0.83108307  0.00130498  0.50383371  1
  Ag  Ag28  1  0.32893476  0.33003033  0.00116165  1
  Ag  Ag29  1  0.16912324  -0.00438318  0.16382817  1
  Ag  Ag30  1  0.00720454  0.83607078  0.16163862  1
  Ag  Ag31  1  0.66237431  0.33776130  0.00999784  1
  Ag  Ag32  1  0.66186400  0.49911099  0.48682790  1
  Ag  Ag33  1  0.33861919  0.16632809  0.49706938  1
  Ag  Ag34  1  0.33093670  0.16774869  0.83647693  1
  Ag  Ag35  1  0.49473098  0.83057790  0.00777154  1
  Ag  Ag36  1  0.01142171  0.33194439  0.00273378  1
  Ag  Ag37  1  0.66986032  0.50295381  0.83504322  1
  Ag  Ag38  1  0.82865469  0.49998024  0.66276011  1
  Ag  Ag39  1  0.34123983  0.50258797  0.49739288  1
  Ag  Ag40  1  0.16940930  0.33358247  0.84440379  1
  Ag  Ag41  1  0.49593524  0.00100169  0.16706679  1
  Ag  Ag42  1  0.66600272  0.82790529  0.83359406  1
  Ag  Ag43  1  0.17052209  0.83403394  0.00390037  1
  Ag  Ag44  1  0.16234223  0.67844587  0.16830329  1
  Ag  Ag45  1  0.16844867  0.33147536  0.16221157  1
  Ag  Ag46  1  0.67440546  -0.00809467  0.66502910  1
  Ag  Ag47  1  0.82445640  0.17245434  0.33606147  1
  Ag  Ag48  1  0.00654902  0.16365291  0.16581410  1
  Ag  Ag49  1  0.83195363  0.83869511  0.66642033  1
  Ag  Ag50  1  0.50108724  0.66593950  0.49441967  1
  Ag  Ag51  1  -0.00390717  -0.00288935  0.67132340  1
  Ag  Ag52  1  0.33349345  0.83384427  0.49914525  1
  Ag  Ag53  1  0.50091122  0.49893815  0.00856901  1
  Sb  Sb54  1  0.49552772  0.33438365  0.84260381  1
  Sb  Sb55  1  0.49996130  0.33699638  0.49228534  1
  Sb  Sb56  1  0.16393377  0.50113583  0.67130410  1
  Sb  Sb57  1  0.16674090  0.00106839  0.83930775  1
  Sb  Sb58  1  0.16649442  0.66732243  0.83863078  1
  Sb  Sb59  1  0.17309104  0.66874104  0.49273020  1
  Sb  Sb60  1  0.33305005  0.66787082  0.00738403  1
  Sb  Sb61  1  0.66482833  0.66248549  0.00527255  1
  Sb  Sb62  1  0.00145172  0.66768158  0.00553564  1
  Sb  Sb63  1  0.83051566  0.33059409  0.49480226  1
  Sb  Sb64  1  0.00004087  -0.00359900  0.32943596  1
  Sb  Sb65  1  0.66597262  0.17087823  0.17353759  1
  Sb  Sb66  1  0.66582329  0.00028163  -0.00077466  1
  Sb  Sb67  1  0.82667701  0.66830775  0.49602482  1
  Sb  Sb68  1  0.50551190  0.49915034  0.66327866  1
  Sb  Sb69  1  0.33872815  0.49533561  0.16904708  1
  Sb  Sb70  1  0.33627726  0.66570684  0.66096904  1
  Sb  Sb71  1  0.49776603  0.16736520  0.65910903  1
  Sb  Sb72  1  0.00535562  0.16473903  0.83711592  1
  Sb  Sb73  1  0.33844941  0.33529946  0.32890686  1
  Sb  Sb74  1  0.83199898  0.66661930  0.83593049  1
  Sb  Sb75  1  0.50020897  0.66721038  0.17310005  1
  Sb  Sb76  1  0.66658850  -0.00137850  0.33530493  1
  Sb  Sb77  1  0.17165835  0.33348189  0.49747656  1
  Sb  Sb78  1  -0.00328915  0.50106600  0.50300466  1
  Sb  Sb79  1  -0.00484822  0.67256045  0.66329128  1
  Sb  Sb80  1  0.49667483  0.16841400  0.00898056  1
  Sb  Sb81  1  0.83315708  0.00072731  0.17121918  1
  Sb  Sb82  1  0.66219240  0.16709946  0.82705185  1
  Sb  Sb83  1  0.83464675  -0.00127339  0.82713383  1
  Sb  Sb84  1  0.16534210  -0.00164130  0.49835526  1
  Sb  Sb85  1  0.33396330  -0.00362922  0.32814287  1
  Sb  Sb86  1  0.50221686  -0.00209127  0.49386260  1
  Sb  Sb87  1  0.83427501  0.16861266  0.00332812  1
  Sb  Sb88  1  -0.00629384  0.33689581  0.32263087  1
  Sb  Sb89  1  0.83103450  0.49811577  0.00411388  1
  Sb  Sb90  1  0.16918792  0.16754921  0.00084280  1
  Sb  Sb91  1  0.66499500  0.33612842  0.66567753  1
  Sb  Sb92  1  0.50147118  0.66719056  0.83021322  1
  Sb  Sb93  1  0.83607318  0.33483523  0.83730561  1
  Sb  Sb94  1  0.50043232  0.83489415  0.66625511  1
  Sb  Sb95  1  0.16870533  0.16394707  0.33197140  1
  Sb  Sb96  1  0.66214308  0.83110044  0.49878212  1
  Sb  Sb97  1  0.00352661  0.32934976  0.67455867  1
  Sb  Sb98  1  0.16848699  0.50471785  0.32504968  1
  Sb  Sb99  1  0.33171506  0.00310147  0.67066445  1
  Sb  Sb100  1  0.00352475  0.83375128  0.49901769  1
  Sb  Sb101  1  -0.00154843  0.16518314  0.49646493  1
  Sb  Sb102  1  0.33302314  0.83756792  0.16636646  1
  Sb  Sb103  1  0.83205400  0.83138703  0.33445794  1
  Sb  Sb104  1  0.83438227  0.83456259  -0.00138903  1
  Sb  Sb105  1  0.33455787  0.49986241  0.83277705  1
  Sb  Sb106  1  0.49854229  -0.00174309  0.84009041  1
  Sb  Sb107  1  -0.00358313  0.50087942  0.16219885  1
  Te  Te108  1  0.16728070  0.16692417  0.16869896  1
  Te  Te109  1  0.17075307  0.16596278  0.50398194  1
  Te  Te110  1  0.17047824  0.17059613  0.82613236  1
  Te  Te111  1  0.16630681  0.49344753  0.16040714  1
  Te  Te112  1  0.17223036  0.50074117  0.50027627  1
  Te  Te113  1  0.16484010  0.49797016  0.83872832  1
  Te  Te114  1  0.16777344  0.83547835  0.16448945  1
  Te  Te115  1  0.17290826  0.83375148  0.50298790  1
  Te  Te116  1  0.16565969  0.83310648  0.83468240  1
  Te  Te117  1  0.49921191  0.16649570  0.17167639  1
  Te  Te118  1  0.50046391  0.16594814  0.49210490  1
  Te  Te119  1  0.49186749  0.16620890  0.83233364  1
  Te  Te120  1  0.50479187  0.50021911  0.16738080  1
  Te  Te121  1  0.50123833  0.50233609  0.49668198  1
  Te  Te122  1  0.50463898  0.50097913  0.83852168  1
  Te  Te123  1  0.49995843  0.83245189  0.16702467  1
  Te  Te124  1  0.49419179  0.83089965  0.49463083  1
  Te  Te125  1  0.50232836  0.83286980  0.83822211  1
  Te  Te126  1  0.83473187  0.16977696  0.17109804  1
  Te  Te127  1  0.83214201  0.16524582  0.49937787  1
  Te  Te128  1  0.83250802  0.16761268  0.82431930  1
  Te  Te129  1  0.82980380  0.49918636  0.17027464  1
  Te  Te130  1  0.82811029  0.49973140  0.49842778  1
  Te  Te131  1  0.83310735  0.50061654  0.83092053  1
  Te  Te132  1  0.83093379  0.83154911  0.16739913  1
  Te  Te133  1  0.83353429  0.83756645  0.50521750  1
  Te  Te134  1  0.83098035  0.83213425  0.82800760  1
  Te  Te135  1  0.16733433  -0.00253390  0.00447214  1
  Te  Te136  1  0.16575491  -0.00756542  0.32695573  1
  Te  Te137  1  0.16418398  -0.00131956  0.66625749  1
  Te  Te138  1  0.16871216  0.33165593  0.00108392  1
  Te  Te139  1  0.16573238  0.33377719  0.32595011  1
  Te  Te140  1  0.16998248  0.33265784  0.66669463  1
  Te  Te141  1  0.16707217  0.67069458  0.00637733  1
  Te  Te142  1  0.16619930  0.67030378  0.32823412  1
  Te  Te143  1  0.16560889  0.67237820  0.66572739  1
  Te  Te144  1  0.49774002  -0.00466571  0.00673089  1
  Te  Te145  1  0.50002553  0.00077719  0.32628694  1
  Te  Te146  1  0.50721217  0.00105920  0.66653010  1
  Te  Te147  1  0.49972019  0.33610984  0.00671887  1
  Te  Te148  1  0.50356124  0.33441579  0.32740410  1
  Te  Te149  1  0.49169399  0.33298482  0.66861481  1
  Te  Te150  1  0.49882943  0.66725205  -0.00155018  1
  Te  Te151  1  0.50140165  0.66549486  0.33373716  1
  Te  Te152  1  0.50672649  0.66714728  0.65881500  1
  Te  Te153  1  0.84000869  0.00193753  0.00041828  1
  Te  Te154  1  0.83452661  0.00530294  0.34034251  1
  Te  Te155  1  0.83427056  -0.00049955  0.66495781  1
  Te  Te156  1  0.83002799  0.33316818  0.00617323  1
  Te  Te157  1  0.82869754  0.33354825  0.32893251  1
  Te  Te158  1  0.83440534  0.33639869  0.66691836  1
  Te  Te159  1  0.83310987  0.66632275  0.01134128  1
  Te  Te160  1  0.82854003  0.66491779  0.33148918  1
  Te  Te161  1  0.82922502  0.66517537  0.66622718  1
  Te  Te162  1  0.00004389  0.16595325  0.00452501  1
  Te  Te163  1  -0.00132415  0.16694259  0.32728119  1
  Te  Te164  1  0.00022415  0.16198918  0.66712570  1
  Te  Te165  1  0.00195237  0.49790468  -0.00490924  1
  Te  Te166  1  -0.00181304  0.50515470  0.33453593  1
  Te  Te167  1  -0.00558845  0.50049086  0.67207836  1
  Te  Te168  1  0.00106610  0.83459548  0.00028846  1
  Te  Te169  1  0.00111731  0.82939694  0.32905275  1
  Te  Te170  1  0.00025152  0.83594840  0.66755835  1
  Te  Te171  1  0.33431000  0.16583212  0.00096747  1
  Te  Te172  1  0.33629843  0.16687773  0.33290266  1
  Te  Te173  1  0.33089135  0.16784806  0.66573808  1
  Te  Te174  1  0.33460753  0.49785682  -0.00060313  1
  Te  Te175  1  0.33528670  0.50266218  0.33835199  1
  Te  Te176  1  0.33362576  0.49636758  0.66230482  1
  Te  Te177  1  0.33317758  0.83334993  -0.00136603  1
  Te  Te178  1  0.33402496  0.83141462  0.33426311  1
  Te  Te179  1  0.33152175  0.83462765  0.66813852  1
  Te  Te180  1  0.66558315  0.17249041  -0.00348013  1
  Te  Te181  1  0.66657527  0.16399678  0.33795830  1
  Te  Te182  1  0.66956167  0.16731588  0.66126188  1
  Te  Te183  1  0.66444523  0.49776434  -0.00278490  1
  Te  Te184  1  0.66643211  0.50091443  0.33090268  1
  Te  Te185  1  0.66951743  0.50166002  0.67353640  1
  Te  Te186  1  0.66520185  0.83355121  -0.00079968  1
  Te  Te187  1  0.66281957  0.83146284  0.33008831  1
  Te  Te188  1  0.66676613  0.83184036  0.66683773  1
  Te  Te189  1  0.00040494  -0.00192927  0.16397529  1
  Te  Te190  1  -0.00419110  0.00037684  0.50656398  1
  Te  Te191  1  0.00035363  -0.00440839  0.83559085  1
  Te  Te192  1  0.00286408  0.33299437  0.16086421  1
  Te  Te193  1  0.00228882  0.33365520  0.49954815  1
  Te  Te194  1  0.00488685  0.33428171  0.84097025  1
  Te  Te195  1  0.00065764  0.66852717  0.16982386  1
  Te  Te196  1  0.00028888  0.66617150  0.49067867  1
  Te  Te197  1  -0.00065749  0.66857410  0.83264157  1
  Te  Te198  1  0.33338036  0.00524694  0.16309141  1
  Te  Te199  1  0.33410725  0.00173355  0.50152106  1
  Te  Te200  1  0.33317019  -0.00136851  0.83953893  1
  Te  Te201  1  0.33400348  0.32933888  0.16315915  1
  Te  Te202  1  0.33450430  0.32879911  0.50177721  1
  Te  Te203  1  0.32960854  0.33328354  0.83680429  1
  Te  Te204  1  0.32544179  0.66266038  0.17389288  1
  Te  Te205  1  0.33870146  0.66702617  0.49573111  1
  Te  Te206  1  0.33351341  0.67452643  0.83074426  1
  Te  Te207  1  0.66420575  -0.00619911  0.16473073  1
  Te  Te208  1  0.66878183  0.00250857  0.50459469  1
  Te  Te209  1  0.66602170  -0.00324839  0.82884190  1
  Te  Te210  1  0.66540387  0.33264448  0.16768125  1
  Te  Te211  1  0.66570759  0.33415329  0.49674768  1
  Te  Te212  1  0.66637067  0.33680119  0.83574349  1
  Te  Te213  1  0.66725252  0.66709948  0.16963793  1
  Te  Te214  1  0.66305861  0.66360236  0.49833884  1
  Te  Te215  1  0.66770422  0.66786833  0.82965364  1
