# generated using pymatgen
data_AgSbTe2
_symmetry_space_group_name_H-M   'P 1'
_cell_length_a   18.35260043
_cell_length_b   18.34980489
_cell_length_c   18.34623387
_cell_angle_alpha   89.99940859
_cell_angle_beta   89.99226408
_cell_angle_gamma   89.99947746
_symmetry_Int_Tables_number   1
_chemical_formula_structural   AgSbTe2
_chemical_formula_sum   'Ag54 Sb54 Te108'
_cell_volume   6178.39942823
_cell_formula_units_Z   54
loop_
 _symmetry_equiv_pos_site_id
 _symmetry_equiv_pos_as_xyz
  1  'x, y, z'
loop_
 _atom_site_type_symbol
 _atom_site_label
 _atom_site_symmetry_multiplicity
 _atom_site_fract_x
 _atom_site_fract_y
 _atom_site_fract_z
 _atom_site_occupancy
  Ag  Ag0  1  0.82990973  0.01008874  0.48861607  1
  Ag  Ag1  1  -0.00913619  0.49302015  0.50069607  1
  Ag  Ag2  1  0.50033598  0.33258139  0.82767870  1
  Ag  Ag3  1  0.16502170  0.00648557  0.16957531  1
  Ag  Ag4  1  -0.00344749  0.17414584  0.83090312  1
  Ag  Ag5  1  0.50004703  0.65158658  0.49848747  1
  Ag  Ag6  1  0.66721780  0.33477501  0.33613246  1
  Ag  Ag7  1  0.34208146  0.49035396  0.49497369  1
  Ag  Ag8  1  0.50813898  0.00561196  0.17376422  1
  Ag  Ag9  1  0.33787321  0.33995174  0.65109329  1
  Ag  Ag10  1  0.49832436  0.83289723  0.66413751  1
  Ag  Ag11  1  0.49444130  0.33344912  0.49284371  1
  Ag  Ag12  1  0.82286758  0.33268817  0.17805660  1
  Ag  Ag13  1  0.66639885  0.64955581  0.33080848  1
  Ag  Ag14  1  0.17954053  0.33405538  0.49377776  1
  Ag  Ag15  1  -0.01374521  0.01038220  0.33063648  1
  Ag  Ag16  1  -0.00102489  0.00392258  0.00965085  1
  Ag  Ag17  1  0.34022664  0.49743933  0.17655367  1
  Ag  Ag18  1  0.66921370  0.49152736  0.17794801  1
  Ag  Ag19  1  0.00512455  0.66232044  0.67117826  1
  Ag  Ag20  1  0.32964328  0.66090913  0.66628132  1
  Ag  Ag21  1  0.66545661  0.49443621  0.48971249  1
  Ag  Ag22  1  0.16386939  0.00237648  0.83627685  1
  Ag  Ag23  1  0.50518704  0.33192568  0.18016010  1
  Ag  Ag24  1  0.82952390  0.65293992  0.16765445  1
  Ag  Ag25  1  0.51186551  0.48866658  0.33580589  1
  Ag  Ag26  1  0.67213120  0.16900712  0.83705689  1
  Ag  Ag27  1  0.83451192  0.49442680  0.01245858  1
  Ag  Ag28  1  0.33448169  0.17914966  0.49540084  1
  Ag  Ag29  1  0.66477258  0.84104253  0.16936694  1
  Ag  Ag30  1  0.16966081  0.33052827  0.17927722  1
  Ag  Ag31  1  0.82718210  0.00941967  0.17237446  1
  Ag  Ag32  1  0.35248572  0.33061366  0.34049442  1
  Ag  Ag33  1  0.66175157  0.33429121  0.65327877  1
  Ag  Ag34  1  0.32987927  0.66411963  0.00012707  1
  Ag  Ag35  1  0.33910688  0.83110820  0.16812569  1
  Ag  Ag36  1  0.83382400  0.17085585  0.01402649  1
  Ag  Ag37  1  0.82310006  0.48633904  0.33309353  1
  Ag  Ag38  1  0.83160456  0.33407779  0.49191542  1
  Ag  Ag39  1  0.17394622  0.83034180  0.66835821  1
  Ag  Ag40  1  -0.00130175  0.49416203  0.82864587  1
  Ag  Ag41  1  0.67053620  0.17054144  0.17446379  1
  Ag  Ag42  1  0.34678447  0.01228870  0.33224028  1
  Ag  Ag43  1  -0.00217365  0.17564890  0.49516260  1
  Ag  Ag44  1  0.82657856  0.17208470  0.33133265  1
  Ag  Ag45  1  0.66375915  0.83707844  0.83369947  1
  Ag  Ag46  1  0.16354035  0.66512881  0.82994433  1
  Ag  Ag47  1  0.83485104  0.49742792  0.65320603  1
  Ag  Ag48  1  0.66609271  0.00664910  0.33129601  1
  Ag  Ag49  1  0.16577381  0.33325175  0.82940179  1
  Ag  Ag50  1  0.00094259  0.66463144  -0.00470494  1
  Ag  Ag51  1  0.50295433  0.00870454  0.48847067  1
  Ag  Ag52  1  0.50838440  0.17523550  0.33403474  1
  Ag  Ag53  1  -0.01867819  0.32941734  0.33865484  1
  Sb  Sb54  1  0.66885361  0.33316554  0.00696190  1
  Sb  Sb55  1  0.16694303  0.83271924  -0.00299992  1
  Sb  Sb56  1  0.50640527  0.16842921  0.00749700  1
  Sb  Sb57  1  0.83193064  0.17366084  0.65980477  1
  Sb  Sb58  1  0.50413663  0.49892076  0.00867287  1
  Sb  Sb59  1  0.33913823  0.16948077  0.17500414  1
  Sb  Sb60  1  0.83598988  0.00341680  0.83617640  1
  Sb  Sb61  1  0.33295494  0.00034666  0.66050607  1
  Sb  Sb62  1  0.16589913  0.16752415  0.66594472  1
  Sb  Sb63  1  0.66607087  0.66199768  0.66242441  1
  Sb  Sb64  1  0.33253305  0.33722962  0.00681045  1
  Sb  Sb65  1  0.83405913  0.33336245  0.83182301  1
  Sb  Sb66  1  0.16728561  0.00634451  0.49636895  1
  Sb  Sb67  1  0.66750896  0.17546534  0.49294538  1
  Sb  Sb68  1  0.16446483  0.17031565  0.33210745  1
  Sb  Sb69  1  0.50053078  0.83276654  -0.00064035  1
  Sb  Sb70  1  0.67271792  0.00216862  0.00915590  1
  Sb  Sb71  1  0.83105319  0.82768120  0.66610385  1
  Sb  Sb72  1  0.16158033  0.49963744  0.00014842  1
  Sb  Sb73  1  0.16648483  0.49584860  0.33361973  1
  Sb  Sb74  1  0.16941198  0.83842881  0.33477049  1
  Sb  Sb75  1  0.83044552  0.83870265  0.33107830  1
  Sb  Sb76  1  0.33638744  0.83241068  0.49641190  1
  Sb  Sb77  1  0.67101531  0.49601570  0.83258705  1
  Sb  Sb78  1  0.33895107  0.66018009  0.33483087  1
  Sb  Sb79  1  0.00006766  0.83339555  0.49985514  1
  Sb  Sb80  1  -0.00772020  0.66049574  0.33345050  1
  Sb  Sb81  1  0.17050625  0.65906680  0.50496435  1
  Sb  Sb82  1  0.15955923  0.16602949  -0.00008269  1
  Sb  Sb83  1  0.00057610  0.33796765  0.65921358  1
  Sb  Sb84  1  0.83771639  0.66374376  0.83818810  1
  Sb  Sb85  1  0.66945799  0.66566207  0.00679086  1
  Sb  Sb86  1  -0.00049812  0.83291897  0.83245469  1
  Sb  Sb87  1  0.33310932  0.17010257  0.82701289  1
  Sb  Sb88  1  -0.00757285  0.16687658  0.17066830  1
  Sb  Sb89  1  0.33452044  0.83285178  0.83478892  1
  Sb  Sb90  1  0.50262212  0.49828958  0.65817338  1
  Sb  Sb91  1  0.50116095  0.83703539  0.33577737  1
  Sb  Sb92  1  0.83359315  0.83387121  0.00273489  1
  Sb  Sb93  1  0.82969564  0.65944782  0.49490724  1
  Sb  Sb94  1  -0.00125981  0.83682742  0.16752134  1
  Sb  Sb95  1  0.16530463  0.66515200  0.16286550  1
  Sb  Sb96  1  0.66408115  0.83074915  0.49561500  1
  Sb  Sb97  1  0.49601387  0.66164885  0.82756091  1
  Sb  Sb98  1  0.49825544  0.00493780  0.83399673  1
  Sb  Sb99  1  0.50448590  0.66508444  0.17351649  1
  Sb  Sb100  1  -0.00181935  0.33247164  0.00328225  1
  Sb  Sb101  1  0.16264754  0.50043288  0.66608152  1
  Sb  Sb102  1  0.00041286  -0.00258181  0.66421201  1
  Sb  Sb103  1  0.50181915  0.16857960  0.65753527  1
  Sb  Sb104  1  0.32859248  0.49869011  0.83083014  1
  Sb  Sb105  1  -0.00574752  0.49633118  0.16898108  1
  Sb  Sb106  1  0.32787263  -0.00289272  0.01102834  1
  Sb  Sb107  1  0.66649653  0.00531868  0.65990315  1
  Te  Te108  1  0.16855883  0.16770078  0.16445117  1
  Te  Te109  1  0.16197508  0.17286196  0.50098621  1
  Te  Te110  1  0.16262630  0.16612933  0.83283231  1
  Te  Te111  1  0.17322748  0.49620773  0.16606202  1
  Te  Te112  1  0.16584580  0.49296203  0.50009142  1
  Te  Te113  1  0.16054768  0.50008780  0.83340750  1
  Te  Te114  1  0.17137609  0.83546889  0.16646007  1
  Te  Te115  1  0.16789738  0.83340697  0.50791443  1
  Te  Te116  1  0.16722792  0.83250796  0.82899330  1
  Te  Te117  1  0.50531621  0.16900070  0.17172874  1
  Te  Te118  1  0.49868799  0.16819250  0.49500318  1
  Te  Te119  1  0.50272064  0.17006866  0.83447932  1
  Te  Te120  1  0.50192888  0.49754600  0.17220473  1
  Te  Te121  1  0.50181443  0.49481876  0.49765459  1
  Te  Te122  1  0.50104989  0.49392854  0.83473308  1
  Te  Te123  1  0.50141496  0.83452600  0.16602763  1
  Te  Te124  1  0.50023823  0.83798501  0.50545455  1
  Te  Te125  1  0.50267822  0.83427859  0.82891977  1
  Te  Te126  1  0.83152795  0.16916243  0.17033816  1
  Te  Te127  1  0.83578836  0.16844792  0.49661733  1
  Te  Te128  1  0.83520751  0.16639730  0.83023652  1
  Te  Te129  1  0.83314260  0.49432071  0.17108158  1
  Te  Te130  1  0.83078165  0.49955097  0.49493478  1
  Te  Te131  1  0.83896781  0.50029828  0.83675741  1
  Te  Te132  1  0.82904196  0.83895447  0.16510228  1
  Te  Te133  1  0.83266503  0.84003345  0.50124358  1
  Te  Te134  1  0.82434235  0.83389659  0.83346952  1
  Te  Te135  1  0.16044987  -0.00076834  0.00034909  1
  Te  Te136  1  0.16803245  0.00162059  0.32965603  1
  Te  Te137  1  0.16708424  -0.00595207  0.66933331  1
  Te  Te138  1  0.16588311  0.33294501  -0.00888010  1
  Te  Te139  1  0.16697482  0.33364892  0.33620118  1
  Te  Te140  1  0.17108351  0.33366132  0.66861057  1
  Te  Te141  1  0.16541495  0.66621875  -0.00541572  1
  Te  Te142  1  0.16364272  0.66926076  0.33384985  1
  Te  Te143  1  0.16768446  0.66744406  0.66928906  1
  Te  Te144  1  0.49799958  0.00068127  0.00779758  1
  Te  Te145  1  0.50186871  -0.00177323  0.33102695  1
  Te  Te146  1  0.49877212  -0.00403786  0.66419157  1
  Te  Te147  1  0.49915385  0.33351325  -0.00983551  1
  Te  Te148  1  0.50654130  0.33402070  0.33410783  1
  Te  Te149  1  0.49947386  0.33319937  0.66611570  1
  Te  Te150  1  0.49280387  0.66540021  -0.00259189  1
  Te  Te151  1  0.50506229  0.66542521  0.33907727  1
  Te  Te152  1  0.49736609  0.66879246  0.66224400  1
  Te  Te153  1  0.83945794  0.00461186  0.00448860  1
  Te  Te154  1  0.83022892  0.00058552  0.33140369  1
  Te  Te155  1  0.83346178  -0.00179012  0.66106110  1
  Te  Te156  1  0.83526806  0.33245191  0.00326749  1
  Te  Te157  1  0.82741735  0.33158416  0.33218114  1
  Te  Te158  1  0.82958042  0.33923671  0.66436792  1
  Te  Te159  1  0.83693662  0.66362914  0.00585466  1
  Te  Te160  1  0.82830587  0.66903343  0.32765850  1
  Te  Te161  1  0.83597089  0.66013683  0.66649294  1
  Te  Te162  1  -0.00606709  0.16366946  -0.00557531  1
  Te  Te163  1  -0.00254553  0.16890858  0.33596763  1
  Te  Te164  1  -0.00109267  0.16618915  0.66964207  1
  Te  Te165  1  -0.00507046  0.50289557  -0.00149485  1
  Te  Te166  1  -0.00351100  0.49562798  0.33805084  1
  Te  Te167  1  -0.00372511  0.50200661  0.66644537  1
  Te  Te168  1  -0.00019785  0.83075615  -0.00076787  1
  Te  Te169  1  0.00141579  0.84036187  0.33430634  1
  Te  Te170  1  0.00114045  0.82533113  0.66630427  1
  Te  Te171  1  0.33459815  0.16601199  -0.00189106  1
  Te  Te172  1  0.33471050  0.16950707  0.33756859  1
  Te  Te173  1  0.33365647  0.17176854  0.65789419  1
  Te  Te174  1  0.33458344  0.50498943  0.00218788  1
  Te  Te175  1  0.33252200  0.49668474  0.33533771  1
  Te  Te176  1  0.33482594  0.49975598  0.66371493  1
  Te  Te177  1  0.33360155  0.82618703  0.00645506  1
  Te  Te178  1  0.33384869  0.83281863  0.32738924  1
  Te  Te179  1  0.33484312  0.83219859  0.66722135  1
  Te  Te180  1  0.67347090  0.16657871  -0.00219174  1
  Te  Te181  1  0.66660183  0.16614159  0.33348714  1
  Te  Te182  1  0.66630309  0.17233893  0.67677740  1
  Te  Te183  1  0.67424608  0.50181558  0.00403880  1
  Te  Te184  1  0.66715088  0.49520328  0.33278220  1
  Te  Te185  1  0.67173095  0.49523529  0.66593976  1
  Te  Te186  1  0.66609942  0.83365908  0.00095641  1
  Te  Te187  1  0.66607229  0.84016986  0.32840254  1
  Te  Te188  1  0.66367463  0.83232053  0.66821345  1
  Te  Te189  1  0.00253776  0.00087541  0.16853666  1
  Te  Te190  1  -0.00205547  0.00220853  0.49566465  1
  Te  Te191  1  0.00392525  0.00012475  0.83282089  1
  Te  Te192  1  0.01080363  0.33271693  0.17153324  1
  Te  Te193  1  -0.00952816  0.33391506  0.49969537  1
  Te  Te194  1  0.00142279  0.33398620  0.83224623  1
  Te  Te195  1  -0.00447000  0.66790454  0.16326688  1
  Te  Te196  1  -0.00006021  0.66192686  0.50217586  1
  Te  Te197  1  0.00300272  0.66654305  0.83342380  1
  Te  Te198  1  0.33074323  0.00088808  0.17177171  1
  Te  Te199  1  0.33605254  0.00065718  0.49330780  1
  Te  Te200  1  0.32698392  0.00120635  0.83506017  1
  Te  Te201  1  0.33263105  0.33624645  0.16978133  1
  Te  Te202  1  0.33501589  0.33494495  0.49590745  1
  Te  Te203  1  0.32934519  0.33348262  0.83535280  1
  Te  Te204  1  0.33386215  0.66433171  0.16670217  1
  Te  Te205  1  0.33785171  0.66401934  0.50384059  1
  Te  Te206  1  0.32813058  0.66610147  0.83046524  1
  Te  Te207  1  0.66794324  0.00164605  0.16915793  1
  Te  Te208  1  0.66488801  -0.00131057  0.49642461  1
  Te  Te209  1  0.66541448  0.00108696  0.83261486  1
  Te  Te210  1  0.66467115  0.33168655  0.16731451  1
  Te  Te211  1  0.66848070  0.33396275  0.49812627  1
  Te  Te212  1  0.66565784  0.33101258  0.83508011  1
  Te  Te213  1  0.66994195  0.66664536  0.17025571  1
  Te  Te214  1  0.66204678  0.66206582  0.49459621  1
  Te  Te215  1  0.66521820  0.67008543  0.83408012  1
