# generated using pymatgen
data_AgSbTe2
_symmetry_space_group_name_H-M   'P 1'
_cell_length_a   18.32533081
_cell_length_b   18.31973802
_cell_length_c   18.32070998
_cell_angle_alpha   90.00011316
_cell_angle_beta   90.00140917
_cell_angle_gamma   89.99703308
_symmetry_Int_Tables_number   1
_chemical_formula_structural   AgSbTe2
_chemical_formula_sum   'Ag54 Sb54 Te108'
_cell_volume   6150.54189585
_cell_formula_units_Z   54
loop_
 _symmetry_equiv_pos_site_id
 _symmetry_equiv_pos_as_xyz
  1  'x, y, z'
loop_
 _atom_site_type_symbol
 _atom_site_label
 _atom_site_symmetry_multiplicity
 _atom_site_fract_x
 _atom_site_fract_y
 _atom_site_fract_z
 _atom_site_occupancy
  Ag  Ag0  1  0.15839671  -0.00167519  0.50153704  1
  Ag  Ag1  1  -0.00376236  0.16847624  0.83201109  1
  Ag  Ag2  1  0.00537634  0.84501626  0.16866851  1
  Ag  Ag3  1  0.00199451  0.66889555  0.66404740  1
  Ag  Ag4  1  0.66367356  0.00207978  0.00194393  1
  Ag  Ag5  1  0.67373680  0.15927268  0.49544239  1
  Ag  Ag6  1  0.66938456  0.33192198  0.66364704  1
  Ag  Ag7  1  0.16904885  0.50013869  -0.00564940  1
  Ag  Ag8  1  0.33906879  0.66939890  0.33445199  1
  Ag  Ag9  1  0.50448753  0.50371248  0.32883113  1
  Ag  Ag10  1  0.15912015  0.67696575  0.50651039  1
  Ag  Ag11  1  0.16595421  0.83734581  0.00059284  1
  Ag  Ag12  1  0.67104010  0.84086777  0.50179908  1
  Ag  Ag13  1  -0.00194366  0.00112027  0.34105116  1
  Ag  Ag14  1  0.83942122  0.49611776  0.66483187  1
  Ag  Ag15  1  0.32990248  -0.00061258  0.66125545  1
  Ag  Ag16  1  0.16439487  0.16476708  0.00656498  1
  Ag  Ag17  1  0.50412403  -0.00023893  0.49946675  1
  Ag  Ag18  1  0.83506863  0.16542926  0.66064615  1
  Ag  Ag19  1  0.66294041  0.48650280  0.16903566  1
  Ag  Ag20  1  -0.00091283  0.50157931  0.50774495  1
  Ag  Ag21  1  0.66655964  0.33211242  0.32983581  1
  Ag  Ag22  1  0.50655770  0.83428580  0.33641789  1
  Ag  Ag23  1  0.50303991  0.16780492  0.00535406  1
  Ag  Ag24  1  -0.00161733  0.16284391  0.16564590  1
  Ag  Ag25  1  0.83268215  0.16582281  0.00764584  1
  Ag  Ag26  1  0.83499684  0.00096011  0.50122306  1
  Ag  Ag27  1  0.32394638  0.50006280  0.83217691  1
  Ag  Ag28  1  0.82870850  0.32872471  0.83107040  1
  Ag  Ag29  1  0.66416561  0.66671275  0.33481924  1
  Ag  Ag30  1  0.00152669  -0.00254194  0.66003312  1
  Ag  Ag31  1  0.82830669  0.84030101  0.34163307  1
  Ag  Ag32  1  0.16691256  0.31991421  0.16482503  1
  Ag  Ag33  1  0.00501890  0.49624906  0.82403994  1
  Ag  Ag34  1  0.50141846  0.00377250  0.83226855  1
  Ag  Ag35  1  0.15509074  0.50737205  0.67345794  1
  Ag  Ag36  1  0.66952402  0.16889872  0.16919412  1
  Ag  Ag37  1  0.82367005  0.32692965  0.16499233  1
  Ag  Ag38  1  0.49917159  0.49146859  0.00412186  1
  Ag  Ag39  1  0.33306077  0.16047062  0.49507343  1
  Ag  Ag40  1  0.50422166  0.83891824  0.65951803  1
  Ag  Ag41  1  0.49645345  0.00596912  0.16727965  1
  Ag  Ag42  1  0.83232642  0.16260091  0.33654999  1
  Ag  Ag43  1  -0.00558014  0.15947184  0.50133032  1
  Ag  Ag44  1  0.50726607  0.32907351  0.84041639  1
  Ag  Ag45  1  0.83448947  0.83804322  0.65886507  1
  Ag  Ag46  1  0.83832705  0.67771764  0.50144936  1
  Ag  Ag47  1  0.16537795  0.66409021  0.82628238  1
  Ag  Ag48  1  0.50652379  0.32431547  0.16279444  1
  Ag  Ag49  1  0.33506958  0.16258710  0.16989193  1
  Ag  Ag50  1  0.66640398  0.83585873  0.82206637  1
  Ag  Ag51  1  0.16116230  0.83194227  0.66595881  1
  Ag  Ag52  1  0.32890670  0.84385201  0.16976193  1
  Ag  Ag53  1  0.16783781  0.00316607  0.16839336  1
  Sb  Sb54  1  0.33171458  -0.00166306  0.33481336  1
  Sb  Sb55  1  0.16037532  0.16515346  0.32784504  1
  Sb  Sb56  1  0.16576258  0.67095537  0.16757186  1
  Sb  Sb57  1  0.00047692  0.32990484  -0.00008909  1
  Sb  Sb58  1  0.33503661  0.33282126  0.00041779  1
  Sb  Sb59  1  -0.00192947  0.67266245  0.34123573  1
  Sb  Sb60  1  0.50620862  0.16289609  0.32733238  1
  Sb  Sb61  1  0.33552866  0.00092640  0.00089448  1
  Sb  Sb62  1  0.66527858  0.32653237  0.00334355  1
  Sb  Sb63  1  0.83234862  0.32638545  0.50242679  1
  Sb  Sb64  1  -0.00125904  0.49508207  0.16647962  1
  Sb  Sb65  1  -0.00241160  0.83635882  0.83061468  1
  Sb  Sb66  1  -0.00619675  0.83915757  0.49960734  1
  Sb  Sb67  1  -0.00511252  0.33369124  0.66749470  1
  Sb  Sb68  1  0.82937264  0.49713840  0.33864385  1
  Sb  Sb69  1  0.50125004  0.67323466  0.49809436  1
  Sb  Sb70  1  0.16987995  0.50137107  0.33315309  1
  Sb  Sb71  1  0.67081859  0.16426818  0.83460621  1
  Sb  Sb72  1  0.83502546  0.00727918  0.17314170  1
  Sb  Sb73  1  0.49986122  0.66731517  0.16968897  1
  Sb  Sb74  1  0.33832133  0.32836308  0.66811113  1
  Sb  Sb75  1  0.16458536  0.32799014  0.49688620  1
  Sb  Sb76  1  0.15980362  0.16520479  0.66853752  1
  Sb  Sb77  1  0.33175076  0.66663587  0.00395722  1
  Sb  Sb78  1  0.16927615  -0.00203989  0.83295753  1
  Sb  Sb79  1  0.50525081  0.16034408  0.66875032  1
  Sb  Sb80  1  0.83310667  0.66497781  0.17564057  1
  Sb  Sb81  1  0.33151405  0.16876634  0.83499301  1
  Sb  Sb82  1  0.66643960  0.67122053  0.00485493  1
  Sb  Sb83  1  0.49683282  0.83830286  0.00274061  1
  Sb  Sb84  1  0.33489474  0.83155915  0.83426012  1
  Sb  Sb85  1  0.16402923  0.33699928  0.83685095  1
  Sb  Sb86  1  0.49657106  0.66722612  0.83250677  1
  Sb  Sb87  1  0.66866744  0.00094979  0.66581102  1
  Sb  Sb88  1  0.33747241  0.49686371  0.16351051  1
  Sb  Sb89  1  0.83654478  0.84182452  0.00056377  1
  Sb  Sb90  1  0.32539213  0.67253777  0.66172096  1
  Sb  Sb91  1  0.32898811  0.49832777  0.50356309  1
  Sb  Sb92  1  0.66810708  0.49998589  0.83720890  1
  Sb  Sb93  1  0.50339635  0.32545918  0.49721424  1
  Sb  Sb94  1  0.83376009  0.49229782  -0.00358129  1
  Sb  Sb95  1  0.67281187  0.66780126  0.66082226  1
  Sb  Sb96  1  -0.00169433  0.00367056  -0.00001545  1
  Sb  Sb97  1  0.83797654  0.66318748  0.82448495  1
  Sb  Sb98  1  0.00192326  0.66720009  -0.00622842  1
  Sb  Sb99  1  0.50178003  0.50238198  0.66751010  1
  Sb  Sb100  1  -0.00774136  0.32606918  0.33173559  1
  Sb  Sb101  1  0.67084580  0.49986852  0.49649737  1
  Sb  Sb102  1  0.83078572  0.00507013  0.82641528  1
  Sb  Sb103  1  0.66668555  0.83996119  0.17188416  1
  Sb  Sb104  1  0.33999973  0.33440799  0.33057812  1
  Sb  Sb105  1  0.33593938  0.83945337  0.49682013  1
  Sb  Sb106  1  0.67058873  0.00182687  0.33341063  1
  Sb  Sb107  1  0.16510797  0.83511495  0.33593828  1
  Te  Te108  1  0.16499798  0.16314916  0.16594206  1
  Te  Te109  1  0.16323942  0.16134297  0.50045296  1
  Te  Te110  1  0.16235410  0.16790161  0.84022024  1
  Te  Te111  1  0.16692087  0.50089063  0.16127449  1
  Te  Te112  1  0.16295664  0.49757468  0.50215911  1
  Te  Te113  1  0.16460979  0.49855440  0.83361103  1
  Te  Te114  1  0.16639435  0.83623830  0.16787326  1
  Te  Te115  1  0.16869583  0.83677813  0.50416653  1
  Te  Te116  1  0.16631620  0.83009518  0.83241013  1
  Te  Te117  1  0.50062550  0.16529005  0.16670983  1
  Te  Te118  1  0.50175222  0.15950851  0.50027820  1
  Te  Te119  1  0.49969145  0.16618168  0.83756471  1
  Te  Te120  1  0.50142723  0.49923672  0.16666687  1
  Te  Te121  1  0.49900723  0.49972824  0.49597589  1
  Te  Te122  1  0.50004619  0.49771166  0.83540283  1
  Te  Te123  1  0.49760709  0.83845613  0.16926464  1
  Te  Te124  1  0.50283698  0.83860490  0.49922744  1
  Te  Te125  1  0.50279244  0.83618908  0.83421840  1
  Te  Te126  1  0.83309228  0.16715738  0.16671110  1
  Te  Te127  1  0.83347032  0.16464242  0.49997758  1
  Te  Te128  1  0.83609212  0.16950212  0.83099636  1
  Te  Te129  1  0.82988457  0.49268491  0.16622494  1
  Te  Te130  1  0.83690893  0.49976761  0.50489595  1
  Te  Te131  1  0.83734209  0.49523683  0.82864239  1
  Te  Te132  1  0.83729867  0.83383876  0.16837339  1
  Te  Te133  1  0.83225468  0.83649380  0.50080856  1
  Te  Te134  1  0.82881231  0.83264114  0.83145595  1
  Te  Te135  1  0.16663530  -0.00040272  0.00213643  1
  Te  Te136  1  0.16045206  -0.00044848  0.33428195  1
  Te  Te137  1  0.16449343  -0.00075046  0.66588017  1
  Te  Te138  1  0.16757695  0.33229877  0.00467206  1
  Te  Te139  1  0.16716660  0.33504526  0.32542729  1
  Te  Te140  1  0.16988037  0.33914574  0.66623140  1
  Te  Te141  1  0.16633625  0.66604162  -0.00390460  1
  Te  Te142  1  0.16820577  0.66726541  0.34051057  1
  Te  Te143  1  0.16455129  0.66744241  0.66518763  1
  Te  Te144  1  0.50148934  0.00261231  0.00172106  1
  Te  Te145  1  0.49918694  -0.00408789  0.33352610  1
  Te  Te146  1  0.50091164  -0.00310504  0.66566837  1
  Te  Te147  1  0.50031181  0.33188580  0.00132006  1
  Te  Te148  1  0.50619261  0.33646438  0.32914048  1
  Te  Te149  1  0.50669442  0.33336469  0.66935425  1
  Te  Te150  1  0.49989403  0.65798357  0.00041234  1
  Te  Te151  1  0.50201944  0.66909068  0.33397878  1
  Te  Te152  1  0.49921271  0.67586382  0.66612475  1
  Te  Te153  1  0.82801846  0.00697797  -0.00286693  1
  Te  Te154  1  0.83673852  0.00035498  0.33829440  1
  Te  Te155  1  0.83610616  -0.00078567  0.66245411  1
  Te  Te156  1  0.83232236  0.32652642  -0.00088550  1
  Te  Te157  1  0.82653518  0.32927151  0.32840612  1
  Te  Te158  1  0.82938870  0.33118575  0.66843231  1
  Te  Te159  1  0.83330415  0.66745667  0.00009657  1
  Te  Te160  1  0.82985909  0.66853851  0.34107323  1
  Te  Te161  1  0.83875375  0.66978675  0.66110534  1
  Te  Te162  1  -0.00000772  0.16531579  0.00198121  1
  Te  Te163  1  -0.00592778  0.16212765  0.33345247  1
  Te  Te164  1  -0.00385943  0.16576255  0.66529688  1
  Te  Te165  1  0.00345430  0.50097422  -0.00400183  1
  Te  Te166  1  -0.00049044  0.50001394  0.33709554  1
  Te  Te167  1  -0.00051652  0.49752405  0.66600489  1
  Te  Te168  1  0.00515357  0.83457625  0.00392266  1
  Te  Te169  1  -0.00517309  0.83795574  0.32835558  1
  Te  Te170  1  0.00006824  0.83478002  0.66757909  1
  Te  Te171  1  0.33223389  0.16563681  0.00361154  1
  Te  Te172  1  0.33402590  0.16661525  0.33260727  1
  Te  Te173  1  0.33182745  0.16078403  0.66514899  1
  Te  Te174  1  0.33235166  0.50108831  -0.00436643  1
  Te  Te175  1  0.34006480  0.50442993  0.33384146  1
  Te  Te176  1  0.33267118  0.49990316  0.67055724  1
  Te  Te177  1  0.32658793  0.83321696  0.00635038  1
  Te  Te178  1  0.33723856  0.83139887  0.32948480  1
  Te  Te179  1  0.33289543  0.83913152  0.66674264  1
  Te  Te180  1  0.66468153  0.16225182  0.00115883  1
  Te  Te181  1  0.67074310  0.16802761  0.33336088  1
  Te  Te182  1  0.67208399  0.16999589  0.66487119  1
  Te  Te183  1  0.66448469  0.50283965  0.00606796  1
  Te  Te184  1  0.66421985  0.49991658  0.33029209  1
  Te  Te185  1  0.67133085  0.49719360  0.66603461  1
  Te  Te186  1  0.66660626  0.83917868  0.00054584  1
  Te  Te187  1  0.66789839  0.83266435  0.33561970  1
  Te  Te188  1  0.66825575  0.83245765  0.66352655  1
  Te  Te189  1  0.00160741  0.00247983  0.16536473  1
  Te  Te190  1  0.00016654  0.00132372  0.50112125  1
  Te  Te191  1  0.00066551  0.00544266  0.82692221  1
  Te  Te192  1  0.00289141  0.32790239  0.16729768  1
  Te  Te193  1  0.00018526  0.33306072  0.49773538  1
  Te  Te194  1  -0.00454019  0.33101985  0.83375860  1
  Te  Te195  1  -0.00051737  0.66860758  0.16765716  1
  Te  Te196  1  -0.00018627  0.66459534  0.50413957  1
  Te  Te197  1  0.00453324  0.66380570  0.82642471  1
  Te  Te198  1  0.33176380  0.00249969  0.16735436  1
  Te  Te199  1  0.33321664  0.00321884  0.50087324  1
  Te  Te200  1  0.33995399  0.00013794  0.82647611  1
  Te  Te201  1  0.33232603  0.32736240  0.16774118  1
  Te  Te202  1  0.33403242  0.32196088  0.49928886  1
  Te  Te203  1  0.34196173  0.33786332  0.83154550  1
  Te  Te204  1  0.33217800  0.66967735  0.17373785  1
  Te  Te205  1  0.32936651  0.66600721  0.49430556  1
  Te  Te206  1  0.32774122  0.66240298  0.83272930  1
  Te  Te207  1  0.66387503  0.00633332  0.16468947  1
  Te  Te208  1  0.66687191  0.00046443  0.49897693  1
  Te  Te209  1  0.66203496  -0.00311641  0.83543095  1
  Te  Te210  1  0.66559517  0.33032351  0.16694520  1
  Te  Te211  1  0.66638339  0.32964225  0.49952673  1
  Te  Te212  1  0.66678567  0.33434242  0.82941724  1
  Te  Te213  1  0.66784795  0.66521884  0.17333262  1
  Te  Te214  1  0.66960884  0.66957469  0.49513373  1
  Te  Te215  1  0.66730072  0.67353404  0.83460382  1
