# generated using pymatgen
data_AgSbTe2
_symmetry_space_group_name_H-M   'P 1'
_cell_length_a   18.32909417
_cell_length_b   18.32272539
_cell_length_c   18.32596398
_cell_angle_alpha   90.00002669
_cell_angle_beta   89.99666892
_cell_angle_gamma   89.99979740
_symmetry_Int_Tables_number   1
_chemical_formula_structural   AgSbTe2
_chemical_formula_sum   'Ag54 Sb54 Te108'
_cell_volume   6154.57265815
_cell_formula_units_Z   54
loop_
 _symmetry_equiv_pos_site_id
 _symmetry_equiv_pos_as_xyz
  1  'x, y, z'
loop_
 _atom_site_type_symbol
 _atom_site_label
 _atom_site_symmetry_multiplicity
 _atom_site_fract_x
 _atom_site_fract_y
 _atom_site_fract_z
 _atom_site_occupancy
  Ag  Ag0  1  0.16835562  0.66315409  0.16016070  1
  Ag  Ag1  1  0.17030013  -0.00601987  0.49999409  1
  Ag  Ag2  1  0.32766893  0.50627097  0.16837611  1
  Ag  Ag3  1  0.32786440  0.50316467  0.83389476  1
  Ag  Ag4  1  0.49858642  0.50339897  0.66788725  1
  Ag  Ag5  1  0.49647372  0.50070313  0.00012146  1
  Ag  Ag6  1  0.00319771  0.66033434  0.66037554  1
  Ag  Ag7  1  -0.00616121  0.34191078  0.66233287  1
  Ag  Ag8  1  0.33088081  0.83827265  0.49732346  1
  Ag  Ag9  1  0.67300231  -0.00285483  -0.00094825  1
  Ag  Ag10  1  0.82883579  0.16054485  -0.00096442  1
  Ag  Ag11  1  0.15916450  0.34414959  0.82933823  1
  Ag  Ag12  1  0.82137994  -0.00028468  0.50276831  1
  Ag  Ag13  1  0.16591926  0.66006410  0.84122536  1
  Ag  Ag14  1  0.66533277  -0.00416826  0.34486890  1
  Ag  Ag15  1  0.33458629  0.16680176  0.17073500  1
  Ag  Ag16  1  0.67106657  0.66669667  0.00085093  1
  Ag  Ag17  1  0.84120901  0.49474680  0.66329977  1
  Ag  Ag18  1  0.00830809  0.50249792  0.16971636  1
  Ag  Ag19  1  0.00127528  0.83261361  0.49870826  1
  Ag  Ag20  1  0.33107716  0.82823523  0.83521780  1
  Ag  Ag21  1  0.16622636  0.50388283  -0.00332554  1
  Ag  Ag22  1  0.16262824  0.50133217  0.66572566  1
  Ag  Ag23  1  0.83567158  0.83745703  0.00173792  1
  Ag  Ag24  1  0.33521108  0.15563083  0.49561127  1
  Ag  Ag25  1  0.66845210  -0.00001051  0.65621198  1
  Ag  Ag26  1  0.00173610  0.66168024  0.33253075  1
  Ag  Ag27  1  0.49344123  0.50220992  0.33367746  1
  Ag  Ag28  1  0.15988464  0.34575359  0.50460809  1
  Ag  Ag29  1  0.50077770  0.82647547  0.66163452  1
  Ag  Ag30  1  0.16467563  0.66297242  0.49966241  1
  Ag  Ag31  1  0.67415433  0.33664829  -0.00613206  1
  Ag  Ag32  1  0.83695365  0.33594026  0.82963863  1
  Ag  Ag33  1  0.67044638  0.83962297  0.49655248  1
  Ag  Ag34  1  -0.00853145  -0.00949567  -0.00035947  1
  Ag  Ag35  1  0.83018017  0.00103383  0.83945261  1
  Ag  Ag36  1  -0.00139074  0.34385289  0.34234236  1
  Ag  Ag37  1  0.66480731  0.15311200  0.50043080  1
  Ag  Ag38  1  0.16109842  0.82171972  0.00069944  1
  Ag  Ag39  1  0.83814706  0.33465184  0.50727734  1
  Ag  Ag40  1  -0.00432378  0.34220896  -0.00342130  1
  Ag  Ag41  1  0.50813055  0.17160345  0.00242745  1
  Ag  Ag42  1  0.33587128  0.82676721  0.16825782  1
  Ag  Ag43  1  0.33620124  -0.00252249  0.33869399  1
  Ag  Ag44  1  0.32902134  0.50086591  0.49783042  1
  Ag  Ag45  1  0.50833077  -0.00305775  0.49973240  1
  Ag  Ag46  1  0.67428551  0.33931995  0.66922922  1
  Ag  Ag47  1  0.00344968  0.66357927  0.00228452  1
  Ag  Ag48  1  0.83080002  0.83191019  0.33528583  1
  Ag  Ag49  1  0.66385564  0.49804714  0.83447022  1
  Ag  Ag50  1  0.84486239  0.50160718  0.33983384  1
  Ag  Ag51  1  0.66389151  0.83306003  0.16657811  1
  Ag  Ag52  1  0.49222438  0.66428256  0.16552879  1
  Ag  Ag53  1  0.16370128  0.50230506  0.33561789  1
  Sb  Sb54  1  0.83454823  0.33592836  0.16348187  1
  Sb  Sb55  1  0.83190719  0.16517225  0.33239431  1
  Sb  Sb56  1  0.33403240  0.16841134  0.83394940  1
  Sb  Sb57  1  0.83632623  0.50062838  -0.00321333  1
  Sb  Sb58  1  0.50328478  0.16834733  0.66731878  1
  Sb  Sb59  1  -0.00149215  0.16649473  0.49926231  1
  Sb  Sb60  1  0.50088446  0.82881184  -0.00072455  1
  Sb  Sb61  1  0.33141597  0.33782768  -0.00014642  1
  Sb  Sb62  1  0.49465783  0.66453901  0.83769771  1
  Sb  Sb63  1  0.50059623  0.33188380  0.50129508  1
  Sb  Sb64  1  0.83243813  -0.00274651  0.16435965  1
  Sb  Sb65  1  0.33404001  -0.00159536  0.00416680  1
  Sb  Sb66  1  0.50287953  0.33808903  0.83383943  1
  Sb  Sb67  1  0.49503984  0.66916083  0.49707190  1
  Sb  Sb68  1  0.16259446  -0.00305702  0.83094563  1
  Sb  Sb69  1  0.66564079  0.50602076  0.16164697  1
  Sb  Sb70  1  0.83940580  0.66558392  0.49938948  1
  Sb  Sb71  1  0.00527535  0.17256620  0.16396974  1
  Sb  Sb72  1  0.00048001  0.82573834  0.16727798  1
  Sb  Sb73  1  0.49995473  -0.00578326  0.17046403  1
  Sb  Sb74  1  0.67046628  0.66399545  0.67009853  1
  Sb  Sb75  1  0.66250499  0.16118922  0.16532069  1
  Sb  Sb76  1  0.32721747  0.66751186  0.33240496  1
  Sb  Sb77  1  0.16882467  -0.00766242  0.16983101  1
  Sb  Sb78  1  0.49929430  0.34063692  0.16476951  1
  Sb  Sb79  1  0.16788696  0.17271355  0.33513900  1
  Sb  Sb80  1  0.50224732  0.82978585  0.33760825  1
  Sb  Sb81  1  0.00311362  0.83087272  0.83320891  1
  Sb  Sb82  1  0.66394853  0.50229347  0.50314931  1
  Sb  Sb83  1  0.16777285  0.17434436  0.66260627  1
  Sb  Sb84  1  0.83074650  0.83062473  0.66465398  1
  Sb  Sb85  1  0.83085471  0.17317321  0.66808760  1
  Sb  Sb86  1  0.33159373  0.33876475  0.66501116  1
  Sb  Sb87  1  0.83847740  0.66303105  0.83450279  1
  Sb  Sb88  1  0.16591273  0.34402272  0.16655104  1
  Sb  Sb89  1  0.50525001  -0.00238517  0.82998691  1
  Sb  Sb90  1  0.16544699  0.17072258  0.00107930  1
  Sb  Sb91  1  0.32801196  0.33627064  0.33591694  1
  Sb  Sb92  1  0.33812446  -0.00310329  0.65801992  1
  Sb  Sb93  1  -0.00227652  0.17064953  0.83529360  1
  Sb  Sb94  1  -0.00622109  -0.00145976  0.66701769  1
  Sb  Sb95  1  0.66406382  0.83006962  0.83458054  1
  Sb  Sb96  1  0.66834927  0.17054942  0.83317712  1
  Sb  Sb97  1  0.32906057  0.66534018  0.00189749  1
  Sb  Sb98  1  -0.00186547  -0.00371763  0.33273242  1
  Sb  Sb99  1  0.00820728  0.50470361  0.49643536  1
  Sb  Sb100  1  0.83678542  0.66572907  0.16558898  1
  Sb  Sb101  1  0.67253817  0.33258507  0.33536468  1
  Sb  Sb102  1  0.49866237  0.16869264  0.33108398  1
  Sb  Sb103  1  0.32752966  0.66435162  0.66620406  1
  Sb  Sb104  1  0.17014865  0.82608793  0.66556885  1
  Sb  Sb105  1  0.67129707  0.67034680  0.32931521  1
  Sb  Sb106  1  0.16428141  0.82658480  0.33386091  1
  Sb  Sb107  1  0.00482842  0.49938202  0.83454409  1
  Te  Te108  1  0.17552330  0.16541421  0.16744354  1
  Te  Te109  1  0.17162836  0.16279457  0.49922413  1
  Te  Te110  1  0.16848856  0.17184560  0.83160545  1
  Te  Te111  1  0.16805587  0.50336370  0.16506857  1
  Te  Te112  1  0.16896007  0.50171886  0.50144547  1
  Te  Te113  1  0.16847983  0.50047209  0.83543894  1
  Te  Te114  1  0.16982003  0.82630785  0.16334301  1
  Te  Te115  1  0.16819561  0.83106261  0.49980734  1
  Te  Te116  1  0.17175919  0.83172165  0.83694481  1
  Te  Te117  1  0.49433558  0.16648837  0.16228375  1
  Te  Te118  1  0.49931974  0.16345312  0.49907402  1
  Te  Te119  1  0.49835343  0.16639832  0.84228765  1
  Te  Te120  1  0.49858523  0.50528933  0.16294267  1
  Te  Te121  1  0.49439080  0.50068973  0.50037660  1
  Te  Te122  1  0.49641627  0.50094720  0.83460968  1
  Te  Te123  1  0.49777581  0.82717146  0.16754863  1
  Te  Te124  1  0.49485372  0.83558168  0.50163086  1
  Te  Te125  1  0.49188383  0.83204383  0.82657771  1
  Te  Te126  1  0.83333991  0.16693351  0.15958210  1
  Te  Te127  1  0.82979906  0.16489912  0.49929934  1
  Te  Te128  1  0.83214039  0.16674842  0.83948461  1
  Te  Te129  1  0.83595316  0.50020621  0.17644880  1
  Te  Te130  1  0.82977964  0.49723955  0.50041246  1
  Te  Te131  1  0.82736530  0.49641117  0.82940326  1
  Te  Te132  1  0.83008784  0.83232256  0.16779780  1
  Te  Te133  1  0.83256930  0.83429804  0.49999347  1
  Te  Te134  1  0.83303331  0.83650235  0.83683128  1
  Te  Te135  1  0.16387766  -0.00000596  -0.00126782  1
  Te  Te136  1  0.16780569  -0.00008731  0.33740843  1
  Te  Te137  1  0.16393280  0.00065853  0.66265777  1
  Te  Te138  1  0.16142942  0.33708245  -0.00365334  1
  Te  Te139  1  0.16096457  0.34004111  0.33813042  1
  Te  Te140  1  0.16488946  0.33983558  0.66596282  1
  Te  Te141  1  0.16553488  0.66526546  0.00022901  1
  Te  Te142  1  0.16126228  0.66235425  0.33611291  1
  Te  Te143  1  0.16158276  0.66143062  0.66345907  1
  Te  Te144  1  0.50326287  0.00003370  -0.00033836  1
  Te  Te145  1  0.50064074  0.00039333  0.33805638  1
  Te  Te146  1  0.50630482  0.00037308  0.66252353  1
  Te  Te147  1  0.50480059  0.33691942  -0.00095284  1
  Te  Te148  1  0.50211710  0.34248184  0.33295069  1
  Te  Te149  1  0.50946455  0.33866227  0.66711774  1
  Te  Te150  1  0.50627836  0.66275857  0.00350416  1
  Te  Te151  1  0.50228518  0.66057069  0.32830696  1
  Te  Te152  1  0.50198175  0.66457848  0.66665407  1
  Te  Te153  1  0.83368147  -0.00230422  0.00092731  1
  Te  Te154  1  0.83104742  -0.00338351  0.33800657  1
  Te  Te155  1  0.82962446  -0.00041916  0.66482408  1
  Te  Te156  1  0.83398323  0.33462322  -0.00295971  1
  Te  Te157  1  0.83743986  0.33482065  0.33722530  1
  Te  Te158  1  0.83322958  0.33511675  0.66779065  1
  Te  Te159  1  0.83426539  0.67206831  -0.00102165  1
  Te  Te160  1  0.83961263  0.66636078  0.33307696  1
  Te  Te161  1  0.84116163  0.65884529  0.66769068  1
  Te  Te162  1  -0.00468629  0.16917891  0.00190848  1
  Te  Te163  1  -0.00075069  0.17450709  0.33023225  1
  Te  Te164  1  -0.00043645  0.17461461  0.66671655  1
  Te  Te165  1  0.00095649  0.50211498  0.00242911  1
  Te  Te166  1  0.00201270  0.50050309  0.33379003  1
  Te  Te167  1  0.00128089  0.49984727  0.66646445  1
  Te  Te168  1  0.00053805  0.83129296  0.00096880  1
  Te  Te169  1  -0.00527271  0.83055769  0.33604772  1
  Te  Te170  1  0.00032445  0.82975675  0.66089411  1
  Te  Te171  1  0.33656598  0.16745445  0.00317628  1
  Te  Te172  1  0.33452111  0.16298912  0.33441901  1
  Te  Te173  1  0.33637160  0.16719539  0.65887761  1
  Te  Te174  1  0.33428956  0.49956272  0.00132470  1
  Te  Te175  1  0.33231153  0.50095536  0.33191498  1
  Te  Te176  1  0.33585958  0.50011624  0.66687370  1
  Te  Te177  1  0.33096887  0.83429310  0.00150393  1
  Te  Te178  1  0.33343643  0.83672098  0.33333338  1
  Te  Te179  1  0.33807690  0.83242524  0.66416913  1
  Te  Te180  1  0.66726047  0.16706318  0.00024394  1
  Te  Te181  1  0.66591056  0.16047809  0.33717038  1
  Te  Te182  1  0.66587781  0.16386757  0.66139727  1
  Te  Te183  1  0.66889340  0.49972115  -0.00231734  1
  Te  Te184  1  0.66652615  0.50035157  0.33209542  1
  Te  Te185  1  0.66358382  0.49924769  0.66973385  1
  Te  Te186  1  0.66762117  0.83193227  0.00036220  1
  Te  Te187  1  0.66898126  0.83606425  0.33275926  1
  Te  Te188  1  0.66320746  0.83430235  0.66576920  1
  Te  Te189  1  0.00150943  0.00087502  0.16024481  1
  Te  Te190  1  0.00474136  -0.00421848  0.49967929  1
  Te  Te191  1  -0.00595395  0.00003068  0.83781111  1
  Te  Te192  1  0.00087613  0.33997291  0.16191198  1
  Te  Te193  1  -0.00075000  0.33006393  0.50178312  1
  Te  Te194  1  -0.00184694  0.33391429  0.83478253  1
  Te  Te195  1  0.00455183  0.66243797  0.16510645  1
  Te  Te196  1  0.00319750  0.67139036  0.49912888  1
  Te  Te197  1  0.00592723  0.66705698  0.83769589  1
  Te  Te198  1  0.33397423  -0.00374669  0.17292123  1
  Te  Te199  1  0.33028015  -0.00169828  0.49784117  1
  Te  Te200  1  0.33291432  -0.00240203  0.83199542  1
  Te  Te201  1  0.33300396  0.33279636  0.16812709  1
  Te  Te202  1  0.32919787  0.33869475  0.49952945  1
  Te  Te203  1  0.32694311  0.33762061  0.83239678  1
  Te  Te204  1  0.33200154  0.66625990  0.16713646  1
  Te  Te205  1  0.32760033  0.66533857  0.49930118  1
  Te  Te206  1  0.32677054  0.66633003  0.83301626  1
  Te  Te207  1  0.66570423  -0.00602451  0.15969796  1
  Te  Te208  1  0.66539073  -0.00317746  0.50041061  1
  Te  Te209  1  0.67150084  -0.00057562  0.83933992  1
  Te  Te210  1  0.66661180  0.33094330  0.16087270  1
  Te  Te211  1  0.67074560  0.33396498  0.50262920  1
  Te  Te212  1  0.66905457  0.33618492  0.83335994  1
  Te  Te213  1  0.66618873  0.67280478  0.16175989  1
  Te  Te214  1  0.66560843  0.67627009  0.50039076  1
  Te  Te215  1  0.66648257  0.66098117  0.83887759  1
