# generated using pymatgen
data_AgSbTe2
_symmetry_space_group_name_H-M   'P 1'
_cell_length_a   18.31590043
_cell_length_b   18.31207535
_cell_length_c   18.31477057
_cell_angle_alpha   89.99805923
_cell_angle_beta   89.99863680
_cell_angle_gamma   89.99728560
_symmetry_Int_Tables_number   1
_chemical_formula_structural   AgSbTe2
_chemical_formula_sum   'Ag54 Sb54 Te108'
_cell_volume   6142.81339138
_cell_formula_units_Z   54
loop_
 _symmetry_equiv_pos_site_id
 _symmetry_equiv_pos_as_xyz
  1  'x, y, z'
loop_
 _atom_site_type_symbol
 _atom_site_label
 _atom_site_symmetry_multiplicity
 _atom_site_fract_x
 _atom_site_fract_y
 _atom_site_fract_z
 _atom_site_occupancy
  Ag  Ag0  1  0.32797256  0.33132293  0.01026312  1
  Ag  Ag1  1  -0.00247070  0.66526245  0.00278846  1
  Ag  Ag2  1  0.83598771  0.33569560  0.49223887  1
  Ag  Ag3  1  0.66257492  -0.00470892  0.33573319  1
  Ag  Ag4  1  0.17779953  0.83692736  0.33633738  1
  Ag  Ag5  1  0.33594442  0.67776879  0.33264249  1
  Ag  Ag6  1  0.50295839  0.67002139  0.49283013  1
  Ag  Ag7  1  0.83870026  0.49899814  0.33093890  1
  Ag  Ag8  1  0.66187313  0.83414665  0.82761219  1
  Ag  Ag9  1  0.16933985  0.33133733  0.17226614  1
  Ag  Ag10  1  0.16948337  0.00135327  0.48974838  1
  Ag  Ag11  1  0.66457620  0.15895355  0.82549537  1
  Ag  Ag12  1  0.16947524  0.67471320  0.83606372  1
  Ag  Ag13  1  0.83280219  0.33587964  0.17261090  1
  Ag  Ag14  1  0.66531580  -0.00347620  0.66357094  1
  Ag  Ag15  1  0.17139920  0.00242667  0.17372128  1
  Ag  Ag16  1  0.00382774  -0.00318377  0.00276913  1
  Ag  Ag17  1  0.66257563  0.16675972  0.50257202  1
  Ag  Ag18  1  0.33430798  0.16151092  0.49966231  1
  Ag  Ag19  1  0.17484886  0.83498096  0.66444650  1
  Ag  Ag20  1  0.16801905  -0.00450959  0.83472027  1
  Ag  Ag21  1  0.83273061  0.82583123  -0.00243377  1
  Ag  Ag22  1  0.50121598  0.67113073  0.17340275  1
  Ag  Ag23  1  0.33142093  0.15960893  0.83064999  1
  Ag  Ag24  1  0.66377020  0.67630711  0.66773429  1
  Ag  Ag25  1  0.01223346  -0.00148819  0.33065322  1
  Ag  Ag26  1  0.82458245  0.16220917  0.66638165  1
  Ag  Ag27  1  0.00468579  0.65879742  0.33019771  1
  Ag  Ag28  1  0.50659298  0.15854790  0.66566096  1
  Ag  Ag29  1  0.33541728  0.83651536  0.17685671  1
  Ag  Ag30  1  0.67024899  0.66711355  0.00123826  1
  Ag  Ag31  1  0.16515797  0.33051776  0.49027745  1
  Ag  Ag32  1  -0.00309323  0.49845037  0.48994025  1
  Ag  Ag33  1  0.16675338  0.16730300  -0.00231748  1
  Ag  Ag34  1  0.32811272  -0.00951453  0.33233967  1
  Ag  Ag35  1  0.49880680  0.33230536  0.16918384  1
  Ag  Ag36  1  0.33343662  0.83631210  0.83279944  1
  Ag  Ag37  1  0.49035782  0.83067428  0.33583341  1
  Ag  Ag38  1  0.65795590  0.66903810  0.33347803  1
  Ag  Ag39  1  0.67285014  0.50019213  0.49177387  1
  Ag  Ag40  1  0.16013418  0.49761125  0.00770550  1
  Ag  Ag41  1  0.82009326  0.83673089  0.66976229  1
  Ag  Ag42  1  0.66409567  0.16909806  0.16972818  1
  Ag  Ag43  1  0.66816266  0.49984142  0.17274339  1
  Ag  Ag44  1  0.33287044  0.83805843  0.48798297  1
  Ag  Ag45  1  0.49917899  0.67189832  0.83220516  1
  Ag  Ag46  1  0.16089244  0.49820686  0.32985263  1
  Ag  Ag47  1  0.32507506  0.33226046  0.32999983  1
  Ag  Ag48  1  0.49584012  -0.00473147  0.17184582  1
  Ag  Ag49  1  0.00169984  0.50019111  0.83783221  1
  Ag  Ag50  1  0.00706547  0.16711030  0.83498871  1
  Ag  Ag51  1  0.50158272  0.83476688  0.66422871  1
  Ag  Ag52  1  0.00799211  0.34171496  0.33434414  1
  Ag  Ag53  1  0.83934483  0.50430109  0.00685883  1
  Sb  Sb54  1  0.83112719  0.17284369  0.33711887  1
  Sb  Sb55  1  0.82611961  0.66163383  0.16611760  1
  Sb  Sb56  1  0.00166368  0.16974295  0.50146651  1
  Sb  Sb57  1  0.00003988  0.16717089  0.16431408  1
  Sb  Sb58  1  0.66620690  0.33679027  0.33178840  1
  Sb  Sb59  1  0.00656971  0.83021234  0.49746430  1
  Sb  Sb60  1  0.83640758  0.16814969  -0.00281645  1
  Sb  Sb61  1  0.16793895  0.15998663  0.67004445  1
  Sb  Sb62  1  0.00420031  0.33660441  0.00581948  1
  Sb  Sb63  1  0.66556374  0.33686414  0.00406893  1
  Sb  Sb64  1  0.49881029  0.33444482  0.49379602  1
  Sb  Sb65  1  0.17108601  0.66622807  0.16812398  1
  Sb  Sb66  1  0.50005754  0.16090982  0.33566689  1
  Sb  Sb67  1  0.32811520  0.50215384  0.83691893  1
  Sb  Sb68  1  -0.00092555  -0.00024832  0.66573196  1
  Sb  Sb69  1  0.33576533  0.16516184  0.16938282  1
  Sb  Sb70  1  0.83470435  0.33223443  0.83404092  1
  Sb  Sb71  1  0.67098912  0.50486150  0.83489799  1
  Sb  Sb72  1  0.16818974  0.16587983  0.33002178  1
  Sb  Sb73  1  0.17006694  0.66865204  0.49760564  1
  Sb  Sb74  1  0.33159170  0.50115365  0.49447362  1
  Sb  Sb75  1  -0.00393098  0.50022526  0.16942278  1
  Sb  Sb76  1  0.82722028  0.66247873  0.49841396  1
  Sb  Sb77  1  0.32613093  0.00238135  0.00470222  1
  Sb  Sb78  1  0.49607875  -0.00436977  0.83513654  1
  Sb  Sb79  1  0.83433311  0.00351444  0.49953149  1
  Sb  Sb80  1  0.33250120  0.32834984  0.66250547  1
  Sb  Sb81  1  0.83233476  0.50060380  0.66399565  1
  Sb  Sb82  1  0.66084014  0.83187354  0.16550402  1
  Sb  Sb83  1  0.16392759  0.83384547  0.00144121  1
  Sb  Sb84  1  0.00597920  0.83416013  0.16712739  1
  Sb  Sb85  1  0.33678825  -0.00297455  0.66088952  1
  Sb  Sb86  1  0.49649965  0.16659062  -0.00165537  1
  Sb  Sb87  1  0.66738337  0.32785766  0.66424534  1
  Sb  Sb88  1  0.16507636  0.50548873  0.66407017  1
  Sb  Sb89  1  0.83285813  0.00382420  0.16841122  1
  Sb  Sb90  1  0.50095940  0.50189604  0.00273155  1
  Sb  Sb91  1  -0.00302773  0.66847002  0.66657604  1
  Sb  Sb92  1  0.66058137  0.83324546  0.50408607  1
  Sb  Sb93  1  0.49666566  -0.00464259  0.49511321  1
  Sb  Sb94  1  0.67094793  -0.00378327  0.00066536  1
  Sb  Sb95  1  0.33561931  0.49984048  0.16929671  1
  Sb  Sb96  1  0.33215234  0.66518685  0.00358686  1
  Sb  Sb97  1  -0.00040709  0.33235738  0.66076162  1
  Sb  Sb98  1  0.83235088  0.82849848  0.33349115  1
  Sb  Sb99  1  0.50184342  0.50739493  0.33185499  1
  Sb  Sb100  1  0.50275401  0.83174756  0.00047549  1
  Sb  Sb101  1  0.16680231  0.33155048  0.83533444  1
  Sb  Sb102  1  0.83646442  -0.00004689  0.83279988  1
  Sb  Sb103  1  0.49832900  0.33334721  0.83709728  1
  Sb  Sb104  1  0.33849488  0.67261760  0.66225930  1
  Sb  Sb105  1  0.00196615  0.83337542  0.83481700  1
  Sb  Sb106  1  0.83280772  0.66832124  0.83537229  1
  Sb  Sb107  1  0.50367042  0.50508653  0.66499562  1
  Te  Te108  1  0.16787934  0.16592756  0.15912945  1
  Te  Te109  1  0.16964033  0.16496526  0.50356321  1
  Te  Te110  1  0.16815737  0.16491301  0.83561863  1
  Te  Te111  1  0.16839973  0.49659893  0.16792487  1
  Te  Te112  1  0.16303022  0.49720658  0.49646690  1
  Te  Te113  1  0.16145448  0.50205206  0.83254877  1
  Te  Te114  1  0.17305049  0.83695967  0.17112125  1
  Te  Te115  1  0.17210124  0.83623811  0.49841018  1
  Te  Te116  1  0.16759187  0.83355499  0.83432324  1
  Te  Te117  1  0.50450548  0.16897972  0.16716396  1
  Te  Te118  1  0.50071304  0.16686280  0.50402011  1
  Te  Te119  1  0.49965279  0.16651853  0.82921095  1
  Te  Te120  1  0.50695305  0.49940350  0.16606394  1
  Te  Te121  1  0.50604253  0.50574557  0.49958246  1
  Te  Te122  1  0.49960502  0.50744548  0.83387771  1
  Te  Te123  1  0.49597791  0.83300137  0.16837950  1
  Te  Te124  1  0.49489717  0.83069541  0.50042132  1
  Te  Te125  1  0.50068673  0.83146820  0.83247233  1
  Te  Te126  1  0.82629694  0.17296862  0.16588440  1
  Te  Te127  1  0.83145736  0.17111611  0.50482828  1
  Te  Te128  1  0.82872953  0.16708128  0.82905801  1
  Te  Te129  1  0.82881543  0.49632729  0.16761825  1
  Te  Te130  1  0.83349666  0.49594516  0.49829502  1
  Te  Te131  1  0.84000102  0.49910918  0.83691712  1
  Te  Te132  1  0.83237703  0.83437847  0.16165049  1
  Te  Te133  1  0.83489532  0.83410801  0.50525907  1
  Te  Te134  1  0.82920765  0.83422542  0.83217589  1
  Te  Te135  1  0.16218735  0.00122617  -0.00229540  1
  Te  Te136  1  0.16842350  0.00065672  0.33220336  1
  Te  Te137  1  0.16674993  -0.00616909  0.67126759  1
  Te  Te138  1  0.16863811  0.33438727  0.00141120  1
  Te  Te139  1  0.16497253  0.33050835  0.33290626  1
  Te  Te140  1  0.16687802  0.33419236  0.65844245  1
  Te  Te141  1  0.16441541  0.66320470  -0.00199626  1
  Te  Te142  1  0.16522327  0.66789871  0.33313000  1
  Te  Te143  1  0.16667119  0.67383037  0.67147363  1
  Te  Te144  1  0.50099602  0.00024790  0.01073283  1
  Te  Te145  1  0.50277099  -0.00500341  0.33042064  1
  Te  Te146  1  0.50481039  -0.00212236  0.66799631  1
  Te  Te147  1  0.49266723  0.33465591  0.00633862  1
  Te  Te148  1  0.49565101  0.33504923  0.32805860  1
  Te  Te149  1  0.49920660  0.32969839  0.66660290  1
  Te  Te150  1  0.50343972  0.66549394  -0.00114306  1
  Te  Te151  1  0.49875178  0.66890935  0.33296680  1
  Te  Te152  1  0.50430095  0.67095846  0.66966860  1
  Te  Te153  1  0.84194009  -0.00238876  0.00089743  1
  Te  Te154  1  0.82799863  -0.00161052  0.33333524  1
  Te  Te155  1  0.82844290  -0.00119901  0.66620864  1
  Te  Te156  1  0.83477205  0.33862389  0.00569566  1
  Te  Te157  1  0.83252767  0.33852709  0.33276587  1
  Te  Te158  1  0.83319901  0.32912164  0.66154475  1
  Te  Te159  1  0.83476903  0.66557371  0.00058776  1
  Te  Te160  1  0.83888795  0.66082821  0.33230042  1
  Te  Te161  1  0.82691985  0.67203982  0.66695342  1
  Te  Te162  1  0.00321197  0.16482025  -0.00461401  1
  Te  Te163  1  -0.00189815  0.15941588  0.33337703  1
  Te  Te164  1  -0.00461704  0.16535043  0.67405376  1
  Te  Te165  1  0.00069956  0.50249873  0.00003288  1
  Te  Te166  1  0.00098555  0.50057069  0.33279456  1
  Te  Te167  1  -0.00085231  0.50055263  0.67080284  1
  Te  Te168  1  -0.00573535  0.83061367  0.00045546  1
  Te  Te169  1  0.00000788  0.83662766  0.33292196  1
  Te  Te170  1  0.00063644  0.83390686  0.66618831  1
  Te  Te171  1  0.32936395  0.16953078  -0.00375960  1
  Te  Te172  1  0.33463914  0.16934223  0.33862290  1
  Te  Te173  1  0.33730085  0.16392373  0.66680813  1
  Te  Te174  1  0.32498248  0.49453245  0.00086444  1
  Te  Te175  1  0.32528922  0.49486152  0.33338541  1
  Te  Te176  1  0.33430051  0.49950557  0.66675320  1
  Te  Te177  1  0.33340961  0.83311155  -0.00787659  1
  Te  Te178  1  0.33422408  0.83358732  0.33254959  1
  Te  Te179  1  0.33445475  0.83366964  0.67425989  1
  Te  Te180  1  0.66727131  0.16631284  -0.00120352  1
  Te  Te181  1  0.66592869  0.16267465  0.33476977  1
  Te  Te182  1  0.66537888  0.16485069  0.66546292  1
  Te  Te183  1  0.67170033  0.50503120  0.00240731  1
  Te  Te184  1  0.66772899  0.50336547  0.33327537  1
  Te  Te185  1  0.66822786  0.50584168  0.66396880  1
  Te  Te186  1  0.67129225  0.82859433  -0.00490355  1
  Te  Te187  1  0.66620936  0.83218364  0.33390572  1
  Te  Te188  1  0.66314073  0.83479794  0.66669018  1
  Te  Te189  1  0.00477971  0.00107268  0.16766319  1
  Te  Te190  1  0.00703101  0.00078983  0.49511502  1
  Te  Te191  1  0.00502602  0.00331371  0.83551794  1
  Te  Te192  1  0.00239457  0.33236415  0.17407774  1
  Te  Te193  1  0.00050179  0.33596890  0.49476645  1
  Te  Te194  1  0.00037981  0.33179696  0.83341167  1
  Te  Te195  1  0.00054835  0.66771825  0.16685062  1
  Te  Te196  1  0.00023823  0.66002733  0.49636755  1
  Te  Te197  1  0.00460421  0.66454689  0.83517081  1
  Te  Te198  1  0.33290587  -0.00103702  0.17087175  1
  Te  Te199  1  0.33076770  0.00033206  0.49504649  1
  Te  Te200  1  0.32975924  0.00080736  0.83488775  1
  Te  Te201  1  0.33134185  0.33223103  0.16812557  1
  Te  Te202  1  0.33038311  0.33039145  0.49487876  1
  Te  Te203  1  0.33356594  0.32921998  0.83497104  1
  Te  Te204  1  0.33902085  0.67005881  0.17096775  1
  Te  Te205  1  0.33817766  0.66975440  0.49434518  1
  Te  Te206  1  0.33254586  0.66938689  0.83405379  1
  Te  Te207  1  0.66454480  0.00305822  0.16901310  1
  Te  Te208  1  0.66644981  0.00415673  0.49850853  1
  Te  Te209  1  0.66559604  -0.00057985  0.83200430  1
  Te  Te210  1  0.66491889  0.33242436  0.16590037  1
  Te  Te211  1  0.66821589  0.33314560  0.49882628  1
  Te  Te212  1  0.66578889  0.32928056  0.83380349  1
  Te  Te213  1  0.66152278  0.66526935  0.16840543  1
  Te  Te214  1  0.66315100  0.66604500  0.49534577  1
  Te  Te215  1  0.66487245  0.66861386  0.83478746  1
