# generated using pymatgen
data_AgSbTe2
_symmetry_space_group_name_H-M   'P 1'
_cell_length_a   18.33965178
_cell_length_b   18.33590051
_cell_length_c   18.33763117
_cell_angle_alpha   90.00121566
_cell_angle_beta   90.00079576
_cell_angle_gamma   90.00014827
_symmetry_Int_Tables_number   1
_chemical_formula_structural   AgSbTe2
_chemical_formula_sum   'Ag54 Sb54 Te108'
_cell_volume   6166.46913903
_cell_formula_units_Z   54
loop_
 _symmetry_equiv_pos_site_id
 _symmetry_equiv_pos_as_xyz
  1  'x, y, z'
loop_
 _atom_site_type_symbol
 _atom_site_label
 _atom_site_symmetry_multiplicity
 _atom_site_fract_x
 _atom_site_fract_y
 _atom_site_fract_z
 _atom_site_occupancy
  Ag  Ag0  1  0.16578575  0.16979073  0.00036774  1
  Ag  Ag1  1  0.49857968  0.67267182  0.84110286  1
  Ag  Ag2  1  0.16284033  0.33150424  0.82814039  1
  Ag  Ag3  1  0.33273459  0.65881794  0.67405708  1
  Ag  Ag4  1  0.83766165  0.32800088  0.83205456  1
  Ag  Ag5  1  0.50166830  -0.00824277  0.83892436  1
  Ag  Ag6  1  0.67224023  0.15629049  0.16203837  1
  Ag  Ag7  1  0.51068217  0.83237335  0.33063924  1
  Ag  Ag8  1  0.83011852  0.84179791  0.00381222  1
  Ag  Ag9  1  -0.01354152  0.83517082  0.16089888  1
  Ag  Ag10  1  0.82980944  0.32555218  0.16401062  1
  Ag  Ag11  1  0.32042648  0.34129071  0.67347447  1
  Ag  Ag12  1  0.16829529  0.67555371  0.16321974  1
  Ag  Ag13  1  0.33698134  -0.00287584  0.32470214  1
  Ag  Ag14  1  0.16941754  0.49054815  -0.00260443  1
  Ag  Ag15  1  0.66837357  0.50545315  0.16837020  1
  Ag  Ag16  1  0.82370541  0.68136445  0.16403114  1
  Ag  Ag17  1  0.82894802  0.16385942  0.31986945  1
  Ag  Ag18  1  0.51108409  0.16353766  -0.00065888  1
  Ag  Ag19  1  0.82847116  0.16197176  0.00383046  1
  Ag  Ag20  1  0.16338370  0.16263940  0.32231537  1
  Ag  Ag21  1  0.66983070  0.16166251  0.84506140  1
  Ag  Ag22  1  0.66661635  -0.00361771  0.32362238  1
  Ag  Ag23  1  0.66309834  0.67571301  0.00339048  1
  Ag  Ag24  1  0.67298894  0.83513151  0.16415632  1
  Ag  Ag25  1  0.16342195  0.33374631  0.51426301  1
  Ag  Ag26  1  0.50821165  0.66808108  0.16023591  1
  Ag  Ag27  1  0.66829234  0.83819311  0.84330235  1
  Ag  Ag28  1  0.33823995  0.49850087  0.50640728  1
  Ag  Ag29  1  0.16323676  0.17833552  0.67174675  1
  Ag  Ag30  1  0.49196986  0.50092246  0.66369337  1
  Ag  Ag31  1  0.83546672  0.33264810  0.50841930  1
  Ag  Ag32  1  0.83255689  0.49126990  0.66542744  1
  Ag  Ag33  1  0.16745893  0.84200715  0.32633743  1
  Ag  Ag34  1  0.17352021  0.48970040  0.66935693  1
  Ag  Ag35  1  0.00688055  0.33315736  0.67465106  1
  Ag  Ag36  1  0.66331541  0.50228573  0.49513779  1
  Ag  Ag37  1  0.83544375  0.17402862  0.67158432  1
  Ag  Ag38  1  0.00295877  0.32613172  -0.00501212  1
  Ag  Ag39  1  0.67157283  -0.00324346  0.00412465  1
  Ag  Ag40  1  0.33457775  0.83247977  0.83465703  1
  Ag  Ag41  1  0.16348431  -0.00421741  0.16406213  1
  Ag  Ag42  1  0.33396537  -0.00071375  0.00332941  1
  Ag  Ag43  1  0.67049685  0.32882202  0.32946358  1
  Ag  Ag44  1  0.66981878  0.82966574  0.48619176  1
  Ag  Ag45  1  0.32356795  0.33213319  -0.00376241  1
  Ag  Ag46  1  -0.00710684  0.83468776  0.84109422  1
  Ag  Ag47  1  0.33621415  0.67012970  -0.00288268  1
  Ag  Ag48  1  -0.00901327  0.00271918  0.00230043  1
  Ag  Ag49  1  0.16353725  0.83307020  0.66896875  1
  Ag  Ag50  1  0.82505916  0.84020944  0.31706862  1
  Ag  Ag51  1  0.50401934  0.50491397  0.33604780  1
  Ag  Ag52  1  0.82855906  -0.00387770  0.16371761  1
  Ag  Ag53  1  0.83376051  0.83395083  0.67094286  1
  Sb  Sb54  1  -0.00121667  0.00291659  0.67803694  1
  Sb  Sb55  1  0.50130956  0.82889871  0.66896194  1
  Sb  Sb56  1  0.66856553  -0.00180468  0.67021440  1
  Sb  Sb57  1  0.33508766  0.16465972  0.83762331  1
  Sb  Sb58  1  0.33693131  0.50167199  0.16766078  1
  Sb  Sb59  1  0.00107405  0.49992678  0.83446170  1
  Sb  Sb60  1  0.50241409  0.33652254  0.50125210  1
  Sb  Sb61  1  0.50478793  0.16357779  0.32569557  1
  Sb  Sb62  1  0.16811189  0.00382609  0.49344385  1
  Sb  Sb63  1  -0.00418564  0.50362031  0.16397832  1
  Sb  Sb64  1  -0.00445972  0.16637901  0.83722969  1
  Sb  Sb65  1  0.50099387  0.66493082  0.49944908  1
  Sb  Sb66  1  0.50021681  0.17269522  0.67534326  1
  Sb  Sb67  1  0.82780057  0.00228003  0.84171523  1
  Sb  Sb68  1  -0.00048957  0.16833957  0.50227035  1
  Sb  Sb69  1  -0.00071286  0.66977924  0.32936992  1
  Sb  Sb70  1  -0.00682441  0.16076114  0.16233318  1
  Sb  Sb71  1  0.66700363  0.49950998  0.83537342  1
  Sb  Sb72  1  0.16343482  0.83621122  0.00155418  1
  Sb  Sb73  1  0.49933358  0.33451124  0.83546843  1
  Sb  Sb74  1  0.82820967  0.66891417  0.83758574  1
  Sb  Sb75  1  0.67214039  0.33458242  0.66430419  1
  Sb  Sb76  1  0.16926281  0.66312143  0.49901803  1
  Sb  Sb77  1  0.33557373  0.16509650  0.16278784  1
  Sb  Sb78  1  -0.00666659  0.33037930  0.33039940  1
  Sb  Sb79  1  0.33392399  0.50316987  0.82915793  1
  Sb  Sb80  1  0.83077243  0.00294459  0.49332811  1
  Sb  Sb81  1  0.67078316  0.33012646  0.00375006  1
  Sb  Sb82  1  0.33631359  0.83377831  0.16043671  1
  Sb  Sb83  1  0.16992179  0.00299313  0.84085432  1
  Sb  Sb84  1  0.17358905  0.49740661  0.33360772  1
  Sb  Sb85  1  0.33072177  0.00030279  0.66886523  1
  Sb  Sb86  1  0.50754956  0.33744926  0.16475355  1
  Sb  Sb87  1  -0.00259002  -0.00074085  0.32337046  1
  Sb  Sb88  1  0.33022013  0.17264785  0.50053400  1
  Sb  Sb89  1  0.17270213  0.66598879  0.83707846  1
  Sb  Sb90  1  -0.00445104  0.83389175  0.49960173  1
  Sb  Sb91  1  0.00030115  0.66946475  0.00095885  1
  Sb  Sb92  1  0.50246341  -0.00238226  0.50078117  1
  Sb  Sb93  1  0.50672962  0.83631206  0.00060163  1
  Sb  Sb94  1  0.00337059  0.66468814  0.66946783  1
  Sb  Sb95  1  0.66287874  0.66681284  0.67343911  1
  Sb  Sb96  1  0.33537419  0.82883797  0.50217917  1
  Sb  Sb97  1  0.82428382  0.49675286  0.33492836  1
  Sb  Sb98  1  -0.00193385  0.49626917  0.50293775  1
  Sb  Sb99  1  0.49656964  0.50076744  -0.00002745  1
  Sb  Sb100  1  0.33596761  0.67177024  0.32949202  1
  Sb  Sb101  1  0.50543041  -0.00548134  0.16059992  1
  Sb  Sb102  1  0.82916129  0.66476385  0.49690646  1
  Sb  Sb103  1  0.33565458  0.32978904  0.33277453  1
  Sb  Sb104  1  0.83526821  0.49690644  -0.00130007  1
  Sb  Sb105  1  0.67032476  0.16837929  0.49653613  1
  Sb  Sb106  1  0.66578166  0.67073945  0.32329911  1
  Sb  Sb107  1  0.15911478  0.32956722  0.16165032  1
  Te  Te108  1  0.16631960  0.16261931  0.16461125  1
  Te  Te109  1  0.16609400  0.17211820  0.50711266  1
  Te  Te110  1  0.16665133  0.17010498  0.83346339  1
  Te  Te111  1  0.16560861  0.50268748  0.16539979  1
  Te  Te112  1  0.16906344  0.49540348  0.50255021  1
  Te  Te113  1  0.16692709  0.49622704  0.83219359  1
  Te  Te114  1  0.17104684  0.83532002  0.16708969  1
  Te  Te115  1  0.16581923  0.83295103  0.50113981  1
  Te  Te116  1  0.17008945  0.83353168  0.83096868  1
  Te  Te117  1  0.50798300  0.16763153  0.15954931  1
  Te  Te118  1  0.49990837  0.16672145  0.50111245  1
  Te  Te119  1  0.50635217  0.16496795  0.83897534  1
  Te  Te120  1  0.50438294  0.50538788  0.16944746  1
  Te  Te121  1  0.50260113  0.50010185  0.50076112  1
  Te  Te122  1  0.50239787  0.50543602  0.82782058  1
  Te  Te123  1  0.50213763  0.82837026  0.17183196  1
  Te  Te124  1  0.50641155  0.83218609  0.49436855  1
  Te  Te125  1  0.50234223  0.83192765  0.83277985  1
  Te  Te126  1  0.83137420  0.16545601  0.16415987  1
  Te  Te127  1  0.83342748  0.17265053  0.50699090  1
  Te  Te128  1  0.83018543  0.16766013  0.83274876  1
  Te  Te129  1  0.82900182  0.49809017  0.16740491  1
  Te  Te130  1  0.82847799  0.49651797  0.50264639  1
  Te  Te131  1  0.83330055  0.49738847  0.82750878  1
  Te  Te132  1  0.83243323  0.83666881  0.16316125  1
  Te  Te133  1  0.82885508  0.83311002  0.50681284  1
  Te  Te134  1  0.83037004  0.83391599  0.83296813  1
  Te  Te135  1  0.17317872  0.00286266  0.00373625  1
  Te  Te136  1  0.16548532  0.00285245  0.32922530  1
  Te  Te137  1  0.16625193  -0.00574480  0.66541153  1
  Te  Te138  1  0.16479049  0.33194262  0.00031318  1
  Te  Te139  1  0.16625060  0.32710174  0.33126945  1
  Te  Te140  1  0.16505428  0.33419303  0.66963234  1
  Te  Te141  1  0.16879653  0.66520655  0.00246894  1
  Te  Te142  1  0.16880143  0.66801207  0.32842815  1
  Te  Te143  1  0.17074185  0.67100965  0.66722808  1
  Te  Te144  1  0.49684810  0.00213539  -0.00192573  1
  Te  Te145  1  0.50037847  -0.00362825  0.33279928  1
  Te  Te146  1  0.49944916  0.00202790  0.67370233  1
  Te  Te147  1  0.49173797  0.32920127  -0.00119537  1
  Te  Te148  1  0.50561126  0.33407526  0.33319972  1
  Te  Te149  1  0.49350359  0.33950143  0.66774405  1
  Te  Te150  1  0.49831916  0.66522581  0.00073042  1
  Te  Te151  1  0.49862573  0.66833736  0.32863765  1
  Te  Te152  1  0.49496711  0.66184060  0.66904819  1
  Te  Te153  1  0.83153853  0.00128079  0.00259358  1
  Te  Te154  1  0.83092059  0.00082522  0.32823053  1
  Te  Te155  1  0.83448341  -0.00184935  0.66474465  1
  Te  Te156  1  0.83610819  0.33241695  -0.00285965  1
  Te  Te157  1  0.83029519  0.32944760  0.33078365  1
  Te  Te158  1  0.83321611  0.33272351  0.66813414  1
  Te  Te159  1  0.83125368  0.66554467  0.00456052  1
  Te  Te160  1  0.83374865  0.67401566  0.32677858  1
  Te  Te161  1  0.83444992  0.66985920  0.66665643  1
  Te  Te162  1  0.00218277  0.16542493  -0.00005412  1
  Te  Te163  1  0.00136329  0.16607678  0.33313216  1
  Te  Te164  1  -0.00003220  0.17006188  0.66976535  1
  Te  Te165  1  0.00739505  0.49430743  -0.00021302  1
  Te  Te166  1  0.00123146  0.49993772  0.33354884  1
  Te  Te167  1  -0.00168357  0.49533507  0.66795052  1
  Te  Te168  1  -0.00365513  0.83518071  0.00119956  1
  Te  Te169  1  0.00500028  0.83469932  0.33097223  1
  Te  Te170  1  -0.00021195  0.83327096  0.66804456  1
  Te  Te171  1  0.32634382  0.16469872  -0.00012255  1
  Te  Te172  1  0.33203183  0.16045922  0.33229748  1
  Te  Te173  1  0.32934104  0.17014045  0.66839312  1
  Te  Te174  1  0.32980323  0.50020924  0.00020167  1
  Te  Te175  1  0.34099040  0.49965373  0.33942303  1
  Te  Te176  1  0.33200414  0.49969536  0.66610292  1
  Te  Te177  1  0.33280534  0.83288100  -0.00501112  1
  Te  Te178  1  0.32686393  0.83756253  0.33632544  1
  Te  Te179  1  0.33252599  0.83211702  0.66971160  1
  Te  Te180  1  0.66906116  0.16765447  0.00183953  1
  Te  Te181  1  0.66941755  0.16530738  0.32975021  1
  Te  Te182  1  0.67039279  0.16604109  0.66707859  1
  Te  Te183  1  0.66571854  0.50181364  0.00394735  1
  Te  Te184  1  0.66263000  0.49971276  0.33320848  1
  Te  Te185  1  0.67102113  0.50045488  0.66573942  1
  Te  Te186  1  0.66778681  0.83526246  0.00254499  1
  Te  Te187  1  0.66876186  0.83385961  0.33003461  1
  Te  Te188  1  0.66956022  0.83311358  0.67054458  1
  Te  Te189  1  0.00184519  -0.00511035  0.16004197  1
  Te  Te190  1  0.00005652  -0.00000782  0.50310602  1
  Te  Te191  1  0.00242502  -0.00808801  0.84353277  1
  Te  Te192  1  -0.00901717  0.33493457  0.16186798  1
  Te  Te193  1  -0.00101429  0.33353372  0.50274483  1
  Te  Te194  1  -0.00017313  0.33368866  0.83387049  1
  Te  Te195  1  0.00539099  0.67365998  0.16555125  1
  Te  Te196  1  -0.00038578  0.66520993  0.50005254  1
  Te  Te197  1  -0.00032023  0.67651489  0.83444226  1
  Te  Te198  1  0.33176973  -0.00020675  0.16609509  1
  Te  Te199  1  0.33487424  -0.00098553  0.49429119  1
  Te  Te200  1  0.33873589  -0.00450100  0.83670225  1
  Te  Te201  1  0.33335329  0.33365158  0.16168642  1
  Te  Te202  1  0.32953784  0.33828650  0.50040168  1
  Te  Te203  1  0.33068462  0.33229125  0.83508504  1
  Te  Te204  1  0.32995357  0.66676678  0.16154429  1
  Te  Te205  1  0.33402102  0.66014111  0.50662435  1
  Te  Te206  1  0.33686799  0.67043189  0.83501681  1
  Te  Te207  1  0.66618746  -0.00243938  0.16473305  1
  Te  Te208  1  0.66635980  -0.00669253  0.49404221  1
  Te  Te209  1  0.66292392  -0.00001364  0.83690794  1
  Te  Te210  1  0.67109498  0.33742935  0.16925035  1
  Te  Te211  1  0.67072918  0.33644729  0.49516532  1
  Te  Te212  1  0.66917091  0.32946286  0.83357215  1
  Te  Te213  1  0.66694498  0.66809445  0.16225969  1
  Te  Te214  1  0.66603362  0.66594392  0.50257241  1
  Te  Te215  1  0.66135123  0.67013517  0.84103540  1
