# generated using pymatgen
data_AgSbTe2
_symmetry_space_group_name_H-M   'P 1'
_cell_length_a   18.32773968
_cell_length_b   18.31976781
_cell_length_c   18.32590315
_cell_angle_alpha   90.00060876
_cell_angle_beta   90.00052335
_cell_angle_gamma   90.00014425
_symmetry_Int_Tables_number   1
_chemical_formula_structural   AgSbTe2
_chemical_formula_sum   'Ag54 Sb54 Te108'
_cell_volume   6153.10405666
_cell_formula_units_Z   54
loop_
 _symmetry_equiv_pos_site_id
 _symmetry_equiv_pos_as_xyz
  1  'x, y, z'
loop_
 _atom_site_type_symbol
 _atom_site_label
 _atom_site_symmetry_multiplicity
 _atom_site_fract_x
 _atom_site_fract_y
 _atom_site_fract_z
 _atom_site_occupancy
  Ag  Ag0  1  0.66190576  0.16991737  0.83096229  1
  Ag  Ag1  1  0.33736348  0.66541624  0.66917107  1
  Ag  Ag2  1  0.50006310  0.82367405  0.00477776  1
  Ag  Ag3  1  0.82527945  0.33454560  0.16950549  1
  Ag  Ag4  1  0.49981309  0.50650968  0.67465282  1
  Ag  Ag5  1  0.66815854  0.16628851  0.50391881  1
  Ag  Ag6  1  0.65942619  0.66172911  0.00100260  1
  Ag  Ag7  1  0.67043675  0.82957180  0.49494191  1
  Ag  Ag8  1  0.33530700  0.01057068  0.00030140  1
  Ag  Ag9  1  -0.00292691  0.83073419  0.17776061  1
  Ag  Ag10  1  0.15834783  -0.00353565  0.49975798  1
  Ag  Ag11  1  0.16543253  0.16691102  0.66635160  1
  Ag  Ag12  1  0.83399162  0.33128776  0.49191601  1
  Ag  Ag13  1  0.34044142  0.33699650  0.32449744  1
  Ag  Ag14  1  0.82835693  0.17100236  0.00015286  1
  Ag  Ag15  1  0.65689449  0.33433381  0.00758405  1
  Ag  Ag16  1  0.49966437  0.49645519  0.00050456  1
  Ag  Ag17  1  -0.00092386  0.32997787  0.00564584  1
  Ag  Ag18  1  0.33983800  0.50461585  0.83860035  1
  Ag  Ag19  1  0.66045511  0.49869590  0.16588160  1
  Ag  Ag20  1  0.49870892  0.33929660  0.84755698  1
  Ag  Ag21  1  -0.00172496  0.83198377  0.49661941  1
  Ag  Ag22  1  0.17594797  0.16913422  -0.00134672  1
  Ag  Ag23  1  0.16029227  0.82980206  0.33528861  1
  Ag  Ag24  1  0.00569045  0.82980306  0.82794363  1
  Ag  Ag25  1  0.49910220  0.18025677  0.00250978  1
  Ag  Ag26  1  0.16196899  0.32870540  0.49897927  1
  Ag  Ag27  1  0.34376024  0.49498509  0.16402677  1
  Ag  Ag28  1  0.34442608  0.32999884  0.00773096  1
  Ag  Ag29  1  0.50136875  0.65842542  0.16110002  1
  Ag  Ag30  1  0.33562891  0.66474249  0.33668377  1
  Ag  Ag31  1  0.65477161  0.66565715  0.66429333  1
  Ag  Ag32  1  0.50153004  0.66762889  0.50011085  1
  Ag  Ag33  1  0.49692884  0.66178187  0.83491736  1
  Ag  Ag34  1  0.33569536  0.17602549  0.16195903  1
  Ag  Ag35  1  0.83159521  0.16769228  0.66286745  1
  Ag  Ag36  1  0.49912675  0.17168305  0.32788567  1
  Ag  Ag37  1  0.83962843  -0.00152459  0.49953383  1
  Ag  Ag38  1  0.50162383  0.33826157  0.16051374  1
  Ag  Ag39  1  0.00188676  0.17530897  0.16462813  1
  Ag  Ag40  1  0.83392797  0.67186199  0.49884564  1
  Ag  Ag41  1  0.00255366  0.67138686  0.65660594  1
  Ag  Ag42  1  0.18132065  0.66962733  0.82662398  1
  Ag  Ag43  1  0.00101306  -0.00909064  0.33899008  1
  Ag  Ag44  1  0.83333928  0.49880892  0.33149368  1
  Ag  Ag45  1  0.50349612  0.17122291  0.66915748  1
  Ag  Ag46  1  0.66103601  0.82380419  0.17097401  1
  Ag  Ag47  1  0.66058633  0.33309019  0.32690831  1
  Ag  Ag48  1  0.33289893  0.82311823  0.83665947  1
  Ag  Ag49  1  0.00075412  -0.00441370  0.65693972  1
  Ag  Ag50  1  -0.00300464  0.49669866  0.16770178  1
  Ag  Ag51  1  0.49869378  0.82677426  0.32893794  1
  Ag  Ag52  1  0.00539734  0.67259879  0.33753335  1
  Ag  Ag53  1  0.16267284  0.67039905  0.50225756  1
  Sb  Sb54  1  0.83554981  0.00193398  0.82816379  1
  Sb  Sb55  1  0.33528535  0.50188114  0.49696240  1
  Sb  Sb56  1  0.67042990  0.00225727  0.33393917  1
  Sb  Sb57  1  0.16685060  -0.00423260  0.82918987  1
  Sb  Sb58  1  0.83422642  0.82816540  0.33472072  1
  Sb  Sb59  1  0.50052135  -0.00307940  0.49928336  1
  Sb  Sb60  1  -0.00522720  0.66451848  0.00386732  1
  Sb  Sb61  1  -0.00007973  0.33430345  0.32973395  1
  Sb  Sb62  1  0.50060536  0.00261114  0.16596920  1
  Sb  Sb63  1  0.00641778  0.50542453  0.83850048  1
  Sb  Sb64  1  0.33679437  0.16800757  0.49716493  1
  Sb  Sb65  1  0.17051197  0.83586247  0.00263365  1
  Sb  Sb66  1  0.17134496  0.66700271  0.16752450  1
  Sb  Sb67  1  0.83577051  0.83526686  0.66261099  1
  Sb  Sb68  1  0.17247020  0.33568037  0.83302228  1
  Sb  Sb69  1  0.34089305  0.66320354  -0.00151649  1
  Sb  Sb70  1  0.66371415  0.83294417  0.83355424  1
  Sb  Sb71  1  0.66434689  0.17298892  0.16636657  1
  Sb  Sb72  1  0.17113080  0.33240338  0.16947941  1
  Sb  Sb73  1  0.17432361  0.49562265  0.00104761  1
  Sb  Sb74  1  0.82911238  0.17284460  0.33461119  1
  Sb  Sb75  1  0.66154284  0.00471651  0.00172396  1
  Sb  Sb76  1  0.82936948  0.66631564  0.82706373  1
  Sb  Sb77  1  -0.00389306  0.16151682  0.49664962  1
  Sb  Sb78  1  0.16527462  0.50400931  0.33320802  1
  Sb  Sb79  1  -0.00222100  0.16428706  0.83595595  1
  Sb  Sb80  1  0.66503102  0.50138214  0.49439760  1
  Sb  Sb81  1  0.82939125  0.83703817  0.00318813  1
  Sb  Sb82  1  0.50157395  0.50091288  0.32726952  1
  Sb  Sb83  1  0.67021644  0.00023784  0.66391601  1
  Sb  Sb84  1  0.33760777  0.83079336  0.16419339  1
  Sb  Sb85  1  0.65862321  0.49659881  0.83904671  1
  Sb  Sb86  1  0.66357677  0.66399307  0.33376810  1
  Sb  Sb87  1  0.50222617  0.33623473  0.49610224  1
  Sb  Sb88  1  0.33891869  0.16945756  0.83913831  1
  Sb  Sb89  1  0.82880829  0.49820279  0.66006515  1
  Sb  Sb90  1  -0.00122429  0.50745355  0.49467654  1
  Sb  Sb91  1  0.49855135  0.00046144  0.83478349  1
  Sb  Sb92  1  0.33030193  -0.00152441  0.32974896  1
  Sb  Sb93  1  0.33173362  0.82947903  0.50021813  1
  Sb  Sb94  1  0.83542814  0.00607599  0.17188834  1
  Sb  Sb95  1  0.16566081  0.00081098  0.17065634  1
  Sb  Sb96  1  0.82895348  0.66059539  0.17239139  1
  Sb  Sb97  1  0.16419339  0.83267160  0.66117793  1
  Sb  Sb98  1  0.00354695  0.00435891  0.00205279  1
  Sb  Sb99  1  0.17184733  0.50136093  0.66587947  1
  Sb  Sb100  1  0.33562211  0.33693479  0.66691353  1
  Sb  Sb101  1  0.32938939  -0.00274963  0.67017913  1
  Sb  Sb102  1  -0.00020674  0.33325451  0.66783405  1
  Sb  Sb103  1  0.82658341  0.33151033  0.83765976  1
  Sb  Sb104  1  0.16971648  0.16480497  0.33400609  1
  Sb  Sb105  1  0.49987920  0.82857410  0.66622468  1
  Sb  Sb106  1  0.66472892  0.33445301  0.66534895  1
  Sb  Sb107  1  0.82694094  0.49366980  0.00711855  1
  Te  Te108  1  0.16606129  0.16611617  0.16285430  1
  Te  Te109  1  0.16671005  0.16738146  0.50179960  1
  Te  Te110  1  0.16697613  0.16676172  0.83273520  1
  Te  Te111  1  0.16011326  0.50065476  0.16614099  1
  Te  Te112  1  0.16658255  0.50195862  0.50083942  1
  Te  Te113  1  0.17493403  0.50768519  0.83322934  1
  Te  Te114  1  0.16220651  0.83300969  0.17257696  1
  Te  Te115  1  0.16473400  0.83095675  0.49562993  1
  Te  Te116  1  0.16628588  0.82858149  0.83496034  1
  Te  Te117  1  0.49840953  0.16903019  0.16673330  1
  Te  Te118  1  0.50428125  0.16566327  0.49968934  1
  Te  Te119  1  0.50183051  0.16755585  0.83484725  1
  Te  Te120  1  0.50071083  0.49941607  0.16658974  1
  Te  Te121  1  0.50019374  0.50648025  0.50860785  1
  Te  Te122  1  0.49899586  0.50046208  0.83462491  1
  Te  Te123  1  0.50109735  0.83374005  0.16761959  1
  Te  Te124  1  0.50271468  0.83022998  0.49719513  1
  Te  Te125  1  0.49868215  0.82926408  0.83585895  1
  Te  Te126  1  0.83550823  0.17246879  0.16389537  1
  Te  Te127  1  0.83036198  0.16945493  0.50081146  1
  Te  Te128  1  0.82892579  0.16728489  0.83244581  1
  Te  Te129  1  0.83501785  0.49431533  0.17027637  1
  Te  Te130  1  0.83243109  0.49522000  0.49451735  1
  Te  Te131  1  0.83534278  0.49851833  0.83266477  1
  Te  Te132  1  0.83588451  0.83348002  0.16730612  1
  Te  Te133  1  0.83297407  0.83208033  0.49957031  1
  Te  Te134  1  0.83922135  0.83432682  0.83382077  1
  Te  Te135  1  0.17227845  0.00621773  -0.00033652  1
  Te  Te136  1  0.16298417  -0.00479091  0.33879186  1
  Te  Te137  1  0.16247384  0.00477483  0.66199194  1
  Te  Te138  1  0.16198096  0.32857747  -0.00180953  1
  Te  Te139  1  0.17171348  0.33301646  0.34038681  1
  Te  Te140  1  0.16729309  0.32870043  0.66199961  1
  Te  Te141  1  0.16465288  0.66656437  -0.00502041  1
  Te  Te142  1  0.16804652  0.66994442  0.33431850  1
  Te  Te143  1  0.16669763  0.66633669  0.66565369  1
  Te  Te144  1  0.49502286  -0.00310425  -0.00008179  1
  Te  Te145  1  0.49946242  -0.00005979  0.33427133  1
  Te  Te146  1  0.49861171  0.00878732  0.66619045  1
  Te  Te147  1  0.50019165  0.33578087  0.00237954  1
  Te  Te148  1  0.49993613  0.33326018  0.33189027  1
  Te  Te149  1  0.50011459  0.33101421  0.66470241  1
  Te  Te150  1  0.50146451  0.66625226  0.00196850  1
  Te  Te151  1  0.49842702  0.66672023  0.33468388  1
  Te  Te152  1  0.49766854  0.66806347  0.66590219  1
  Te  Te153  1  0.83315679  0.00949308  0.00022695  1
  Te  Te154  1  0.83943118  0.00246321  0.33951813  1
  Te  Te155  1  0.83820383  0.00604034  0.66084969  1
  Te  Te156  1  0.83574628  0.32933663  0.00310744  1
  Te  Te157  1  0.83325630  0.33699807  0.33126425  1
  Te  Te158  1  0.83299481  0.32866845  0.66354720  1
  Te  Te159  1  0.82353538  0.66704720  -0.00104195  1
  Te  Te160  1  0.83613795  0.66161681  0.33866784  1
  Te  Te161  1  0.83769959  0.66543271  0.65937481  1
  Te  Te162  1  -0.00159089  0.16789181  0.00236445  1
  Te  Te163  1  0.00087610  0.16506187  0.32565677  1
  Te  Te164  1  -0.00013577  0.16535871  0.66774978  1
  Te  Te165  1  -0.00105632  0.49534069  0.00572021  1
  Te  Te166  1  -0.00252705  0.50396012  0.32791756  1
  Te  Te167  1  -0.00051440  0.50577336  0.66918269  1
  Te  Te168  1  -0.00013849  0.83468421  0.00132155  1
  Te  Te169  1  -0.00178145  0.83199820  0.33618923  1
  Te  Te170  1  0.00011339  0.83225843  0.66364358  1
  Te  Te171  1  0.33575282  0.16993871  0.00012371  1
  Te  Te172  1  0.33788961  0.16727723  0.32850034  1
  Te  Te173  1  0.33356184  0.16651380  0.66732895  1
  Te  Te174  1  0.33735291  0.49521540  0.00307268  1
  Te  Te175  1  0.33312756  0.50085591  0.32775364  1
  Te  Te176  1  0.33871670  0.50474547  0.66952444  1
  Te  Te177  1  0.33670623  0.83440131  -0.00179394  1
  Te  Te178  1  0.33800236  0.83062001  0.33181537  1
  Te  Te179  1  0.33205997  0.82843118  0.67336181  1
  Te  Te180  1  0.66346245  0.16950955  0.00015840  1
  Te  Te181  1  0.66120979  0.17003779  0.33653889  1
  Te  Te182  1  0.66650764  0.16741791  0.66487968  1
  Te  Te183  1  0.66241220  0.49938475  0.00476585  1
  Te  Te184  1  0.67003423  0.49496868  0.32735396  1
  Te  Te185  1  0.66195697  0.50523576  0.66735247  1
  Te  Te186  1  0.66206913  0.83253985  0.00147782  1
  Te  Te187  1  0.66297297  0.83334779  0.33431416  1
  Te  Te188  1  0.66792656  0.82802147  0.66306825  1
  Te  Te189  1  -0.00093489  -0.00548886  0.17036261  1
  Te  Te190  1  -0.00032676  -0.00042534  0.50015307  1
  Te  Te191  1  0.00072242  -0.00729032  0.82901977  1
  Te  Te192  1  0.00303901  0.33323747  0.16588435  1
  Te  Te193  1  -0.00065184  0.33437327  0.49985400  1
  Te  Te194  1  0.00181474  0.33523982  0.83869482  1
  Te  Te195  1  -0.00114157  0.66752519  0.17036343  1
  Te  Te196  1  0.00080121  0.66867746  0.49851641  1
  Te  Te197  1  -0.00246279  0.67101623  0.83326130  1
  Te  Te198  1  0.33272535  0.00499562  0.16143875  1
  Te  Te199  1  0.32550107  -0.00131169  0.50042309  1
  Te  Te200  1  0.33252506  -0.00763759  0.83844271  1
  Te  Te201  1  0.33350081  0.33350446  0.16730389  1
  Te  Te202  1  0.32906340  0.33479788  0.49475093  1
  Te  Te203  1  0.33805551  0.33943493  0.83573011  1
  Te  Te204  1  0.33826408  0.66292764  0.17039163  1
  Te  Te205  1  0.33344884  0.66664014  0.49775446  1
  Te  Te206  1  0.33704011  0.66507794  0.83527535  1
  Te  Te207  1  0.66931443  -0.01497283  0.16736647  1
  Te  Te208  1  0.67094928  -0.00172976  0.50018851  1
  Te  Te209  1  0.66734853  0.00714656  0.83264912  1
  Te  Te210  1  0.66536254  0.33321901  0.16698505  1
  Te  Te211  1  0.66991997  0.33102381  0.49599340  1
  Te  Te212  1  0.66023187  0.32937634  0.83727051  1
  Te  Te213  1  0.66363631  0.66478262  0.16626244  1
  Te  Te214  1  0.66650025  0.66764133  0.50054909  1
  Te  Te215  1  0.66176384  0.66744323  0.83194336  1
