# generated using pymatgen
data_AgSbTe2
_symmetry_space_group_name_H-M   'P 1'
_cell_length_a   18.33762546
_cell_length_b   18.33428592
_cell_length_c   18.33994213
_cell_angle_alpha   89.99688498
_cell_angle_beta   90.00098075
_cell_angle_gamma   90.00139598
_symmetry_Int_Tables_number   1
_chemical_formula_structural   AgSbTe2
_chemical_formula_sum   'Ag54 Sb54 Te108'
_cell_volume   6166.02183304
_cell_formula_units_Z   54
loop_
 _symmetry_equiv_pos_site_id
 _symmetry_equiv_pos_as_xyz
  1  'x, y, z'
loop_
 _atom_site_type_symbol
 _atom_site_label
 _atom_site_symmetry_multiplicity
 _atom_site_fract_x
 _atom_site_fract_y
 _atom_site_fract_z
 _atom_site_occupancy
  Ag  Ag0  1  0.83359186  0.01037075  0.50766182  1
  Ag  Ag1  1  0.49121345  0.49683971  -0.00231405  1
  Ag  Ag2  1  0.33447340  0.65520299  -0.00456172  1
  Ag  Ag3  1  0.66453781  0.16622596  0.50101156  1
  Ag  Ag4  1  -0.01160511  0.00460954  0.66360163  1
  Ag  Ag5  1  -0.00112052  0.49855039  0.83577187  1
  Ag  Ag6  1  0.83801578  0.50030912  0.67362053  1
  Ag  Ag7  1  0.83431629  0.32991129  0.50241568  1
  Ag  Ag8  1  0.00797654  0.65543043  0.33141558  1
  Ag  Ag9  1  0.83144453  0.83943638  0.66884868  1
  Ag  Ag10  1  0.17066145  0.50196124  0.33207084  1
  Ag  Ag11  1  0.00400559  0.65537507  0.00018253  1
  Ag  Ag12  1  0.32563662  0.66039133  0.33370731  1
  Ag  Ag13  1  0.65581413  0.16614664  0.82916039  1
  Ag  Ag14  1  0.16965178  0.65978085  0.49455598  1
  Ag  Ag15  1  0.50143905  0.01458108  0.83178278  1
  Ag  Ag16  1  0.82812275  0.00318853  0.82449130  1
  Ag  Ag17  1  0.33707876  0.82555525  0.83289124  1
  Ag  Ag18  1  0.49793944  0.82464851  -0.00488460  1
  Ag  Ag19  1  0.34301746  0.17401364  0.82541467  1
  Ag  Ag20  1  0.49477857  0.32894522  0.83531962  1
  Ag  Ag21  1  0.84508600  0.49778593  -0.00930673  1
  Ag  Ag22  1  -0.00450292  0.00954071  0.34118853  1
  Ag  Ag23  1  0.16712622  0.01018964  0.16890730  1
  Ag  Ag24  1  0.66632437  0.66167101  0.33372727  1
  Ag  Ag25  1  0.49237581  0.16597831  0.67653587  1
  Ag  Ag26  1  0.83013447  0.33863659  0.83284327  1
  Ag  Ag27  1  0.33248201  0.33080163  0.67363848  1
  Ag  Ag28  1  0.83727184  0.33369119  0.16659308  1
  Ag  Ag29  1  -0.00317831  0.33517372  0.33086799  1
  Ag  Ag30  1  0.49277106  0.49581967  0.33033103  1
  Ag  Ag31  1  0.00222806  0.33821605  0.00034494  1
  Ag  Ag32  1  0.66867107  0.01334174  0.34030947  1
  Ag  Ag33  1  0.17826701  0.17299131  0.66526204  1
  Ag  Ag34  1  0.17461082  0.49770542  0.66848313  1
  Ag  Ag35  1  0.66731349  0.66667556  0.66953160  1
  Ag  Ag36  1  0.16846247  0.65492360  0.16966709  1
  Ag  Ag37  1  0.66229427  0.66263214  -0.00494904  1
  Ag  Ag38  1  0.33084914  0.49577737  0.83197582  1
  Ag  Ag39  1  0.33520867  0.17247048  0.51136770  1
  Ag  Ag40  1  0.50228254  0.17294246  0.33460090  1
  Ag  Ag41  1  0.33441538  0.33749281  -0.00797806  1
  Ag  Ag42  1  0.33410182  0.01587250  0.66967748  1
  Ag  Ag43  1  0.33457666  0.66026292  0.67162798  1
  Ag  Ag44  1  0.49777570  0.17227642  -0.01249109  1
  Ag  Ag45  1  0.65941201  0.16905790  0.17617935  1
  Ag  Ag46  1  0.16964701  0.49916287  -0.00184845  1
  Ag  Ag47  1  0.33726682  0.16818977  0.16573097  1
  Ag  Ag48  1  0.16488059  0.33617308  0.16596182  1
  Ag  Ag49  1  0.67133421  0.00690010  0.66660764  1
  Ag  Ag50  1  0.33009379  0.49712712  0.50999816  1
  Ag  Ag51  1  0.83160634  0.65443778  0.83058076  1
  Ag  Ag52  1  -0.00622421  0.16662970  0.50113833  1
  Ag  Ag53  1  0.66815035  0.33003696  0.33280898  1
  Sb  Sb54  1  0.83587064  0.66270318  0.50477854  1
  Sb  Sb55  1  -0.00081924  0.83764129  0.50154749  1
  Sb  Sb56  1  0.83677799  0.65911490  0.16211650  1
  Sb  Sb57  1  0.00240856  0.49747110  0.15877591  1
  Sb  Sb58  1  0.00266414  0.33050856  0.66766840  1
  Sb  Sb59  1  0.00046646  0.17252422  0.82825987  1
  Sb  Sb60  1  0.00017655  0.00441785  -0.00204912  1
  Sb  Sb61  1  0.16586795  0.83183211  0.66807833  1
  Sb  Sb62  1  0.66654747  0.49610549  0.83401638  1
  Sb  Sb63  1  0.50171246  0.83885646  0.67322559  1
  Sb  Sb64  1  0.16923442  0.00331546  0.83370125  1
  Sb  Sb65  1  0.66522716  0.00073559  -0.00300527  1
  Sb  Sb66  1  0.49515720  0.66391131  0.16436893  1
  Sb  Sb67  1  0.33512572  0.00104272  0.33817782  1
  Sb  Sb68  1  0.00084769  0.66565142  0.66715749  1
  Sb  Sb69  1  0.33365011  0.00326134  -0.00687946  1
  Sb  Sb70  1  0.16531597  0.33587308  0.49735167  1
  Sb  Sb71  1  0.49655604  0.00574759  0.16201531  1
  Sb  Sb72  1  0.82976432  0.16783358  0.66587024  1
  Sb  Sb73  1  0.16762650  0.66153895  0.83421770  1
  Sb  Sb74  1  0.83534668  0.00877244  0.16857924  1
  Sb  Sb75  1  0.66344036  0.49552741  0.49985012  1
  Sb  Sb76  1  0.00477745  0.49541407  0.50337904  1
  Sb  Sb77  1  0.50522182  0.00728890  0.50748501  1
  Sb  Sb78  1  0.66521167  0.33665217  0.00182111  1
  Sb  Sb79  1  0.49759287  0.33102860  0.16244216  1
  Sb  Sb80  1  0.83641791  0.49763616  0.33445524  1
  Sb  Sb81  1  0.16706468  0.82665956  0.33290428  1
  Sb  Sb82  1  0.66676795  0.49511296  0.16633177  1
  Sb  Sb83  1  0.17452174  0.17517086  -0.00187932  1
  Sb  Sb84  1  0.00158120  0.17090450  0.17279176  1
  Sb  Sb85  1  0.33440991  0.33786740  0.33313110  1
  Sb  Sb86  1  0.49576314  0.49532147  0.66923047  1
  Sb  Sb87  1  0.17022127  0.33572211  0.83683149  1
  Sb  Sb88  1  0.49563388  0.66284891  0.49959483  1
  Sb  Sb89  1  0.33255087  0.83154281  0.50694688  1
  Sb  Sb90  1  0.82747449  0.17447519  -0.00357026  1
  Sb  Sb91  1  0.66503242  0.33025405  0.66526805  1
  Sb  Sb92  1  0.50132626  0.33087303  0.50258961  1
  Sb  Sb93  1  0.66789934  0.83880371  0.50217530  1
  Sb  Sb94  1  0.33232342  0.83506581  0.16135598  1
  Sb  Sb95  1  0.17147261  0.82389435  0.00005498  1
  Sb  Sb96  1  0.16370288  0.00112662  0.49867880  1
  Sb  Sb97  1  0.66636775  0.83706806  0.16570034  1
  Sb  Sb98  1  0.00075752  0.82929030  0.83262661  1
  Sb  Sb99  1  0.50124114  0.66236796  0.83486728  1
  Sb  Sb100  1  0.00059337  0.83225177  0.16624844  1
  Sb  Sb101  1  0.82691635  0.17058616  0.33613030  1
  Sb  Sb102  1  0.83341968  0.83415562  0.33909707  1
  Sb  Sb103  1  0.50057872  0.83235007  0.32778178  1
  Sb  Sb104  1  0.82884142  0.82315035  -0.00919711  1
  Sb  Sb105  1  0.17037999  0.17204596  0.33683423  1
  Sb  Sb106  1  0.33017939  0.49514313  0.16213630  1
  Sb  Sb107  1  0.66221029  0.83684135  0.83222036  1
  Te  Te108  1  0.16987793  0.17091735  0.16663381  1
  Te  Te109  1  0.17298913  0.16654167  0.50403342  1
  Te  Te110  1  0.17082211  0.16786892  0.82676567  1
  Te  Te111  1  0.16599341  0.49764516  0.16785911  1
  Te  Te112  1  0.17069217  0.50149540  0.50186275  1
  Te  Te113  1  0.16763013  0.50001212  0.83133933  1
  Te  Te114  1  0.16677115  0.83629484  0.16579443  1
  Te  Te115  1  0.16653972  0.82194117  0.50051317  1
  Te  Te116  1  0.17631447  0.83371934  0.83400110  1
  Te  Te117  1  0.50048749  0.16678028  0.17512228  1
  Te  Te118  1  0.49917985  0.16797097  0.49384600  1
  Te  Te119  1  0.49948872  0.16994046  0.83201985  1
  Te  Te120  1  0.49971831  0.49866592  0.17008146  1
  Te  Te121  1  0.49239155  0.49777021  0.49253789  1
  Te  Te122  1  0.49656766  0.49359207  0.83582414  1
  Te  Te123  1  0.49974631  0.83627243  0.15399390  1
  Te  Te124  1  0.49947141  0.83489993  0.49868937  1
  Te  Te125  1  0.49503941  0.83330181  0.83813637  1
  Te  Te126  1  0.82833684  0.17467155  0.16460097  1
  Te  Te127  1  0.83361699  0.16873462  0.50060497  1
  Te  Te128  1  0.83311381  0.16469078  0.83300090  1
  Te  Te129  1  0.83347371  0.49221480  0.16033272  1
  Te  Te130  1  0.83314148  0.49410857  0.50559353  1
  Te  Te131  1  0.82935716  0.49875928  0.83222713  1
  Te  Te132  1  0.83286546  0.83471753  0.16448544  1
  Te  Te133  1  0.83323392  0.83660604  0.50860566  1
  Te  Te134  1  0.83317829  0.83923298  0.82731408  1
  Te  Te135  1  0.16429661  -0.00149630  0.00695718  1
  Te  Te136  1  0.16418911  -0.00035025  0.33070981  1
  Te  Te137  1  0.17314877  -0.00048757  0.66576115  1
  Te  Te138  1  0.16524723  0.33817798  0.00386034  1
  Te  Te139  1  0.16442678  0.33903065  0.32977538  1
  Te  Te140  1  0.17018835  0.33573147  0.66483207  1
  Te  Te141  1  0.16663691  0.66077448  0.00229286  1
  Te  Te142  1  0.16621606  0.66368412  0.33054195  1
  Te  Te143  1  0.16935696  0.66313148  0.66493583  1
  Te  Te144  1  0.49990819  0.00843953  -0.00627677  1
  Te  Te145  1  0.50594732  0.00026230  0.33351197  1
  Te  Te146  1  0.50014883  0.00311436  0.67205992  1
  Te  Te147  1  0.49847210  0.33392070  -0.00288719  1
  Te  Te148  1  0.50270707  0.33490858  0.33272683  1
  Te  Te149  1  0.49687470  0.32819438  0.67108229  1
  Te  Te150  1  0.49815422  0.66060395  -0.00004064  1
  Te  Te151  1  0.50370702  0.66391598  0.33183475  1
  Te  Te152  1  0.50154180  0.66783118  0.66710690  1
  Te  Te153  1  0.83506527  -0.00275903  -0.00322408  1
  Te  Te154  1  0.83333880  -0.00103766  0.33560629  1
  Te  Te155  1  0.83032109  0.00347134  0.66648349  1
  Te  Te156  1  0.83278077  0.33791978  -0.00300385  1
  Te  Te157  1  0.83521960  0.33570320  0.33324092  1
  Te  Te158  1  0.83349579  0.33804790  0.66764275  1
  Te  Te159  1  0.83361461  0.65982857  -0.00316645  1
  Te  Te160  1  0.83325381  0.66565984  0.33276544  1
  Te  Te161  1  0.83302669  0.66146388  0.66899303  1
  Te  Te162  1  0.00096530  0.17448841  -0.00014304  1
  Te  Te163  1  0.00243404  0.16845424  0.33915266  1
  Te  Te164  1  0.00421853  0.16321713  0.66222703  1
  Te  Te165  1  0.00209448  0.49850831  -0.00423710  1
  Te  Te166  1  0.00316962  0.49724257  0.33593874  1
  Te  Te167  1  0.00161774  0.49974076  0.67169937  1
  Te  Te168  1  -0.00050232  0.82611915  -0.00154685  1
  Te  Te169  1  -0.00090195  0.83566636  0.33392236  1
  Te  Te170  1  -0.00501505  0.84115918  0.66812801  1
  Te  Te171  1  0.33711791  0.17000321  0.00363772  1
  Te  Te172  1  0.33799893  0.16615064  0.32930361  1
  Te  Te173  1  0.33448287  0.17122037  0.66619375  1
  Te  Te174  1  0.33111347  0.49828240  -0.00009286  1
  Te  Te175  1  0.33240568  0.50148358  0.33104259  1
  Te  Te176  1  0.33459745  0.50033413  0.66763827  1
  Te  Te177  1  0.33810859  0.83224390  -0.00580466  1
  Te  Te178  1  0.33538327  0.82598218  0.33408110  1
  Te  Te179  1  0.33402346  0.82109585  0.67241676  1
  Te  Te180  1  0.66049437  0.16700583  -0.00468184  1
  Te  Te181  1  0.66563000  0.16928035  0.33601292  1
  Te  Te182  1  0.66297749  0.16536550  0.66473349  1
  Te  Te183  1  0.65897087  0.50444964  0.00088747  1
  Te  Te184  1  0.66619643  0.50044502  0.33363034  1
  Te  Te185  1  0.66590033  0.50418988  0.66614429  1
  Te  Te186  1  0.66053619  0.82579206  -0.00013980  1
  Te  Te187  1  0.66638393  0.82574258  0.33335625  1
  Te  Te188  1  0.67030827  0.82921280  0.66698726  1
  Te  Te189  1  0.00388829  0.00183351  0.17018804  1
  Te  Te190  1  -0.00264672  0.00398937  0.50046375  1
  Te  Te191  1  -0.00287967  0.00010512  0.82914023  1
  Te  Te192  1  -0.00050697  0.33230836  0.16868950  1
  Te  Te193  1  -0.00337968  0.32823158  0.49750151  1
  Te  Te194  1  -0.00592660  0.33776172  0.83621108  1
  Te  Te195  1  0.00406909  0.66670549  0.16924910  1
  Te  Te196  1  0.00359676  0.66633439  0.49516012  1
  Te  Te197  1  -0.00476175  0.66236801  0.83571860  1
  Te  Te198  1  0.32821569  0.00358930  0.16819001  1
  Te  Te199  1  0.33308639  0.00206315  0.50714490  1
  Te  Te200  1  0.33447078  0.00882046  0.82925632  1
  Te  Te201  1  0.33001174  0.32801879  0.16442858  1
  Te  Te202  1  0.33311502  0.33340088  0.50216878  1
  Te  Te203  1  0.33234726  0.33447665  0.83378411  1
  Te  Te204  1  0.32831049  0.66914943  0.16617638  1
  Te  Te205  1  0.33075898  0.66423865  0.49866957  1
  Te  Te206  1  0.33431146  0.66104392  0.83533829  1
  Te  Te207  1  0.66794139  0.00664251  0.17145467  1
  Te  Te208  1  0.67086886  0.00463287  0.50070372  1
  Te  Te209  1  0.66651703  0.00292327  0.83173811  1
  Te  Te210  1  0.66879319  0.32845772  0.17143228  1
  Te  Te211  1  0.67090982  0.32821838  0.49557310  1
  Te  Te212  1  0.66989977  0.32769398  0.83319793  1
  Te  Te213  1  0.66788230  0.66778885  0.16838788  1
  Te  Te214  1  0.66739532  0.66606448  0.50076895  1
  Te  Te215  1  0.67015603  0.66785369  0.83247100  1
