# generated using pymatgen
data_AgSbTe2
_symmetry_space_group_name_H-M   'P 1'
_cell_length_a   18.32002070
_cell_length_b   18.32344033
_cell_length_c   18.32139918
_cell_angle_alpha   90.00172313
_cell_angle_beta   90.00267968
_cell_angle_gamma   90.00284866
_symmetry_Int_Tables_number   1
_chemical_formula_structural   AgSbTe2
_chemical_formula_sum   'Ag54 Sb54 Te108'
_cell_volume   6150.23363627
_cell_formula_units_Z   54
loop_
 _symmetry_equiv_pos_site_id
 _symmetry_equiv_pos_as_xyz
  1  'x, y, z'
loop_
 _atom_site_type_symbol
 _atom_site_label
 _atom_site_symmetry_multiplicity
 _atom_site_fract_x
 _atom_site_fract_y
 _atom_site_fract_z
 _atom_site_occupancy
  Ag  Ag0  1  0.33010477  0.83272092  0.83772556  1
  Ag  Ag1  1  0.66273842  0.66559181  0.00431687  1
  Ag  Ag2  1  0.49806575  0.66398705  0.83421078  1
  Ag  Ag3  1  0.00568659  0.50437105  0.50082000  1
  Ag  Ag4  1  0.49934954  0.50046741  0.67184554  1
  Ag  Ag5  1  0.66085334  0.49956045  0.84060950  1
  Ag  Ag6  1  0.50440728  0.82894426  0.33136506  1
  Ag  Ag7  1  0.83524051  0.00177510  0.84128981  1
  Ag  Ag8  1  0.16765091  0.32862132  0.16214128  1
  Ag  Ag9  1  0.67045226  -0.01060067  0.33102986  1
  Ag  Ag10  1  0.49762612  0.82869652  0.00266999  1
  Ag  Ag11  1  0.15830019  -0.00504961  0.16336404  1
  Ag  Ag12  1  0.32617058  0.16155035  0.16962322  1
  Ag  Ag13  1  0.16911256  0.83341332  0.00084931  1
  Ag  Ag14  1  0.50083842  0.34372389  0.83245724  1
  Ag  Ag15  1  0.66705995  0.16095168  0.83450288  1
  Ag  Ag16  1  0.00384804  0.66633219  0.67361252  1
  Ag  Ag17  1  0.16915680  0.67393910  0.83836856  1
  Ag  Ag18  1  0.82863525  0.51089180  0.33144423  1
  Ag  Ag19  1  -0.00444272  -0.00242678  0.00620513  1
  Ag  Ag20  1  0.34305487  0.66679318  0.33137102  1
  Ag  Ag21  1  0.49629636  -0.00726099  0.50280099  1
  Ag  Ag22  1  0.00750655  0.84011616  0.16662153  1
  Ag  Ag23  1  -0.00373543  0.50536438  0.83500876  1
  Ag  Ag24  1  0.00698443  0.15290738  0.16383932  1
  Ag  Ag25  1  0.50231559  0.50945482  0.33291273  1
  Ag  Ag26  1  0.66776426  0.34180983  -0.00282474  1
  Ag  Ag27  1  0.49424161  0.16425414  0.66782834  1
  Ag  Ag28  1  0.16357685  -0.00753096  0.83230831  1
  Ag  Ag29  1  -0.00112567  0.67021841  0.32863071  1
  Ag  Ag30  1  0.66152039  0.83610567  0.49263533  1
  Ag  Ag31  1  0.32701392  0.83289752  0.16350044  1
  Ag  Ag32  1  -0.00216889  0.33517024  0.00107256  1
  Ag  Ag33  1  0.66115039  0.00038530  0.67135217  1
  Ag  Ag34  1  0.33546520  0.50041707  0.49699094  1
  Ag  Ag35  1  0.50530126  0.50945579  -0.00382985  1
  Ag  Ag36  1  0.33266558  0.00223696  0.66393123  1
  Ag  Ag37  1  0.83255372  0.16216535  0.67387965  1
  Ag  Ag38  1  0.17142561  -0.00122461  0.50970507  1
  Ag  Ag39  1  0.33750892  0.50787362  0.17164693  1
  Ag  Ag40  1  0.49889547  0.67021962  0.49214981  1
  Ag  Ag41  1  0.17486595  0.15617459  0.66860610  1
  Ag  Ag42  1  -0.00417358  -0.01109479  0.32005117  1
  Ag  Ag43  1  0.16511491  0.67425923  0.16135453  1
  Ag  Ag44  1  0.33512599  0.32482707  0.66703237  1
  Ag  Ag45  1  0.82649676  0.83068265  0.33060276  1
  Ag  Ag46  1  0.84440224  -0.00005365  0.16013167  1
  Ag  Ag47  1  0.16754957  0.83857263  0.67575218  1
  Ag  Ag48  1  0.65962675  0.67111974  0.32727354  1
  Ag  Ag49  1  0.83338271  0.16033648  -0.00334183  1
  Ag  Ag50  1  0.33304457  0.16305782  0.50698581  1
  Ag  Ag51  1  0.00088870  0.66968534  0.00247656  1
  Ag  Ag52  1  0.67289132  -0.00253569  -0.00120787  1
  Ag  Ag53  1  0.65977459  0.50400690  0.15937668  1
  Sb  Sb54  1  0.83795329  0.32998197  0.16359329  1
  Sb  Sb55  1  0.83711243  0.83814365  0.66351082  1
  Sb  Sb56  1  0.17177533  0.50177954  0.66814083  1
  Sb  Sb57  1  0.66663935  0.67056458  0.66726995  1
  Sb  Sb58  1  0.33774240  0.50584700  0.83338146  1
  Sb  Sb59  1  0.65996100  0.32761687  0.67423811  1
  Sb  Sb60  1  0.49505927  0.33762559  0.15976040  1
  Sb  Sb61  1  0.49991942  0.16331534  0.33851960  1
  Sb  Sb62  1  0.49822743  0.33604050  0.50625120  1
  Sb  Sb63  1  0.00380872  -0.00407428  0.66957373  1
  Sb  Sb64  1  0.66048965  0.50573741  0.49809967  1
  Sb  Sb65  1  0.49888106  -0.00148784  0.16846978  1
  Sb  Sb66  1  0.50438325  0.16448984  -0.00506903  1
  Sb  Sb67  1  0.17000940  0.33320413  0.83709841  1
  Sb  Sb68  1  0.83072513  0.66702277  0.49646652  1
  Sb  Sb69  1  0.82857725  0.49896745  0.00409052  1
  Sb  Sb70  1  0.66179493  0.83427897  0.83472381  1
  Sb  Sb71  1  -0.00350439  0.16674898  0.83833972  1
  Sb  Sb72  1  0.33256845  -0.00291922  -0.00181209  1
  Sb  Sb73  1  0.83419207  0.33424076  0.50037358  1
  Sb  Sb74  1  0.66518681  0.33908698  0.32516976  1
  Sb  Sb75  1  0.83774855  0.67277231  0.16831637  1
  Sb  Sb76  1  0.33417694  0.33461336  -0.00230498  1
  Sb  Sb77  1  0.66686413  0.16626443  0.16043945  1
  Sb  Sb78  1  0.33189705  0.66957720  0.66441581  1
  Sb  Sb79  1  0.00701248  0.83051841  0.84146996  1
  Sb  Sb80  1  0.16952978  0.67164764  0.49935994  1
  Sb  Sb81  1  0.83438000  0.83835268  0.00543103  1
  Sb  Sb82  1  -0.00043492  0.83077592  0.49376578  1
  Sb  Sb83  1  0.82788822  0.32919790  0.83620446  1
  Sb  Sb84  1  0.66022726  0.15747311  0.50851667  1
  Sb  Sb85  1  0.49577248  0.83386380  0.66650484  1
  Sb  Sb86  1  0.00089714  0.33657988  0.32710206  1
  Sb  Sb87  1  0.33576806  0.83386952  0.49829002  1
  Sb  Sb88  1  0.16209429  0.15835358  -0.00120623  1
  Sb  Sb89  1  0.00490754  0.16631756  0.49743634  1
  Sb  Sb90  1  0.00056054  0.50429759  0.16551492  1
  Sb  Sb91  1  0.82988407  0.49719544  0.66568860  1
  Sb  Sb92  1  0.49411962  0.66649650  0.16759248  1
  Sb  Sb93  1  0.83386502  0.67186463  0.83546272  1
  Sb  Sb94  1  0.16866099  0.50385411  0.33144488  1
  Sb  Sb95  1  0.33647491  0.16147252  0.83097174  1
  Sb  Sb96  1  0.49975647  -0.00342842  0.82965597  1
  Sb  Sb97  1  0.83288122  0.16022628  0.33081832  1
  Sb  Sb98  1  0.16919677  0.32965344  0.49782076  1
  Sb  Sb99  1  0.66468307  0.82977522  0.16942470  1
  Sb  Sb100  1  0.33388351  -0.00560183  0.33546750  1
  Sb  Sb101  1  0.33503148  0.33876601  0.33411099  1
  Sb  Sb102  1  0.16889971  0.50712441  0.00136903  1
  Sb  Sb103  1  0.00465293  0.33631408  0.67296790  1
  Sb  Sb104  1  0.16744307  0.16161795  0.33146352  1
  Sb  Sb105  1  0.33553881  0.66837536  0.00518691  1
  Sb  Sb106  1  0.83296930  -0.00048976  0.49914543  1
  Sb  Sb107  1  0.16770476  0.83329203  0.32743192  1
  Te  Te108  1  0.16672858  0.16192750  0.16504543  1
  Te  Te109  1  0.17219856  0.16232149  0.50410812  1
  Te  Te110  1  0.16692212  0.16435364  0.82917268  1
  Te  Te111  1  0.17228170  0.50446486  0.16566940  1
  Te  Te112  1  0.16947259  0.50002328  0.50013587  1
  Te  Te113  1  0.16397934  0.50401495  0.83378818  1
  Te  Te114  1  0.16761900  0.83409543  0.16532952  1
  Te  Te115  1  0.16769492  0.83934740  0.50500790  1
  Te  Te116  1  0.16791003  0.83240707  0.83608797  1
  Te  Te117  1  0.49329296  0.16857950  0.16840714  1
  Te  Te118  1  0.49351751  0.16476400  0.50574685  1
  Te  Te119  1  0.50417698  0.16616805  0.82816611  1
  Te  Te120  1  0.49932075  0.50015757  0.16590727  1
  Te  Te121  1  0.49682531  0.50274799  0.49981695  1
  Te  Te122  1  0.49934112  0.50353673  0.83453876  1
  Te  Te123  1  0.49398459  0.83324474  0.16542560  1
  Te  Te124  1  0.50105283  0.83251046  0.49928454  1
  Te  Te125  1  0.49476648  0.82816656  0.83685313  1
  Te  Te126  1  0.83545412  0.16165702  0.16335098  1
  Te  Te127  1  0.83394986  0.16737655  0.50500787  1
  Te  Te128  1  0.83016027  0.16322263  0.83446824  1
  Te  Te129  1  0.82890971  0.49845416  0.17153546  1
  Te  Te130  1  0.83616535  0.49952633  0.49597868  1
  Te  Te131  1  0.83289787  0.50101155  0.83241462  1
  Te  Te132  1  0.83817997  0.83940174  0.17195391  1
  Te  Te133  1  0.82701782  0.83371212  0.49258376  1
  Te  Te134  1  0.83364461  0.84138590  0.83192897  1
  Te  Te135  1  0.16571100  -0.00564721  -0.00097993  1
  Te  Te136  1  0.16283536  -0.00101822  0.32853987  1
  Te  Te137  1  0.16600679  -0.00095715  0.66923238  1
  Te  Te138  1  0.16366462  0.33386054  0.00283777  1
  Te  Te139  1  0.16685218  0.33238081  0.32414545  1
  Te  Te140  1  0.17296320  0.32997736  0.66749022  1
  Te  Te141  1  0.16496763  0.67157780  -0.00095036  1
  Te  Te142  1  0.16032030  0.66774433  0.33125128  1
  Te  Te143  1  0.16310299  0.66876803  0.66863426  1
  Te  Te144  1  0.50477152  -0.00444776  -0.00101719  1
  Te  Te145  1  0.50408111  -0.00409436  0.33897446  1
  Te  Te146  1  0.50031433  -0.00021352  0.66324573  1
  Te  Te147  1  0.50377154  0.33283459  -0.00699995  1
  Te  Te148  1  0.50116269  0.34075971  0.33324712  1
  Te  Te149  1  0.49580892  0.33366071  0.67142321  1
  Te  Te150  1  0.50189631  0.66812409  -0.00099407  1
  Te  Te151  1  0.50218368  0.66697126  0.33246175  1
  Te  Te152  1  0.50067423  0.66465339  0.67070392  1
  Te  Te153  1  0.83335855  -0.00051495  0.00047973  1
  Te  Te154  1  0.83228732  -0.00282169  0.33194895  1
  Te  Te155  1  0.83280732  0.00302805  0.66867749  1
  Te  Te156  1  0.83362299  0.32665539  0.00010063  1
  Te  Te157  1  0.83257376  0.33886891  0.33248613  1
  Te  Te158  1  0.83393548  0.32459881  0.66768223  1
  Te  Te159  1  0.83425170  0.66763875  0.00072737  1
  Te  Te160  1  0.83451691  0.66896954  0.33313471  1
  Te  Te161  1  0.84168767  0.66647507  0.66621171  1
  Te  Te162  1  -0.00322229  0.16390312  0.00327692  1
  Te  Te163  1  -0.00113005  0.16582608  0.32705094  1
  Te  Te164  1  -0.00020460  0.16869213  0.66634996  1
  Te  Te165  1  -0.00114613  0.50296572  -0.00293613  1
  Te  Te166  1  -0.00229361  0.50307824  0.33507965  1
  Te  Te167  1  -0.00096318  0.50309540  0.66705512  1
  Te  Te168  1  0.00052728  0.83232718  0.00505910  1
  Te  Te169  1  0.00026380  0.83240374  0.33001119  1
  Te  Te170  1  0.00443332  0.82742411  0.66340717  1
  Te  Te171  1  0.33434058  0.16657948  0.00641306  1
  Te  Te172  1  0.33485580  0.16738944  0.33197276  1
  Te  Te173  1  0.33375951  0.16342793  0.66836758  1
  Te  Te174  1  0.34139434  0.49929689  0.00578722  1
  Te  Te175  1  0.33608351  0.50422347  0.33310444  1
  Te  Te176  1  0.33875665  0.50068819  0.66454076  1
  Te  Te177  1  0.33433029  0.83319122  0.00127765  1
  Te  Te178  1  0.33803166  0.82808612  0.32961224  1
  Te  Te179  1  0.32833520  0.83776508  0.66834087  1
  Te  Te180  1  0.66975375  0.16060973  -0.00392673  1
  Te  Te181  1  0.66649226  0.16434304  0.33391928  1
  Te  Te182  1  0.66516298  0.16160369  0.67265973  1
  Te  Te183  1  0.66618815  0.50307119  -0.00018714  1
  Te  Te184  1  0.66518751  0.50427122  0.33277765  1
  Te  Te185  1  0.66168896  0.49953049  0.66940333  1
  Te  Te186  1  0.66358080  0.83136393  0.00180827  1
  Te  Te187  1  0.66472685  0.83225399  0.33077049  1
  Te  Te188  1  0.66814338  0.83938466  0.66284152  1
  Te  Te189  1  -0.00000552  -0.00248547  0.16447734  1
  Te  Te190  1  0.00621570  0.00046868  0.49720278  1
  Te  Te191  1  0.00105342  -0.00013922  0.83792477  1
  Te  Te192  1  0.00578208  0.33526988  0.16038954  1
  Te  Te193  1  0.00216756  0.34125073  0.49948694  1
  Te  Te194  1  0.00106860  0.33945907  0.84041780  1
  Te  Te195  1  0.00408006  0.66808946  0.16480993  1
  Te  Te196  1  0.00138449  0.66333849  0.49353094  1
  Te  Te197  1  0.00048928  0.66571211  0.83709844  1
  Te  Te198  1  0.33141448  -0.00141385  0.16744040  1
  Te  Te199  1  0.33323396  0.00097671  0.50110403  1
  Te  Te200  1  0.32907209  -0.00521812  0.82960246  1
  Te  Te201  1  0.32795035  0.33249514  0.16584937  1
  Te  Te202  1  0.33263335  0.33354226  0.50448842  1
  Te  Te203  1  0.33812362  0.33375444  0.82900615  1
  Te  Te204  1  0.32734825  0.66750087  0.17104816  1
  Te  Te205  1  0.33704375  0.66319712  0.49539093  1
  Te  Te206  1  0.33163114  0.67182080  0.83225029  1
  Te  Te207  1  0.66661516  -0.00002706  0.16605378  1
  Te  Te208  1  0.66515879  -0.00356605  0.49805497  1
  Te  Te209  1  0.66690274  -0.00000724  0.83433734  1
  Te  Te210  1  0.66623389  0.33695530  0.15723293  1
  Te  Te211  1  0.66694655  0.33131354  0.49924892  1
  Te  Te212  1  0.66223924  0.33752684  0.83813151  1
  Te  Te213  1  0.67069159  0.66383802  0.16641109  1
  Te  Te214  1  0.66043871  0.67234012  0.49863123  1
  Te  Te215  1  0.66492137  0.66527825  0.83558775  1
