# generated using pymatgen
data_AgSbTe2
_symmetry_space_group_name_H-M   'P 1'
_cell_length_a   18.33369203
_cell_length_b   18.33896895
_cell_length_c   18.34024077
_cell_angle_alpha   89.99966066
_cell_angle_beta   90.00025968
_cell_angle_gamma   89.99864171
_symmetry_Int_Tables_number   1
_chemical_formula_structural   AgSbTe2
_chemical_formula_sum   'Ag54 Sb54 Te108'
_cell_volume   6166.37425133
_cell_formula_units_Z   54
loop_
 _symmetry_equiv_pos_site_id
 _symmetry_equiv_pos_as_xyz
  1  'x, y, z'
loop_
 _atom_site_type_symbol
 _atom_site_label
 _atom_site_symmetry_multiplicity
 _atom_site_fract_x
 _atom_site_fract_y
 _atom_site_fract_z
 _atom_site_occupancy
  Ag  Ag0  1  0.15693829  0.16803566  0.66864183  1
  Ag  Ag1  1  -0.01291959  0.83126492  0.17460914  1
  Ag  Ag2  1  0.83093475  0.67490892  0.17410918  1
  Ag  Ag3  1  0.17703063  0.67025778  0.83664573  1
  Ag  Ag4  1  0.17522195  0.50671170  0.33696731  1
  Ag  Ag5  1  0.00661365  0.50004180  0.82958279  1
  Ag  Ag6  1  0.67827777  0.83199747  0.49078413  1
  Ag  Ag7  1  0.32972087  0.51192017  0.83241221  1
  Ag  Ag8  1  0.67098345  -0.00969905  0.32219948  1
  Ag  Ag9  1  0.50252204  0.33652862  0.16424990  1
  Ag  Ag10  1  0.33610307  0.66689602  -0.01060126  1
  Ag  Ag11  1  0.49787405  0.50367758  0.00817930  1
  Ag  Ag12  1  -0.00791809  -0.01027254  0.33708817  1
  Ag  Ag13  1  0.33388300  0.82499531  0.50370117  1
  Ag  Ag14  1  0.50930688  -0.00427333  0.16510728  1
  Ag  Ag15  1  0.83361472  0.33293463  0.50276447  1
  Ag  Ag16  1  0.82059411  -0.01372679  0.17221331  1
  Ag  Ag17  1  0.17757571  0.66763821  0.16677901  1
  Ag  Ag18  1  0.83895120  0.16053622  0.66735350  1
  Ag  Ag19  1  0.66688233  0.00163861  0.01014729  1
  Ag  Ag20  1  0.49597594  0.66759383  0.17233659  1
  Ag  Ag21  1  0.16351336  0.82973648  -0.00191242  1
  Ag  Ag22  1  0.66862184  0.32332473  0.00392578  1
  Ag  Ag23  1  0.16316113  0.50134237  0.66825022  1
  Ag  Ag24  1  0.33876403  0.50756024  0.16895054  1
  Ag  Ag25  1  0.83326620  0.83292983  0.33406518  1
  Ag  Ag26  1  0.84160687  0.50523880  0.66448681  1
  Ag  Ag27  1  0.83386368  0.83402520  0.64846994  1
  Ag  Ag28  1  0.16850264  -0.00906895  0.83198215  1
  Ag  Ag29  1  0.50648853  0.16667770  0.00611140  1
  Ag  Ag30  1  -0.00408095  0.67163907  0.33187590  1
  Ag  Ag31  1  0.50121939  0.16499538  0.32330764  1
  Ag  Ag32  1  0.67233969  0.84025038  0.17228347  1
  Ag  Ag33  1  0.83449421  -0.00976427  0.49304745  1
  Ag  Ag34  1  0.49043101  0.67072091  0.83596422  1
  Ag  Ag35  1  0.82525567  0.15879852  -0.00040837  1
  Ag  Ag36  1  -0.00529511  0.33223537  -0.00572255  1
  Ag  Ag37  1  0.49627361  -0.00695647  0.83972268  1
  Ag  Ag38  1  0.66534518  0.67204152  0.33197919  1
  Ag  Ag39  1  0.33656719  0.16369896  0.50096757  1
  Ag  Ag40  1  0.82966711  0.67718997  0.49491210  1
  Ag  Ag41  1  0.83531441  0.83707100  0.01958100  1
  Ag  Ag42  1  0.33451288  0.82410227  0.83026967  1
  Ag  Ag43  1  0.66404005  0.15357507  0.16459521  1
  Ag  Ag44  1  0.49535000  0.51115489  0.32595595  1
  Ag  Ag45  1  0.00016538  0.16714861  0.82791277  1
  Ag  Ag46  1  0.49313290  0.66931162  0.49228992  1
  Ag  Ag47  1  -0.00257471  0.32783909  0.66987320  1
  Ag  Ag48  1  0.33367608  0.66754006  0.67625641  1
  Ag  Ag49  1  -0.00269444  0.00142737  0.66568349  1
  Ag  Ag50  1  0.33810067  0.66548471  0.33403176  1
  Ag  Ag51  1  0.50101516  0.83020136  0.66579449  1
  Ag  Ag52  1  -0.00933223  0.83315148  0.49434819  1
  Ag  Ag53  1  0.33397508  0.50946715  0.49672869  1
  Sb  Sb54  1  0.66006168  0.50494786  0.16695919  1
  Sb  Sb55  1  0.16539278  0.16097843  -0.00468406  1
  Sb  Sb56  1  0.16669822  0.82999883  0.66957201  1
  Sb  Sb57  1  0.83231852  0.51006236  0.33756689  1
  Sb  Sb58  1  0.32854961  0.34036231  0.66511288  1
  Sb  Sb59  1  0.67405328  0.33261708  0.66915049  1
  Sb  Sb60  1  0.50745302  0.82886217  0.33661126  1
  Sb  Sb61  1  0.66541427  0.33282740  0.32852273  1
  Sb  Sb62  1  0.50128008  0.83204746  -0.00157361  1
  Sb  Sb63  1  0.82840418  0.33356910  0.16822097  1
  Sb  Sb64  1  0.66545381  0.15989704  0.49444455  1
  Sb  Sb65  1  0.00441510  0.50762647  0.16369257  1
  Sb  Sb66  1  0.33685277  -0.00829217  0.33414447  1
  Sb  Sb67  1  0.34301477  0.17061412  0.17012876  1
  Sb  Sb68  1  0.67072583  0.16386805  0.84060225  1
  Sb  Sb69  1  0.17158847  0.66649932  0.49827339  1
  Sb  Sb70  1  -0.00305741  0.33591585  0.33524528  1
  Sb  Sb71  1  -0.00101942  0.16132118  0.50584401  1
  Sb  Sb72  1  0.32879934  -0.00671679  0.66644726  1
  Sb  Sb73  1  0.83693989  0.33257042  0.83042574  1
  Sb  Sb74  1  0.66483724  0.50866032  0.49898827  1
  Sb  Sb75  1  0.00164369  0.50631217  0.50345177  1
  Sb  Sb76  1  0.00301829  0.66896804  0.66234143  1
  Sb  Sb77  1  0.66362471  0.66960535  0.66126370  1
  Sb  Sb78  1  0.66352087  0.50218194  0.83427592  1
  Sb  Sb79  1  0.17227609  0.16793317  0.33792162  1
  Sb  Sb80  1  -0.00689683  0.00024536  -0.00156921  1
  Sb  Sb81  1  0.50488298  -0.00912219  0.49741828  1
  Sb  Sb82  1  0.83408699  0.66918167  0.83143564  1
  Sb  Sb83  1  0.16120701  -0.00225125  0.50437918  1
  Sb  Sb84  1  0.83004021  0.50155095  -0.00297706  1
  Sb  Sb85  1  0.16384423  0.33809237  0.83376124  1
  Sb  Sb86  1  0.00278138  0.66623167  0.00332860  1
  Sb  Sb87  1  0.17031035  0.34058273  0.16495679  1
  Sb  Sb88  1  0.66125020  0.67157664  0.00842107  1
  Sb  Sb89  1  0.00319672  0.83342999  0.83209563  1
  Sb  Sb90  1  0.16446128  -0.00872789  0.16223401  1
  Sb  Sb91  1  0.33923918  -0.00624839  -0.00041224  1
  Sb  Sb92  1  0.33618879  0.34347728  0.33444700  1
  Sb  Sb93  1  0.49970288  0.33515375  0.83987098  1
  Sb  Sb94  1  0.83394321  -0.00133503  0.83393860  1
  Sb  Sb95  1  0.50114794  0.15924743  0.66790631  1
  Sb  Sb96  1  0.49583416  0.50825932  0.66592708  1
  Sb  Sb97  1  0.82966808  0.15733636  0.33298797  1
  Sb  Sb98  1  0.32947013  0.16539070  0.82949017  1
  Sb  Sb99  1  0.50347434  0.33778691  0.49558541  1
  Sb  Sb100  1  0.33556600  0.34012236  0.00095326  1
  Sb  Sb101  1  0.67292308  -0.00274717  0.66594615  1
  Sb  Sb102  1  0.66276767  0.83412037  0.83564788  1
  Sb  Sb103  1  0.16230396  0.33440036  0.50183892  1
  Sb  Sb104  1  0.16058046  0.82583578  0.32949271  1
  Sb  Sb105  1  -0.00678230  0.15976028  0.16213061  1
  Sb  Sb106  1  0.17140325  0.50725611  -0.00237556  1
  Sb  Sb107  1  0.33749974  0.82534068  0.16694411  1
  Te  Te108  1  0.16789986  0.16710804  0.16641892  1
  Te  Te109  1  0.17243378  0.16644089  0.50586331  1
  Te  Te110  1  0.16266908  0.16367816  0.82894027  1
  Te  Te111  1  0.17231627  0.50631974  0.16872788  1
  Te  Te112  1  0.17133876  0.49950432  0.50220094  1
  Te  Te113  1  0.16754264  0.50387718  0.83179782  1
  Te  Te114  1  0.16804680  0.82784519  0.15951668  1
  Te  Te115  1  0.17372928  0.83394602  0.50114585  1
  Te  Te116  1  0.16924916  0.83126042  0.83547299  1
  Te  Te117  1  0.50226535  0.16431037  0.16520818  1
  Te  Te118  1  0.49823215  0.16748043  0.50026981  1
  Te  Te119  1  0.49861396  0.16273270  0.83688979  1
  Te  Te120  1  0.49859168  0.50460503  0.16769551  1
  Te  Te121  1  0.49612536  0.50440546  0.49784725  1
  Te  Te122  1  0.49545541  0.50365912  0.83374819  1
  Te  Te123  1  0.50406212  0.83308724  0.16608432  1
  Te  Te124  1  0.49329286  0.82922465  0.50424834  1
  Te  Te125  1  0.49685866  0.83234980  0.83192639  1
  Te  Te126  1  0.82770041  0.16601238  0.16251802  1
  Te  Te127  1  0.83189374  0.16649027  0.50252984  1
  Te  Te128  1  0.83872062  0.16564662  0.83398885  1
  Te  Te129  1  0.83409751  0.50452115  0.16713806  1
  Te  Te130  1  0.83306665  0.50059220  0.50455709  1
  Te  Te131  1  0.83751648  0.50120769  0.82795019  1
  Te  Te132  1  0.83220888  0.83147507  0.17406244  1
  Te  Te133  1  0.83477075  0.83386542  0.49401094  1
  Te  Te134  1  0.83296734  0.83279414  0.82977094  1
  Te  Te135  1  0.16711958  -0.00645733  -0.00638518  1
  Te  Te136  1  0.16164672  0.00105979  0.33209755  1
  Te  Te137  1  0.16204547  0.00299402  0.67145341  1
  Te  Te138  1  0.15944394  0.33114398  0.00119594  1
  Te  Te139  1  0.16553051  0.34236775  0.33291850  1
  Te  Te140  1  0.15995961  0.33395235  0.66753374  1
  Te  Te141  1  0.16994977  0.66938251  0.00064010  1
  Te  Te142  1  0.16502859  0.66386036  0.33089545  1
  Te  Te143  1  0.17040755  0.66274184  0.66999923  1
  Te  Te144  1  0.50227857  -0.00013468  0.00157539  1
  Te  Te145  1  0.50362379  0.00325508  0.33070623  1
  Te  Te146  1  0.49990836  -0.00619275  0.66972833  1
  Te  Te147  1  0.50109529  0.33251165  0.00379753  1
  Te  Te148  1  0.50115004  0.32837337  0.32772082  1
  Te  Te149  1  0.50302559  0.33127500  0.66690889  1
  Te  Te150  1  0.49713895  0.66545452  0.00115503  1
  Te  Te151  1  0.50088630  0.66805164  0.33327686  1
  Te  Te152  1  0.49657170  0.67037564  0.66641414  1
  Te  Te153  1  0.82978752  -0.00100383  0.00100510  1
  Te  Te154  1  0.83241780  -0.00154200  0.33165729  1
  Te  Te155  1  0.83731953  -0.00170763  0.66735869  1
  Te  Te156  1  0.83304032  0.33299752  0.00138461  1
  Te  Te157  1  0.83281865  0.33518715  0.33943499  1
  Te  Te158  1  0.83776375  0.33230274  0.66433007  1
  Te  Te159  1  0.83189631  0.67114449  0.00195815  1
  Te  Te160  1  0.83334781  0.66883536  0.33418317  1
  Te  Te161  1  0.83292406  0.66970400  0.66341639  1
  Te  Te162  1  -0.00246054  0.16969251  -0.00499343  1
  Te  Te163  1  0.00252125  0.16567925  0.33270436  1
  Te  Te164  1  -0.00131808  0.16583892  0.66704543  1
  Te  Te165  1  -0.00041549  0.49466143  -0.00486724  1
  Te  Te166  1  0.00327255  0.50475526  0.33284253  1
  Te  Te167  1  0.00163803  0.50149708  0.66814771  1
  Te  Te168  1  -0.00350198  0.83364596  0.00095574  1
  Te  Te169  1  -0.00030128  0.83256574  0.33385506  1
  Te  Te170  1  -0.00283318  0.83680945  0.66405928  1
  Te  Te171  1  0.33690258  0.16833340  -0.00020182  1
  Te  Te172  1  0.33787285  0.16468059  0.33821611  1
  Te  Te173  1  0.33238296  0.16838991  0.66301924  1
  Te  Te174  1  0.33708279  0.50465589  -0.00002266  1
  Te  Te175  1  0.33522517  0.50376058  0.33469352  1
  Te  Te176  1  0.33071907  0.50451887  0.66553975  1
  Te  Te177  1  0.33126453  0.82798540  -0.00297953  1
  Te  Te178  1  0.32993541  0.82775185  0.33791810  1
  Te  Te179  1  0.33365234  0.82897586  0.66764155  1
  Te  Te180  1  0.66665493  0.16427844  0.00192787  1
  Te  Te181  1  0.66249388  0.16509045  0.32746557  1
  Te  Te182  1  0.67447346  0.16643144  0.66646237  1
  Te  Te183  1  0.66077759  0.49742017  -0.00080958  1
  Te  Te184  1  0.66025980  0.50387047  0.33418609  1
  Te  Te185  1  0.67649987  0.49895918  0.66708522  1
  Te  Te186  1  0.67177660  0.83797025  0.00288738  1
  Te  Te187  1  0.66701421  0.83238674  0.33287042  1
  Te  Te188  1  0.66870486  0.83325354  0.66364750  1
  Te  Te189  1  -0.00194822  -0.00630646  0.16929924  1
  Te  Te190  1  -0.00422710  -0.00403453  0.50016836  1
  Te  Te191  1  0.00371196  0.00149240  0.83035594  1
  Te  Te192  1  0.00020308  0.33280347  0.16435996  1
  Te  Te193  1  -0.00536279  0.33396358  0.50413667  1
  Te  Te194  1  0.00065649  0.33397211  0.83096045  1
  Te  Te195  1  -0.00275856  0.67093661  0.16933746  1
  Te  Te196  1  -0.00296463  0.67207002  0.49537566  1
  Te  Te197  1  0.00287957  0.66222702  0.83387068  1
  Te  Te198  1  0.33628715  0.00043578  0.16769285  1
  Te  Te199  1  0.33432793  0.00229929  0.49949051  1
  Te  Te200  1  0.33355843  -0.00220939  0.83293851  1
  Te  Te201  1  0.33991562  0.34183036  0.16679876  1
  Te  Te202  1  0.33431508  0.33127161  0.50081658  1
  Te  Te203  1  0.33220758  0.34068302  0.83301334  1
  Te  Te204  1  0.33526132  0.66511801  0.17300387  1
  Te  Te205  1  0.33253866  0.66556773  0.49496034  1
  Te  Te206  1  0.33363842  0.66755829  0.83290972  1
  Te  Te207  1  0.66559667  -0.00136378  0.16660044  1
  Te  Te208  1  0.67244835  -0.00645418  0.49778032  1
  Te  Te209  1  0.65766042  0.00013166  0.83611605  1
  Te  Te210  1  0.66207138  0.33319166  0.16233045  1
  Te  Te211  1  0.67237307  0.33240336  0.49986494  1
  Te  Te212  1  0.66647537  0.33348843  0.84314877  1
  Te  Te213  1  0.66658541  0.67061546  0.17098755  1
  Te  Te214  1  0.66687976  0.67258248  0.49549761  1
  Te  Te215  1  0.65837581  0.66661436  0.83439572  1
