# generated using pymatgen
data_AgSbTe2
_symmetry_space_group_name_H-M   'P 1'
_cell_length_a   18.32052873
_cell_length_b   18.31891704
_cell_length_c   18.32400446
_cell_angle_alpha   89.99680016
_cell_angle_beta   90.00427702
_cell_angle_gamma   89.99758677
_symmetry_Int_Tables_number   1
_chemical_formula_structural   AgSbTe2
_chemical_formula_sum   'Ag54 Sb54 Te108'
_cell_volume   6149.76025836
_cell_formula_units_Z   54
loop_
 _symmetry_equiv_pos_site_id
 _symmetry_equiv_pos_as_xyz
  1  'x, y, z'
loop_
 _atom_site_type_symbol
 _atom_site_label
 _atom_site_symmetry_multiplicity
 _atom_site_fract_x
 _atom_site_fract_y
 _atom_site_fract_z
 _atom_site_occupancy
  Ag  Ag0  1  0.17641873  0.17293154  0.33396728  1
  Ag  Ag1  1  0.66402142  0.49709899  0.83621235  1
  Ag  Ag2  1  0.49890095  0.66833876  0.50253000  1
  Ag  Ag3  1  0.82738892  0.33662233  0.83503815  1
  Ag  Ag4  1  0.33873119  0.17003263  0.17152507  1
  Ag  Ag5  1  0.50271730  0.66074446  0.82721357  1
  Ag  Ag6  1  0.33298582  0.33061657  0.32826254  1
  Ag  Ag7  1  0.83274280  0.82989434  0.66207538  1
  Ag  Ag8  1  0.33748722  0.17149758  0.49042129  1
  Ag  Ag9  1  -0.00164460  -0.00527293  0.66284504  1
  Ag  Ag10  1  0.16751746  0.66524771  0.49396103  1
  Ag  Ag11  1  -0.00420806  0.83305591  0.50092796  1
  Ag  Ag12  1  0.82619357  0.33264964  0.16424637  1
  Ag  Ag13  1  0.15874677  0.66329413  0.16865007  1
  Ag  Ag14  1  0.49861935  0.83488251  0.34019234  1
  Ag  Ag15  1  0.50674612  0.33352997  0.16526351  1
  Ag  Ag16  1  0.16698134  0.50010232  0.33248106  1
  Ag  Ag17  1  0.00206186  0.66601105  0.32067605  1
  Ag  Ag18  1  0.33612071  0.49774737  0.83273155  1
  Ag  Ag19  1  -0.00171184  0.66446702  0.00749973  1
  Ag  Ag20  1  0.16854835  -0.00675823  0.50006015  1
  Ag  Ag21  1  0.33715822  0.49583952  0.50485877  1
  Ag  Ag22  1  0.33304326  0.00775948  0.00248679  1
  Ag  Ag23  1  0.84612516  0.66090952  0.16524481  1
  Ag  Ag24  1  0.66926393  0.17791740  0.16360691  1
  Ag  Ag25  1  0.50578502  0.50008814  0.67164640  1
  Ag  Ag26  1  0.16318743  0.34004804  0.83505117  1
  Ag  Ag27  1  -0.00442192  0.50827642  0.15972559  1
  Ag  Ag28  1  0.16871624  0.50275425  -0.00235433  1
  Ag  Ag29  1  0.66627921  0.33736356  -0.00106853  1
  Ag  Ag30  1  0.82936275  0.16963549  0.01103395  1
  Ag  Ag31  1  0.16415781  0.82163936  0.00439008  1
  Ag  Ag32  1  0.83034151  0.16880208  0.32891856  1
  Ag  Ag33  1  0.82970900  0.33199442  0.49913309  1
  Ag  Ag34  1  0.82569216  0.49913577  0.66740478  1
  Ag  Ag35  1  0.16675071  0.49979825  0.67113818  1
  Ag  Ag36  1  0.00369563  0.50355587  0.83752756  1
  Ag  Ag37  1  0.66777302  0.33629261  0.67460750  1
  Ag  Ag38  1  0.00171714  0.82113575  0.16709774  1
  Ag  Ag39  1  0.67007467  0.65512348  0.00273852  1
  Ag  Ag40  1  0.32830752  0.83582171  0.16505197  1
  Ag  Ag41  1  0.67130542  0.49569456  0.15591511  1
  Ag  Ag42  1  0.66636589  0.17937761  0.83888653  1
  Ag  Ag43  1  0.50540688  0.82723425  0.65721943  1
  Ag  Ag44  1  0.50197684  0.17130620  0.65908907  1
  Ag  Ag45  1  0.33953930  0.33515529  0.00536544  1
  Ag  Ag46  1  0.50386568  0.49974573  -0.00729546  1
  Ag  Ag47  1  0.66145510  0.50120192  0.50577274  1
  Ag  Ag48  1  0.83318154  0.00010450  0.49913219  1
  Ag  Ag49  1  0.49575301  0.16743223  0.33643912  1
  Ag  Ag50  1  0.50021837  -0.00604958  0.50050602  1
  Ag  Ag51  1  0.66402519  0.82837706  0.50289471  1
  Ag  Ag52  1  0.83444941  0.00755053  0.17099118  1
  Ag  Ag53  1  -0.00047486  0.82376999  0.83360847  1
  Sb  Sb54  1  0.33025531  0.82683913  0.83884117  1
  Sb  Sb55  1  0.49607478  0.49744204  0.33546873  1
  Sb  Sb56  1  0.83714341  0.83413510  -0.00179693  1
  Sb  Sb57  1  0.66489046  0.65729956  0.66873990  1
  Sb  Sb58  1  0.33994062  0.33737769  0.66712786  1
  Sb  Sb59  1  0.16517319  0.33836025  0.50243273  1
  Sb  Sb60  1  0.66858136  0.83055058  0.16961286  1
  Sb  Sb61  1  0.50516880  0.34148312  0.83786013  1
  Sb  Sb62  1  0.16736447  0.65917407  0.83548050  1
  Sb  Sb63  1  0.00049358  0.50616960  0.50114527  1
  Sb  Sb64  1  -0.00043466  0.66819950  0.66785494  1
  Sb  Sb65  1  0.16934357  0.83010003  0.33066622  1
  Sb  Sb66  1  0.66887453  0.00390535  0.66394500  1
  Sb  Sb67  1  0.83719943  0.49624115  0.33285901  1
  Sb  Sb68  1  0.16596630  0.33928580  0.16396262  1
  Sb  Sb69  1  0.83390743  0.00347276  0.83111609  1
  Sb  Sb70  1  0.50347756  0.33517247  0.49728861  1
  Sb  Sb71  1  0.83058100  0.49528937  -0.00075125  1
  Sb  Sb72  1  0.32941668  0.66096032  0.33405819  1
  Sb  Sb73  1  0.67067078  0.82748428  0.82698938  1
  Sb  Sb74  1  0.33965460  0.17595490  0.83546416  1
  Sb  Sb75  1  0.00131029  0.16084097  0.49917002  1
  Sb  Sb76  1  0.49559112  0.82658387  0.00080705  1
  Sb  Sb77  1  0.66981358  0.66451673  0.33008882  1
  Sb  Sb78  1  0.83214951  0.83611050  0.33675715  1
  Sb  Sb79  1  0.16391499  -0.00297041  0.17112481  1
  Sb  Sb80  1  -0.00508859  0.17122542  0.83369781  1
  Sb  Sb81  1  0.50153555  0.00521034  0.17111376  1
  Sb  Sb82  1  0.49943623  -0.00449612  0.82843193  1
  Sb  Sb83  1  0.17227332  0.17224065  0.66152566  1
  Sb  Sb84  1  0.83280406  0.66681292  0.49722657  1
  Sb  Sb85  1  0.66628967  0.00147231  0.33497591  1
  Sb  Sb86  1  0.33649248  0.83288590  0.49505221  1
  Sb  Sb87  1  0.82788474  0.16971895  0.66401146  1
  Sb  Sb88  1  -0.00006867  -0.00511831  0.33629263  1
  Sb  Sb89  1  0.33316038  0.00617488  0.33119433  1
  Sb  Sb90  1  -0.00594931  0.33392601  0.66716503  1
  Sb  Sb91  1  -0.00350720  0.34142959  0.00045723  1
  Sb  Sb92  1  0.33546307  0.66407764  0.66508237  1
  Sb  Sb93  1  0.66421856  0.33356685  0.32857842  1
  Sb  Sb94  1  0.33299060  0.49687201  0.16581460  1
  Sb  Sb95  1  -0.00326044  0.16881602  0.16789964  1
  Sb  Sb96  1  0.00304685  -0.00694163  -0.00129511  1
  Sb  Sb97  1  0.66350968  0.16975252  0.49749422  1
  Sb  Sb98  1  0.66353981  0.00344753  0.00195647  1
  Sb  Sb99  1  0.16567785  0.17076340  0.00425325  1
  Sb  Sb100  1  0.33104530  0.65902418  0.00179490  1
  Sb  Sb101  1  0.83108921  0.65856117  0.83806411  1
  Sb  Sb102  1  0.50296524  0.17423613  0.00194368  1
  Sb  Sb103  1  0.49869703  0.66208546  0.16859955  1
  Sb  Sb104  1  0.33192801  0.00091537  0.66589168  1
  Sb  Sb105  1  0.16577674  0.82800859  0.66737327  1
  Sb  Sb106  1  0.00223149  0.33803861  0.33269250  1
  Sb  Sb107  1  0.16568155  0.00197040  0.82984045  1
  Te  Te108  1  0.16850888  0.16639915  0.17258211  1
  Te  Te109  1  0.17073777  0.16808251  0.49656457  1
  Te  Te110  1  0.16723505  0.17428276  0.83220210  1
  Te  Te111  1  0.16560935  0.50307861  0.16545383  1
  Te  Te112  1  0.16738958  0.50266715  0.49954583  1
  Te  Te113  1  0.16599298  0.50035518  0.83410417  1
  Te  Te114  1  0.16498255  0.83195962  0.16468458  1
  Te  Te115  1  0.16775136  0.83211282  0.49979070  1
  Te  Te116  1  0.16132530  0.83298809  0.83723287  1
  Te  Te117  1  0.50007969  0.16922658  0.16843803  1
  Te  Te118  1  0.49899373  0.16831597  0.49795679  1
  Te  Te119  1  0.50583712  0.16417326  0.83033593  1
  Te  Te120  1  0.50305315  0.49589476  0.16628220  1
  Te  Te121  1  0.49907370  0.50165768  0.50095377  1
  Te  Te122  1  0.50156760  0.50147721  0.83251470  1
  Te  Te123  1  0.49855208  0.83558717  0.16974013  1
  Te  Te124  1  0.49797245  0.83186637  0.50050353  1
  Te  Te125  1  0.50040061  0.82529048  0.82922501  1
  Te  Te126  1  0.83362255  0.16834448  0.16892790  1
  Te  Te127  1  0.83233181  0.16489905  0.49665317  1
  Te  Te128  1  0.82819145  0.17211030  0.83207338  1
  Te  Te129  1  0.83255059  0.49927516  0.16726808  1
  Te  Te130  1  0.83203605  0.49855013  0.50279631  1
  Te  Te131  1  0.83119152  0.49687073  0.83013016  1
  Te  Te132  1  0.83561707  0.83291087  0.16727893  1
  Te  Te133  1  0.83264726  0.83509267  0.50187258  1
  Te  Te134  1  0.83910455  0.83450993  0.82665703  1
  Te  Te135  1  0.17143322  0.00147303  -0.00066620  1
  Te  Te136  1  0.16624988  0.00569838  0.34044528  1
  Te  Te137  1  0.16337304  0.00064086  0.66050650  1
  Te  Te138  1  0.16689504  0.33735368  -0.00361758  1
  Te  Te139  1  0.17002259  0.33447315  0.33420684  1
  Te  Te140  1  0.16542967  0.33951263  0.67128191  1
  Te  Te141  1  0.16481468  0.66396371  0.00117132  1
  Te  Te142  1  0.16400131  0.66380610  0.33326467  1
  Te  Te143  1  0.16708536  0.65979765  0.66010418  1
  Te  Te144  1  0.49421761  -0.00294433  -0.00111601  1
  Te  Te145  1  0.49974013  0.00151128  0.33925034  1
  Te  Te146  1  0.49975563  0.00006222  0.66105052  1
  Te  Te147  1  0.50119253  0.33799928  0.00428234  1
  Te  Te148  1  0.49455676  0.32965623  0.32812727  1
  Te  Te149  1  0.50651910  0.33624457  0.66554775  1
  Te  Te150  1  0.50275001  0.66038790  0.00009605  1
  Te  Te151  1  0.49987361  0.66952796  0.33835353  1
  Te  Te152  1  0.50065901  0.66381971  0.66382219  1
  Te  Te153  1  0.83336775  0.00591919  0.00187492  1
  Te  Te154  1  0.83328069  0.00461488  0.33530819  1
  Te  Te155  1  0.83599045  -0.00177897  0.66287480  1
  Te  Te156  1  0.83069897  0.33002138  0.00063180  1
  Te  Te157  1  0.83440977  0.32909803  0.33335427  1
  Te  Te158  1  0.82852385  0.33639473  0.66710789  1
  Te  Te159  1  0.83382928  0.66868702  0.00505535  1
  Te  Te160  1  0.83893375  0.66698366  0.32634933  1
  Te  Te161  1  0.83202927  0.66723180  0.66665037  1
  Te  Te162  1  -0.00588750  0.16477672  -0.00099249  1
  Te  Te163  1  -0.00100205  0.16662558  0.33371784  1
  Te  Te164  1  0.00152690  0.15959116  0.66776305  1
  Te  Te165  1  0.00206248  0.50384341  -0.00048784  1
  Te  Te166  1  0.00570316  0.50529692  0.33145509  1
  Te  Te167  1  0.00039394  0.50024650  0.67079265  1
  Te  Te168  1  0.00334939  0.82870563  0.00147242  1
  Te  Te169  1  0.00080363  0.82800229  0.33326255  1
  Te  Te170  1  0.00062478  0.83425389  0.66436807  1
  Te  Te171  1  0.33359938  0.17156038  0.00413485  1
  Te  Te172  1  0.33512452  0.16910398  0.33256707  1
  Te  Te173  1  0.34119935  0.16869866  0.66365897  1
  Te  Te174  1  0.33235135  0.49515074  -0.00095016  1
  Te  Te175  1  0.32832478  0.49397480  0.33603366  1
  Te  Te176  1  0.33444617  0.49865211  0.66589006  1
  Te  Te177  1  0.32767227  0.83273343  0.00363369  1
  Te  Te178  1  0.33724190  0.83383448  0.32720780  1
  Te  Te179  1  0.33988445  0.83469345  0.66975407  1
  Te  Te180  1  0.66885591  0.16902554  0.00215717  1
  Te  Te181  1  0.66578361  0.16740913  0.32778203  1
  Te  Te182  1  0.66172593  0.17261726  0.66758521  1
  Te  Te183  1  0.66632428  0.49824794  -0.00107456  1
  Te  Te184  1  0.66657562  0.50000182  0.34038633  1
  Te  Te185  1  0.66696942  0.49724223  0.66584911  1
  Te  Te186  1  0.66651736  0.83145836  -0.00189654  1
  Te  Te187  1  0.66030941  0.83229488  0.33919464  1
  Te  Te188  1  0.66643796  0.83352554  0.66277667  1
  Te  Te189  1  -0.00519150  -0.00316489  0.16655391  1
  Te  Te190  1  -0.00278138  -0.00558527  0.50170269  1
  Te  Te191  1  0.00063916  -0.00452406  0.82846135  1
  Te  Te192  1  -0.00677312  0.33863716  0.16713029  1
  Te  Te193  1  -0.00982402  0.33330821  0.50035115  1
  Te  Te194  1  -0.00207482  0.33948917  0.83321528  1
  Te  Te195  1  0.00252892  0.66525611  0.16466285  1
  Te  Te196  1  0.00173435  0.67261811  0.50036098  1
  Te  Te197  1  -0.00051119  0.66484539  0.83716934  1
  Te  Te198  1  0.33311570  0.00127862  0.16252777  1
  Te  Te199  1  0.33392051  0.00341816  0.50042729  1
  Te  Te200  1  0.33222064  0.00143989  0.84040410  1
  Te  Te201  1  0.33125691  0.33107672  0.16602912  1
  Te  Te202  1  0.33298467  0.33439037  0.49904290  1
  Te  Te203  1  0.33029340  0.33894206  0.83702865  1
  Te  Te204  1  0.33014771  0.67262721  0.16751157  1
  Te  Te205  1  0.33296644  0.66182987  0.49875259  1
  Te  Te206  1  0.33958511  0.65832431  0.83376819  1
  Te  Te207  1  0.67350815  0.00190569  0.16626685  1
  Te  Te208  1  0.66653368  -0.00424804  0.50089126  1
  Te  Te209  1  0.66628746  0.00509014  0.83334183  1
  Te  Te210  1  0.66677676  0.33483175  0.16575048  1
  Te  Te211  1  0.67033874  0.33699284  0.50009152  1
  Te  Te212  1  0.66687825  0.33567824  0.83679412  1
  Te  Te213  1  0.66669834  0.66206981  0.16248510  1
  Te  Te214  1  0.66460132  0.66618207  0.49837108  1
  Te  Te215  1  0.66369514  0.66140844  0.84079403  1
