# generated using pymatgen
data_AgSbTe2
_symmetry_space_group_name_H-M   'P 1'
_cell_length_a   18.31419170
_cell_length_b   18.31570464
_cell_length_c   18.30881803
_cell_angle_alpha   90.00066095
_cell_angle_beta   89.99925750
_cell_angle_gamma   89.99955999
_symmetry_Int_Tables_number   1
_chemical_formula_structural   AgSbTe2
_chemical_formula_sum   'Ag54 Sb54 Te108'
_cell_volume   6141.46095857
_cell_formula_units_Z   54
loop_
 _symmetry_equiv_pos_site_id
 _symmetry_equiv_pos_as_xyz
  1  'x, y, z'
loop_
 _atom_site_type_symbol
 _atom_site_label
 _atom_site_symmetry_multiplicity
 _atom_site_fract_x
 _atom_site_fract_y
 _atom_site_fract_z
 _atom_site_occupancy
  Ag  Ag0  1  0.33387754  0.33839271  0.33683818  1
  Ag  Ag1  1  -0.00512527  -0.00197231  -0.00261924  1
  Ag  Ag2  1  0.16642289  0.16798206  0.33499303  1
  Ag  Ag3  1  0.83468714  0.17212024  0.33968237  1
  Ag  Ag4  1  0.83322384  0.00119742  0.50492875  1
  Ag  Ag5  1  0.66900665  0.33162957  0.33763900  1
  Ag  Ag6  1  0.83601135  0.34063523  0.82247078  1
  Ag  Ag7  1  0.67794541  0.32690541  0.66095804  1
  Ag  Ag8  1  0.83252342  0.50594391  -0.00050641  1
  Ag  Ag9  1  -0.00839630  0.84031209  0.50535703  1
  Ag  Ag10  1  0.33206083  0.65763091  0.33158244  1
  Ag  Ag11  1  0.00012139  0.49883960  0.16888115  1
  Ag  Ag12  1  0.16615816  0.66274754  0.83290346  1
  Ag  Ag13  1  0.82960852  0.83114863  -0.00562940  1
  Ag  Ag14  1  0.67518644  0.83520875  0.50002344  1
  Ag  Ag15  1  0.67412342  0.00570587  0.66399134  1
  Ag  Ag16  1  -0.00247480  0.83403619  0.82873664  1
  Ag  Ag17  1  0.66907292  0.00619703  0.33260078  1
  Ag  Ag18  1  0.66942403  0.49852298  0.17041150  1
  Ag  Ag19  1  0.17368601  0.49959020  0.33078973  1
  Ag  Ag20  1  0.16555503  0.34037226  0.82498872  1
  Ag  Ag21  1  0.33422035  -0.00081378  0.00060920  1
  Ag  Ag22  1  0.49239691  0.50231466  0.33115726  1
  Ag  Ag23  1  0.16812969  0.83229998  0.33105552  1
  Ag  Ag24  1  0.83667055  0.49509084  0.66614290  1
  Ag  Ag25  1  0.83138647  0.49490466  0.33398711  1
  Ag  Ag26  1  0.33033566  0.50651566  0.17180716  1
  Ag  Ag27  1  0.83028617  0.32676187  0.50423177  1
  Ag  Ag28  1  -0.00723860  0.00061565  0.66688645  1
  Ag  Ag29  1  0.83689319  0.66470548  0.82691481  1
  Ag  Ag30  1  0.66738329  0.16646409  0.17177542  1
  Ag  Ag31  1  0.33026079  0.83049411  0.16782578  1
  Ag  Ag32  1  0.33084341  0.32956193  0.66186510  1
  Ag  Ag33  1  0.00195407  0.16570549  0.17453774  1
  Ag  Ag34  1  0.66870115  -0.00552799  0.00049811  1
  Ag  Ag35  1  0.83294006  0.16577566  0.65910466  1
  Ag  Ag36  1  0.66964981  0.67505719  0.00192969  1
  Ag  Ag37  1  0.16905233  0.00046046  0.16836940  1
  Ag  Ag38  1  0.32994852  0.16424807  0.17424984  1
  Ag  Ag39  1  0.33212234  0.66079919  0.66200876  1
  Ag  Ag40  1  0.16837508  0.49577288  0.66764195  1
  Ag  Ag41  1  0.32684284  0.16647696  0.50083937  1
  Ag  Ag42  1  -0.00348668  0.16157694  0.49921984  1
  Ag  Ag43  1  0.50625736  0.83505663  0.00041650  1
  Ag  Ag44  1  0.83466358  0.83596644  0.66339120  1
  Ag  Ag45  1  0.33310773  0.00730006  0.66879408  1
  Ag  Ag46  1  0.83029017  0.67009863  0.50588234  1
  Ag  Ag47  1  0.49923806  -0.00103018  0.83136717  1
  Ag  Ag48  1  0.16983426  0.16947129  0.65991842  1
  Ag  Ag49  1  0.49217090  0.66487057  0.17260873  1
  Ag  Ag50  1  0.49846117  0.16365870  0.66420503  1
  Ag  Ag51  1  0.50108003  0.66804979  0.49546506  1
  Ag  Ag52  1  0.17368283  0.66584927  0.17079118  1
  Ag  Ag53  1  0.32862496  0.50098204  0.83011555  1
  Sb  Sb54  1  0.83123426  -0.00297259  0.82723918  1
  Sb  Sb55  1  0.49967203  0.33019314  0.82835055  1
  Sb  Sb56  1  0.00488226  0.83515808  0.16739534  1
  Sb  Sb57  1  0.33172002  0.16903181  0.82771718  1
  Sb  Sb58  1  -0.00413045  0.49983213  0.49760900  1
  Sb  Sb59  1  0.50370167  0.83828295  0.66936013  1
  Sb  Sb60  1  0.00136341  0.50396792  0.83540118  1
  Sb  Sb61  1  0.83312085  0.66320915  0.16750627  1
  Sb  Sb62  1  0.83257303  0.33407491  0.17123048  1
  Sb  Sb63  1  0.00036945  0.67115043  0.66626785  1
  Sb  Sb64  1  -0.00175900  0.32986650  -0.00044558  1
  Sb  Sb65  1  0.83600115  0.83316754  0.33749293  1
  Sb  Sb66  1  0.66317892  0.83304551  0.16749376  1
  Sb  Sb67  1  0.50408943  0.33440081  0.49980441  1
  Sb  Sb68  1  0.66853636  0.16524816  0.83093233  1
  Sb  Sb69  1  0.67324594  0.83412136  0.83192416  1
  Sb  Sb70  1  0.67001641  0.50299647  0.49475876  1
  Sb  Sb71  1  0.16393661  0.50139552  0.00188040  1
  Sb  Sb72  1  0.50025839  0.17110995  0.33696651  1
  Sb  Sb73  1  0.49908312  0.49713500  0.66229959  1
  Sb  Sb74  1  0.16566289  0.83390703  0.00417567  1
  Sb  Sb75  1  0.00510305  0.66576338  0.33306392  1
  Sb  Sb76  1  0.16897185  -0.00085977  0.83432183  1
  Sb  Sb77  1  0.50373746  0.50783303  0.00666770  1
  Sb  Sb78  1  -0.00170022  0.32738761  0.66594429  1
  Sb  Sb79  1  0.50566420  -0.00144194  0.50417297  1
  Sb  Sb80  1  0.32851858  0.83039224  0.83635400  1
  Sb  Sb81  1  0.33202292  0.32972771  0.00022479  1
  Sb  Sb82  1  0.66796465  0.66674797  0.66742635  1
  Sb  Sb83  1  0.33508121  0.00266417  0.33351450  1
  Sb  Sb84  1  0.49959871  0.15838786  -0.00218937  1
  Sb  Sb85  1  0.16843580  0.33415456  0.16858296  1
  Sb  Sb86  1  -0.00520403  0.67151051  -0.00000892  1
  Sb  Sb87  1  0.33632057  0.67021698  0.00501895  1
  Sb  Sb88  1  0.67023361  0.33190327  0.00193617  1
  Sb  Sb89  1  0.67219848  0.16141534  0.49767607  1
  Sb  Sb90  1  0.16161062  0.00250392  0.49683783  1
  Sb  Sb91  1  0.16413955  0.33069483  0.50251021  1
  Sb  Sb92  1  -0.00303290  0.00272732  0.33567366  1
  Sb  Sb93  1  0.16698650  0.66621289  0.49915818  1
  Sb  Sb94  1  0.66306838  0.66418128  0.33043142  1
  Sb  Sb95  1  -0.00080781  0.33192388  0.33468428  1
  Sb  Sb96  1  0.83515906  0.00151205  0.16955618  1
  Sb  Sb97  1  -0.00045898  0.16177702  0.82914504  1
  Sb  Sb98  1  0.33261385  0.49639896  0.49743871  1
  Sb  Sb99  1  0.16636180  0.16475734  0.00326401  1
  Sb  Sb100  1  0.49961368  0.33799811  0.16911173  1
  Sb  Sb101  1  0.16283205  0.83432306  0.66288429  1
  Sb  Sb102  1  0.49571798  -0.00340409  0.16333132  1
  Sb  Sb103  1  0.66768807  0.49952805  0.83659760  1
  Sb  Sb104  1  0.49683088  0.82900872  0.33044655  1
  Sb  Sb105  1  0.33248131  0.83625630  0.49735196  1
  Sb  Sb106  1  0.83351362  0.16491738  -0.00007271  1
  Sb  Sb107  1  0.49881522  0.66978510  0.83322479  1
  Te  Te108  1  0.16692950  0.16724457  0.16994597  1
  Te  Te109  1  0.16533658  0.16696364  0.49863164  1
  Te  Te110  1  0.16555956  0.16913288  0.82764193  1
  Te  Te111  1  0.16790260  0.50047716  0.16895318  1
  Te  Te112  1  0.16349283  0.49886323  0.50088465  1
  Te  Te113  1  0.16731747  0.50261249  0.83232307  1
  Te  Te114  1  0.17014006  0.83200762  0.17059924  1
  Te  Te115  1  0.16279044  0.83410427  0.49233350  1
  Te  Te116  1  0.15998897  0.82763479  0.83265748  1
  Te  Te117  1  0.50010931  0.16631495  0.16683031  1
  Te  Te118  1  0.49274422  0.16656296  0.50492170  1
  Te  Te119  1  0.49990744  0.16092686  0.82685465  1
  Te  Te120  1  0.49899473  0.50417156  0.17033325  1
  Te  Te121  1  0.50174896  0.50748613  0.49374911  1
  Te  Te122  1  0.49204305  0.50016813  0.83424245  1
  Te  Te123  1  0.49514088  0.82820392  0.16284339  1
  Te  Te124  1  0.50187123  0.82758335  0.50035616  1
  Te  Te125  1  0.49864021  0.83755258  0.83884778  1
  Te  Te126  1  0.83345518  0.16769590  0.17088323  1
  Te  Te127  1  0.83289708  0.16409815  0.49876703  1
  Te  Te128  1  0.83444642  0.17282724  0.82811455  1
  Te  Te129  1  0.83341636  0.49932748  0.16963460  1
  Te  Te130  1  0.83427074  0.50371958  0.50134767  1
  Te  Te131  1  0.83399749  0.50302898  0.83011711  1
  Te  Te132  1  0.83453406  0.83249788  0.16235695  1
  Te  Te133  1  0.83405632  0.83329802  0.49992001  1
  Te  Te134  1  0.83713663  0.83032704  0.83274617  1
  Te  Te135  1  0.16924224  -0.00031064  0.00440366  1
  Te  Te136  1  0.16712494  0.00541392  0.32816546  1
  Te  Te137  1  0.17017248  0.00340222  0.66641559  1
  Te  Te138  1  0.16604495  0.33272806  -0.01323900  1
  Te  Te139  1  0.17177462  0.33300661  0.33515447  1
  Te  Te140  1  0.16855920  0.33479983  0.66664655  1
  Te  Te141  1  0.16658918  0.66701023  -0.00277011  1
  Te  Te142  1  0.17133628  0.66230029  0.33193862  1
  Te  Te143  1  0.17113034  0.66419438  0.66740947  1
  Te  Te144  1  0.50145400  -0.00470028  -0.00317655  1
  Te  Te145  1  0.50932679  -0.00087011  0.33378292  1
  Te  Te146  1  0.49857695  0.00331050  0.66953569  1
  Te  Te147  1  0.50151779  0.33292557  -0.00226970  1
  Te  Te148  1  0.50004434  0.34073919  0.33454295  1
  Te  Te149  1  0.49587370  0.32793521  0.66528451  1
  Te  Te150  1  0.50586735  0.67351119  0.00185265  1
  Te  Te151  1  0.49594580  0.66311370  0.33265141  1
  Te  Te152  1  0.49506894  0.66661480  0.66393709  1
  Te  Te153  1  0.83173109  -0.00220155  -0.00154305  1
  Te  Te154  1  0.82826874  0.00212351  0.33763921  1
  Te  Te155  1  0.83318054  -0.00049029  0.66679954  1
  Te  Te156  1  0.83298327  0.33757068  -0.00820794  1
  Te  Te157  1  0.83126713  0.33272371  0.33644806  1
  Te  Te158  1  0.83465884  0.33461283  0.66532385  1
  Te  Te159  1  0.83015475  0.66664500  0.00098796  1
  Te  Te160  1  0.83264811  0.66265680  0.33680746  1
  Te  Te161  1  0.83263956  0.66741535  0.66694309  1
  Te  Te162  1  -0.00111361  0.15848436  0.00588648  1
  Te  Te163  1  0.00084255  0.16648779  0.33402678  1
  Te  Te164  1  -0.00105726  0.16069503  0.66395383  1
  Te  Te165  1  -0.00689239  0.49959920  0.00650268  1
  Te  Te166  1  -0.00136001  0.49855515  0.32922024  1
  Te  Te167  1  0.00067024  0.50102044  0.66612875  1
  Te  Te168  1  -0.00475003  0.83879763  -0.00039044  1
  Te  Te169  1  0.00610442  0.83469302  0.33728776  1
  Te  Te170  1  -0.00318270  0.83769912  0.66524030  1
  Te  Te171  1  0.33394707  0.16085648  0.00683870  1
  Te  Te172  1  0.33288865  0.16919125  0.33384152  1
  Te  Te173  1  0.32931079  0.16741450  0.66702184  1
  Te  Te174  1  0.33426476  0.49891859  0.00467702  1
  Te  Te175  1  0.33219351  0.49824690  0.33317605  1
  Te  Te176  1  0.33257651  0.49919401  0.66521393  1
  Te  Te177  1  0.33474783  0.83835412  0.00392134  1
  Te  Te178  1  0.32911676  0.83274078  0.32962496  1
  Te  Te179  1  0.33300818  0.83535795  0.66693339  1
  Te  Te180  1  0.66700484  0.16191618  0.00729315  1
  Te  Te181  1  0.66662430  0.16924394  0.33169356  1
  Te  Te182  1  0.67067236  0.16648461  0.66527710  1
  Te  Te183  1  0.67143776  0.49969615  0.00588470  1
  Te  Te184  1  0.67181776  0.49740442  0.32945431  1
  Te  Te185  1  0.66883210  0.49583691  0.66720666  1
  Te  Te186  1  0.66906442  0.83519799  -0.00004404  1
  Te  Te187  1  0.66640031  0.83682417  0.33703589  1
  Te  Te188  1  0.67170054  0.83569878  0.66430332  1
  Te  Te189  1  0.00438701  0.00304219  0.16491642  1
  Te  Te190  1  -0.00419090  0.00096816  0.50306243  1
  Te  Te191  1  0.00060300  -0.00505283  0.83350085  1
  Te  Te192  1  0.00066908  0.33157293  0.16546241  1
  Te  Te193  1  -0.01011721  0.32542008  0.49978190  1
  Te  Te194  1  0.00002365  0.33349680  0.83366535  1
  Te  Te195  1  0.00814186  0.66199926  0.16614309  1
  Te  Te196  1  -0.00674400  0.67202249  0.49964119  1
  Te  Te197  1  -0.00078690  0.67177799  0.83335075  1
  Te  Te198  1  0.33024907  0.00061123  0.16681738  1
  Te  Te199  1  0.33418062  0.00447708  0.50466665  1
  Te  Te200  1  0.33542936  -0.00065054  0.83374065  1
  Te  Te201  1  0.33332189  0.33074829  0.16946354  1
  Te  Te202  1  0.33507300  0.32761301  0.50059546  1
  Te  Te203  1  0.33114203  0.33840113  0.83121258  1
  Te  Te204  1  0.33237018  0.66657815  0.16711038  1
  Te  Te205  1  0.33512203  0.66848594  0.49967840  1
  Te  Te206  1  0.33097637  0.66300509  0.83177017  1
  Te  Te207  1  0.66640901  0.00215334  0.16659109  1
  Te  Te208  1  0.67078145  -0.00395413  0.50361169  1
  Te  Te209  1  0.66181237  -0.00003127  0.83453113  1
  Te  Te210  1  0.66596631  0.33297566  0.17105218  1
  Te  Te211  1  0.67092938  0.33436823  0.49984794  1
  Te  Te212  1  0.67088957  0.33303479  0.82715663  1
  Te  Te213  1  0.66388030  0.66413088  0.16302351  1
  Te  Te214  1  0.66757324  0.67271673  0.50019974  1
  Te  Te215  1  0.67037485  0.66656146  0.83962025  1
