# generated using pymatgen
data_AgSbTe2
_symmetry_space_group_name_H-M   'P 1'
_cell_length_a   18.33991027
_cell_length_b   18.33834312
_cell_length_c   18.34368408
_cell_angle_alpha   90.00170127
_cell_angle_beta   90.00073024
_cell_angle_gamma   89.99961886
_symmetry_Int_Tables_number   1
_chemical_formula_structural   AgSbTe2
_chemical_formula_sum   'Ag54 Sb54 Te108'
_cell_volume   6169.41326119
_cell_formula_units_Z   54
loop_
 _symmetry_equiv_pos_site_id
 _symmetry_equiv_pos_as_xyz
  1  'x, y, z'
loop_
 _atom_site_type_symbol
 _atom_site_label
 _atom_site_symmetry_multiplicity
 _atom_site_fract_x
 _atom_site_fract_y
 _atom_site_fract_z
 _atom_site_occupancy
  Ag  Ag0  1  0.49237090  0.16785898  0.00165783  1
  Ag  Ag1  1  0.17185157  0.50620494  0.00226408  1
  Ag  Ag2  1  0.32532229  0.83202208  0.84559059  1
  Ag  Ag3  1  0.16372221  0.50715345  0.67374454  1
  Ag  Ag4  1  0.32776919  0.33199833  0.32357148  1
  Ag  Ag5  1  0.49171626  0.50362188  0.00354610  1
  Ag  Ag6  1  0.66729583  0.49779119  0.49246992  1
  Ag  Ag7  1  0.00501407  0.32594737  0.33148027  1
  Ag  Ag8  1  0.33401807  0.49651917  0.16601587  1
  Ag  Ag9  1  0.00174160  0.34076258  0.66271969  1
  Ag  Ag10  1  -0.00350377  0.83238190  0.16467906  1
  Ag  Ag11  1  0.00591928  0.82808790  0.84845746  1
  Ag  Ag12  1  0.49101045  0.66861342  0.83912177  1
  Ag  Ag13  1  0.16883516  0.82751566  -0.00040643  1
  Ag  Ag14  1  0.83439416  0.66676272  0.49261424  1
  Ag  Ag15  1  0.84356185  0.50386555  0.66624392  1
  Ag  Ag16  1  0.66686986  0.16638316  0.84015504  1
  Ag  Ag17  1  0.66646872  0.50078126  0.16776431  1
  Ag  Ag18  1  0.32585721  0.67412154  0.33231993  1
  Ag  Ag19  1  0.17244101  -0.00121571  0.16633349  1
  Ag  Ag20  1  0.84189654  0.83021307  0.00433956  1
  Ag  Ag21  1  -0.00173823  0.16447739  0.16684770  1
  Ag  Ag22  1  0.16879363  0.49826586  0.32799006  1
  Ag  Ag23  1  -0.00337616  0.67102710  -0.00321270  1
  Ag  Ag24  1  0.32036671  0.66890375  0.67158500  1
  Ag  Ag25  1  0.83760309  0.67380515  0.16351121  1
  Ag  Ag26  1  0.66782405  0.00082541  0.33109213  1
  Ag  Ag27  1  0.49931806  0.33382543  0.48903671  1
  Ag  Ag28  1  0.16739759  0.34248360  0.83527720  1
  Ag  Ag29  1  0.84462801  0.67236667  0.84232298  1
  Ag  Ag30  1  0.67018904  0.17093828  0.49677825  1
  Ag  Ag31  1  0.33426426  -0.00678253  0.32159536  1
  Ag  Ag32  1  0.00189507  0.66525239  0.33021206  1
  Ag  Ag33  1  0.16799022  0.82408208  0.68088326  1
  Ag  Ag34  1  0.83560540  0.83382489  0.32143324  1
  Ag  Ag35  1  0.33346584  0.32691397  0.00664693  1
  Ag  Ag36  1  0.32967137  0.16697522  0.16586089  1
  Ag  Ag37  1  0.83298354  -0.00833058  0.84590515  1
  Ag  Ag38  1  0.16519162  0.66886127  0.83314159  1
  Ag  Ag39  1  0.32858061  0.83637204  0.16375914  1
  Ag  Ag40  1  0.33396133  -0.00133033  0.00439904  1
  Ag  Ag41  1  0.84164034  0.16255312  0.32465507  1
  Ag  Ag42  1  0.83316938  0.32959819  0.16709269  1
  Ag  Ag43  1  0.48945019  0.33492205  0.16657628  1
  Ag  Ag44  1  0.67393562  0.66762981  -0.00001612  1
  Ag  Ag45  1  0.83191645  0.15820873  0.00856227  1
  Ag  Ag46  1  0.15986130  0.17248037  0.32876152  1
  Ag  Ag47  1  0.33313830  0.16228029  0.84777392  1
  Ag  Ag48  1  0.48523645  0.83186369  0.32288568  1
  Ag  Ag49  1  0.48882197  0.82909619  0.00407469  1
  Ag  Ag50  1  -0.00561921  0.17030916  0.48301985  1
  Ag  Ag51  1  0.00297571  0.66396937  0.67777292  1
  Ag  Ag52  1  0.33230097  0.83146177  0.48252673  1
  Ag  Ag53  1  0.83683182  -0.00181204  0.16440094  1
  Sb  Sb54  1  0.16932195  0.33082168  0.16500322  1
  Sb  Sb55  1  0.00064124  -0.00408689  0.66860095  1
  Sb  Sb56  1  0.16772646  -0.00099037  0.49101390  1
  Sb  Sb57  1  0.33367000  0.16405620  0.49227330  1
  Sb  Sb58  1  0.49786469  0.00236752  0.16557005  1
  Sb  Sb59  1  0.66905107  0.16871228  0.16601356  1
  Sb  Sb60  1  0.32729708  0.33976139  0.66826317  1
  Sb  Sb61  1  0.00149657  0.16219297  0.84004402  1
  Sb  Sb62  1  0.16255728  0.66688830  0.50269953  1
  Sb  Sb63  1  0.66714298  -0.00262760  0.00525462  1
  Sb  Sb64  1  0.16509477  -0.00516866  0.84133863  1
  Sb  Sb65  1  0.00183414  0.50752233  0.83285381  1
  Sb  Sb66  1  0.49919812  0.16989453  0.67182848  1
  Sb  Sb67  1  0.33087052  0.66951413  0.00215559  1
  Sb  Sb68  1  0.16608380  0.16889947  0.66413624  1
  Sb  Sb69  1  0.66915807  0.83019578  0.16521529  1
  Sb  Sb70  1  0.33599444  0.50417033  0.49371719  1
  Sb  Sb71  1  0.49544281  0.50350390  0.32628824  1
  Sb  Sb72  1  0.00195683  0.00080089  0.32867805  1
  Sb  Sb73  1  0.66666067  0.49834291  0.83712158  1
  Sb  Sb74  1  0.83378709  -0.00321651  0.49345389  1
  Sb  Sb75  1  0.16568120  0.83143195  0.32604959  1
  Sb  Sb76  1  0.83917943  0.33445214  0.83848434  1
  Sb  Sb77  1  0.16841422  0.33478333  0.49798561  1
  Sb  Sb78  1  0.00268303  0.50116699  0.16867209  1
  Sb  Sb79  1  0.00213690  -0.00727877  0.00415373  1
  Sb  Sb80  1  0.49289863  0.33569155  0.83995535  1
  Sb  Sb81  1  0.66325491  0.83185799  0.49449851  1
  Sb  Sb82  1  0.66892396  0.66920064  0.32771406  1
  Sb  Sb83  1  0.66245864  0.33572801  0.00221290  1
  Sb  Sb84  1  0.83494787  0.50490233  0.00049209  1
  Sb  Sb85  1  0.49019978  0.82907577  0.67052157  1
  Sb  Sb86  1  0.67204310  0.66452956  0.67206649  1
  Sb  Sb87  1  0.00544323  0.33706487  0.00356289  1
  Sb  Sb88  1  0.66846093  0.83439699  0.83638775  1
  Sb  Sb89  1  0.50014412  0.66483474  0.16097354  1
  Sb  Sb90  1  0.49926014  0.16583432  0.32649690  1
  Sb  Sb91  1  0.49573604  0.50099852  0.67035674  1
  Sb  Sb92  1  0.83609539  0.17132030  0.66677222  1
  Sb  Sb93  1  0.84164948  0.82543757  0.67204597  1
  Sb  Sb94  1  0.66737153  0.33075705  0.33104162  1
  Sb  Sb95  1  0.00348178  0.83339229  0.49415519  1
  Sb  Sb96  1  -0.00292134  0.49931460  0.50096971  1
  Sb  Sb97  1  0.50236352  -0.00347095  0.83750002  1
  Sb  Sb98  1  0.32993471  0.50508400  0.84219506  1
  Sb  Sb99  1  0.67028877  0.00092482  0.66475602  1
  Sb  Sb100  1  0.83258024  0.33550451  0.49397112  1
  Sb  Sb101  1  0.50008144  0.00432007  0.49433760  1
  Sb  Sb102  1  0.83767603  0.50106284  0.33314066  1
  Sb  Sb103  1  0.16878101  0.16520531  0.00592134  1
  Sb  Sb104  1  0.50273351  0.66399045  0.50110662  1
  Sb  Sb105  1  0.67335374  0.33577266  0.66511223  1
  Sb  Sb106  1  0.16406122  0.67013649  0.16181775  1
  Sb  Sb107  1  0.33026843  -0.00670468  0.67079994  1
  Te  Te108  1  0.16701303  0.16282305  0.16936185  1
  Te  Te109  1  0.16294998  0.16658971  0.49267667  1
  Te  Te110  1  0.17127768  0.16266999  0.83365721  1
  Te  Te111  1  0.17077489  0.50153791  0.16660568  1
  Te  Te112  1  0.16736939  0.49993285  0.49652147  1
  Te  Te113  1  0.16726482  0.50250363  0.83400253  1
  Te  Te114  1  0.16512301  0.83684607  0.16264540  1
  Te  Te115  1  0.17232236  0.83424819  0.50222670  1
  Te  Te116  1  0.16555672  0.83277060  0.83792348  1
  Te  Te117  1  0.49783299  0.17172683  0.16122620  1
  Te  Te118  1  0.50308044  0.17196947  0.50047796  1
  Te  Te119  1  0.49704362  0.16710080  0.83899006  1
  Te  Te120  1  0.49818553  0.49777244  0.16244825  1
  Te  Te121  1  0.50544423  0.49591893  0.50070231  1
  Te  Te122  1  0.49915229  0.50504822  0.84062793  1
  Te  Te123  1  0.49907977  0.83261280  0.16496924  1
  Te  Te124  1  0.49472355  0.83272058  0.49864402  1
  Te  Te125  1  0.49849764  0.82913242  0.83852483  1
  Te  Te126  1  0.83075497  0.16728298  0.16656780  1
  Te  Te127  1  0.83336680  0.16683964  0.49892267  1
  Te  Te128  1  0.83211807  0.16724419  0.83585892  1
  Te  Te129  1  0.83183055  0.49714515  0.16687809  1
  Te  Te130  1  0.82894669  0.50329776  0.50194113  1
  Te  Te131  1  0.83209171  0.50425276  0.82880594  1
  Te  Te132  1  0.83281341  0.83330935  0.16413483  1
  Te  Te133  1  0.83367324  0.82847777  0.50093953  1
  Te  Te134  1  0.83462436  0.83156484  0.83681256  1
  Te  Te135  1  0.17201331  -0.00412344  0.00663633  1
  Te  Te136  1  0.17314560  0.00285180  0.32620173  1
  Te  Te137  1  0.16570332  -0.00420194  0.66551041  1
  Te  Te138  1  0.17123638  0.33642678  -0.00410264  1
  Te  Te139  1  0.16633225  0.33393074  0.33309842  1
  Te  Te140  1  0.16149861  0.33703336  0.67065163  1
  Te  Te141  1  0.16400932  0.66664466  -0.00323241  1
  Te  Te142  1  0.16652782  0.66448029  0.33472226  1
  Te  Te143  1  0.16394801  0.66447157  0.66584706  1
  Te  Te144  1  0.49697507  0.00036819  0.00033540  1
  Te  Te145  1  0.49809836  -0.00685612  0.33177365  1
  Te  Te146  1  0.50074329  -0.00037382  0.66595244  1
  Te  Te147  1  0.49541601  0.33313948  0.00402565  1
  Te  Te148  1  0.49707951  0.33449528  0.32849524  1
  Te  Te149  1  0.50003755  0.33555907  0.66507379  1
  Te  Te150  1  0.49871295  0.66782172  -0.00116983  1
  Te  Te151  1  0.49901421  0.67272880  0.33365039  1
  Te  Te152  1  0.49922567  0.66532547  0.67372407  1
  Te  Te153  1  0.83264688  -0.00090833  0.00324798  1
  Te  Te154  1  0.83392972  -0.00052116  0.32997290  1
  Te  Te155  1  0.83455811  -0.00135057  0.67098378  1
  Te  Te156  1  0.83476553  0.33360861  0.00423001  1
  Te  Te157  1  0.83757823  0.32957839  0.32890883  1
  Te  Te158  1  0.84094384  0.34027825  0.66775072  1
  Te  Te159  1  0.83563507  0.66693770  0.00149264  1
  Te  Te160  1  0.83385400  0.66826515  0.33012645  1
  Te  Te161  1  0.83819952  0.66261859  0.66992611  1
  Te  Te162  1  -0.00473768  0.16829869  0.00633613  1
  Te  Te163  1  -0.00059934  0.16535611  0.32685226  1
  Te  Te164  1  0.00149782  0.17045072  0.66996499  1
  Te  Te165  1  0.00761309  0.50629918  0.00084643  1
  Te  Te166  1  0.00593291  0.50214776  0.33463402  1
  Te  Te167  1  0.00351110  0.50226714  0.66650188  1
  Te  Te168  1  -0.00074679  0.83074991  0.00424607  1
  Te  Te169  1  -0.00272367  0.83062223  0.32912819  1
  Te  Te170  1  0.00757115  0.82778012  0.66189735  1
  Te  Te171  1  0.33057872  0.16661033  0.00449972  1
  Te  Te172  1  0.33387635  0.16984907  0.32944560  1
  Te  Te173  1  0.33297391  0.16613702  0.66643654  1
  Te  Te174  1  0.33245530  0.49874800  0.00429658  1
  Te  Te175  1  0.33038296  0.49592808  0.32875831  1
  Te  Te176  1  0.32776511  0.50735949  0.66497473  1
  Te  Te177  1  0.33166173  0.83330645  0.00373515  1
  Te  Te178  1  0.32851871  0.83362924  0.32612035  1
  Te  Te179  1  0.32719461  0.82774799  0.67596911  1
  Te  Te180  1  0.66887786  0.16603219  -0.00099169  1
  Te  Te181  1  0.66684209  0.16338686  0.33589491  1
  Te  Te182  1  0.66713001  0.16772161  0.66234090  1
  Te  Te183  1  0.66503659  0.50387420  0.00366211  1
  Te  Te184  1  0.66618838  0.50065872  0.33140829  1
  Te  Te185  1  0.66680975  0.49977533  0.66361233  1
  Te  Te186  1  0.66403353  0.82914636  -0.00079347  1
  Te  Te187  1  0.67396604  0.83788335  0.33299342  1
  Te  Te188  1  0.66538473  0.83345581  0.66462093  1
  Te  Te189  1  -0.00247880  -0.00029205  0.16685766  1
  Te  Te190  1  0.00006080  0.00991794  0.50093594  1
  Te  Te191  1  -0.00662769  -0.00735680  0.83442713  1
  Te  Te192  1  -0.00261417  0.33152393  0.17055116  1
  Te  Te193  1  0.00048145  0.32959236  0.49703563  1
  Te  Te194  1  0.00631259  0.33129743  0.83271945  1
  Te  Te195  1  -0.00216183  0.66784302  0.16967683  1
  Te  Te196  1  -0.00643301  0.66696823  0.49102612  1
  Te  Te197  1  0.00257746  0.67082297  0.83430023  1
  Te  Te198  1  0.33646511  -0.00017044  0.16481615  1
  Te  Te199  1  0.33391836  -0.00624054  0.49871047  1
  Te  Te200  1  0.33443294  -0.00169821  0.83801051  1
  Te  Te201  1  0.33169734  0.33234615  0.16663356  1
  Te  Te202  1  0.33828561  0.33385050  0.49967586  1
  Te  Te203  1  0.32823497  0.32907357  0.83450650  1
  Te  Te204  1  0.33333017  0.66764275  0.17265688  1
  Te  Te205  1  0.33590309  0.67081895  0.49537084  1
  Te  Te206  1  0.32953640  0.66991892  0.83300255  1
  Te  Te207  1  0.67401644  0.00092608  0.17196613  1
  Te  Te208  1  0.66742596  0.00563394  0.49428105  1
  Te  Te209  1  0.67208640  0.00590247  0.83294804  1
  Te  Te210  1  0.66968486  0.33894223  0.16687751  1
  Te  Te211  1  0.66371582  0.33390819  0.49868950  1
  Te  Te212  1  0.66587074  0.32633348  0.83308353  1
  Te  Te213  1  0.67113865  0.66164672  0.16146991  1
  Te  Te214  1  0.67120682  0.66290203  0.50113594  1
  Te  Te215  1  0.66683566  0.66617577  0.83873273  1
