# generated using pymatgen
data_AgSbTe2
_symmetry_space_group_name_H-M   'P 1'
_cell_length_a   18.31829904
_cell_length_b   18.32335296
_cell_length_c   18.32637748
_cell_angle_alpha   89.99899735
_cell_angle_beta   90.00253451
_cell_angle_gamma   90.00191274
_symmetry_Int_Tables_number   1
_chemical_formula_structural   AgSbTe2
_chemical_formula_sum   'Ag54 Sb54 Te108'
_cell_volume   6151.29731994
_cell_formula_units_Z   54
loop_
 _symmetry_equiv_pos_site_id
 _symmetry_equiv_pos_as_xyz
  1  'x, y, z'
loop_
 _atom_site_type_symbol
 _atom_site_label
 _atom_site_symmetry_multiplicity
 _atom_site_fract_x
 _atom_site_fract_y
 _atom_site_fract_z
 _atom_site_occupancy
  Ag  Ag0  1  0.66172427  0.67019473  0.66882477  1
  Ag  Ag1  1  0.66683150  0.16526049  0.82297749  1
  Ag  Ag2  1  0.50600532  0.16719214  0.66455908  1
  Ag  Ag3  1  0.83108766  0.50236281  0.00617036  1
  Ag  Ag4  1  0.50504693  0.49874619  0.00252812  1
  Ag  Ag5  1  0.33838416  0.66250047  0.66893081  1
  Ag  Ag6  1  0.16375293  0.17521766  0.65814232  1
  Ag  Ag7  1  0.67015377  0.49801885  0.16710938  1
  Ag  Ag8  1  -0.00178065  0.83463598  0.16731703  1
  Ag  Ag9  1  0.16833655  0.33321037  0.82074852  1
  Ag  Ag10  1  0.83761509  0.49200910  0.32933580  1
  Ag  Ag11  1  0.00021351  0.49416721  0.49401668  1
  Ag  Ag12  1  0.66714801  0.33473122  0.33519122  1
  Ag  Ag13  1  0.15799282  0.33056851  0.50015063  1
  Ag  Ag14  1  0.84071084  0.33063888  0.49738337  1
  Ag  Ag15  1  0.66640026  0.16907906  0.50441948  1
  Ag  Ag16  1  0.16127654  0.65674622  0.50121844  1
  Ag  Ag17  1  0.16724721  0.49271973  0.66394457  1
  Ag  Ag18  1  0.50125613  0.33095546  0.49865275  1
  Ag  Ag19  1  0.32676227  0.16882321  0.16793625  1
  Ag  Ag20  1  0.49752129  0.49320123  0.66662262  1
  Ag  Ag21  1  0.50891709  0.83930754  0.66283500  1
  Ag  Ag22  1  0.49567919  0.33260362  0.17904227  1
  Ag  Ag23  1  0.83737213  0.83417728  0.33538558  1
  Ag  Ag24  1  0.00606354  0.33201110  0.65691564  1
  Ag  Ag25  1  0.82669000  0.16353647  0.66438408  1
  Ag  Ag26  1  0.33640239  0.49830091  0.83128175  1
  Ag  Ag27  1  0.83827399  0.17631526  0.33655873  1
  Ag  Ag28  1  -0.00094680  0.33694739  0.33773489  1
  Ag  Ag29  1  0.00326095  0.16913411  0.16890581  1
  Ag  Ag30  1  0.50554575  0.83319362  0.33984111  1
  Ag  Ag31  1  0.49795453  0.00737681  0.16887909  1
  Ag  Ag32  1  -0.00344677  -0.00680185  0.00329790  1
  Ag  Ag33  1  0.49734877  0.33248785  0.82365535  1
  Ag  Ag34  1  0.33195306  0.33348137  0.33126085  1
  Ag  Ag35  1  0.16001881  0.17130414  0.33497008  1
  Ag  Ag36  1  0.49924152  0.00694575  0.50405795  1
  Ag  Ag37  1  0.66414774  0.00549899  0.66728958  1
  Ag  Ag38  1  -0.00364112  0.83497373  0.83434998  1
  Ag  Ag39  1  0.67129573  0.66280638  -0.00431469  1
  Ag  Ag40  1  -0.00371320  0.49534426  0.17487610  1
  Ag  Ag41  1  -0.00146803  0.82964265  0.49712723  1
  Ag  Ag42  1  0.83438168  0.16560523  0.00062230  1
  Ag  Ag43  1  0.16528946  0.01012643  0.49824367  1
  Ag  Ag44  1  0.16191907  0.01115038  0.17280936  1
  Ag  Ag45  1  0.16543758  0.32884494  0.17920317  1
  Ag  Ag46  1  0.83032413  0.00174229  0.83168664  1
  Ag  Ag47  1  -0.00503250  0.67058652  0.00705381  1
  Ag  Ag48  1  0.83794480  0.83331012  -0.00080860  1
  Ag  Ag49  1  -0.00080563  0.65863648  0.33222233  1
  Ag  Ag50  1  0.33441528  0.66304968  -0.00298494  1
  Ag  Ag51  1  0.50661272  0.00644316  0.82250739  1
  Ag  Ag52  1  0.50630675  0.48986739  0.33300947  1
  Ag  Ag53  1  0.83117711  0.84036773  0.66663908  1
  Sb  Sb54  1  0.33055949  -0.00404744  0.00111350  1
  Sb  Sb55  1  0.50670709  0.83003146  -0.00197287  1
  Sb  Sb56  1  0.66862751  0.17245154  0.16967381  1
  Sb  Sb57  1  0.32991465  0.65940317  0.33510220  1
  Sb  Sb58  1  0.67119022  0.83846817  0.83019220  1
  Sb  Sb59  1  0.67038318  0.83012418  0.16741207  1
  Sb  Sb60  1  0.33374032  0.17008591  0.49693162  1
  Sb  Sb61  1  0.83643989  0.33430017  0.17532228  1
  Sb  Sb62  1  0.49929900  0.66237705  0.16671507  1
  Sb  Sb63  1  0.16611256  0.66207772  0.82886912  1
  Sb  Sb64  1  0.83182685  0.32774829  0.82801635  1
  Sb  Sb65  1  0.16370834  0.83391749  0.66333523  1
  Sb  Sb66  1  0.67174897  0.66093940  0.33472074  1
  Sb  Sb67  1  0.83582592  0.66411202  0.16553425  1
  Sb  Sb68  1  0.16077628  0.16825465  0.00499784  1
  Sb  Sb69  1  0.16231688  0.83832696  0.33494138  1
  Sb  Sb70  1  0.00188116  0.50136742  0.83402790  1
  Sb  Sb71  1  0.33731047  0.17317889  0.83531417  1
  Sb  Sb72  1  0.32872640  0.49780648  0.50377518  1
  Sb  Sb73  1  0.50114004  0.17125180  0.33708179  1
  Sb  Sb74  1  0.83241412  0.49752760  0.66512853  1
  Sb  Sb75  1  0.66867489  0.49319245  0.49668219  1
  Sb  Sb76  1  0.33129522  0.33629795  0.66171304  1
  Sb  Sb77  1  0.16469116  0.00709853  0.83067255  1
  Sb  Sb78  1  0.50636803  0.17135413  -0.00201634  1
  Sb  Sb79  1  0.15689347  0.83223477  0.00114535  1
  Sb  Sb80  1  0.33224594  0.83263864  0.49984949  1
  Sb  Sb81  1  -0.00383136  0.00432170  0.66764976  1
  Sb  Sb82  1  0.66213206  0.49390148  0.83598678  1
  Sb  Sb83  1  -0.00092097  0.66482237  0.66392215  1
  Sb  Sb84  1  -0.00093431  0.00250945  0.32998827  1
  Sb  Sb85  1  -0.00192563  0.33498087  0.00351418  1
  Sb  Sb86  1  0.49748563  0.66393128  0.50305712  1
  Sb  Sb87  1  0.50030220  0.66362110  0.83106705  1
  Sb  Sb88  1  0.83481413  0.00132198  0.16261402  1
  Sb  Sb89  1  0.66724380  0.33748349  0.00632156  1
  Sb  Sb90  1  0.83394314  0.67227897  0.83511465  1
  Sb  Sb91  1  0.67058238  0.83842042  0.50175794  1
  Sb  Sb92  1  0.16479702  0.49889391  -0.00219734  1
  Sb  Sb93  1  0.33466426  0.00597148  0.33297681  1
  Sb  Sb94  1  -0.00131231  0.16981402  0.49658766  1
  Sb  Sb95  1  0.66571742  0.00605581  0.33776010  1
  Sb  Sb96  1  0.66515647  0.33026413  0.66187694  1
  Sb  Sb97  1  0.33538189  0.33685250  0.00385570  1
  Sb  Sb98  1  0.83744759  0.66378300  0.49908054  1
  Sb  Sb99  1  0.83447016  0.00491824  0.50335917  1
  Sb  Sb100  1  0.67103994  -0.00283016  -0.00390326  1
  Sb  Sb101  1  0.16239435  0.66257278  0.17145518  1
  Sb  Sb102  1  0.33179336  0.82905253  0.83150417  1
  Sb  Sb103  1  0.16091110  0.49097018  0.33838885  1
  Sb  Sb104  1  -0.00427423  0.16479807  0.83601054  1
  Sb  Sb105  1  0.33009081  0.83762001  0.16757126  1
  Sb  Sb106  1  0.34031701  -0.00173706  0.66640986  1
  Sb  Sb107  1  0.33293668  0.49412628  0.16434922  1
  Te  Te108  1  0.16436718  0.16832662  0.16704562  1
  Te  Te109  1  0.16719148  0.16903373  0.49847860  1
  Te  Te110  1  0.16809032  0.17239504  0.82976618  1
  Te  Te111  1  0.16197611  0.49353531  0.16680782  1
  Te  Te112  1  0.16266176  0.49501686  0.50348731  1
  Te  Te113  1  0.16985903  0.49477589  0.82730462  1
  Te  Te114  1  0.16115322  0.83920760  0.16841814  1
  Te  Te115  1  0.16179076  0.83915589  0.49933343  1
  Te  Te116  1  0.15996803  0.83653500  0.83222835  1
  Te  Te117  1  0.50069834  0.16870613  0.16659685  1
  Te  Te118  1  0.49966604  0.16696263  0.50240533  1
  Te  Te119  1  0.50255715  0.16812778  0.83140918  1
  Te  Te120  1  0.49943858  0.49624793  0.16708595  1
  Te  Te121  1  0.50041294  0.49656178  0.49971077  1
  Te  Te122  1  0.49776055  0.49685903  0.83056068  1
  Te  Te123  1  0.49980518  0.83692124  0.16789698  1
  Te  Te124  1  0.50027238  0.83445746  0.50176492  1
  Te  Te125  1  0.49999494  0.83973241  0.82841821  1
  Te  Te126  1  0.83681551  0.16708661  0.16885156  1
  Te  Te127  1  0.83201118  0.16914605  0.50014086  1
  Te  Te128  1  0.82950644  0.16291537  0.82896573  1
  Te  Te129  1  0.83432496  0.49802198  0.16749461  1
  Te  Te130  1  0.83806217  0.49426856  0.49670217  1
  Te  Te131  1  0.83192530  0.49791172  0.83793119  1
  Te  Te132  1  0.83758716  0.83513053  0.16877833  1
  Te  Te133  1  0.83725812  0.83445774  0.50046308  1
  Te  Te134  1  0.83676650  0.83811278  0.83091619  1
  Te  Te135  1  0.16106972  0.00011297  0.00195051  1
  Te  Te136  1  0.16819318  0.00647640  0.33404395  1
  Te  Te137  1  0.16833094  0.00442589  0.66294776  1
  Te  Te138  1  0.16682837  0.33336357  -0.00267570  1
  Te  Te139  1  0.16404012  0.33157824  0.33625048  1
  Te  Te140  1  0.16817547  0.33285258  0.66235530  1
  Te  Te141  1  0.16570335  0.66540669  -0.00015979  1
  Te  Te142  1  0.16186805  0.66758719  0.33958886  1
  Te  Te143  1  0.16809573  0.66548513  0.66153789  1
  Te  Te144  1  0.50022529  -0.00033204  0.00367810  1
  Te  Te145  1  0.50030455  -0.00254857  0.33492958  1
  Te  Te146  1  0.50225950  0.00182629  0.66436327  1
  Te  Te147  1  0.50127585  0.33920965  -0.00198098  1
  Te  Te148  1  0.50132548  0.33222796  0.33544124  1
  Te  Te149  1  0.49880450  0.33226899  0.66463705  1
  Te  Te150  1  0.50229226  0.66182135  -0.00104142  1
  Te  Te151  1  0.49995869  0.66968607  0.33442056  1
  Te  Te152  1  0.50019843  0.66631997  0.66634485  1
  Te  Te153  1  0.83549901  -0.00050517  -0.00381963  1
  Te  Te154  1  0.83091670  -0.00471957  0.33413227  1
  Te  Te155  1  0.82980087  0.00145701  0.66900456  1
  Te  Te156  1  0.83299177  0.33294425  -0.00260699  1
  Te  Te157  1  0.83590363  0.33392042  0.33604644  1
  Te  Te158  1  0.83587404  0.33005165  0.66075432  1
  Te  Te159  1  0.83402877  0.66484993  -0.00052779  1
  Te  Te160  1  0.83872961  0.67065523  0.33393867  1
  Te  Te161  1  0.82878414  0.66977294  0.66723280  1
  Te  Te162  1  -0.00656176  0.16492924  0.00414438  1
  Te  Te163  1  -0.00150119  0.16841146  0.33030165  1
  Te  Te164  1  0.00061934  0.17099449  0.66809422  1
  Te  Te165  1  -0.00369155  0.50426161  0.00168348  1
  Te  Te166  1  -0.00094468  0.49937659  0.33431510  1
  Te  Te167  1  0.00126116  0.49644034  0.66530642  1
  Te  Te168  1  -0.00454058  0.83192384  0.00361775  1
  Te  Te169  1  -0.00199015  0.83447028  0.33249129  1
  Te  Te170  1  -0.00461349  0.83367592  0.66569177  1
  Te  Te171  1  0.33432860  0.16468307  0.00686818  1
  Te  Te172  1  0.32957489  0.17227600  0.32837352  1
  Te  Te173  1  0.33436071  0.16629997  0.66872225  1
  Te  Te174  1  0.33574038  0.50393501  -0.00365923  1
  Te  Te175  1  0.34246020  0.49625792  0.33254467  1
  Te  Te176  1  0.33597453  0.50197524  0.66909778  1
  Te  Te177  1  0.33525363  0.82462547  -0.00096915  1
  Te  Te178  1  0.34228942  0.82944485  0.33256156  1
  Te  Te179  1  0.33749224  0.82573158  0.66732770  1
  Te  Te180  1  0.67509485  0.16606144  0.00058913  1
  Te  Te181  1  0.67301157  0.17264145  0.33714365  1
  Te  Te182  1  0.66620568  0.16751449  0.66436408  1
  Te  Te183  1  0.66777211  0.50294007  0.00251803  1
  Te  Te184  1  0.66808589  0.49724500  0.33012977  1
  Te  Te185  1  0.66241837  0.50305122  0.66689817  1
  Te  Te186  1  0.67593435  0.82573863  -0.00037831  1
  Te  Te187  1  0.66711330  0.83104748  0.33368610  1
  Te  Te188  1  0.66829669  0.83324617  0.66637650  1
  Te  Te189  1  0.00085348  0.00141083  0.16398613  1
  Te  Te190  1  0.00428540  -0.00582415  0.50043955  1
  Te  Te191  1  -0.00254827  -0.00373355  0.83786355  1
  Te  Te192  1  0.00294274  0.33393073  0.16867235  1
  Te  Te193  1  -0.00028322  0.33320252  0.49908131  1
  Te  Te194  1  0.00376020  0.33353859  0.83115448  1
  Te  Te195  1  0.00182117  0.66603832  0.16859575  1
  Te  Te196  1  0.00272663  0.66718971  0.49804954  1
  Te  Te197  1  0.00157582  0.67214423  0.83823372  1
  Te  Te198  1  0.33379961  0.00517624  0.16614701  1
  Te  Te199  1  0.33298259  0.00002720  0.49958047  1
  Te  Te200  1  0.33952834  -0.00072287  0.83500672  1
  Te  Te201  1  0.33329994  0.32980146  0.16986857  1
  Te  Te202  1  0.33930142  0.33407689  0.49182239  1
  Te  Te203  1  0.33525772  0.33806514  0.83557471  1
  Te  Te204  1  0.33004307  0.66757916  0.16084663  1
  Te  Te205  1  0.32446729  0.66555098  0.50419334  1
  Te  Te206  1  0.33216881  0.66172016  0.83272726  1
  Te  Te207  1  0.65892961  -0.00034705  0.16687735  1
  Te  Te208  1  0.66212458  0.00579430  0.50508198  1
  Te  Te209  1  0.66654786  0.00419991  0.82989359  1
  Te  Te210  1  0.66005651  0.33811556  0.17268325  1
  Te  Te211  1  0.66238567  0.32921109  0.49587613  1
  Te  Te212  1  0.66207749  0.32603530  0.83383663  1
  Te  Te213  1  0.66561839  0.65949854  0.16360065  1
  Te  Te214  1  0.66668465  0.66671689  0.50547775  1
  Te  Te215  1  0.66690189  0.66606485  0.83216467  1
