# generated using pymatgen
data_AgSbTe2
_symmetry_space_group_name_H-M   'P 1'
_cell_length_a   18.34661974
_cell_length_b   18.34230227
_cell_length_c   18.34666773
_cell_angle_alpha   90.00155348
_cell_angle_beta   89.99958168
_cell_angle_gamma   90.00014829
_symmetry_Int_Tables_number   1
_chemical_formula_structural   AgSbTe2
_chemical_formula_sum   'Ag54 Sb54 Te108'
_cell_volume   6174.00676749
_cell_formula_units_Z   54
loop_
 _symmetry_equiv_pos_site_id
 _symmetry_equiv_pos_as_xyz
  1  'x, y, z'
loop_
 _atom_site_type_symbol
 _atom_site_label
 _atom_site_symmetry_multiplicity
 _atom_site_fract_x
 _atom_site_fract_y
 _atom_site_fract_z
 _atom_site_occupancy
  Ag  Ag0  1  0.66701133  0.65882241  0.66582344  1
  Ag  Ag1  1  0.67075878  0.17287938  0.50820454  1
  Ag  Ag2  1  0.16715013  0.00628555  0.50282527  1
  Ag  Ag3  1  0.83634839  0.33091327  0.16211596  1
  Ag  Ag4  1  0.83292403  0.16991302  -0.00416652  1
  Ag  Ag5  1  0.16673684  0.16688160  0.66751655  1
  Ag  Ag6  1  -0.00227481  0.49835281  0.50310164  1
  Ag  Ag7  1  0.16164606  0.48787712  -0.00443145  1
  Ag  Ag8  1  0.50938345  0.33166018  0.50270739  1
  Ag  Ag9  1  -0.00918024  0.33318403  0.00126914  1
  Ag  Ag10  1  -0.00300157  0.16920916  0.16281622  1
  Ag  Ag11  1  0.66691766  0.32779988  0.34497942  1
  Ag  Ag12  1  0.33621556  0.00534264  0.66044051  1
  Ag  Ag13  1  0.82394528  0.00466730  0.50076895  1
  Ag  Ag14  1  0.83196741  0.01272235  0.17568098  1
  Ag  Ag15  1  0.16331376  0.49631072  0.66221630  1
  Ag  Ag16  1  0.16517779  0.33968508  0.50015411  1
  Ag  Ag17  1  0.66388317  0.00766209  0.66360862  1
  Ag  Ag18  1  0.16439149  0.84498202  0.66000858  1
  Ag  Ag19  1  0.67280297  0.32759226  -0.00294830  1
  Ag  Ag20  1  0.83755205  0.48903324  -0.00133531  1
  Ag  Ag21  1  0.00128923  0.66379136  0.33724667  1
  Ag  Ag22  1  0.51219411  0.48744279  0.66331716  1
  Ag  Ag23  1  0.32398618  0.49207340  0.50212292  1
  Ag  Ag24  1  0.00247293  0.49861561  0.82086362  1
  Ag  Ag25  1  0.66409792  0.84889857  0.82939162  1
  Ag  Ag26  1  0.82458751  0.17003252  0.66573714  1
  Ag  Ag27  1  0.50220953  0.00462519  0.82226456  1
  Ag  Ag28  1  0.50860284  0.16919442  0.66836386  1
  Ag  Ag29  1  0.68112948  0.48695183  0.50342126  1
  Ag  Ag30  1  0.16884815  0.83243743  0.34086200  1
  Ag  Ag31  1  0.50312485  0.83876827  0.00119979  1
  Ag  Ag32  1  0.16118551  0.17069869  -0.00719941  1
  Ag  Ag33  1  0.82390850  0.33906803  0.49857364  1
  Ag  Ag34  1  0.34402578  0.00404387  -0.00789265  1
  Ag  Ag35  1  0.66329101  0.00572755  0.34537473  1
  Ag  Ag36  1  0.34210469  0.16523452  0.83008466  1
  Ag  Ag37  1  0.16185772  0.49731313  0.34400154  1
  Ag  Ag38  1  0.50232545  0.66709979  0.16867160  1
  Ag  Ag39  1  0.00194205  0.83034030  0.50087742  1
  Ag  Ag40  1  0.66535077  0.32593190  0.66203718  1
  Ag  Ag41  1  0.83900661  0.49583140  0.34485183  1
  Ag  Ag42  1  0.00374789  0.00401588  0.66415305  1
  Ag  Ag43  1  0.66367244  0.00694491  -0.01148112  1
  Ag  Ag44  1  0.16542737  0.66123388  0.82876929  1
  Ag  Ag45  1  0.15809677  0.33275472  0.17259930  1
  Ag  Ag46  1  0.50552283  0.00499400  0.50589274  1
  Ag  Ag47  1  0.66293349  0.16688365  0.82408934  1
  Ag  Ag48  1  0.33936226  0.00465794  0.34086531  1
  Ag  Ag49  1  0.50315630  0.32400763  0.82001789  1
  Ag  Ag50  1  0.83434604  0.65312755  0.50019706  1
  Ag  Ag51  1  0.82800936  0.49078408  0.65957362  1
  Ag  Ag52  1  0.33601033  0.32892728  0.33872219  1
  Ag  Ag53  1  0.49794997  0.83745929  0.33442111  1
  Sb  Sb54  1  -0.00134574  0.66407803  0.66114370  1
  Sb  Sb55  1  0.17028255  0.33380937  0.83037771  1
  Sb  Sb56  1  0.83521087  0.66205426  0.82641072  1
  Sb  Sb57  1  0.82804765  0.84134568  -0.00065688  1
  Sb  Sb58  1  0.50140897  0.16295845  0.34126738  1
  Sb  Sb59  1  0.83292146  0.83271703  0.33709941  1
  Sb  Sb60  1  0.66724010  0.66606312  -0.00612583  1
  Sb  Sb61  1  0.49987716  0.84028780  0.66513920  1
  Sb  Sb62  1  0.33153421  0.66603201  0.33547623  1
  Sb  Sb63  1  0.49940880  0.50020777  0.34265944  1
  Sb  Sb64  1  0.33334175  0.32932403  0.00226145  1
  Sb  Sb65  1  0.83155355  0.17166938  0.33643643  1
  Sb  Sb66  1  0.00068938  0.84042718  0.17267661  1
  Sb  Sb67  1  0.82601916  0.00227198  0.82751393  1
  Sb  Sb68  1  0.50517476  -0.00120535  0.16849292  1
  Sb  Sb69  1  0.33636839  0.16821661  0.50593338  1
  Sb  Sb70  1  0.82785894  0.33288959  0.83156981  1
  Sb  Sb71  1  0.50354980  0.33633952  0.17311812  1
  Sb  Sb72  1  0.33326244  0.66988441  -0.00112067  1
  Sb  Sb73  1  -0.00043632  0.49450148  0.17055759  1
  Sb  Sb74  1  0.17199806  0.00010550  0.82421407  1
  Sb  Sb75  1  0.16196081  0.00756792  0.17236605  1
  Sb  Sb76  1  0.16805907  0.17055536  0.33840194  1
  Sb  Sb77  1  0.67051336  0.49280701  0.82501095  1
  Sb  Sb78  1  0.16194473  0.66384970  0.50286252  1
  Sb  Sb79  1  0.49910568  0.66882966  0.83268198  1
  Sb  Sb80  1  0.00010640  0.65615329  0.00145031  1
  Sb  Sb81  1  -0.00378346  0.33320011  0.66850353  1
  Sb  Sb82  1  -0.00164446  -0.00227294  0.34379052  1
  Sb  Sb83  1  0.66789380  0.49751653  0.17311551  1
  Sb  Sb84  1  0.50110577  0.49920603  -0.00679340  1
  Sb  Sb85  1  -0.00111338  0.83073668  0.82695300  1
  Sb  Sb86  1  0.33766000  0.32900674  0.66061590  1
  Sb  Sb87  1  0.33206837  0.49682992  0.17180114  1
  Sb  Sb88  1  0.67103980  0.16602296  0.16574266  1
  Sb  Sb89  1  0.32908999  0.83530000  0.50026089  1
  Sb  Sb90  1  0.32969188  0.49423076  0.82692598  1
  Sb  Sb91  1  -0.00236724  0.17102992  0.83360863  1
  Sb  Sb92  1  0.50570783  0.66517439  0.49967687  1
  Sb  Sb93  1  0.66604079  0.83562350  0.16598382  1
  Sb  Sb94  1  0.33699975  0.84012626  0.83200101  1
  Sb  Sb95  1  0.66885448  0.66611223  0.34002976  1
  Sb  Sb96  1  0.33244751  0.66776263  0.66606194  1
  Sb  Sb97  1  -0.00301055  0.33613421  0.33298872  1
  Sb  Sb98  1  -0.00469666  0.16911933  0.50023317  1
  Sb  Sb99  1  0.16825912  0.65907011  0.16764085  1
  Sb  Sb100  1  -0.00265638  0.00657307  -0.00505867  1
  Sb  Sb101  1  0.50414092  0.16323055  -0.00811062  1
  Sb  Sb102  1  0.32857469  0.16628537  0.16203304  1
  Sb  Sb103  1  0.83440938  0.83725582  0.66386851  1
  Sb  Sb104  1  0.33432191  0.83547116  0.16820290  1
  Sb  Sb105  1  0.16980192  0.83820167  -0.00118419  1
  Sb  Sb106  1  0.83043817  0.66012773  0.17212019  1
  Sb  Sb107  1  0.66880858  0.83815609  0.50298620  1
  Te  Te108  1  0.16184370  0.17356029  0.16309577  1
  Te  Te109  1  0.16636259  0.16412585  0.50468296  1
  Te  Te110  1  0.16504549  0.16573336  0.83264309  1
  Te  Te111  1  0.16759146  0.49332766  0.16088951  1
  Te  Te112  1  0.16410960  0.50149812  0.50059422  1
  Te  Te113  1  0.16557900  0.49972062  0.83522109  1
  Te  Te114  1  0.16582267  0.83279897  0.17138881  1
  Te  Te115  1  0.16332695  0.82963180  0.49967695  1
  Te  Te116  1  0.16684414  0.82941854  0.82994392  1
  Te  Te117  1  0.49817094  0.16910965  0.16599855  1
  Te  Te118  1  0.50275939  0.16732906  0.50611188  1
  Te  Te119  1  0.50129590  0.16456047  0.83109393  1
  Te  Te120  1  0.49982901  0.50550931  0.16471367  1
  Te  Te121  1  0.50073759  0.49851129  0.50479144  1
  Te  Te122  1  0.49833161  0.49956205  0.82448113  1
  Te  Te123  1  0.50028774  0.83094833  0.16760856  1
  Te  Te124  1  0.49789473  0.83665609  0.49475047  1
  Te  Te125  1  0.50417652  0.83677033  0.83486761  1
  Te  Te126  1  0.83465020  0.17014205  0.16768319  1
  Te  Te127  1  0.83122374  0.16541893  0.50317134  1
  Te  Te128  1  0.83055508  0.16653654  0.83034568  1
  Te  Te129  1  0.83228106  0.49314750  0.15890762  1
  Te  Te130  1  0.83663386  0.49740060  0.50121118  1
  Te  Te131  1  0.83997309  0.50012605  0.83818679  1
  Te  Te132  1  0.83440488  0.83518533  0.16740916  1
  Te  Te133  1  0.84078492  0.84524052  0.49921619  1
  Te  Te134  1  0.82672954  0.82975485  0.83342043  1
  Te  Te135  1  0.16615962  0.00479702  0.00278974  1
  Te  Te136  1  0.16704940  -0.00114118  0.33913802  1
  Te  Te137  1  0.16850165  0.00053938  0.66432966  1
  Te  Te138  1  0.17105879  0.33078758  -0.00349208  1
  Te  Te139  1  0.16559018  0.33560705  0.33463537  1
  Te  Te140  1  0.16658588  0.33357025  0.66307256  1
  Te  Te141  1  0.16692045  0.66882319  -0.00295310  1
  Te  Te142  1  0.16395632  0.66469161  0.33133908  1
  Te  Te143  1  0.16668834  0.66135644  0.67071244  1
  Te  Te144  1  0.50177114  -0.00155596  0.00315521  1
  Te  Te145  1  0.50103264  -0.00178278  0.33447630  1
  Te  Te146  1  0.49986497  0.00084356  0.66536020  1
  Te  Te147  1  0.50272863  0.33415872  0.00282235  1
  Te  Te148  1  0.50215160  0.33367176  0.33964940  1
  Te  Te149  1  0.49922012  0.33085269  0.66270600  1
  Te  Te150  1  0.50070718  0.67150681  0.00204535  1
  Te  Te151  1  0.49927041  0.67134444  0.33048019  1
  Te  Te152  1  0.50312810  0.66602975  0.66740157  1
  Te  Te153  1  0.82904450  0.00703255  -0.00067877  1
  Te  Te154  1  0.82927686  0.00022221  0.33559492  1
  Te  Te155  1  0.82709225  0.00381048  0.66241375  1
  Te  Te156  1  0.83314026  0.33094928  -0.00418684  1
  Te  Te157  1  0.83021736  0.33659666  0.33834656  1
  Te  Te158  1  0.83039856  0.33135512  0.66489678  1
  Te  Te159  1  0.83275022  0.66534004  0.00187590  1
  Te  Te160  1  0.83654731  0.66180398  0.33740530  1
  Te  Te161  1  0.83083686  0.66395989  0.66112017  1
  Te  Te162  1  -0.00132809  0.17003669  -0.00016679  1
  Te  Te163  1  0.00129237  0.16454880  0.32442442  1
  Te  Te164  1  0.00604973  0.16373090  0.66706092  1
  Te  Te165  1  0.00185931  0.49426287  0.00475390  1
  Te  Te166  1  0.00009837  0.50127361  0.33613308  1
  Te  Te167  1  -0.00017359  0.49969648  0.66536638  1
  Te  Te168  1  -0.00028169  0.83149151  -0.00144351  1
  Te  Te169  1  0.00359565  0.82992330  0.33932956  1
  Te  Te170  1  0.00334741  0.83560577  0.66313182  1
  Te  Te171  1  0.33082622  0.16235936  -0.00449004  1
  Te  Te172  1  0.33433180  0.16607803  0.33157689  1
  Te  Te173  1  0.32571735  0.16353148  0.66908386  1
  Te  Te174  1  0.33015118  0.50050755  -0.00130612  1
  Te  Te175  1  0.33081600  0.49656669  0.33900276  1
  Te  Te176  1  0.32513083  0.50120450  0.66209679  1
  Te  Te177  1  0.33822887  0.84014996  0.00025016  1
  Te  Te178  1  0.33121030  0.83631503  0.33357455  1
  Te  Te179  1  0.32660229  0.83880598  0.66711073  1
  Te  Te180  1  0.67045373  0.16592589  0.00126598  1
  Te  Te181  1  0.66602530  0.16654035  0.33574994  1
  Te  Te182  1  0.66651595  0.16753463  0.66577529  1
  Te  Te183  1  0.66726338  0.49692322  -0.00187557  1
  Te  Te184  1  0.66861216  0.49768282  0.34083499  1
  Te  Te185  1  0.66944022  0.49646670  0.66501585  1
  Te  Te186  1  0.66300454  0.83488943  -0.00403677  1
  Te  Te187  1  0.66241269  0.83579745  0.33359092  1
  Te  Te188  1  0.66630952  0.83396376  0.67041045  1
  Te  Te189  1  -0.00717299  0.00605250  0.16321653  1
  Te  Te190  1  0.00602071  0.00315197  0.50614636  1
  Te  Te191  1  -0.00011534  -0.00201836  0.82402067  1
  Te  Te192  1  -0.00121150  0.33007851  0.16454308  1
  Te  Te193  1  0.00526427  0.33755994  0.50103612  1
  Te  Te194  1  0.00362150  0.33989622  0.83949555  1
  Te  Te195  1  -0.00093556  0.67019050  0.17465730  1
  Te  Te196  1  -0.00390960  0.66617411  0.49813071  1
  Te  Te197  1  0.00468381  0.66136332  0.83476053  1
  Te  Te198  1  0.33075405  0.00083345  0.17130286  1
  Te  Te199  1  0.33186691  0.00034071  0.49991657  1
  Te  Te200  1  0.33793274  0.00450587  0.83446076  1
  Te  Te201  1  0.33124262  0.33279575  0.17612486  1
  Te  Te202  1  0.32450207  0.33282553  0.49581034  1
  Te  Te203  1  0.34235383  0.32647998  0.83510574  1
  Te  Te204  1  0.34040890  0.66582001  0.16666502  1
  Te  Te205  1  0.33631988  0.65779585  0.49992703  1
  Te  Te206  1  0.32635633  0.66693768  0.83399361  1
  Te  Te207  1  0.67323370  -0.00071667  0.16941815  1
  Te  Te208  1  0.66432891  -0.00123455  0.50226475  1
  Te  Te209  1  0.66445147  0.00442079  0.83146559  1
  Te  Te210  1  0.67156474  0.33332942  0.16035611  1
  Te  Te211  1  0.66623289  0.33242234  0.50078271  1
  Te  Te212  1  0.66103133  0.32944254  0.83577700  1
  Te  Te213  1  0.66228269  0.66668863  0.16650434  1
  Te  Te214  1  0.67309619  0.66961915  0.50546654  1
  Te  Te215  1  0.66616472  0.66587828  0.82530627  1
