# generated using pymatgen
data_AgSbTe2
_symmetry_space_group_name_H-M   'P 1'
_cell_length_a   18.34811194
_cell_length_b   18.35286851
_cell_length_c   18.34488802
_cell_angle_alpha   90.00150444
_cell_angle_beta   89.99706943
_cell_angle_gamma   89.99854043
_symmetry_Int_Tables_number   1
_chemical_formula_structural   AgSbTe2
_chemical_formula_sum   'Ag54 Sb54 Te108'
_cell_volume   6177.46649262
_cell_formula_units_Z   54
loop_
 _symmetry_equiv_pos_site_id
 _symmetry_equiv_pos_as_xyz
  1  'x, y, z'
loop_
 _atom_site_type_symbol
 _atom_site_label
 _atom_site_symmetry_multiplicity
 _atom_site_fract_x
 _atom_site_fract_y
 _atom_site_fract_z
 _atom_site_occupancy
  Ag  Ag0  1  0.34059309  0.49864382  0.82336287  1
  Ag  Ag1  1  0.00405359  0.17725092  0.82676185  1
  Ag  Ag2  1  0.33021302  0.33588869  0.33852579  1
  Ag  Ag3  1  0.49248260  0.82851923  0.33029549  1
  Ag  Ag4  1  0.33655072  0.33511932  0.66013868  1
  Ag  Ag5  1  0.66899021  0.33302898  0.33531985  1
  Ag  Ag6  1  0.82779698  0.49440744  -0.00048255  1
  Ag  Ag7  1  0.17264030  0.00537700  0.82851821  1
  Ag  Ag8  1  0.16382536  0.33145071  0.17681820  1
  Ag  Ag9  1  0.83523804  0.17178537  0.33165160  1
  Ag  Ag10  1  -0.00051499  0.49705881  0.17463660  1
  Ag  Ag11  1  0.17080973  0.17357013  0.33746290  1
  Ag  Ag12  1  0.65590106  0.49706304  0.83811536  1
  Ag  Ag13  1  0.66733308  0.83300033  0.50295549  1
  Ag  Ag14  1  0.01166966  0.49409954  0.49080199  1
  Ag  Ag15  1  0.49374941  0.65635544  0.83577038  1
  Ag  Ag16  1  0.17105941  0.49460825  0.33541832  1
  Ag  Ag17  1  0.33131080  0.49554522  0.49938176  1
  Ag  Ag18  1  0.49490460  0.49217101  0.67655743  1
  Ag  Ag19  1  0.83609210  0.33276988  0.48849020  1
  Ag  Ag20  1  0.49868705  0.82310498  -0.00403257  1
  Ag  Ag21  1  0.49031522  0.17506356  0.33750384  1
  Ag  Ag22  1  0.83546020  0.33435331  0.83445315  1
  Ag  Ag23  1  0.33153470  0.66283341  0.33831791  1
  Ag  Ag24  1  0.49767863  0.66135468  0.16736511  1
  Ag  Ag25  1  0.49241672  0.00167570  0.83138749  1
  Ag  Ag26  1  0.00752078  0.33367450  0.33564792  1
  Ag  Ag27  1  0.01380159  0.65115282  0.33457537  1
  Ag  Ag28  1  0.16700024  0.00956416  0.17826792  1
  Ag  Ag29  1  0.33619631  0.83353385  0.17524669  1
  Ag  Ag30  1  0.33202171  0.00737856  0.66164214  1
  Ag  Ag31  1  0.17689313  0.65189418  0.82495923  1
  Ag  Ag32  1  0.33293816  0.65603387  0.66103961  1
  Ag  Ag33  1  0.32980567  0.17462403  0.50021746  1
  Ag  Ag34  1  0.82757476  0.83450288  0.66632035  1
  Ag  Ag35  1  0.16531296  0.33550961  0.83518734  1
  Ag  Ag36  1  0.00603802  0.49621199  0.83253025  1
  Ag  Ag37  1  0.83522797  0.17648850  0.01306521  1
  Ag  Ag38  1  0.49091878  0.49427607  0.33280398  1
  Ag  Ag39  1  0.67179147  0.17600279  0.17214765  1
  Ag  Ag40  1  0.49288266  0.17432280  0.66416044  1
  Ag  Ag41  1  0.17338048  0.16697233  0.65438777  1
  Ag  Ag42  1  0.49857866  0.34115575  0.82563907  1
  Ag  Ag43  1  0.50332687  0.50227391  -0.00894336  1
  Ag  Ag44  1  0.83447792  0.33312672  0.17177589  1
  Ag  Ag45  1  0.66069478  0.82579018  0.82657204  1
  Ag  Ag46  1  0.65849580  0.33328960  0.66480583  1
  Ag  Ag47  1  0.66653981  0.49544602  0.16583790  1
  Ag  Ag48  1  0.16924698  0.66585830  0.49663002  1
  Ag  Ag49  1  0.17025848  0.00897967  0.49499858  1
  Ag  Ag50  1  0.83932913  0.01442116  0.16822676  1
  Ag  Ag51  1  0.01038138  0.17392660  0.49995619  1
  Ag  Ag52  1  0.17322350  0.83432223  0.33413917  1
  Ag  Ag53  1  0.33078132  0.00094224  0.33825013  1
  Sb  Sb54  1  0.83189509  0.65987603  0.83200111  1
  Sb  Sb55  1  0.17089883  0.66366461  0.17301846  1
  Sb  Sb56  1  0.66572725  0.00089851  -0.00003402  1
  Sb  Sb57  1  0.66079528  0.66242622  0.66709146  1
  Sb  Sb58  1  0.00977070  0.00730431  0.33287018  1
  Sb  Sb59  1  0.49353095  0.66604840  0.49996374  1
  Sb  Sb60  1  -0.00063635  0.00327879  0.00170684  1
  Sb  Sb61  1  0.33379858  -0.00077770  -0.00014929  1
  Sb  Sb62  1  0.66029203  0.83137913  0.16798234  1
  Sb  Sb63  1  0.50000170  0.83252016  0.66679944  1
  Sb  Sb64  1  0.82831086  0.49781090  0.67019117  1
  Sb  Sb65  1  0.82641116  0.83383914  -0.00401437  1
  Sb  Sb66  1  0.33583896  0.66508608  0.00121090  1
  Sb  Sb67  1  0.00507249  0.82934858  0.17140136  1
  Sb  Sb68  1  0.00525159  0.00258121  0.66636139  1
  Sb  Sb69  1  0.50022629  0.33774096  0.16896344  1
  Sb  Sb70  1  0.66719634  0.17351704  0.83521331  1
  Sb  Sb71  1  0.66051391  0.00368060  0.66752207  1
  Sb  Sb72  1  0.49368178  0.00043494  0.50070708  1
  Sb  Sb73  1  0.00002577  0.83260653  0.49796430  1
  Sb  Sb74  1  0.83331505  0.16900267  0.66290099  1
  Sb  Sb75  1  -0.00291508  0.33355134  0.00193759  1
  Sb  Sb76  1  0.83852908  0.00534218  0.49588095  1
  Sb  Sb77  1  0.00831303  0.66342415  0.66244915  1
  Sb  Sb78  1  0.33694299  0.83066902  0.83477026  1
  Sb  Sb79  1  0.65951655  0.00491417  0.33298796  1
  Sb  Sb80  1  0.16280704  0.16702727  0.00076740  1
  Sb  Sb81  1  0.17390973  0.49229234  0.66610027  1
  Sb  Sb82  1  0.17286869  0.83270143  0.00381567  1
  Sb  Sb83  1  0.50519693  0.17081590  -0.00031502  1
  Sb  Sb84  1  0.83984212  0.66049024  0.49939958  1
  Sb  Sb85  1  0.16648887  0.83764462  0.66378733  1
  Sb  Sb86  1  0.49884638  0.33374019  0.50214301  1
  Sb  Sb87  1  0.16904783  0.49998587  -0.00037525  1
  Sb  Sb88  1  0.33468720  0.33493950  -0.00078332  1
  Sb  Sb89  1  0.00408190  0.33383444  0.66503962  1
  Sb  Sb90  1  0.83313391  0.83946614  0.33547783  1
  Sb  Sb91  1  0.66366715  0.49872484  0.49913166  1
  Sb  Sb92  1  0.16717869  0.33286944  0.49830220  1
  Sb  Sb93  1  0.33483768  0.16519457  0.17762335  1
  Sb  Sb94  1  0.83660830  0.49146890  0.33169091  1
  Sb  Sb95  1  0.83389277  0.00596618  0.83519411  1
  Sb  Sb96  1  -0.00009993  0.83115722  0.83235206  1
  Sb  Sb97  1  0.32946536  0.17390900  0.82395540  1
  Sb  Sb98  1  0.33387608  0.50144731  0.17279144  1
  Sb  Sb99  1  0.66351782  0.66309708  -0.00139950  1
  Sb  Sb100  1  0.33420603  0.83264262  0.49370684  1
  Sb  Sb101  1  0.65960107  0.66107593  0.33413509  1
  Sb  Sb102  1  0.00154547  0.66182442  0.00312582  1
  Sb  Sb103  1  0.49693377  -0.00133127  0.16591710  1
  Sb  Sb104  1  0.66891604  0.33628689  0.00187503  1
  Sb  Sb105  1  0.66461358  0.16794877  0.49653411  1
  Sb  Sb106  1  0.83042506  0.65910527  0.16970920  1
  Sb  Sb107  1  -0.00287694  0.17474449  0.17014029  1
  Te  Te108  1  0.16554164  0.16905583  0.16952505  1
  Te  Te109  1  0.16784066  0.16775215  0.49898788  1
  Te  Te110  1  0.16337542  0.16580273  0.83767667  1
  Te  Te111  1  0.16481280  0.49545467  0.16677737  1
  Te  Te112  1  0.16852751  0.50135871  0.50089641  1
  Te  Te113  1  0.16620117  0.49737994  0.83247774  1
  Te  Te114  1  0.17253039  0.83176005  0.17162155  1
  Te  Te115  1  0.16460454  0.82986482  0.49527103  1
  Te  Te116  1  0.16590281  0.84121838  0.83448661  1
  Te  Te117  1  0.50676224  0.16674583  0.16936610  1
  Te  Te118  1  0.49618796  0.16483507  0.49863358  1
  Te  Te119  1  0.49833000  0.16251364  0.83352603  1
  Te  Te120  1  0.50063122  0.50112879  0.17385711  1
  Te  Te121  1  0.49629290  0.50198813  0.49180821  1
  Te  Te122  1  0.49877940  0.49970929  0.83246129  1
  Te  Te123  1  0.49761518  0.83211664  0.16947295  1
  Te  Te124  1  0.50567806  0.83328455  0.49557051  1
  Te  Te125  1  0.50233962  0.83758161  0.83354474  1
  Te  Te126  1  0.83569665  0.17065545  0.16973467  1
  Te  Te127  1  0.83434303  0.17193182  0.49503157  1
  Te  Te128  1  0.83654208  0.17051688  0.83088685  1
  Te  Te129  1  0.83099968  0.49671469  0.16290451  1
  Te  Te130  1  0.83368722  0.49249016  0.50178347  1
  Te  Te131  1  0.83439970  0.49645436  0.83621736  1
  Te  Te132  1  0.83321182  0.83199460  0.16447678  1
  Te  Te133  1  0.83170438  0.83510499  0.50267862  1
  Te  Te134  1  0.82790093  0.83374235  0.83076522  1
  Te  Te135  1  0.16585290  -0.00203540  -0.00376248  1
  Te  Te136  1  0.16913477  0.00161914  0.33442886  1
  Te  Te137  1  0.17062667  0.00404867  0.66772262  1
  Te  Te138  1  0.16722033  0.33398411  -0.00444175  1
  Te  Te139  1  0.16754703  0.33442412  0.33506686  1
  Te  Te140  1  0.17093507  0.32578716  0.67515112  1
  Te  Te141  1  0.16707783  0.66848034  -0.01259413  1
  Te  Te142  1  0.16960509  0.66198582  0.33228454  1
  Te  Te143  1  0.17387355  0.66990965  0.66609447  1
  Te  Te144  1  0.49964995  0.00043212  -0.00504204  1
  Te  Te145  1  0.49167498  0.00090506  0.33233735  1
  Te  Te146  1  0.49478958  0.00188640  0.66929015  1
  Te  Te147  1  0.50072414  0.33898396  -0.00814904  1
  Te  Te148  1  0.49629590  0.33342437  0.33306222  1
  Te  Te149  1  0.49872710  0.33296453  0.66569712  1
  Te  Te150  1  0.49995231  0.66388773  -0.00049809  1
  Te  Te151  1  0.49558926  0.66719911  0.33249062  1
  Te  Te152  1  0.49340234  0.66322403  0.67008877  1
  Te  Te153  1  0.83280616  0.00142167  0.00747511  1
  Te  Te154  1  0.83397225  0.00673977  0.32803856  1
  Te  Te155  1  0.83224339  -0.00344145  0.66550572  1
  Te  Te156  1  0.83342235  0.33484471  -0.00157111  1
  Te  Te157  1  0.83146785  0.33216468  0.33069925  1
  Te  Te158  1  0.82917035  0.33327643  0.67430342  1
  Te  Te159  1  0.83398598  0.66086581  0.00062599  1
  Te  Te160  1  0.83428924  0.66985580  0.33522162  1
  Te  Te161  1  0.83218918  0.67136518  0.66465057  1
  Te  Te162  1  -0.00662879  0.16605957  -0.00905298  1
  Te  Te163  1  0.00362823  0.17211284  0.33576244  1
  Te  Te164  1  0.00341622  0.16643960  0.66504725  1
  Te  Te165  1  -0.00092736  0.50071709  -0.00580462  1
  Te  Te166  1  -0.00019576  0.49541724  0.33370901  1
  Te  Te167  1  -0.00226830  0.50120440  0.67156192  1
  Te  Te168  1  -0.00207425  0.83116580  0.00138217  1
  Te  Te169  1  0.00395623  0.83121569  0.33376176  1
  Te  Te170  1  -0.00768001  0.83209603  0.66629978  1
  Te  Te171  1  0.33407023  0.16639632  0.00323866  1
  Te  Te172  1  0.33193579  0.16849115  0.33724305  1
  Te  Te173  1  0.33317704  0.16717103  0.66398290  1
  Te  Te174  1  0.33802013  0.50024941  -0.00787651  1
  Te  Te175  1  0.32998077  0.49836847  0.33361388  1
  Te  Te176  1  0.33379843  0.49749768  0.66341745  1
  Te  Te177  1  0.34054609  0.83327070  0.00921609  1
  Te  Te178  1  0.33222306  0.83366574  0.33480626  1
  Te  Te179  1  0.33230854  0.83646360  0.66698308  1
  Te  Te180  1  0.67367420  0.16695245  0.00631113  1
  Te  Te181  1  0.66582888  0.16946632  0.33126764  1
  Te  Te182  1  0.65988531  0.17243974  0.66612324  1
  Te  Te183  1  0.66589606  0.50059593  -0.00015808  1
  Te  Te184  1  0.66433877  0.49511915  0.33114774  1
  Te  Te185  1  0.65932102  0.49541571  0.66785397  1
  Te  Te186  1  0.65908718  0.83360540  -0.00456070  1
  Te  Te187  1  0.66408575  0.83320419  0.33662042  1
  Te  Te188  1  0.66732865  0.83448798  0.66733865  1
  Te  Te189  1  0.00304638  -0.00262289  0.16649093  1
  Te  Te190  1  0.00724321  0.00435277  0.50024910  1
  Te  Te191  1  0.00222209  -0.00144274  0.83381101  1
  Te  Te192  1  0.00086987  0.33780083  0.16778842  1
  Te  Te193  1  -0.00315370  0.33436852  0.50088721  1
  Te  Te194  1  0.00074795  0.33424333  0.83144239  1
  Te  Te195  1  0.00005540  0.65829440  0.17267761  1
  Te  Te196  1  0.00713274  0.66063159  0.49537595  1
  Te  Te197  1  0.00149539  0.66332482  0.83252132  1
  Te  Te198  1  0.32809081  -0.00225303  0.16947087  1
  Te  Te199  1  0.32890816  -0.00062367  0.50016456  1
  Te  Te200  1  0.33331043  0.00012406  0.83201483  1
  Te  Te201  1  0.32810060  0.33316991  0.17009853  1
  Te  Te202  1  0.33382554  0.33374770  0.50023510  1
  Te  Te203  1  0.33421397  0.33747201  0.83432370  1
  Te  Te204  1  0.33776660  0.66874805  0.17011663  1
  Te  Te205  1  0.32899309  0.66582203  0.50029436  1
  Te  Te206  1  0.33428944  0.66495815  0.83445299  1
  Te  Te207  1  0.66947289  0.00090432  0.16740949  1
  Te  Te208  1  0.66987970  -0.00556733  0.50051986  1
  Te  Te209  1  0.66574695  0.00008504  0.83237759  1
  Te  Te210  1  0.66572623  0.33470536  0.17006574  1
  Te  Te211  1  0.67354558  0.33308142  0.49813642  1
  Te  Te212  1  0.66525933  0.33687013  0.83193678  1
  Te  Te213  1  0.65937627  0.66100559  0.16749220  1
  Te  Te214  1  0.67163175  0.67159576  0.50111754  1
  Te  Te215  1  0.66385263  0.66354336  0.83155415  1
