# generated using pymatgen
data_AgSbTe2
_symmetry_space_group_name_H-M   'P 1'
_cell_length_a   18.34621629
_cell_length_b   18.34140025
_cell_length_c   18.34786490
_cell_angle_alpha   89.99708368
_cell_angle_beta   89.99846405
_cell_angle_gamma   89.99932075
_symmetry_Int_Tables_number   1
_chemical_formula_structural   AgSbTe2
_chemical_formula_sum   'Ag54 Sb54 Te108'
_cell_volume   6173.97022146
_cell_formula_units_Z   54
loop_
 _symmetry_equiv_pos_site_id
 _symmetry_equiv_pos_as_xyz
  1  'x, y, z'
loop_
 _atom_site_type_symbol
 _atom_site_label
 _atom_site_symmetry_multiplicity
 _atom_site_fract_x
 _atom_site_fract_y
 _atom_site_fract_z
 _atom_site_occupancy
  Ag  Ag0  1  0.67101420  0.82777675  0.16084017  1
  Ag  Ag1  1  0.66840296  0.50742747  0.15532922  1
  Ag  Ag2  1  0.50486623  0.84113601  -0.00031805  1
  Ag  Ag3  1  0.50925376  0.50578824  0.33766504  1
  Ag  Ag4  1  0.34595168  0.50784384  0.83276865  1
  Ag  Ag5  1  0.50931290  0.15343441  -0.00275194  1
  Ag  Ag6  1  0.66842253  0.32955074  -0.00701161  1
  Ag  Ag7  1  0.66839777  0.32109647  0.67271498  1
  Ag  Ag8  1  0.82623540  0.15762236  -0.00856133  1
  Ag  Ag9  1  -0.00334709  0.66734620  0.33891704  1
  Ag  Ag10  1  -0.00992468  0.67772366  0.66078419  1
  Ag  Ag11  1  0.34806337  -0.00300522  0.00092782  1
  Ag  Ag12  1  0.66932683  0.15843676  0.83098480  1
  Ag  Ag13  1  0.83536665  0.84024963  0.66667264  1
  Ag  Ag14  1  0.32861798  0.83168023  0.83490262  1
  Ag  Ag15  1  0.83485069  0.00216730  0.51321917  1
  Ag  Ag16  1  0.66783817  0.66717343  0.00464930  1
  Ag  Ag17  1  -0.01219605  -0.01082719  0.67457168  1
  Ag  Ag18  1  0.00271422  0.83764991  0.82547859  1
  Ag  Ag19  1  -0.00181266  0.50605072  0.49912879  1
  Ag  Ag20  1  0.51210244  0.16362232  0.66875974  1
  Ag  Ag21  1  0.67100833  0.66525539  0.66762677  1
  Ag  Ag22  1  0.66728369  0.49935091  0.83159561  1
  Ag  Ag23  1  0.33606471  0.66769199  0.66581342  1
  Ag  Ag24  1  0.83011305  0.00180853  0.82768149  1
  Ag  Ag25  1  0.82922834  0.50519478  0.33524345  1
  Ag  Ag26  1  0.15733026  0.50792561  0.00031585  1
  Ag  Ag27  1  0.16296738  0.82972293  0.32030909  1
  Ag  Ag28  1  0.51155890  0.50418098  0.66555042  1
  Ag  Ag29  1  -0.01359626  0.15496404  0.82597778  1
  Ag  Ag30  1  -0.00409949  -0.00375872  -0.00849136  1
  Ag  Ag31  1  0.82898778  0.66644615  0.16739447  1
  Ag  Ag32  1  0.67772258  0.01070010  0.67819147  1
  Ag  Ag33  1  0.16445198  0.83459812  0.00239632  1
  Ag  Ag34  1  0.50287548  0.66582474  0.50146250  1
  Ag  Ag35  1  0.33666815  0.66723609  0.33384280  1
  Ag  Ag36  1  0.49969475  0.00113242  0.15394141  1
  Ag  Ag37  1  0.16078474  0.67369546  0.16827938  1
  Ag  Ag38  1  0.82691028  0.50167794  -0.00192457  1
  Ag  Ag39  1  0.66863929  0.66354180  0.33025207  1
  Ag  Ag40  1  0.51152943  0.00030940  0.84236063  1
  Ag  Ag41  1  0.33835940  0.16075041  0.16500379  1
  Ag  Ag42  1  0.66121535  0.00279114  -0.00482804  1
  Ag  Ag43  1  0.15909998  0.33397335  0.50070759  1
  Ag  Ag44  1  0.82786713  0.50476936  0.66941081  1
  Ag  Ag45  1  0.67194431  0.16403557  0.51666600  1
  Ag  Ag46  1  0.15019385  0.83166745  0.66987772  1
  Ag  Ag47  1  0.00240373  0.83118879  0.16448965  1
  Ag  Ag48  1  -0.00883786  0.16165685  0.50560633  1
  Ag  Ag49  1  0.82540263  0.15376269  0.67433101  1
  Ag  Ag50  1  0.16733841  -0.00931960  0.16207373  1
  Ag  Ag51  1  0.50214745  0.16782076  0.33175547  1
  Ag  Ag52  1  -0.00064306  0.83033621  0.51279020  1
  Ag  Ag53  1  -0.00008868  0.34355577  0.33859351  1
  Sb  Sb54  1  -0.00741554  0.50308618  0.82966953  1
  Sb  Sb55  1  0.33042717  0.33837359  0.33338404  1
  Sb  Sb56  1  0.83360241  0.83427567  -0.00444781  1
  Sb  Sb57  1  0.16101736  -0.00336484  0.83841323  1
  Sb  Sb58  1  -0.00670285  0.50898246  0.17015005  1
  Sb  Sb59  1  0.83517172  0.33071413  0.50248627  1
  Sb  Sb60  1  0.33889803  0.33010982  -0.00140928  1
  Sb  Sb61  1  0.16036438  0.15980516  0.66587146  1
  Sb  Sb62  1  0.50333273  0.32853979  0.16668219  1
  Sb  Sb63  1  0.50595623  0.83228846  0.67178600  1
  Sb  Sb64  1  0.50690141  0.50198647  -0.00288340  1
  Sb  Sb65  1  0.16473128  0.50720873  0.32912174  1
  Sb  Sb66  1  0.16386060  0.66569594  0.49753544  1
  Sb  Sb67  1  0.66436195  0.16279724  0.15958887  1
  Sb  Sb68  1  0.15783127  -0.00064599  0.49761860  1
  Sb  Sb69  1  0.16527828  0.33583156  0.83010604  1
  Sb  Sb70  1  0.33126338  0.83487255  0.16014615  1
  Sb  Sb71  1  0.33417796  -0.00546236  0.32559754  1
  Sb  Sb72  1  0.33896325  0.33832062  0.66738551  1
  Sb  Sb73  1  0.83201663  0.66840610  0.50013151  1
  Sb  Sb74  1  0.66861702  0.83662069  0.83606657  1
  Sb  Sb75  1  0.33708064  0.16553467  0.49784651  1
  Sb  Sb76  1  0.67211035  0.83418061  0.50000847  1
  Sb  Sb77  1  0.50466513  0.32876552  0.83296602  1
  Sb  Sb78  1  0.66979538  0.33887729  0.33500050  1
  Sb  Sb79  1  -0.00700811  0.33095346  0.66200543  1
  Sb  Sb80  1  0.50208591  0.67056739  0.82947431  1
  Sb  Sb81  1  0.83106919  0.67162250  0.83227290  1
  Sb  Sb82  1  0.33078147  0.50328720  0.50362405  1
  Sb  Sb83  1  0.16393144  0.33525070  0.16827183  1
  Sb  Sb84  1  0.16517589  0.16091524  -0.00002875  1
  Sb  Sb85  1  0.66619516  -0.00373738  0.33006734  1
  Sb  Sb86  1  0.83810516  0.82723870  0.33605573  1
  Sb  Sb87  1  0.32683405  0.83181620  0.50571957  1
  Sb  Sb88  1  -0.00628390  0.32941767  0.00368066  1
  Sb  Sb89  1  -0.00374997  0.67210159  -0.00089083  1
  Sb  Sb90  1  0.33607818  -0.00547917  0.67610100  1
  Sb  Sb91  1  0.16660164  0.67006610  0.83679915  1
  Sb  Sb92  1  0.49710092  0.83070114  0.32800179  1
  Sb  Sb93  1  0.50472836  0.67081149  0.16888519  1
  Sb  Sb94  1  0.83112788  0.34033251  0.16642188  1
  Sb  Sb95  1  0.16427702  0.50706137  0.66977440  1
  Sb  Sb96  1  0.67240405  0.49839854  0.50645618  1
  Sb  Sb97  1  0.00208601  0.15848449  0.16727421  1
  Sb  Sb98  1  0.83007937  0.17115997  0.33469683  1
  Sb  Sb99  1  0.33630284  0.67211460  0.00005912  1
  Sb  Sb100  1  0.33990045  0.16142053  0.83757696  1
  Sb  Sb101  1  -0.00117700  -0.00657207  0.33475859  1
  Sb  Sb102  1  0.16816157  0.16229893  0.33337852  1
  Sb  Sb103  1  0.50044039  0.33689379  0.50100373  1
  Sb  Sb104  1  0.83199403  -0.00640324  0.16248295  1
  Sb  Sb105  1  0.83091069  0.32521032  0.83148877  1
  Sb  Sb106  1  0.33878124  0.50114878  0.16222152  1
  Sb  Sb107  1  0.50665256  -0.00232237  0.50337939  1
  Te  Te108  1  0.17198053  0.16422806  0.16732718  1
  Te  Te109  1  0.16333321  0.16929074  0.49929907  1
  Te  Te110  1  0.16705452  0.16812979  0.83238732  1
  Te  Te111  1  0.16838247  0.50268824  0.16079094  1
  Te  Te112  1  0.16014156  0.49713296  0.49959105  1
  Te  Te113  1  0.16275510  0.50139096  0.83994556  1
  Te  Te114  1  0.16975884  0.83277135  0.16289359  1
  Te  Te115  1  0.15992824  0.83317398  0.50593731  1
  Te  Te116  1  0.16580064  0.83308034  0.83476462  1
  Te  Te117  1  0.49892896  0.16256506  0.16549308  1
  Te  Te118  1  0.50391814  0.16705453  0.50283618  1
  Te  Te119  1  0.50305879  0.16255590  0.83262077  1
  Te  Te120  1  0.50529246  0.49946893  0.17095944  1
  Te  Te121  1  0.49824787  0.50365980  0.50079946  1
  Te  Te122  1  0.50391045  0.50073124  0.82948842  1
  Te  Te123  1  0.50152705  0.83833860  0.16234246  1
  Te  Te124  1  0.49950942  0.82839600  0.49858991  1
  Te  Te125  1  0.49821198  0.83829541  0.83798708  1
  Te  Te126  1  0.83413135  0.16686322  0.16283629  1
  Te  Te127  1  0.83205686  0.16468920  0.49974933  1
  Te  Te128  1  0.83033846  0.16279384  0.83321824  1
  Te  Te129  1  0.82896912  0.50644665  0.16537645  1
  Te  Te130  1  0.83880996  0.50007486  0.49793186  1
  Te  Te131  1  0.82922731  0.50205074  0.83454563  1
  Te  Te132  1  0.83240799  0.82756257  0.16740039  1
  Te  Te133  1  0.83930115  0.83857375  0.50321772  1
  Te  Te134  1  0.83850066  0.83865670  0.82895030  1
  Te  Te135  1  0.15633419  -0.00306352  0.00368539  1
  Te  Te136  1  0.16736228  -0.00680435  0.32616804  1
  Te  Te137  1  0.16726110  -0.00728291  0.66590898  1
  Te  Te138  1  0.16676218  0.33736447  0.00006498  1
  Te  Te139  1  0.16211445  0.33419899  0.33650372  1
  Te  Te140  1  0.16780600  0.33320874  0.66238816  1
  Te  Te141  1  0.16725396  0.66834935  0.00466851  1
  Te  Te142  1  0.16319527  0.67034941  0.33089863  1
  Te  Te143  1  0.17051788  0.67185417  0.66591251  1
  Te  Te144  1  0.50376456  -0.00201662  -0.00162174  1
  Te  Te145  1  0.49944801  0.00521468  0.33412556  1
  Te  Te146  1  0.50383184  0.00294296  0.66937630  1
  Te  Te147  1  0.50720301  0.32844778  0.00024333  1
  Te  Te148  1  0.49898509  0.33441700  0.33464124  1
  Te  Te149  1  0.50602217  0.33727500  0.66634422  1
  Te  Te150  1  0.50524535  0.67118416  0.00033838  1
  Te  Te151  1  0.50169274  0.66563645  0.33524037  1
  Te  Te152  1  0.49952373  0.66547632  0.66459897  1
  Te  Te153  1  0.83556045  0.00026612  -0.00089818  1
  Te  Te154  1  0.83189870  0.00108607  0.33433076  1
  Te  Te155  1  0.83247244  -0.00023549  0.66848276  1
  Te  Te156  1  0.82769128  0.33876121  -0.00012838  1
  Te  Te157  1  0.83886744  0.34094320  0.33352345  1
  Te  Te158  1  0.82627592  0.34583912  0.66696469  1
  Te  Te159  1  0.82919830  0.66491948  0.00263062  1
  Te  Te160  1  0.83291320  0.66350284  0.33201260  1
  Te  Te161  1  0.83370636  0.66361396  0.66664032  1
  Te  Te162  1  -0.00331768  0.16327026  -0.00204124  1
  Te  Te163  1  -0.00050271  0.16628072  0.33792054  1
  Te  Te164  1  -0.00397627  0.16595736  0.66624222  1
  Te  Te165  1  -0.00279973  0.49923471  -0.00080435  1
  Te  Te166  1  -0.00103299  0.50530369  0.33537123  1
  Te  Te167  1  -0.00206548  0.49991732  0.66302123  1
  Te  Te168  1  0.00068376  0.83451395  0.00301763  1
  Te  Te169  1  0.00292749  0.82762967  0.32492416  1
  Te  Te170  1  -0.00456151  0.83379897  0.66831931  1
  Te  Te171  1  0.33544579  0.16195312  0.00279434  1
  Te  Te172  1  0.33903310  0.16724197  0.33001295  1
  Te  Te173  1  0.33503879  0.16794618  0.66749803  1
  Te  Te174  1  0.33592351  0.49982770  -0.00570556  1
  Te  Te175  1  0.33661473  0.50569162  0.33259771  1
  Te  Te176  1  0.33264603  0.50614226  0.67172805  1
  Te  Te177  1  0.32975215  0.83602651  -0.00490448  1
  Te  Te178  1  0.32812083  0.82673644  0.33663791  1
  Te  Te179  1  0.33796754  0.82797101  0.67289080  1
  Te  Te180  1  0.66812105  0.16580836  -0.00138516  1
  Te  Te181  1  0.66205522  0.16883261  0.32787554  1
  Te  Te182  1  0.66804032  0.16573916  0.67248161  1
  Te  Te183  1  0.66727382  0.50350236  -0.00224018  1
  Te  Te184  1  0.66825523  0.50227375  0.33960896  1
  Te  Te185  1  0.66754651  0.50879373  0.66553323  1
  Te  Te186  1  0.66744686  0.83214632  0.00042670  1
  Te  Te187  1  0.66615480  0.82763232  0.32950379  1
  Te  Te188  1  0.67252025  0.82526333  0.66625465  1
  Te  Te189  1  0.00178600  -0.00599731  0.16548464  1
  Te  Te190  1  -0.00384555  0.00067804  0.50173626  1
  Te  Te191  1  0.00037763  -0.00092641  0.83203205  1
  Te  Te192  1  -0.00030692  0.33228442  0.17520858  1
  Te  Te193  1  0.00065959  0.33148769  0.49791019  1
  Te  Te194  1  0.00052177  0.32706122  0.83405610  1
  Te  Te195  1  0.00005254  0.67069574  0.16595069  1
  Te  Te196  1  -0.00064356  0.66831881  0.50045597  1
  Te  Te197  1  -0.00063829  0.67186784  0.82563657  1
  Te  Te198  1  0.33460572  0.00075205  0.16151845  1
  Te  Te199  1  0.33250577  -0.00002831  0.50070062  1
  Te  Te200  1  0.33456760  -0.00403723  0.84053845  1
  Te  Te201  1  0.33225311  0.32595730  0.16647458  1
  Te  Te202  1  0.32383642  0.33375034  0.50005765  1
  Te  Te203  1  0.33320607  0.34331343  0.83318482  1
  Te  Te204  1  0.32971564  0.66547962  0.17107581  1
  Te  Te205  1  0.33747408  0.66689089  0.50013164  1
  Te  Te206  1  0.33392472  0.66761189  0.83153252  1
  Te  Te207  1  0.66392141  -0.00639527  0.16241469  1
  Te  Te208  1  0.67185071  0.00285822  0.49967366  1
  Te  Te209  1  0.66887996  -0.00197317  0.83433811  1
  Te  Te210  1  0.66698610  0.34306972  0.16425689  1
  Te  Te211  1  0.66621056  0.32455327  0.50330024  1
  Te  Te212  1  0.66708934  0.33811148  0.83280320  1
  Te  Te213  1  0.66616724  0.66718564  0.16770229  1
  Te  Te214  1  0.66446711  0.66724812  0.49796755  1
  Te  Te215  1  0.66679682  0.66364403  0.83215178  1
