# generated using pymatgen
data_AgSbTe2
_symmetry_space_group_name_H-M   'P 1'
_cell_length_a   18.32404263
_cell_length_b   18.32470831
_cell_length_c   18.32716221
_cell_angle_alpha   90.00014688
_cell_angle_beta   89.99891239
_cell_angle_gamma   89.99821741
_symmetry_Int_Tables_number   1
_chemical_formula_structural   AgSbTe2
_chemical_formula_sum   'Ag54 Sb54 Te108'
_cell_volume   6153.94467238
_cell_formula_units_Z   54
loop_
 _symmetry_equiv_pos_site_id
 _symmetry_equiv_pos_as_xyz
  1  'x, y, z'
loop_
 _atom_site_type_symbol
 _atom_site_label
 _atom_site_symmetry_multiplicity
 _atom_site_fract_x
 _atom_site_fract_y
 _atom_site_fract_z
 _atom_site_occupancy
  Ag  Ag0  1  0.83747038  0.49727393  0.00156723  1
  Ag  Ag1  1  -0.00015468  0.32775525  0.32499738  1
  Ag  Ag2  1  0.17415339  0.32783450  0.83889953  1
  Ag  Ag3  1  0.83246794  0.83630322  0.00306804  1
  Ag  Ag4  1  0.33307113  0.49395853  0.84506637  1
  Ag  Ag5  1  0.49892155  0.66540509  0.50055329  1
  Ag  Ag6  1  0.83475871  0.83741370  0.65227535  1
  Ag  Ag7  1  0.67525914  0.83663051  0.17429124  1
  Ag  Ag8  1  0.50022439  0.34050483  0.50281063  1
  Ag  Ag9  1  0.32706473  0.34250347  0.00037201  1
  Ag  Ag10  1  -0.00167471  0.83266270  0.17133186  1
  Ag  Ag11  1  0.32744986  0.83041812  0.16955775  1
  Ag  Ag12  1  0.00501132  0.50009911  0.16360147  1
  Ag  Ag13  1  0.66788259  0.16545738  0.17138715  1
  Ag  Ag14  1  0.33504488  0.50643768  0.49933905  1
  Ag  Ag15  1  0.66916029  0.16204599  0.49076349  1
  Ag  Ag16  1  0.17005110  0.66912211  0.16142323  1
  Ag  Ag17  1  0.00541732  0.16374829  0.84065666  1
  Ag  Ag18  1  -0.00848033  0.83629892  0.49153474  1
  Ag  Ag19  1  0.49987587  0.82837054  0.00000112  1
  Ag  Ag20  1  0.17090354  0.66996616  0.84134455  1
  Ag  Ag21  1  -0.00099186  0.00477829  0.00261007  1
  Ag  Ag22  1  0.16156029  0.83680450  0.33836689  1
  Ag  Ag23  1  0.32855040  0.49957881  0.15690108  1
  Ag  Ag24  1  0.16241030  0.17392198  -0.00339200  1
  Ag  Ag25  1  0.16088832  -0.00585744  0.49777192  1
  Ag  Ag26  1  0.84155846  0.16445392  -0.00242333  1
  Ag  Ag27  1  0.66896367  0.67971430  0.33591476  1
  Ag  Ag28  1  0.32714658  -0.00474377  0.33297655  1
  Ag  Ag29  1  0.82658173  0.67942666  0.49966231  1
  Ag  Ag30  1  0.83511556  0.33306185  0.16476889  1
  Ag  Ag31  1  0.49591639  0.49837100  0.66847119  1
  Ag  Ag32  1  0.49357534  0.33579309  0.83311240  1
  Ag  Ag33  1  0.32340335  0.17632874  0.84242376  1
  Ag  Ag34  1  0.33056565  0.65589626  -0.00095153  1
  Ag  Ag35  1  0.16435354  0.83340370  0.66003086  1
  Ag  Ag36  1  0.48553404  0.50104812  -0.00387613  1
  Ag  Ag37  1  0.83848274  -0.00102915  0.83310284  1
  Ag  Ag38  1  0.83220907  0.15727586  0.67161125  1
  Ag  Ag39  1  0.33152785  0.83027466  0.49204023  1
  Ag  Ag40  1  0.67603407  -0.00547877  0.33501541  1
  Ag  Ag41  1  0.83342750  0.83542777  0.33860455  1
  Ag  Ag42  1  0.67168467  0.83505460  0.83587734  1
  Ag  Ag43  1  -0.00072923  -0.00388391  0.33106402  1
  Ag  Ag44  1  0.33358072  0.17553779  0.16149739  1
  Ag  Ag45  1  0.16120728  0.00066278  0.83431793  1
  Ag  Ag46  1  0.00730956  0.32824068  0.00430579  1
  Ag  Ag47  1  0.66515338  0.33170895  0.66130292  1
  Ag  Ag48  1  0.83698398  -0.00786439  0.49973704  1
  Ag  Ag49  1  0.33313338  0.66583642  0.66814326  1
  Ag  Ag50  1  0.17333033  0.49327490  0.00019069  1
  Ag  Ag51  1  0.66689167  0.32954123  0.33482026  1
  Ag  Ag52  1  0.33168506  0.33140014  0.32525958  1
  Ag  Ag53  1  0.67782631  0.83598992  0.49367499  1
  Sb  Sb54  1  0.50038459  0.82754993  0.66805732  1
  Sb  Sb55  1  0.16757583  0.16229407  0.32714613  1
  Sb  Sb56  1  0.00514146  0.66618525  0.00182058  1
  Sb  Sb57  1  0.83359619  0.32797577  0.84001787  1
  Sb  Sb58  1  0.49377919  0.66254036  0.83146589  1
  Sb  Sb59  1  0.32996030  -0.00505819  0.66309324  1
  Sb  Sb60  1  0.66608534  0.33253871  0.00181793  1
  Sb  Sb61  1  0.00564447  0.66990035  0.66583671  1
  Sb  Sb62  1  0.16457759  0.33686931  0.16015938  1
  Sb  Sb63  1  0.83198830  0.16140395  0.33013719  1
  Sb  Sb64  1  0.00566359  0.50436652  0.49126262  1
  Sb  Sb65  1  0.32636666  0.00143150  0.00412364  1
  Sb  Sb66  1  0.49880183  0.33545608  0.16626633  1
  Sb  Sb67  1  -0.00250524  0.67462304  0.33186792  1
  Sb  Sb68  1  0.00749677  0.49395458  0.84250419  1
  Sb  Sb69  1  0.33783656  0.33834575  0.67219216  1
  Sb  Sb70  1  0.49725528  0.16890617  -0.00029715  1
  Sb  Sb71  1  0.50263059  0.83232022  0.33067872  1
  Sb  Sb72  1  0.50178291  0.16827980  0.33344613  1
  Sb  Sb73  1  0.49742182  0.49926089  0.33297930  1
  Sb  Sb74  1  0.82831880  0.50219737  0.67058453  1
  Sb  Sb75  1  0.66239928  0.66642796  0.66131523  1
  Sb  Sb76  1  0.66899299  0.16350146  0.83514410  1
  Sb  Sb77  1  0.33264156  0.83258389  0.83622247  1
  Sb  Sb78  1  0.49483598  0.66784316  0.16931509  1
  Sb  Sb79  1  -0.00472513  0.16012922  0.50195774  1
  Sb  Sb80  1  0.49971260  -0.00267035  0.16657093  1
  Sb  Sb81  1  0.17173370  0.32894583  0.50282257  1
  Sb  Sb82  1  0.17009200  0.67530676  0.49850312  1
  Sb  Sb83  1  0.83405504  0.50274342  0.32978883  1
  Sb  Sb84  1  0.49922751  0.00224959  0.83501782  1
  Sb  Sb85  1  0.66071571  0.50265762  0.83526013  1
  Sb  Sb86  1  0.67111950  0.00182436  0.66092775  1
  Sb  Sb87  1  -0.00502459  0.33177764  0.66923022  1
  Sb  Sb88  1  0.50504105  0.17480452  0.66687042  1
  Sb  Sb89  1  0.83583723  0.66815104  0.16847829  1
  Sb  Sb90  1  0.16590995  0.83356919  0.00190733  1
  Sb  Sb91  1  -0.00186521  0.83972691  0.83638529  1
  Sb  Sb92  1  0.67484447  -0.00275380  0.00520160  1
  Sb  Sb93  1  0.17462449  0.50599965  0.67407088  1
  Sb  Sb94  1  0.83428048  0.00038675  0.16721857  1
  Sb  Sb95  1  0.00039930  0.16689652  0.16121786  1
  Sb  Sb96  1  0.66185191  0.67040451  0.00488323  1
  Sb  Sb97  1  0.50205550  -0.00354522  0.49817469  1
  Sb  Sb98  1  0.33720713  0.16554770  0.49829857  1
  Sb  Sb99  1  0.33554699  0.66869629  0.33221862  1
  Sb  Sb100  1  0.16337391  0.16179040  0.67449862  1
  Sb  Sb101  1  0.82795305  0.33068319  0.49472011  1
  Sb  Sb102  1  0.16591354  -0.00550511  0.16740909  1
  Sb  Sb103  1  0.83724325  0.67452841  0.83125814  1
  Sb  Sb104  1  0.16852237  0.50388872  0.32625905  1
  Sb  Sb105  1  -0.00147360  -0.00163665  0.66665931  1
  Sb  Sb106  1  0.66151999  0.50126351  0.49884545  1
  Sb  Sb107  1  0.66562884  0.50058037  0.16650839  1
  Te  Te108  1  0.17319602  0.16493298  0.15990638  1
  Te  Te109  1  0.16645133  0.15843377  0.50249736  1
  Te  Te110  1  0.16609851  0.16474759  0.83535112  1
  Te  Te111  1  0.16741217  0.50386956  0.16206224  1
  Te  Te112  1  0.17234331  0.49962043  0.50079031  1
  Te  Te113  1  0.17211395  0.50155564  0.83843765  1
  Te  Te114  1  0.16661224  0.83076140  0.16901751  1
  Te  Te115  1  0.17178822  0.83531703  0.49874923  1
  Te  Te116  1  0.16587617  0.83502848  0.82985233  1
  Te  Te117  1  0.49998538  0.16667836  0.16504155  1
  Te  Te118  1  0.50770119  0.17024570  0.50186403  1
  Te  Te119  1  0.49682691  0.17259126  0.83382754  1
  Te  Te120  1  0.49370271  0.50095511  0.15863764  1
  Te  Te121  1  0.49597728  0.50024435  0.49965328  1
  Te  Te122  1  0.49592113  0.49664821  0.83466528  1
  Te  Te123  1  0.49944288  0.83138783  0.16016554  1
  Te  Te124  1  0.49238981  0.82903515  0.50159692  1
  Te  Te125  1  0.50579488  0.83315987  0.83729142  1
  Te  Te126  1  0.83095758  0.17012392  0.16270066  1
  Te  Te127  1  0.82822911  0.16353967  0.50327313  1
  Te  Te128  1  0.83348808  0.16169112  0.83580269  1
  Te  Te129  1  0.83551243  0.49795020  0.16272543  1
  Te  Te130  1  0.83683595  0.50350658  0.50128337  1
  Te  Te131  1  0.83439092  0.50223722  0.83829312  1
  Te  Te132  1  0.83422928  0.83305516  0.16467535  1
  Te  Te133  1  0.83408518  0.83529660  0.49645315  1
  Te  Te134  1  0.83158913  0.83772667  0.84110328  1
  Te  Te135  1  0.16008439  0.00254181  -0.00418222  1
  Te  Te136  1  0.16563197  -0.00325366  0.33496599  1
  Te  Te137  1  0.16516953  -0.00585495  0.66661532  1
  Te  Te138  1  0.16690182  0.33340968  -0.00175696  1
  Te  Te139  1  0.16844652  0.33194888  0.33567017  1
  Te  Te140  1  0.16457399  0.33332216  0.67401388  1
  Te  Te141  1  0.17053320  0.66676558  0.00051001  1
  Te  Te142  1  0.16680769  0.67392969  0.32897304  1
  Te  Te143  1  0.17261954  0.67274896  0.66869550  1
  Te  Te144  1  0.50097531  -0.00744903  -0.00117568  1
  Te  Te145  1  0.49474046  0.00037132  0.33358092  1
  Te  Te146  1  0.49991202  0.00133465  0.66714460  1
  Te  Te147  1  0.49579236  0.33656068  -0.00285534  1
  Te  Te148  1  0.49822162  0.33423152  0.33758241  1
  Te  Te149  1  0.50369231  0.33850588  0.66539103  1
  Te  Te150  1  0.49457361  0.66555629  -0.00059957  1
  Te  Te151  1  0.50715555  0.66507044  0.34059823  1
  Te  Te152  1  0.49496724  0.66024813  0.66246313  1
  Te  Te153  1  0.83839112  0.00040661  -0.00107761  1
  Te  Te154  1  0.83541693  -0.00340884  0.33571289  1
  Te  Te155  1  0.83288753  -0.00225526  0.66663115  1
  Te  Te156  1  0.83371146  0.33208073  0.00305763  1
  Te  Te157  1  0.83501921  0.33376517  0.32842845  1
  Te  Te158  1  0.82704080  0.33312731  0.66673565  1
  Te  Te159  1  0.83241588  0.66900278  -0.00055590  1
  Te  Te160  1  0.82978463  0.67050169  0.33751184  1
  Te  Te161  1  0.83256783  0.67168925  0.66255921  1
  Te  Te162  1  0.00054024  0.16703685  0.00023286  1
  Te  Te163  1  -0.00021083  0.16717302  0.33258794  1
  Te  Te164  1  -0.00826443  0.16746952  0.67252396  1
  Te  Te165  1  -0.00254023  0.49769381  0.00486951  1
  Te  Te166  1  0.00131304  0.49174853  0.32528447  1
  Te  Te167  1  -0.00054354  0.50034694  0.66558742  1
  Te  Te168  1  -0.00299821  0.83504881  0.00411797  1
  Te  Te169  1  -0.00083603  0.83573450  0.33211202  1
  Te  Te170  1  -0.00174785  0.83265216  0.66281299  1
  Te  Te171  1  0.33180762  0.16661422  0.00111999  1
  Te  Te172  1  0.33344957  0.16898516  0.32926107  1
  Te  Te173  1  0.33298314  0.16562227  0.67022488  1
  Te  Te174  1  0.33008707  0.49989558  0.00050213  1
  Te  Te175  1  0.33255320  0.49568091  0.33622622  1
  Te  Te176  1  0.33702733  0.50411204  0.65971652  1
  Te  Te177  1  0.33502158  0.83456398  0.00431075  1
  Te  Te178  1  0.33572841  0.83380979  0.33065915  1
  Te  Te179  1  0.33180812  0.82807910  0.66591286  1
  Te  Te180  1  0.66827262  0.16524063  0.00597974  1
  Te  Te181  1  0.66766296  0.16863477  0.33165587  1
  Te  Te182  1  0.67201960  0.17091004  0.66708821  1
  Te  Te183  1  0.67436334  0.50195855  0.00059086  1
  Te  Te184  1  0.66637281  0.48957866  0.33158104  1
  Te  Te185  1  0.66020880  0.49454389  0.66746199  1
  Te  Te186  1  0.66878350  0.83353639  0.00360811  1
  Te  Te187  1  0.66644522  0.83629432  0.33360852  1
  Te  Te188  1  0.67002137  0.83378382  0.66098496  1
  Te  Te189  1  0.00065002  -0.00427834  0.16846636  1
  Te  Te190  1  -0.00081965  -0.00333914  0.49643246  1
  Te  Te191  1  -0.00076133  0.00307662  0.83602192  1
  Te  Te192  1  -0.00160017  0.33254367  0.16533925  1
  Te  Te193  1  0.00078634  0.33354015  0.49559638  1
  Te  Te194  1  0.00182997  0.32691760  0.83770917  1
  Te  Te195  1  0.00509400  0.66614869  0.16695313  1
  Te  Te196  1  -0.00336619  0.67254349  0.49879733  1
  Te  Te197  1  0.00921155  0.66532958  0.83347591  1
  Te  Te198  1  0.33291642  -0.00502909  0.17232820  1
  Te  Te199  1  0.33245745  -0.00290755  0.49544073  1
  Te  Te200  1  0.32975739  0.00273410  0.83283805  1
  Te  Te201  1  0.33295151  0.33407289  0.16571257  1
  Te  Te202  1  0.33737579  0.33228010  0.49922142  1
  Te  Te203  1  0.33326536  0.33429309  0.83444539  1
  Te  Te204  1  0.33092648  0.66732539  0.16544869  1
  Te  Te205  1  0.33447981  0.66747378  0.49869593  1
  Te  Te206  1  0.32998039  0.66578319  0.83510147  1
  Te  Te207  1  0.66634071  -0.00035805  0.17403592  1
  Te  Te208  1  0.66823849  -0.00047769  0.49528022  1
  Te  Te209  1  0.66938769  -0.00503801  0.83312538  1
  Te  Te210  1  0.66906614  0.33221604  0.16988620  1
  Te  Te211  1  0.66405319  0.33371777  0.49802388  1
  Te  Te212  1  0.66311732  0.33339056  0.83129322  1
  Te  Te213  1  0.66633315  0.67109532  0.17388345  1
  Te  Te214  1  0.66625675  0.66845208  0.49712156  1
  Te  Te215  1  0.66701459  0.67420976  0.83225301  1
