# generated using pymatgen
data_AgSbTe2
_symmetry_space_group_name_H-M   'P 1'
_cell_length_a   18.35972950
_cell_length_b   18.35550374
_cell_length_c   18.34784654
_cell_angle_alpha   90.00228130
_cell_angle_beta   89.99973619
_cell_angle_gamma   90.00362923
_symmetry_Int_Tables_number   1
_chemical_formula_structural   AgSbTe2
_chemical_formula_sum   'Ag54 Sb54 Te108'
_cell_volume   6183.26249453
_cell_formula_units_Z   54
loop_
 _symmetry_equiv_pos_site_id
 _symmetry_equiv_pos_as_xyz
  1  'x, y, z'
loop_
 _atom_site_type_symbol
 _atom_site_label
 _atom_site_symmetry_multiplicity
 _atom_site_fract_x
 _atom_site_fract_y
 _atom_site_fract_z
 _atom_site_occupancy
  Ag  Ag0  1  0.82325897  0.66281270  0.84731886  1
  Ag  Ag1  1  0.49855812  -0.00973174  0.17710002  1
  Ag  Ag2  1  0.83362393  0.17757838  -0.00093258  1
  Ag  Ag3  1  0.01445223  0.67007580  0.32890471  1
  Ag  Ag4  1  0.66270656  0.33799440  0.67828964  1
  Ag  Ag5  1  0.49889701  0.34456657  0.83318319  1
  Ag  Ag6  1  0.17790951  0.33793216  0.83647546  1
  Ag  Ag7  1  0.33323436  0.66877703  0.33332803  1
  Ag  Ag8  1  -0.01375193  0.66331762  0.00371096  1
  Ag  Ag9  1  0.17054877  0.82902307  0.34109487  1
  Ag  Ag10  1  0.17330011  0.51242074  0.33285165  1
  Ag  Ag11  1  0.00853773  -0.00176098  0.65855976  1
  Ag  Ag12  1  0.33167380  0.50865203  0.49277948  1
  Ag  Ag13  1  0.16724433  0.17473638  -0.00391022  1
  Ag  Ag14  1  0.65492178  0.18087885  0.83566083  1
  Ag  Ag15  1  0.01259219  0.83305143  0.49655317  1
  Ag  Ag16  1  0.49350289  0.67097678  0.49259759  1
  Ag  Ag17  1  0.66144105  0.50594236  0.15580689  1
  Ag  Ag18  1  0.67218949  0.66470800  0.00606699  1
  Ag  Ag19  1  0.83109846  0.34654413  0.16020355  1
  Ag  Ag20  1  0.49772739  0.66744771  0.16005033  1
  Ag  Ag21  1  0.33221677  0.83420036  0.49090732  1
  Ag  Ag22  1  0.66943688  0.34911045  -0.00345348  1
  Ag  Ag23  1  0.82333454  0.66431001  0.16023343  1
  Ag  Ag24  1  0.33991296  0.50192168  0.83432652  1
  Ag  Ag25  1  0.33766308  0.14958915  0.50131907  1
  Ag  Ag26  1  0.33764898  0.50909790  0.16533446  1
  Ag  Ag27  1  0.01029184  -0.01170002  0.33818877  1
  Ag  Ag28  1  0.33803575  0.17069886  0.83142292  1
  Ag  Ag29  1  0.17762415  0.67068374  0.49179077  1
  Ag  Ag30  1  0.65152878  -0.01375407  0.33380955  1
  Ag  Ag31  1  0.49173827  -0.01042215  0.49553388  1
  Ag  Ag32  1  0.49307548  0.82722678  0.00102748  1
  Ag  Ag33  1  0.65203655  0.83133038  0.49589793  1
  Ag  Ag34  1  0.49603294  0.15800792  0.33911650  1
  Ag  Ag35  1  0.33569648  0.82654639  0.16998392  1
  Ag  Ag36  1  0.49887898  0.66220489  0.84159473  1
  Ag  Ag37  1  0.33281362  0.00036418  0.65415742  1
  Ag  Ag38  1  -0.01020059  0.34539954  -0.00087402  1
  Ag  Ag39  1  0.49577812  0.17029338  0.66727860  1
  Ag  Ag40  1  0.33512392  0.66719358  0.00796797  1
  Ag  Ag41  1  0.33316467  0.34858453  0.33351640  1
  Ag  Ag42  1  0.17804734  0.50005050  0.67314100  1
  Ag  Ag43  1  0.65814638  0.49826969  0.83875448  1
  Ag  Ag44  1  0.82480751  0.50088890  -0.00195938  1
  Ag  Ag45  1  0.16851796  0.50286822  -0.00126698  1
  Ag  Ag46  1  0.49635289  0.49882268  0.67138190  1
  Ag  Ag47  1  0.83214544  0.81485944  0.00094640  1
  Ag  Ag48  1  0.33424821  -0.00741712  0.33953794  1
  Ag  Ag49  1  0.33486539  0.82110792  0.83790910  1
  Ag  Ag50  1  0.17568366  0.82073373  0.00193000  1
  Ag  Ag51  1  0.82265223  0.50076503  0.67728684  1
  Ag  Ag52  1  0.65592291  0.66856059  0.32661610  1
  Ag  Ag53  1  0.18174467  -0.01170655  0.49793532  1
  Sb  Sb54  1  0.83256268  -0.00420432  0.83523568  1
  Sb  Sb55  1  0.50174278  0.33922328  0.16137596  1
  Sb  Sb56  1  0.82769670  -0.00600206  0.16609266  1
  Sb  Sb57  1  0.00039610  0.50056802  0.83593803  1
  Sb  Sb58  1  0.82615380  0.17100488  0.67396163  1
  Sb  Sb59  1  0.83161035  0.33648126  0.49664170  1
  Sb  Sb60  1  0.83645272  0.50308735  0.32797679  1
  Sb  Sb61  1  0.83388697  0.82814322  0.67059813  1
  Sb  Sb62  1  0.83099842  0.66755141  0.49746161  1
  Sb  Sb63  1  0.33593120  0.16605461  0.16603749  1
  Sb  Sb64  1  0.17295130  -0.00328114  0.17262958  1
  Sb  Sb65  1  0.17566565  0.16423082  0.33139375  1
  Sb  Sb66  1  0.83188774  -0.00180468  0.49949785  1
  Sb  Sb67  1  -0.00093795  0.16578860  0.16569942  1
  Sb  Sb68  1  0.33437813  0.66542768  0.66292996  1
  Sb  Sb69  1  0.00851944  0.50791064  0.49989053  1
  Sb  Sb70  1  0.33861949  0.33406359  0.66688709  1
  Sb  Sb71  1  0.66407715  0.17108226  0.16050584  1
  Sb  Sb72  1  0.82601622  0.16608922  0.32858244  1
  Sb  Sb73  1  0.66030325  0.00397568  0.66193500  1
  Sb  Sb74  1  0.65907132  0.50640951  0.50133849  1
  Sb  Sb75  1  0.00131112  0.66796152  0.66700313  1
  Sb  Sb76  1  0.49641347  0.83050075  0.66643019  1
  Sb  Sb77  1  0.16626881  0.33671488  0.15966064  1
  Sb  Sb78  1  0.66135099  0.82812923  0.83298579  1
  Sb  Sb79  1  0.01125516  0.15672586  0.49954017  1
  Sb  Sb80  1  0.65703654  0.16213871  0.50289661  1
  Sb  Sb81  1  0.33242390  -0.00707146  0.00209295  1
  Sb  Sb82  1  0.00602293  0.82993209  0.83324887  1
  Sb  Sb83  1  0.66420101  0.66201086  0.66941993  1
  Sb  Sb84  1  0.00085726  0.50493456  0.16270309  1
  Sb  Sb85  1  0.65956418  0.33787304  0.32982555  1
  Sb  Sb86  1  0.83751996  0.83051110  0.32860385  1
  Sb  Sb87  1  0.65966829  0.82511150  0.17062380  1
  Sb  Sb88  1  0.82647648  0.34120033  0.84089565  1
  Sb  Sb89  1  0.17091952  0.82931847  0.66419944  1
  Sb  Sb90  1  0.49017179  0.83381542  0.32901152  1
  Sb  Sb91  1  0.00196196  0.16718505  0.83511812  1
  Sb  Sb92  1  0.00710405  0.33756770  0.32773590  1
  Sb  Sb93  1  0.17045587  0.33705245  0.50433323  1
  Sb  Sb94  1  0.66505554  -0.00629957  0.00516318  1
  Sb  Sb95  1  0.17429737  0.66607791  0.16893132  1
  Sb  Sb96  1  0.00241072  -0.00463365  0.00259383  1
  Sb  Sb97  1  0.49844853  0.16237258  -0.00348216  1
  Sb  Sb98  1  0.49701807  -0.00253808  0.83079267  1
  Sb  Sb99  1  0.00654509  0.82924151  0.16947947  1
  Sb  Sb100  1  0.49286777  0.50285882  0.33687431  1
  Sb  Sb101  1  0.50133624  0.50872062  -0.00564663  1
  Sb  Sb102  1  -0.00260454  0.33220968  0.67441270  1
  Sb  Sb103  1  0.17227837  0.66129406  0.83480664  1
  Sb  Sb104  1  0.17444869  0.16946419  0.66989824  1
  Sb  Sb105  1  0.33689538  0.34135057  -0.00047443  1
  Sb  Sb106  1  0.49665214  0.33513245  0.50475696  1
  Sb  Sb107  1  0.17100878  0.00102106  0.82864711  1
  Te  Te108  1  0.16711136  0.16624743  0.15776161  1
  Te  Te109  1  0.17739105  0.16546627  0.50047728  1
  Te  Te110  1  0.17123033  0.17062892  0.83664420  1
  Te  Te111  1  0.17316706  0.49935348  0.16669567  1
  Te  Te112  1  0.17156959  0.50389606  0.49748206  1
  Te  Te113  1  0.16826191  0.49859458  0.83379839  1
  Te  Te114  1  0.17363159  0.83442112  0.16168318  1
  Te  Te115  1  0.17066763  0.83126288  0.50115360  1
  Te  Te116  1  0.17326822  0.83280292  0.83813612  1
  Te  Te117  1  0.50036752  0.16534530  0.16908531  1
  Te  Te118  1  0.49432154  0.16886762  0.50118725  1
  Te  Te119  1  0.49866339  0.16288354  0.83142467  1
  Te  Te120  1  0.49959091  0.50369122  0.17043227  1
  Te  Te121  1  0.49415875  0.50460733  0.50616838  1
  Te  Te122  1  0.50069914  0.50132508  0.83182507  1
  Te  Te123  1  0.49662952  0.83035462  0.16237677  1
  Te  Te124  1  0.49490572  0.83076127  0.50300355  1
  Te  Te125  1  0.49578193  0.82910783  0.83619466  1
  Te  Te126  1  0.83150588  0.16642543  0.15970148  1
  Te  Te127  1  0.83335093  0.16758349  0.50136332  1
  Te  Te128  1  0.83132430  0.16603231  0.83865789  1
  Te  Te129  1  0.83307022  0.50432921  0.16315994  1
  Te  Te130  1  0.83449152  0.50024146  0.50264113  1
  Te  Te131  1  0.83364571  0.50346023  0.83610426  1
  Te  Te132  1  0.83348296  0.82819928  0.16007081  1
  Te  Te133  1  0.83591177  0.83295667  0.50132315  1
  Te  Te134  1  0.83324519  0.82774868  0.83920368  1
  Te  Te135  1  0.16443309  0.00110242  0.00051291  1
  Te  Te136  1  0.16868505  -0.00119819  0.33775503  1
  Te  Te137  1  0.16906724  0.00124826  0.66095815  1
  Te  Te138  1  0.17024691  0.33688090  -0.00370959  1
  Te  Te139  1  0.17151026  0.33287253  0.33189265  1
  Te  Te140  1  0.16406525  0.33918353  0.67298631  1
  Te  Te141  1  0.17712705  0.66376251  -0.00102291  1
  Te  Te142  1  0.17087243  0.66946300  0.33282351  1
  Te  Te143  1  0.16361704  0.65917089  0.66179639  1
  Te  Te144  1  0.50021467  -0.00830935  0.00327431  1
  Te  Te145  1  0.49592201  -0.00257893  0.33560231  1
  Te  Te146  1  0.49591732  0.00351053  0.66097184  1
  Te  Te147  1  0.50673736  0.32833662  -0.00551178  1
  Te  Te148  1  0.49471588  0.32808698  0.33123607  1
  Te  Te149  1  0.50326778  0.33347576  0.67117930  1
  Te  Te150  1  0.49345771  0.66895816  0.00082352  1
  Te  Te151  1  0.49757526  0.66655732  0.33500307  1
  Te  Te152  1  0.50120689  0.66274229  0.66863848  1
  Te  Te153  1  0.83483795  0.00656172  0.00082100  1
  Te  Te154  1  0.83658587  0.00109899  0.33160962  1
  Te  Te155  1  0.83454457  0.00063285  0.66787087  1
  Te  Te156  1  0.83141547  0.33784523  0.00125630  1
  Te  Te157  1  0.83448561  0.33367807  0.32470407  1
  Te  Te158  1  0.82903491  0.33944029  0.66582346  1
  Te  Te159  1  0.83081192  0.65948581  0.00216406  1
  Te  Te160  1  0.83075923  0.66564995  0.32933312  1
  Te  Te161  1  0.83381025  0.66037874  0.66945980  1
  Te  Te162  1  0.00141449  0.16526813  -0.00002326  1
  Te  Te163  1  -0.00031274  0.16748393  0.33388259  1
  Te  Te164  1  -0.00184805  0.16116938  0.66618955  1
  Te  Te165  1  0.00674868  0.50326829  0.00063571  1
  Te  Te166  1  0.00909697  0.50527268  0.33256577  1
  Te  Te167  1  -0.00059948  0.49864267  0.66548975  1
  Te  Te168  1  -0.00054873  0.82760202  0.00030983  1
  Te  Te169  1  0.00449281  0.83037788  0.33549524  1
  Te  Te170  1  0.00071301  0.83718475  0.66239224  1
  Te  Te171  1  0.33044541  0.16757726  -0.00291382  1
  Te  Te172  1  0.33668995  0.15740796  0.33399513  1
  Te  Te173  1  0.33673126  0.16697593  0.66644131  1
  Te  Te174  1  0.33178998  0.50245421  -0.00092185  1
  Te  Te175  1  0.33196645  0.50558561  0.33234102  1
  Te  Te176  1  0.33538565  0.49848422  0.67406612  1
  Te  Te177  1  0.33259227  0.83236004  -0.00107632  1
  Te  Te178  1  0.32972356  0.83068592  0.33180381  1
  Te  Te179  1  0.33290581  0.84023196  0.67528356  1
  Te  Te180  1  0.66817356  0.16167713  -0.00502943  1
  Te  Te181  1  0.65955709  0.16793618  0.33365586  1
  Te  Te182  1  0.66017823  0.17206193  0.67214822  1
  Te  Te183  1  0.66489412  0.50482642  -0.00092824  1
  Te  Te184  1  0.66766346  0.50491945  0.33248960  1
  Te  Te185  1  0.66448606  0.49730086  0.66767423  1
  Te  Te186  1  0.67043139  0.82743710  0.00010063  1
  Te  Te187  1  0.67054238  0.83022814  0.33623290  1
  Te  Te188  1  0.66795963  0.83496629  0.65977276  1
  Te  Te189  1  -0.00065746  -0.00184841  0.17595748  1
  Te  Te190  1  -0.00154755  -0.00547149  0.49766803  1
  Te  Te191  1  0.00094080  -0.00148215  0.82649480  1
  Te  Te192  1  -0.00594360  0.33341420  0.15910803  1
  Te  Te193  1  0.00075314  0.33087312  0.49880349  1
  Te  Te194  1  0.00657811  0.33234449  0.84123169  1
  Te  Te195  1  -0.00688228  0.66735138  0.16612741  1
  Te  Te196  1  -0.00103465  0.67277560  0.49570693  1
  Te  Te197  1  -0.00392946  0.66750916  0.83882691  1
  Te  Te198  1  0.33938703  -0.00192927  0.17097027  1
  Te  Te199  1  0.33628052  -0.00565165  0.49874804  1
  Te  Te200  1  0.33368672  0.00939697  0.83260415  1
  Te  Te201  1  0.33437727  0.33694181  0.17126062  1
  Te  Te202  1  0.33237979  0.34582984  0.49455527  1
  Te  Te203  1  0.33807664  0.33441070  0.83349750  1
  Te  Te204  1  0.33569332  0.66670036  0.16768718  1
  Te  Te205  1  0.33427185  0.66878651  0.50216430  1
  Te  Te206  1  0.33605424  0.66348617  0.82926943  1
  Te  Te207  1  0.66010783  0.00081296  0.17394324  1
  Te  Te208  1  0.66297384  -0.00463344  0.49389714  1
  Te  Te209  1  0.66630544  0.00059305  0.83220875  1
  Te  Te210  1  0.66956107  0.34021730  0.16205393  1
  Te  Te211  1  0.66583279  0.33302169  0.50040754  1
  Te  Te212  1  0.66610066  0.33720635  0.83653212  1
  Te  Te213  1  0.66200625  0.66512922  0.16687618  1
  Te  Te214  1  0.66343289  0.67143961  0.49703815  1
  Te  Te215  1  0.66329252  0.66444047  0.83560369  1
