# generated using pymatgen
data_AgSbTe2
_symmetry_space_group_name_H-M   'P 1'
_cell_length_a   18.34160956
_cell_length_b   18.35046281
_cell_length_c   18.34847413
_cell_angle_alpha   90.00002409
_cell_angle_beta   90.00046026
_cell_angle_gamma   90.00102519
_symmetry_Int_Tables_number   1
_chemical_formula_structural   AgSbTe2
_chemical_formula_sum   'Ag54 Sb54 Te108'
_cell_volume   6175.67481888
_cell_formula_units_Z   54
loop_
 _symmetry_equiv_pos_site_id
 _symmetry_equiv_pos_as_xyz
  1  'x, y, z'
loop_
 _atom_site_type_symbol
 _atom_site_label
 _atom_site_symmetry_multiplicity
 _atom_site_fract_x
 _atom_site_fract_y
 _atom_site_fract_z
 _atom_site_occupancy
  Ag  Ag0  1  0.50927867  0.50155436  0.33711533  1
  Ag  Ag1  1  -0.00461741  -0.00744102  -0.00517537  1
  Ag  Ag2  1  -0.00921246  0.82496084  0.50207327  1
  Ag  Ag3  1  0.51058916  0.33583608  0.50393049  1
  Ag  Ag4  1  0.66493044  0.01018862  0.66224801  1
  Ag  Ag5  1  0.33682945  0.50223737  0.50650249  1
  Ag  Ag6  1  0.66885057  0.33469759  0.34518406  1
  Ag  Ag7  1  0.32937157  0.65949140  0.66402945  1
  Ag  Ag8  1  0.50548699  0.17423171  0.66500712  1
  Ag  Ag9  1  0.66829261  0.17679169  0.50207557  1
  Ag  Ag10  1  0.00295188  0.66252310  0.66676731  1
  Ag  Ag11  1  0.17727681  0.82021627  0.66536526  1
  Ag  Ag12  1  0.83264462  0.82095221  -0.00197393  1
  Ag  Ag13  1  0.83265134  0.65980447  0.17264241  1
  Ag  Ag14  1  0.33436836  0.33718878  -0.01472136  1
  Ag  Ag15  1  0.66742990  0.00775797  0.34549973  1
  Ag  Ag16  1  -0.01173210  0.66499497  0.35018874  1
  Ag  Ag17  1  0.50283906  0.83177769  -0.01050120  1
  Ag  Ag18  1  0.83511274  0.66180824  0.49829244  1
  Ag  Ag19  1  0.49842371  0.00431221  0.82880596  1
  Ag  Ag20  1  0.50620056  0.66636834  0.17261559  1
  Ag  Ag21  1  0.82813407  0.17812355  0.33747684  1
  Ag  Ag22  1  0.82139718  0.34219205  0.49935054  1
  Ag  Ag23  1  0.82585045  -0.00389935  0.49999775  1
  Ag  Ag24  1  0.66019143  0.33057397  0.65835387  1
  Ag  Ag25  1  0.83502652  0.34230669  0.17474084  1
  Ag  Ag26  1  0.83474482  0.50270043  -0.00175963  1
  Ag  Ag27  1  0.49606256  0.83532484  0.66397533  1
  Ag  Ag28  1  0.16821991  0.34176656  0.51135423  1
  Ag  Ag29  1  0.51112600  0.17518744  0.34316876  1
  Ag  Ag30  1  0.67044569  0.65940395  0.33855826  1
  Ag  Ag31  1  -0.00708899  0.66757808  -0.00617807  1
  Ag  Ag32  1  0.15820784  0.66060709  0.50585789  1
  Ag  Ag33  1  0.66876778  0.48963415  0.49723373  1
  Ag  Ag34  1  0.83618415  0.66224726  0.83184389  1
  Ag  Ag35  1  0.16384100  0.33729307  0.16643328  1
  Ag  Ag36  1  -0.00002634  0.49808169  0.82720798  1
  Ag  Ag37  1  0.66734920  0.83429732  0.49901116  1
  Ag  Ag38  1  0.33617130  0.82738427  0.82555370  1
  Ag  Ag39  1  0.66809378  0.16806314  0.82096610  1
  Ag  Ag40  1  0.33390772  0.49901630  0.17331610  1
  Ag  Ag41  1  0.83913280  0.49985145  0.66198982  1
  Ag  Ag42  1  -0.00599042  0.17604547  0.83156923  1
  Ag  Ag43  1  0.17297132  0.33510771  0.82761882  1
  Ag  Ag44  1  0.16403553  0.50053610  0.66559007  1
  Ag  Ag45  1  0.16816715  0.00436398  0.83022919  1
  Ag  Ag46  1  0.50507006  0.82896464  0.34526273  1
  Ag  Ag47  1  0.33009218  0.49773561  0.82476603  1
  Ag  Ag48  1  0.33321711  0.34290969  0.66775949  1
  Ag  Ag49  1  0.00006923  0.34384247  0.66735734  1
  Ag  Ag50  1  0.34068186  0.82496996  0.51097665  1
  Ag  Ag51  1  0.49544534  0.33132145  0.82014324  1
  Ag  Ag52  1  0.83322881  0.17082537  0.00003234  1
  Ag  Ag53  1  0.82900080  0.50096321  0.34294100  1
  Sb  Sb54  1  0.16519068  0.83207467  -0.00983037  1
  Sb  Sb55  1  0.33700888  0.66393105  0.34211494  1
  Sb  Sb56  1  0.83182081  -0.00168660  0.16862558  1
  Sb  Sb57  1  0.82680361  0.17453815  0.66509719  1
  Sb  Sb58  1  0.66611924  0.33281789  -0.00289041  1
  Sb  Sb59  1  0.33626030  0.82344118  0.16551264  1
  Sb  Sb60  1  0.17098868  0.83191193  0.34436972  1
  Sb  Sb61  1  -0.00827271  -0.00442196  0.33327691  1
  Sb  Sb62  1  0.82644654  0.82622873  0.33503443  1
  Sb  Sb63  1  0.50250105  0.33968317  0.17188466  1
  Sb  Sb64  1  -0.00412236  0.16998106  0.16106413  1
  Sb  Sb65  1  0.16300868  0.49939504  0.34305850  1
  Sb  Sb66  1  0.50313582  0.66400269  0.49779955  1
  Sb  Sb67  1  0.16323320  0.65952373  0.17360304  1
  Sb  Sb68  1  0.50606093  0.16463297  -0.00477635  1
  Sb  Sb69  1  0.49758281  0.49710429  0.66053815  1
  Sb  Sb70  1  0.67115661  -0.00030039  -0.00467305  1
  Sb  Sb71  1  0.66279062  0.83632004  0.82633766  1
  Sb  Sb72  1  0.16105817  0.17010141  -0.00518525  1
  Sb  Sb73  1  0.50241373  0.66412199  0.83291584  1
  Sb  Sb74  1  0.00205561  0.82967932  0.82812795  1
  Sb  Sb75  1  0.34195375  0.17118360  0.50327062  1
  Sb  Sb76  1  -0.00495439  -0.00179723  0.67024522  1
  Sb  Sb77  1  -0.00517611  0.50505655  0.50798757  1
  Sb  Sb78  1  0.66740650  0.49499528  0.82440101  1
  Sb  Sb79  1  0.33005421  0.66217276  -0.00576141  1
  Sb  Sb80  1  -0.00824653  0.16773997  0.50612592  1
  Sb  Sb81  1  0.50098069  -0.00554930  0.16384578  1
  Sb  Sb82  1  0.33608240  0.17197956  0.83148073  1
  Sb  Sb83  1  0.16991187  0.17391247  0.66710475  1
  Sb  Sb84  1  0.66870961  0.50049821  0.17624376  1
  Sb  Sb85  1  0.83151847  0.82651476  0.66577574  1
  Sb  Sb86  1  0.34424539  -0.00205471  0.33751015  1
  Sb  Sb87  1  0.83274286  0.33689551  0.82886728  1
  Sb  Sb88  1  -0.00805652  0.34026714  0.34249455  1
  Sb  Sb89  1  0.66678551  0.83114039  0.17300980  1
  Sb  Sb90  1  0.66766178  0.16970732  0.17591900  1
  Sb  Sb91  1  0.16378537  0.49937353  -0.00694569  1
  Sb  Sb92  1  0.67295515  0.66711694  0.00430806  1
  Sb  Sb93  1  0.16228089  0.66193225  0.82464247  1
  Sb  Sb94  1  0.33173973  0.00212443  -0.00472771  1
  Sb  Sb95  1  0.33883115  0.33677082  0.34118963  1
  Sb  Sb96  1  0.33850193  -0.00253911  0.66742049  1
  Sb  Sb97  1  0.16310792  0.17084946  0.33573751  1
  Sb  Sb98  1  -0.00168146  0.82836590  0.17007010  1
  Sb  Sb99  1  0.33540200  0.17857538  0.16713874  1
  Sb  Sb100  1  0.66717995  0.66298270  0.65939824  1
  Sb  Sb101  1  0.16055822  -0.00394359  0.50824836  1
  Sb  Sb102  1  0.50779065  -0.00009196  0.50675053  1
  Sb  Sb103  1  0.83231845  -0.00122886  0.82952781  1
  Sb  Sb104  1  -0.00077914  0.49933762  0.16210236  1
  Sb  Sb105  1  0.16529524  0.00423074  0.16071476  1
  Sb  Sb106  1  0.00072415  0.33627125  -0.00754162  1
  Sb  Sb107  1  0.50295040  0.50290056  0.00341196  1
  Te  Te108  1  0.16666628  0.17483128  0.16692475  1
  Te  Te109  1  0.16750667  0.16887056  0.49868444  1
  Te  Te110  1  0.16234600  0.16879167  0.83278197  1
  Te  Te111  1  0.17111854  0.49605863  0.16672966  1
  Te  Te112  1  0.17119830  0.50049239  0.50423439  1
  Te  Te113  1  0.16764924  0.49623803  0.82817116  1
  Te  Te114  1  0.16797658  0.83451173  0.16721655  1
  Te  Te115  1  0.16907612  0.83159431  0.50688164  1
  Te  Te116  1  0.17103111  0.83437449  0.82632633  1
  Te  Te117  1  0.50034089  0.16514984  0.16956496  1
  Te  Te118  1  0.50531960  0.16813086  0.50086956  1
  Te  Te119  1  0.50308062  0.16832868  0.83126590  1
  Te  Te120  1  0.49692125  0.50530809  0.17135621  1
  Te  Te121  1  0.49959419  0.49759998  0.49642042  1
  Te  Te122  1  0.49844213  0.49490533  0.83502130  1
  Te  Te123  1  0.49969770  0.82668446  0.16565050  1
  Te  Te124  1  0.49989654  0.83339748  0.50241190  1
  Te  Te125  1  0.49780451  0.83152974  0.83083646  1
  Te  Te126  1  0.83278712  0.16795475  0.16599217  1
  Te  Te127  1  0.82881768  0.16858960  0.49860261  1
  Te  Te128  1  0.83253294  0.16648724  0.83420838  1
  Te  Te129  1  0.83385118  0.50087748  0.16257716  1
  Te  Te130  1  0.83303564  0.50072387  0.50084711  1
  Te  Te131  1  0.83372255  0.50208746  0.83263676  1
  Te  Te132  1  0.83325958  0.82894684  0.15812043  1
  Te  Te133  1  0.83132458  0.83099107  0.49948580  1
  Te  Te134  1  0.83302902  0.82974191  0.83758345  1
  Te  Te135  1  0.16026205  0.00023340  -0.00742351  1
  Te  Te136  1  0.16478725  0.00119678  0.33063870  1
  Te  Te137  1  0.16524179  0.00242993  0.67182319  1
  Te  Te138  1  0.17114435  0.33435568  0.00157299  1
  Te  Te139  1  0.16426373  0.33333141  0.32825677  1
  Te  Te140  1  0.16702803  0.33456225  0.66873540  1
  Te  Te141  1  0.15894207  0.66720891  0.00288194  1
  Te  Te142  1  0.16043609  0.66741170  0.34188469  1
  Te  Te143  1  0.16768031  0.66337751  0.66440386  1
  Te  Te144  1  0.50049442  -0.00555175  -0.00610418  1
  Te  Te145  1  0.50715576  -0.00395816  0.33128396  1
  Te  Te146  1  0.50367239  -0.00103449  0.67124976  1
  Te  Te147  1  0.49630717  0.33358973  0.00289032  1
  Te  Te148  1  0.50474754  0.33465375  0.33637378  1
  Te  Te149  1  0.50066516  0.33556872  0.66365414  1
  Te  Te150  1  0.49995272  0.67121124  0.00399550  1
  Te  Te151  1  0.50191781  0.66528364  0.33158031  1
  Te  Te152  1  0.49584252  0.67231369  0.66801527  1
  Te  Te153  1  0.83608996  0.00413260  0.00046038  1
  Te  Te154  1  0.82855739  -0.00052751  0.33679938  1
  Te  Te155  1  0.82716633  -0.00202072  0.66177862  1
  Te  Te156  1  0.83372889  0.33472800  0.00050650  1
  Te  Te157  1  0.83231309  0.33731020  0.33646822  1
  Te  Te158  1  0.83684721  0.33685889  0.66320316  1
  Te  Te159  1  0.83380569  0.66430427  0.00058524  1
  Te  Te160  1  0.83165002  0.66556834  0.33368392  1
  Te  Te161  1  0.83452109  0.66290633  0.66465589  1
  Te  Te162  1  -0.00618222  0.16747441  -0.00670317  1
  Te  Te163  1  -0.00855943  0.16544683  0.33367084  1
  Te  Te164  1  0.00047517  0.16626935  0.67322602  1
  Te  Te165  1  -0.00352172  0.50342391  -0.00729680  1
  Te  Te166  1  -0.00549734  0.50647999  0.32988736  1
  Te  Te167  1  0.00081131  0.50151648  0.66875616  1
  Te  Te168  1  -0.00222260  0.83107673  -0.00101567  1
  Te  Te169  1  0.00215896  0.82722962  0.33924494  1
  Te  Te170  1  0.00087114  0.83028792  0.66199403  1
  Te  Te171  1  0.33468795  0.17442290  0.00063032  1
  Te  Te172  1  0.34028208  0.16574412  0.33426406  1
  Te  Te173  1  0.34307674  0.17157536  0.66693805  1
  Te  Te174  1  0.33441882  0.49642856  -0.00626875  1
  Te  Te175  1  0.33323991  0.50041560  0.33457759  1
  Te  Te176  1  0.33612511  0.50013744  0.66565315  1
  Te  Te177  1  0.33677084  0.83258876  -0.00433407  1
  Te  Te178  1  0.34141572  0.83165773  0.33502041  1
  Te  Te179  1  0.33402146  0.83664236  0.66741823  1
  Te  Te180  1  0.67305345  0.16553691  -0.00235744  1
  Te  Te181  1  0.66813787  0.16920640  0.33717029  1
  Te  Te182  1  0.66525509  0.16933731  0.66376825  1
  Te  Te183  1  0.67245040  0.49927352  -0.00235665  1
  Te  Te184  1  0.66855587  0.49879100  0.33761183  1
  Te  Te185  1  0.67074910  0.49550005  0.65939171  1
  Te  Te186  1  0.66582856  0.83442001  -0.00089377  1
  Te  Te187  1  0.66345500  0.83113804  0.33745474  1
  Te  Te188  1  0.66312503  0.83302413  0.66194159  1
  Te  Te189  1  0.00037826  -0.00061471  0.15820290  1
  Te  Te190  1  -0.00782773  -0.00457101  0.49994157  1
  Te  Te191  1  0.00083562  -0.00110050  0.83597561  1
  Te  Te192  1  -0.00269302  0.33385011  0.16759872  1
  Te  Te193  1  0.00874545  0.33092096  0.50686318  1
  Te  Te194  1  -0.00002080  0.33571094  0.82901257  1
  Te  Te195  1  -0.00451707  0.66581304  0.15872668  1
  Te  Te196  1  -0.00149482  0.66699862  0.50580121  1
  Te  Te197  1  -0.00293582  0.66349543  0.83029143  1
  Te  Te198  1  0.33118174  0.00068693  0.16520762  1
  Te  Te199  1  0.32940376  -0.00708229  0.49990358  1
  Te  Te200  1  0.33302272  -0.00264221  0.83373387  1
  Te  Te201  1  0.33274242  0.34108683  0.17027671  1
  Te  Te202  1  0.32800313  0.33557836  0.50475234  1
  Te  Te203  1  0.33354477  0.33391008  0.82840787  1
  Te  Te204  1  0.33241834  0.65806264  0.16554887  1
  Te  Te205  1  0.33378089  0.66589252  0.50414960  1
  Te  Te206  1  0.33343495  0.66463739  0.82865218  1
  Te  Te207  1  0.66621724  0.00000250  0.17423563  1
  Te  Te208  1  0.66759762  -0.00530668  0.50191786  1
  Te  Te209  1  0.66255464  0.00398146  0.82783136  1
  Te  Te210  1  0.67413186  0.33401429  0.16669334  1
  Te  Te211  1  0.66627383  0.33309796  0.49955523  1
  Te  Te212  1  0.66176981  0.32803892  0.82983131  1
  Te  Te213  1  0.66845599  0.66627480  0.17381823  1
  Te  Te214  1  0.66989108  0.67169127  0.49711976  1
  Te  Te215  1  0.67336013  0.66554162  0.83265954  1
