# generated using pymatgen
data_AgSbTe2
_symmetry_space_group_name_H-M   'P 1'
_cell_length_a   18.36671832
_cell_length_b   18.37194122
_cell_length_c   18.38143560
_cell_angle_alpha   89.99977224
_cell_angle_beta   89.99822239
_cell_angle_gamma   89.99993322
_symmetry_Int_Tables_number   1
_chemical_formula_structural   AgSbTe2
_chemical_formula_sum   'Ag54 Sb54 Te108'
_cell_volume   6202.48952607
_cell_formula_units_Z   54
loop_
 _symmetry_equiv_pos_site_id
 _symmetry_equiv_pos_as_xyz
  1  'x, y, z'
loop_
 _atom_site_type_symbol
 _atom_site_label
 _atom_site_symmetry_multiplicity
 _atom_site_fract_x
 _atom_site_fract_y
 _atom_site_fract_z
 _atom_site_occupancy
  Ag  Ag0  1  0.66977944  -0.00980371  0.00585963  1
  Ag  Ag1  1  -0.00573959  -0.00850486  0.01022930  1
  Ag  Ag2  1  0.33848876  0.33668365  0.33142687  1
  Ag  Ag3  1  0.33927541  0.83516550  0.49965379  1
  Ag  Ag4  1  -0.00066920  0.50236248  0.17504580  1
  Ag  Ag5  1  0.66727963  -0.01244724  0.65100994  1
  Ag  Ag6  1  0.66923076  0.33682272  0.33598892  1
  Ag  Ag7  1  0.83250777  0.67123782  0.49356958  1
  Ag  Ag8  1  0.66991745  0.84013343  0.17080887  1
  Ag  Ag9  1  0.15455149  0.33327353  0.17053831  1
  Ag  Ag10  1  -0.00532800  -0.00764218  0.66654052  1
  Ag  Ag11  1  0.67001987  0.67062144  0.65716350  1
  Ag  Ag12  1  0.66692094  0.67420286  0.00505014  1
  Ag  Ag13  1  0.67204696  0.67013226  0.33836044  1
  Ag  Ag14  1  0.82905510  0.33817028  0.49081411  1
  Ag  Ag15  1  0.51554587  0.33188644  0.16605412  1
  Ag  Ag16  1  -0.00826467  0.66643049  0.33612265  1
  Ag  Ag17  1  0.50825773  0.83346903  0.66152673  1
  Ag  Ag18  1  -0.00209836  0.34421692  0.32726705  1
  Ag  Ag19  1  -0.01054290  0.83147625  0.16625242  1
  Ag  Ag20  1  0.16417251  0.83228493  0.33754581  1
  Ag  Ag21  1  -0.00540529  0.51534356  0.49427362  1
  Ag  Ag22  1  0.83244754  -0.00825934  0.16970139  1
  Ag  Ag23  1  0.66460096  -0.01247442  0.33841716  1
  Ag  Ag24  1  0.00571797  0.83263227  0.82535920  1
  Ag  Ag25  1  -0.00087848  0.15144201  0.16969820  1
  Ag  Ag26  1  0.16084586  0.51050313  0.01180270  1
  Ag  Ag27  1  0.66857851  0.14920968  0.49837038  1
  Ag  Ag28  1  0.00309221  0.51321897  0.83898268  1
  Ag  Ag29  1  0.50508986  0.51475469  0.66606557  1
  Ag  Ag30  1  0.51488132  -0.00823374  0.16670804  1
  Ag  Ag31  1  0.34087289  0.67065050  0.00047821  1
  Ag  Ag32  1  0.83346927  0.67447463  0.17193687  1
  Ag  Ag33  1  0.50415958  0.67445274  0.83343289  1
  Ag  Ag34  1  0.51681728  -0.00843574  0.50174039  1
  Ag  Ag35  1  0.15952360  0.83238551  0.00495505  1
  Ag  Ag36  1  0.83116571  -0.01007762  0.49207429  1
  Ag  Ag37  1  0.50337061  -0.00837948  0.83204384  1
  Ag  Ag38  1  0.66661852  0.33808263  0.65450760  1
  Ag  Ag39  1  0.66891527  0.83355540  0.48607713  1
  Ag  Ag40  1  0.15971165  -0.00852769  0.49475947  1
  Ag  Ag41  1  0.66622917  0.33512553  0.01408633  1
  Ag  Ag42  1  0.15189323  0.83392802  0.65416892  1
  Ag  Ag43  1  0.15890147  -0.00724676  0.83451022  1
  Ag  Ag44  1  0.51076976  0.83449162  0.34109474  1
  Ag  Ag45  1  -0.00433207  0.83234911  0.49903931  1
  Ag  Ag46  1  0.15943669  0.50585476  0.33026371  1
  Ag  Ag47  1  0.83569074  0.33354962  0.17174378  1
  Ag  Ag48  1  0.50778211  0.83263143  0.00017315  1
  Ag  Ag49  1  -0.00947489  0.67190566  0.65637987  1
  Ag  Ag50  1  0.50404640  0.33726390  0.83881768  1
  Ag  Ag51  1  0.15193637  -0.01009513  0.16608011  1
  Ag  Ag52  1  0.67488462  0.50465353  0.49953110  1
  Ag  Ag53  1  0.82782880  0.83400386  0.00714907  1
  Sb  Sb54  1  0.16371936  0.16019984  0.00353007  1
  Sb  Sb55  1  0.15819085  0.67562568  0.49828709  1
  Sb  Sb56  1  0.33346027  -0.00714210  0.00161446  1
  Sb  Sb57  1  0.33343362  0.66828066  0.32990538  1
  Sb  Sb58  1  0.83344938  0.16832042  0.33262027  1
  Sb  Sb59  1  0.50330225  0.15841212  0.00209605  1
  Sb  Sb60  1  0.33643704  -0.00096471  0.33318137  1
  Sb  Sb61  1  0.51118523  0.33055223  0.49658169  1
  Sb  Sb62  1  0.50911770  0.67093635  0.16450867  1
  Sb  Sb63  1  0.33266592  0.83363188  0.83149109  1
  Sb  Sb64  1  0.50389287  0.15958088  0.66531174  1
  Sb  Sb65  1  0.33694762  0.34131412  0.00689553  1
  Sb  Sb66  1  0.33574691  0.16462951  0.83305036  1
  Sb  Sb67  1  0.32713410  0.50010108  0.16749782  1
  Sb  Sb68  1  0.33203111  0.50259487  0.83492862  1
  Sb  Sb69  1  -0.00640415  0.16010545  0.49321661  1
  Sb  Sb70  1  0.50033340  0.50302095  0.33648360  1
  Sb  Sb71  1  0.50477532  0.16078281  0.33197922  1
  Sb  Sb72  1  0.00045032  0.15734851  0.83875992  1
  Sb  Sb73  1  0.82713335  0.50224915  0.66274003  1
  Sb  Sb74  1  0.16088812  0.32999955  0.49234592  1
  Sb  Sb75  1  0.82790713  0.33753339  0.83491804  1
  Sb  Sb76  1  0.66646038  0.83366968  0.83562196  1
  Sb  Sb77  1  0.33554162  0.83399003  0.16839586  1
  Sb  Sb78  1  0.33717643  0.67175601  0.66778033  1
  Sb  Sb79  1  0.34204569  0.33698277  0.66034725  1
  Sb  Sb80  1  0.67235524  0.16190086  0.17201670  1
  Sb  Sb81  1  0.16256046  0.15446125  0.66534491  1
  Sb  Sb82  1  0.67221538  0.50064747  0.17097066  1
  Sb  Sb83  1  0.33080713  0.50609478  0.49785324  1
  Sb  Sb84  1  -0.00385244  0.33830402  0.66161552  1
  Sb  Sb85  1  -0.00520875  -0.00849832  0.33193069  1
  Sb  Sb86  1  0.83215366  -0.00565380  0.83473034  1
  Sb  Sb87  1  0.49987476  0.50502965  -0.00221790  1
  Sb  Sb88  1  0.83146425  0.16403844  0.66228368  1
  Sb  Sb89  1  0.83696361  0.50444740  0.00244394  1
  Sb  Sb90  1  0.16769865  0.67387641  0.83512399  1
  Sb  Sb91  1  0.66776310  0.50129341  0.83086884  1
  Sb  Sb92  1  0.33534831  -0.00457450  0.66526060  1
  Sb  Sb93  1  0.33807334  0.15999005  0.49642976  1
  Sb  Sb94  1  0.83197044  0.16092870  0.00465137  1
  Sb  Sb95  1  -0.00417862  0.67575691  0.00211877  1
  Sb  Sb96  1  0.15938955  0.66957774  0.16634137  1
  Sb  Sb97  1  0.33088464  0.16712736  0.16856505  1
  Sb  Sb98  1  0.83252354  0.83350768  0.66589872  1
  Sb  Sb99  1  0.16305141  0.16243473  0.33147141  1
  Sb  Sb100  1  0.66598799  0.16564110  0.83024163  1
  Sb  Sb101  1  -0.00354982  0.33334925  0.00760618  1
  Sb  Sb102  1  0.16883604  0.33297273  0.84052521  1
  Sb  Sb103  1  0.16490869  0.50564114  0.66381757  1
  Sb  Sb104  1  0.50963937  0.67402125  0.50431174  1
  Sb  Sb105  1  0.83127369  0.67133061  0.83349542  1
  Sb  Sb106  1  0.83242858  0.83060526  0.33026428  1
  Sb  Sb107  1  0.83974135  0.49997903  0.33440598  1
  Te  Te108  1  0.16087747  0.16905217  0.16582337  1
  Te  Te109  1  0.16744839  0.15673536  0.50010325  1
  Te  Te110  1  0.16852733  0.15694216  0.83377359  1
  Te  Te111  1  0.16212653  0.50157098  0.16955437  1
  Te  Te112  1  0.16239848  0.49656487  0.49493060  1
  Te  Te113  1  0.16169147  0.49843359  0.83147126  1
  Te  Te114  1  0.17116051  0.83434935  0.16615916  1
  Te  Te115  1  0.15677661  0.83603684  0.49874468  1
  Te  Te116  1  0.16578579  0.83608539  0.83898858  1
  Te  Te117  1  0.49943164  0.17229744  0.16631524  1
  Te  Te118  1  0.50581510  0.15540467  0.49876892  1
  Te  Te119  1  0.50049907  0.16893357  0.83425013  1
  Te  Te120  1  0.49920785  0.49171763  0.16723193  1
  Te  Te121  1  0.49811496  0.49810218  0.50477831  1
  Te  Te122  1  0.49961375  0.49607399  0.82968979  1
  Te  Te123  1  0.50239007  0.83524846  0.16312094  1
  Te  Te124  1  0.50795961  0.83494561  0.49987812  1
  Te  Te125  1  0.49921511  0.83363840  0.83489734  1
  Te  Te126  1  0.83966447  0.17477705  0.16612288  1
  Te  Te127  1  0.82661041  0.17086197  0.49968065  1
  Te  Te128  1  0.83438652  0.16801044  0.83420227  1
  Te  Te129  1  0.83886438  0.49356331  0.16508229  1
  Te  Te130  1  0.83502186  0.49858194  0.50062360  1
  Te  Te131  1  0.84529683  0.50201468  0.83292590  1
  Te  Te132  1  0.82972480  0.83330257  0.16706506  1
  Te  Te133  1  0.83003374  0.83185039  0.50151337  1
  Te  Te134  1  0.84593999  0.83337505  0.84546487  1
  Te  Te135  1  0.16605961  -0.00533289  0.00394177  1
  Te  Te136  1  0.16676201  -0.00397253  0.32903510  1
  Te  Te137  1  0.16598181  -0.00748233  0.67028800  1
  Te  Te138  1  0.16781996  0.33363871  0.00549731  1
  Te  Te139  1  0.15754226  0.33084965  0.33005833  1
  Te  Te140  1  0.16819800  0.33328277  0.66883271  1
  Te  Te141  1  0.16473989  0.66740319  -0.00014272  1
  Te  Te142  1  0.16699956  0.66720233  0.33261596  1
  Te  Te143  1  0.16592214  0.67229311  0.66789325  1
  Te  Te144  1  0.50181695  -0.00527007  0.00409104  1
  Te  Te145  1  0.50243356  -0.00504890  0.32871190  1
  Te  Te146  1  0.50388267  -0.00500156  0.66670918  1
  Te  Te147  1  0.50148295  0.33519593  0.00180490  1
  Te  Te148  1  0.50192644  0.33521289  0.32933335  1
  Te  Te149  1  0.50487343  0.32883463  0.66523346  1
  Te  Te150  1  0.50448569  0.66902241  -0.00183333  1
  Te  Te151  1  0.50159638  0.67208387  0.33247912  1
  Te  Te152  1  0.50297610  0.67143413  0.67047276  1
  Te  Te153  1  0.83263740  -0.00416693  0.00166467  1
  Te  Te154  1  0.82796167  0.00218630  0.33250634  1
  Te  Te155  1  0.82909259  0.00053724  0.66507251  1
  Te  Te156  1  0.82825543  0.33275479  0.00014909  1
  Te  Te157  1  0.83386215  0.33481303  0.33377229  1
  Te  Te158  1  0.82879805  0.33343597  0.66660480  1
  Te  Te159  1  0.82718380  0.67021442  0.00294807  1
  Te  Te160  1  0.83206284  0.66521631  0.33294476  1
  Te  Te161  1  0.83182173  0.66679264  0.66438295  1
  Te  Te162  1  -0.00106901  0.15681766  0.00668106  1
  Te  Te163  1  0.00048715  0.17834915  0.32736784  1
  Te  Te164  1  -0.00086434  0.15940538  0.66617741  1
  Te  Te165  1  0.00378040  0.49950940  -0.00418041  1
  Te  Te166  1  0.00243907  0.50474009  0.33445769  1
  Te  Te167  1  0.00118480  0.50525030  0.66102922  1
  Te  Te168  1  0.00276357  0.83502943  0.00982261  1
  Te  Te169  1  0.00259199  0.83015952  0.33192825  1
  Te  Te170  1  -0.00323668  0.83403151  0.66673363  1
  Te  Te171  1  0.33369681  0.17054118  0.00051013  1
  Te  Te172  1  0.33432397  0.17774800  0.33441949  1
  Te  Te173  1  0.33152299  0.16905837  0.66418837  1
  Te  Te174  1  0.32328067  0.50800968  -0.00029825  1
  Te  Te175  1  0.32585890  0.49697539  0.33452509  1
  Te  Te176  1  0.34251899  0.50168993  0.66609113  1
  Te  Te177  1  0.33236220  0.82821418  -0.00079686  1
  Te  Te178  1  0.32691527  0.83296788  0.33885769  1
  Te  Te179  1  0.33644344  0.83326394  0.65929626  1
  Te  Te180  1  0.66646257  0.17709450  0.00055532  1
  Te  Te181  1  0.66582540  0.17654767  0.33856996  1
  Te  Te182  1  0.66688145  0.17089767  0.66014817  1
  Te  Te183  1  0.66676867  0.49428583  -0.00072883  1
  Te  Te184  1  0.66307719  0.50182044  0.33767585  1
  Te  Te185  1  0.66252797  0.50202603  0.66566350  1
  Te  Te186  1  0.66638457  0.83349591  -0.00108089  1
  Te  Te187  1  0.66763396  0.83152618  0.32825572  1
  Te  Te188  1  0.66657802  0.83152906  0.67208546  1
  Te  Te189  1  -0.00517414  -0.00439891  0.16963419  1
  Te  Te190  1  -0.00364662  -0.00229327  0.49887069  1
  Te  Te191  1  0.00094889  -0.00486666  0.82868207  1
  Te  Te192  1  -0.00193046  0.34457707  0.16548451  1
  Te  Te193  1  -0.00694174  0.32818464  0.49866588  1
  Te  Te194  1  0.00159346  0.32898509  0.83194250  1
  Te  Te195  1  -0.00521141  0.66861669  0.16797998  1
  Te  Te196  1  -0.00380687  0.67067534  0.49921597  1
  Te  Te197  1  0.00044474  0.67090752  0.83098694  1
  Te  Te198  1  0.33418899  0.00233672  0.16728874  1
  Te  Te199  1  0.32372709  -0.00561916  0.49841007  1
  Te  Te200  1  0.34213517  0.00086095  0.83382889  1
  Te  Te201  1  0.32725140  0.33319297  0.17222457  1
  Te  Te202  1  0.33100711  0.33241321  0.49395951  1
  Te  Te203  1  0.33890241  0.33347113  0.83242002  1
  Te  Te204  1  0.33819553  0.66636219  0.16058712  1
  Te  Te205  1  0.33281609  0.67393597  0.49872932  1
  Te  Te206  1  0.34124764  0.66678372  0.83870358  1
  Te  Te207  1  0.67097696  0.00192431  0.16565035  1
  Te  Te208  1  0.67096469  -0.00689784  0.49761925  1
  Te  Te209  1  0.66238785  0.00186425  0.84309469  1
  Te  Te210  1  0.67255600  0.33307216  0.17182724  1
  Te  Te211  1  0.66835839  0.34651643  0.49723820  1
  Te  Te212  1  0.66204766  0.33371316  0.82854286  1
  Te  Te213  1  0.67260158  0.66579285  0.16586952  1
  Te  Te214  1  0.66967651  0.66648744  0.49922352  1
  Te  Te215  1  0.66404565  0.66517203  0.83542738  1
