# generated using pymatgen
data_AgSbTe2
_symmetry_space_group_name_H-M   'P 1'
_cell_length_a   18.31213189
_cell_length_b   18.31295269
_cell_length_c   18.31556434
_cell_angle_alpha   89.99816942
_cell_angle_beta   90.00124967
_cell_angle_gamma   90.00099757
_symmetry_Int_Tables_number   1
_chemical_formula_structural   AgSbTe2
_chemical_formula_sum   'Ag54 Sb54 Te108'
_cell_volume   6142.10993467
_cell_formula_units_Z   54
loop_
 _symmetry_equiv_pos_site_id
 _symmetry_equiv_pos_as_xyz
  1  'x, y, z'
loop_
 _atom_site_type_symbol
 _atom_site_label
 _atom_site_symmetry_multiplicity
 _atom_site_fract_x
 _atom_site_fract_y
 _atom_site_fract_z
 _atom_site_occupancy
  Ag  Ag0  1  0.66323615  0.32495091  0.67327343  1
  Ag  Ag1  1  0.00374175  0.32990112  0.33285860  1
  Ag  Ag2  1  0.00224979  0.00082174  0.66278151  1
  Ag  Ag3  1  0.83873163  0.16559625  0.33364585  1
  Ag  Ag4  1  0.83675218  0.83820037  0.00670276  1
  Ag  Ag5  1  0.16425006  0.83267464  0.00880040  1
  Ag  Ag6  1  0.66863004  0.33272556  -0.00821628  1
  Ag  Ag7  1  0.49691788  0.49981504  -0.00284321  1
  Ag  Ag8  1  0.33241252  0.17010821  0.82583579  1
  Ag  Ag9  1  0.00527467  0.67998225  0.33335945  1
  Ag  Ag10  1  0.66831411  0.16757895  0.50765711  1
  Ag  Ag11  1  0.84013695  0.32761898  0.49602291  1
  Ag  Ag12  1  0.33357158  0.66810350  0.66430549  1
  Ag  Ag13  1  0.16579195  0.33151023  0.49401403  1
  Ag  Ag14  1  0.16145293  0.82801190  0.33479127  1
  Ag  Ag15  1  -0.00170741  -0.00490162  0.33669786  1
  Ag  Ag16  1  0.49019114  0.67317675  0.50439202  1
  Ag  Ag17  1  0.49984672  0.66735925  0.83049183  1
  Ag  Ag18  1  0.50056408  -0.00391698  0.50799888  1
  Ag  Ag19  1  0.17159372  0.50026223  0.00589481  1
  Ag  Ag20  1  0.32139046  0.82868385  0.17286763  1
  Ag  Ag21  1  0.33445234  0.33200191  0.66397673  1
  Ag  Ag22  1  0.16682005  0.16670224  -0.00451073  1
  Ag  Ag23  1  0.67038884  0.66710928  0.33156244  1
  Ag  Ag24  1  0.17126611  0.83892761  0.65746007  1
  Ag  Ag25  1  0.83668659  0.00140401  0.16515202  1
  Ag  Ag26  1  0.82689102  0.32798759  0.83378003  1
  Ag  Ag27  1  0.16607987  0.00250227  0.83179792  1
  Ag  Ag28  1  0.00502566  0.83870267  0.17719411  1
  Ag  Ag29  1  0.49127187  0.83540176  0.66413020  1
  Ag  Ag30  1  0.32707520  0.49982244  0.16212551  1
  Ag  Ag31  1  0.83930388  0.32754301  0.16903170  1
  Ag  Ag32  1  0.32028950  0.33266844  0.33655844  1
  Ag  Ag33  1  0.00011881  0.16405337  0.17649366  1
  Ag  Ag34  1  0.66530426  0.66554898  0.00038533  1
  Ag  Ag35  1  0.82712448  0.00554758  0.83735882  1
  Ag  Ag36  1  0.66662596  0.00601190  0.67239693  1
  Ag  Ag37  1  0.16624786  0.50090563  0.32743347  1
  Ag  Ag38  1  0.00564283  0.49747212  0.83473890  1
  Ag  Ag39  1  0.50607210  -0.00198076  0.82752496  1
  Ag  Ag40  1  0.00231400  0.16358861  0.49447197  1
  Ag  Ag41  1  0.49411672  0.33394267  0.16613538  1
  Ag  Ag42  1  0.16610020  0.33809765  0.17405725  1
  Ag  Ag43  1  0.66922412  0.00259707  -0.00995129  1
  Ag  Ag44  1  0.16898114  0.16273428  0.66701555  1
  Ag  Ag45  1  0.17079060  0.67703893  0.49333354  1
  Ag  Ag46  1  0.33465607  0.49487558  0.83800267  1
  Ag  Ag47  1  0.66531574  0.16781636  0.82923674  1
  Ag  Ag48  1  0.84686255  0.84017056  0.32904568  1
  Ag  Ag49  1  0.32423916  0.83415397  0.50034309  1
  Ag  Ag50  1  0.32527499  0.16754700  0.50556265  1
  Ag  Ag51  1  0.00750345  0.84118244  0.48898964  1
  Ag  Ag52  1  0.66429497  0.49174445  0.83669728  1
  Ag  Ag53  1  0.16709482  0.66804482  0.17295766  1
  Sb  Sb54  1  0.32471067  0.17010913  0.16833599  1
  Sb  Sb55  1  0.00232347  0.83337568  0.83341879  1
  Sb  Sb56  1  0.33271213  0.00073069  0.66594009  1
  Sb  Sb57  1  0.33432163  -0.00008179  -0.00159402  1
  Sb  Sb58  1  0.16006612  -0.00249615  0.16316661  1
  Sb  Sb59  1  0.83393503  0.16603029  0.66285480  1
  Sb  Sb60  1  0.83649530  0.66563343  0.49686755  1
  Sb  Sb61  1  0.00213452  0.32716029  0.66240826  1
  Sb  Sb62  1  0.67415605  -0.00249409  0.33522852  1
  Sb  Sb63  1  0.49633446  0.33155185  0.49810045  1
  Sb  Sb64  1  0.33227172  0.83456190  0.82927364  1
  Sb  Sb65  1  0.67316324  0.16882843  0.16513215  1
  Sb  Sb66  1  0.83271378  0.49632717  0.66879390  1
  Sb  Sb67  1  0.65883957  0.66838756  0.66943568  1
  Sb  Sb68  1  0.83875050  0.66774011  0.16812851  1
  Sb  Sb69  1  0.67023070  0.83258053  0.16636323  1
  Sb  Sb70  1  0.49881137  0.83026919  -0.00347222  1
  Sb  Sb71  1  0.33448332  0.33489947  0.00045632  1
  Sb  Sb72  1  0.17084236  0.66846740  0.83293052  1
  Sb  Sb73  1  0.49817648  0.17078340  -0.00275986  1
  Sb  Sb74  1  0.83685530  0.83812035  0.66510069  1
  Sb  Sb75  1  0.66500996  0.49577407  0.50407914  1
  Sb  Sb76  1  0.49374404  0.50038222  0.32921137  1
  Sb  Sb77  1  0.83377861  0.00488301  0.49873835  1
  Sb  Sb78  1  0.49434224  0.66385103  0.16621239  1
  Sb  Sb79  1  0.15833801  0.16801288  0.33613218  1
  Sb  Sb80  1  0.16870211  0.49786771  0.66748320  1
  Sb  Sb81  1  0.16545503  -0.00003270  0.50505591  1
  Sb  Sb82  1  0.16536902  0.33045394  0.83352172  1
  Sb  Sb83  1  -0.00205754  0.33306494  0.00436642  1
  Sb  Sb84  1  0.00327012  0.49764669  0.50117779  1
  Sb  Sb85  1  0.83254065  0.50055149  -0.00097987  1
  Sb  Sb86  1  0.49529414  0.83139928  0.33845063  1
  Sb  Sb87  1  0.33451954  0.66496957  -0.00365382  1
  Sb  Sb88  1  0.33111446  0.49949207  0.50017548  1
  Sb  Sb89  1  0.66654097  0.83776196  0.49959441  1
  Sb  Sb90  1  -0.00354409  -0.00066079  0.00115830  1
  Sb  Sb91  1  0.49623506  0.16119583  0.66701323  1
  Sb  Sb92  1  0.84052115  0.49738275  0.33153618  1
  Sb  Sb93  1  -0.00059740  0.66756809  0.00427186  1
  Sb  Sb94  1  0.00878712  0.67298123  0.66100301  1
  Sb  Sb95  1  0.83646028  0.16323506  0.00284033  1
  Sb  Sb96  1  0.66135481  0.49796663  0.16110253  1
  Sb  Sb97  1  0.49763815  0.50468564  0.67355981  1
  Sb  Sb98  1  0.00799419  0.49831142  0.16568245  1
  Sb  Sb99  1  0.32632738  0.66393052  0.33714258  1
  Sb  Sb100  1  0.50524561  0.00272445  0.16480165  1
  Sb  Sb101  1  0.67075024  0.33603621  0.33416431  1
  Sb  Sb102  1  0.32546676  0.00332366  0.33657541  1
  Sb  Sb103  1  0.82796769  0.66806807  0.83595918  1
  Sb  Sb104  1  0.66626351  0.83985975  0.83395733  1
  Sb  Sb105  1  0.50349248  0.16719158  0.33588757  1
  Sb  Sb106  1  0.50403165  0.33420179  0.83537440  1
  Sb  Sb107  1  0.00013406  0.16789626  0.83136792  1
  Te  Te108  1  0.16125377  0.16892682  0.16399058  1
  Te  Te109  1  0.16700930  0.16691631  0.50222703  1
  Te  Te110  1  0.16722101  0.16455266  0.83200556  1
  Te  Te111  1  0.16829662  0.49893662  0.16606633  1
  Te  Te112  1  0.16666317  0.49579982  0.49676133  1
  Te  Te113  1  0.17006387  0.50004113  0.83647160  1
  Te  Te114  1  0.16540611  0.83482707  0.16637333  1
  Te  Te115  1  0.16693002  0.83603262  0.49989328  1
  Te  Te116  1  0.16716589  0.83681469  0.83497895  1
  Te  Te117  1  0.49805105  0.17206758  0.16668989  1
  Te  Te118  1  0.50134446  0.16300256  0.50012947  1
  Te  Te119  1  0.49884397  0.16132896  0.83377359  1
  Te  Te120  1  0.49251227  0.49608707  0.16145454  1
  Te  Te121  1  0.49946827  0.50910596  0.49849671  1
  Te  Te122  1  0.49798363  0.50152278  0.83775410  1
  Te  Te123  1  0.49310548  0.83409111  0.16717590  1
  Te  Te124  1  0.49952695  0.83307145  0.50358317  1
  Te  Te125  1  0.49911633  0.83324928  0.82890229  1
  Te  Te126  1  0.83833062  0.16683849  0.16950892  1
  Te  Te127  1  0.83606676  0.16959039  0.49667724  1
  Te  Te128  1  0.83166811  0.16651016  0.83482499  1
  Te  Te129  1  0.83370071  0.49279228  0.16603502  1
  Te  Te130  1  0.83376814  0.48956379  0.50046328  1
  Te  Te131  1  0.82802716  0.49660887  0.83459299  1
  Te  Te132  1  0.83662113  0.83384809  0.16737705  1
  Te  Te133  1  0.83925682  0.83316538  0.49476498  1
  Te  Te134  1  0.83434323  0.83785115  0.83795340  1
  Te  Te135  1  0.16667344  -0.00120594  -0.00532553  1
  Te  Te136  1  0.15855652  -0.00706215  0.33128845  1
  Te  Te137  1  0.16545623  0.00028739  0.67000334  1
  Te  Te138  1  0.16629325  0.33485138  0.00233109  1
  Te  Te139  1  0.16506965  0.33056136  0.33410807  1
  Te  Te140  1  0.16990580  0.33006206  0.66300798  1
  Te  Te141  1  0.16693481  0.66716851  0.00214306  1
  Te  Te142  1  0.16648108  0.66664101  0.33366307  1
  Te  Te143  1  0.17316247  0.66993399  0.66383205  1
  Te  Te144  1  0.50728941  -0.00026828  -0.00400799  1
  Te  Te145  1  0.50249172  -0.00070665  0.33507854  1
  Te  Te146  1  0.50181203  -0.00395031  0.66744977  1
  Te  Te147  1  0.50470783  0.33747786  0.00439193  1
  Te  Te148  1  0.49908724  0.33483454  0.32697922  1
  Te  Te149  1  0.49861389  0.33494512  0.66503642  1
  Te  Te150  1  0.50463517  0.66263154  -0.00191193  1
  Te  Te151  1  0.50516640  0.66623278  0.33658392  1
  Te  Te152  1  0.49541214  0.67175015  0.66631804  1
  Te  Te153  1  0.83042330  -0.00211474  -0.00085399  1
  Te  Te154  1  0.83739732  0.00053352  0.33087630  1
  Te  Te155  1  0.83148551  -0.00036439  0.67273683  1
  Te  Te156  1  0.82925827  0.33232900  -0.00061992  1
  Te  Te157  1  0.83594890  0.33095511  0.33316057  1
  Te  Te158  1  0.82983648  0.33202120  0.66846594  1
  Te  Te159  1  0.82728054  0.67386323  0.00097477  1
  Te  Te160  1  0.83505479  0.66859702  0.33309504  1
  Te  Te161  1  0.83345973  0.66784489  0.66613025  1
  Te  Te162  1  0.00755910  0.16616104  0.00327289  1
  Te  Te163  1  -0.00129448  0.16917599  0.33476526  1
  Te  Te164  1  0.00543260  0.16118833  0.66203623  1
  Te  Te165  1  0.00489407  0.50118138  -0.00613244  1
  Te  Te166  1  0.00683546  0.49322319  0.33339663  1
  Te  Te167  1  0.00075929  0.50146978  0.67412527  1
  Te  Te168  1  0.00165407  0.83230578  0.00236565  1
  Te  Te169  1  0.00089462  0.83502954  0.33322505  1
  Te  Te170  1  0.00540021  0.83971933  0.66393402  1
  Te  Te171  1  0.32671064  0.16725207  -0.00411775  1
  Te  Te172  1  0.33487120  0.17152036  0.33783594  1
  Te  Te173  1  0.33033994  0.16951467  0.66571528  1
  Te  Te174  1  0.33286130  0.50000810  -0.00076360  1
  Te  Te175  1  0.32723132  0.49412310  0.32883291  1
  Te  Te176  1  0.33293737  0.49640557  0.67230673  1
  Te  Te177  1  0.32874644  0.83237769  0.00335793  1
  Te  Te178  1  0.32785375  0.83401107  0.33574900  1
  Te  Te179  1  0.33200578  0.83192111  0.66305441  1
  Te  Te180  1  0.66710181  0.16762478  -0.00271730  1
  Te  Te181  1  0.67410778  0.16686267  0.33708752  1
  Te  Te182  1  0.66729879  0.16640528  0.66734070  1
  Te  Te183  1  0.66580732  0.49845379  -0.00363461  1
  Te  Te184  1  0.66739837  0.50659075  0.33411028  1
  Te  Te185  1  0.66512981  0.49529748  0.67377880  1
  Te  Te186  1  0.66750649  0.83277723  0.00069498  1
  Te  Te187  1  0.66854166  0.82793917  0.33299712  1
  Te  Te188  1  0.66493113  0.83837686  0.66605450  1
  Te  Te189  1  -0.00516400  0.00016569  0.16688350  1
  Te  Te190  1  -0.00146338  0.00189768  0.50030936  1
  Te  Te191  1  0.00157785  0.00046110  0.82961116  1
  Te  Te192  1  0.00113888  0.33210131  0.16942488  1
  Te  Te193  1  0.00143219  0.33081776  0.49804572  1
  Te  Te194  1  -0.00592207  0.33653777  0.83129146  1
  Te  Te195  1  0.00578041  0.66978855  0.17166040  1
  Te  Te196  1  0.00485876  0.66798729  0.49464690  1
  Te  Te197  1  -0.00195944  0.65955401  0.83093469  1
  Te  Te198  1  0.33687322  -0.00369396  0.16789072  1
  Te  Te199  1  0.34023519  0.00079578  0.49855705  1
  Te  Te200  1  0.33225314  0.00510875  0.83345470  1
  Te  Te201  1  0.32927350  0.33437148  0.16765461  1
  Te  Te202  1  0.33172879  0.33141965  0.50067271  1
  Te  Te203  1  0.33402549  0.33089260  0.83023214  1
  Te  Te204  1  0.32778345  0.66689704  0.16702331  1
  Te  Te205  1  0.33133296  0.66731137  0.50247390  1
  Te  Te206  1  0.33831839  0.66367930  0.82850525  1
  Te  Te207  1  0.67384582  0.00040469  0.16286726  1
  Te  Te208  1  0.66392715  0.00532128  0.50282618  1
  Te  Te209  1  0.66652365  0.00269487  0.83281306  1
  Te  Te210  1  0.66891989  0.33337551  0.16471776  1
  Te  Te211  1  0.66582857  0.32812382  0.50284556  1
  Te  Te212  1  0.66588624  0.33003513  0.83294776  1
  Te  Te213  1  0.66606138  0.66534124  0.16574690  1
  Te  Te214  1  0.66680268  0.66536607  0.49846059  1
  Te  Te215  1  0.66133030  0.66274512  0.83607692  1
