# generated using pymatgen
data_AgSbTe2
_symmetry_space_group_name_H-M   'P 1'
_cell_length_a   18.31506881
_cell_length_b   18.31143229
_cell_length_c   18.31266001
_cell_angle_alpha   89.99861627
_cell_angle_beta   89.99774646
_cell_angle_gamma   90.00100960
_symmetry_Int_Tables_number   1
_chemical_formula_structural   AgSbTe2
_chemical_formula_sum   'Ag54 Sb54 Te108'
_cell_volume   6141.61095280
_cell_formula_units_Z   54
loop_
 _symmetry_equiv_pos_site_id
 _symmetry_equiv_pos_as_xyz
  1  'x, y, z'
loop_
 _atom_site_type_symbol
 _atom_site_label
 _atom_site_symmetry_multiplicity
 _atom_site_fract_x
 _atom_site_fract_y
 _atom_site_fract_z
 _atom_site_occupancy
  Ag  Ag0  1  -0.00468903  -0.00223296  0.66535848  1
  Ag  Ag1  1  0.50157654  0.33661871  0.82498414  1
  Ag  Ag2  1  0.65796192  0.33297430  0.66522046  1
  Ag  Ag3  1  0.33527561  -0.01483850  -0.00207379  1
  Ag  Ag4  1  0.50155768  0.16977091  0.66509827  1
  Ag  Ag5  1  0.33252893  0.82651224  0.84373922  1
  Ag  Ag6  1  0.00105566  0.50735474  0.17127159  1
  Ag  Ag7  1  0.33453540  0.66850350  0.33814540  1
  Ag  Ag8  1  0.66501917  0.66692786  0.66333456  1
  Ag  Ag9  1  0.33954223  0.50724743  0.83108254  1
  Ag  Ag10  1  0.00062290  0.66891555  0.66151734  1
  Ag  Ag11  1  0.83617945  0.67166831  0.16814176  1
  Ag  Ag12  1  0.66067796  0.34148982  0.33698096  1
  Ag  Ag13  1  0.34119871  0.34453858  0.34089922  1
  Ag  Ag14  1  0.00125005  0.16694106  0.50017311  1
  Ag  Ag15  1  0.17826695  0.82778951  0.00570703  1
  Ag  Ag16  1  0.49465263  0.82540907  0.33468639  1
  Ag  Ag17  1  0.49938182  -0.00117717  0.50487506  1
  Ag  Ag18  1  0.49795217  0.33131897  0.50585537  1
  Ag  Ag19  1  0.34037024  0.33963195  0.66199724  1
  Ag  Ag20  1  0.50085403  0.50608629  0.33231585  1
  Ag  Ag21  1  0.16648621  0.33525729  0.16779199  1
  Ag  Ag22  1  -0.00182274  0.16262363  0.17419407  1
  Ag  Ag23  1  0.83366537  0.16824297  0.33616865  1
  Ag  Ag24  1  0.65902471  0.50019389  0.83522738  1
  Ag  Ag25  1  0.00413350  0.82861487  0.83715925  1
  Ag  Ag26  1  0.82864072  -0.00334043  0.83225079  1
  Ag  Ag27  1  0.17286065  0.50938083  0.00038142  1
  Ag  Ag28  1  0.00176608  0.83001372  0.16386719  1
  Ag  Ag29  1  0.66707355  -0.00963371  0.34259045  1
  Ag  Ag30  1  0.17498003  0.83054546  0.33257083  1
  Ag  Ag31  1  0.66457013  0.66651032  0.33625074  1
  Ag  Ag32  1  0.16550871  0.16543659  0.66288073  1
  Ag  Ag33  1  0.33373059  0.66428281  0.66149631  1
  Ag  Ag34  1  0.66649136  0.00032037  0.66295193  1
  Ag  Ag35  1  -0.00074958  0.50720451  0.83233023  1
  Ag  Ag36  1  0.33562118  0.82683362  0.49802327  1
  Ag  Ag37  1  0.00654595  0.50419521  0.49743942  1
  Ag  Ag38  1  0.49769073  0.50708232  -0.00106634  1
  Ag  Ag39  1  0.16991832  0.67074590  0.49780079  1
  Ag  Ag40  1  -0.00035489  0.66587366  0.33568303  1
  Ag  Ag41  1  0.32748578  0.83160410  0.15688363  1
  Ag  Ag42  1  0.65924339  0.83261871  0.49719746  1
  Ag  Ag43  1  0.49033672  0.82654970  0.00148043  1
  Ag  Ag44  1  0.66323665  0.34463526  -0.00526113  1
  Ag  Ag45  1  0.82753209  0.50225438  0.33303699  1
  Ag  Ag46  1  0.83282688  0.83245395  0.00237282  1
  Ag  Ag47  1  0.83244752  0.16317621  0.66104113  1
  Ag  Ag48  1  0.83492921  -0.00650522  0.16512100  1
  Ag  Ag49  1  0.33270830  0.50763523  0.50028812  1
  Ag  Ag50  1  0.50282825  -0.00072496  0.82607306  1
  Ag  Ag51  1  0.66076552  0.66508959  -0.00131590  1
  Ag  Ag52  1  0.33741481  0.67131739  -0.00059769  1
  Ag  Ag53  1  0.17065682  -0.00800245  0.50118731  1
  Sb  Sb54  1  0.32835471  0.50714434  0.16728032  1
  Sb  Sb55  1  0.16219818  -0.00268981  0.17096448  1
  Sb  Sb56  1  0.83661267  0.66535264  0.49527254  1
  Sb  Sb57  1  0.83262740  0.49864361  0.66299877  1
  Sb  Sb58  1  -0.00271647  0.33752143  0.00147870  1
  Sb  Sb59  1  0.16793705  0.83409588  0.66388828  1
  Sb  Sb60  1  0.00386131  0.66841537  0.00195902  1
  Sb  Sb61  1  0.66314139  -0.00584175  -0.00271197  1
  Sb  Sb62  1  0.82736820  0.33171816  0.83149582  1
  Sb  Sb63  1  0.83645703  0.33463077  0.16830524  1
  Sb  Sb64  1  0.49340798  0.66808860  0.49800157  1
  Sb  Sb65  1  0.83133479  0.50634360  0.00341473  1
  Sb  Sb66  1  0.50409379  -0.00450369  0.16859162  1
  Sb  Sb67  1  0.50205081  0.66781927  0.16697695  1
  Sb  Sb68  1  0.16871905  -0.00369448  0.82848574  1
  Sb  Sb69  1  0.66035835  0.50374284  0.50011783  1
  Sb  Sb70  1  0.83094664  0.00036188  0.50117429  1
  Sb  Sb71  1  0.67278120  0.16612761  0.17087041  1
  Sb  Sb72  1  0.66306009  0.82925292  0.83123753  1
  Sb  Sb73  1  0.83382637  0.67109624  0.83684514  1
  Sb  Sb74  1  0.17297265  0.33603882  0.49745112  1
  Sb  Sb75  1  0.32742617  0.16231109  0.16916789  1
  Sb  Sb76  1  0.82677258  0.33336149  0.49928971  1
  Sb  Sb77  1  0.00283291  -0.00554649  -0.00386295  1
  Sb  Sb78  1  0.49642402  0.33514439  0.16915970  1
  Sb  Sb79  1  0.49806161  0.66573381  0.83468930  1
  Sb  Sb80  1  0.66622638  0.17016670  0.82891657  1
  Sb  Sb81  1  0.17270355  0.33711938  0.83515997  1
  Sb  Sb82  1  0.00019098  0.33331667  0.66503011  1
  Sb  Sb83  1  0.00247150  0.83141047  0.49879446  1
  Sb  Sb84  1  0.50477968  0.16754408  0.34010569  1
  Sb  Sb85  1  0.50051943  0.16669337  -0.00615121  1
  Sb  Sb86  1  0.33460075  0.16653625  0.83055686  1
  Sb  Sb87  1  -0.00489393  -0.00514219  0.33698951  1
  Sb  Sb88  1  0.66843908  0.83111108  0.16964706  1
  Sb  Sb89  1  0.33064076  0.16642164  0.50167937  1
  Sb  Sb90  1  0.33564512  -0.00369228  0.66764533  1
  Sb  Sb91  1  0.49816884  0.49589522  0.66739647  1
  Sb  Sb92  1  0.16867744  0.49938330  0.66892117  1
  Sb  Sb93  1  0.83385574  0.83698820  0.67086393  1
  Sb  Sb94  1  0.16835426  0.66747616  0.82909148  1
  Sb  Sb95  1  -0.00037731  0.34015076  0.33379034  1
  Sb  Sb96  1  0.67029153  0.50180836  0.16639002  1
  Sb  Sb97  1  0.33811822  0.34169997  -0.00134205  1
  Sb  Sb98  1  0.66918383  0.16344886  0.50222890  1
  Sb  Sb99  1  0.49935536  0.83635723  0.66478852  1
  Sb  Sb100  1  0.16273070  0.66752969  0.17184278  1
  Sb  Sb101  1  0.16824542  0.50581837  0.33067790  1
  Sb  Sb102  1  -0.00184526  0.16411842  0.82891271  1
  Sb  Sb103  1  0.16179338  0.16324585  0.33825854  1
  Sb  Sb104  1  0.33914895  -0.00921990  0.33297236  1
  Sb  Sb105  1  0.16640410  0.16432091  -0.00177016  1
  Sb  Sb106  1  0.83115834  0.83037804  0.32899852  1
  Sb  Sb107  1  0.83271155  0.16142505  0.00164937  1
  Te  Te108  1  0.15849601  0.16845520  0.16734514  1
  Te  Te109  1  0.16158331  0.16394383  0.50405890  1
  Te  Te110  1  0.16589957  0.16767157  0.82511308  1
  Te  Te111  1  0.16181701  0.49755687  0.16171130  1
  Te  Te112  1  0.16819638  0.50365363  0.49982705  1
  Te  Te113  1  0.16584456  0.50021421  0.84009391  1
  Te  Te114  1  0.16443240  0.83399235  0.16684382  1
  Te  Te115  1  0.16824700  0.83280700  0.49781603  1
  Te  Te116  1  0.16636721  0.83362696  0.83926024  1
  Te  Te117  1  0.49852328  0.16521410  0.16610546  1
  Te  Te118  1  0.49940210  0.16471999  0.50562300  1
  Te  Te119  1  0.50031241  0.16346591  0.82618664  1
  Te  Te120  1  0.49875248  0.50002668  0.16723326  1
  Te  Te121  1  0.49380739  0.49513142  0.49355457  1
  Te  Te122  1  0.49955612  0.49809335  0.83622535  1
  Te  Te123  1  0.49511387  0.83415177  0.16715367  1
  Te  Te124  1  0.49939827  0.83581092  0.49774994  1
  Te  Te125  1  0.49535365  0.83738660  0.83683811  1
  Te  Te126  1  0.83981569  0.16407911  0.16966679  1
  Te  Te127  1  0.83988067  0.16727782  0.49907833  1
  Te  Te128  1  0.83351951  0.15901482  0.82952482  1
  Te  Te129  1  0.84040755  0.50256182  0.17103079  1
  Te  Te130  1  0.84172437  0.49806547  0.49365790  1
  Te  Te131  1  0.83768319  0.49990114  0.83349446  1
  Te  Te132  1  0.83524369  0.83347445  0.16430505  1
  Te  Te133  1  0.82606895  0.83315921  0.49992265  1
  Te  Te134  1  0.83630621  0.83765846  0.83857844  1
  Te  Te135  1  0.17234623  -0.00433841  0.00022048  1
  Te  Te136  1  0.16641844  -0.00558904  0.34022487  1
  Te  Te137  1  0.16556337  0.00331336  0.66192467  1
  Te  Te138  1  0.16780069  0.33356354  0.00405416  1
  Te  Te139  1  0.17102140  0.33230627  0.32936853  1
  Te  Te140  1  0.17185818  0.32782291  0.66633273  1
  Te  Te141  1  0.17069033  0.66736079  0.00100652  1
  Te  Te142  1  0.16817568  0.67122192  0.33701099  1
  Te  Te143  1  0.16599542  0.66629620  0.65937660  1
  Te  Te144  1  0.49737735  -0.00171217  -0.00291279  1
  Te  Te145  1  0.50681501  -0.00077578  0.33791230  1
  Te  Te146  1  0.50229803  0.00240941  0.66581782  1
  Te  Te147  1  0.50491034  0.33523942  -0.00193601  1
  Te  Te148  1  0.49990822  0.33394362  0.33552406  1
  Te  Te149  1  0.50006858  0.33297180  0.66626687  1
  Te  Te150  1  0.50026821  0.66693692  0.00124289  1
  Te  Te151  1  0.50176639  0.66634513  0.33234379  1
  Te  Te152  1  0.50365114  0.66603837  0.66625925  1
  Te  Te153  1  0.83235970  -0.00477620  -0.00088345  1
  Te  Te154  1  0.82803438  0.00212144  0.33139143  1
  Te  Te155  1  0.83179574  0.00242865  0.66802584  1
  Te  Te156  1  0.82330867  0.33287980  -0.00016492  1
  Te  Te157  1  0.82875707  0.33457339  0.33334592  1
  Te  Te158  1  0.82697842  0.32618773  0.66646034  1
  Te  Te159  1  0.82938988  0.67151950  0.00421974  1
  Te  Te160  1  0.83260345  0.66343388  0.33007441  1
  Te  Te161  1  0.83300521  0.66676692  0.66751815  1
  Te  Te162  1  -0.00004306  0.16715470  0.00472097  1
  Te  Te163  1  -0.00465023  0.16627886  0.33527924  1
  Te  Te164  1  -0.00228932  0.16570032  0.66412543  1
  Te  Te165  1  0.00219309  0.50135811  -0.00160061  1
  Te  Te166  1  0.00159321  0.50525921  0.33389214  1
  Te  Te167  1  0.00095355  0.50344552  0.66618197  1
  Te  Te168  1  -0.00319835  0.83294647  -0.00059303  1
  Te  Te169  1  0.00168513  0.82751343  0.33043942  1
  Te  Te170  1  0.00106407  0.83149200  0.67016824  1
  Te  Te171  1  0.33231444  0.16224292  -0.00011724  1
  Te  Te172  1  0.33299559  0.17265682  0.33339317  1
  Te  Te173  1  0.33495373  0.17000751  0.66668276  1
  Te  Te174  1  0.33501240  0.50544390  -0.00070242  1
  Te  Te175  1  0.33502872  0.50351722  0.33332160  1
  Te  Te176  1  0.33237672  0.50326973  0.66703960  1
  Te  Te177  1  0.33418755  0.82922528  0.00067527  1
  Te  Te178  1  0.33543763  0.83082760  0.33847460  1
  Te  Te179  1  0.33278492  0.82698862  0.66130412  1
  Te  Te180  1  0.66685427  0.17326846  0.00155623  1
  Te  Te181  1  0.67258498  0.16929992  0.33557864  1
  Te  Te182  1  0.66695086  0.16528512  0.66566702  1
  Te  Te183  1  0.66449509  0.50324824  -0.00109397  1
  Te  Te184  1  0.66530917  0.50317472  0.33399541  1
  Te  Te185  1  0.66752725  0.50273648  0.66865361  1
  Te  Te186  1  0.66711530  0.82754184  -0.00009009  1
  Te  Te187  1  0.66400349  0.83049150  0.33512111  1
  Te  Te188  1  0.66637662  0.83153191  0.66312990  1
  Te  Te189  1  -0.00478115  -0.00369338  0.16715234  1
  Te  Te190  1  0.00215169  0.00009787  0.50466630  1
  Te  Te191  1  -0.00237580  -0.00353925  0.82737998  1
  Te  Te192  1  0.00417818  0.33616887  0.16722595  1
  Te  Te193  1  0.00166780  0.33539992  0.49996418  1
  Te  Te194  1  -0.00060068  0.34015170  0.83297882  1
  Te  Te195  1  -0.00284797  0.66833673  0.16810039  1
  Te  Te196  1  0.00289771  0.66512450  0.50010919  1
  Te  Te197  1  0.00053704  0.66781800  0.82873674  1
  Te  Te198  1  0.33325395  -0.00574417  0.16375262  1
  Te  Te199  1  0.33487755  -0.00389116  0.49987248  1
  Te  Te200  1  0.33692366  -0.00432402  0.83511986  1
  Te  Te201  1  0.32812351  0.33172230  0.16822208  1
  Te  Te202  1  0.33686050  0.33418911  0.50035713  1
  Te  Te203  1  0.34031278  0.33846651  0.83012144  1
  Te  Te204  1  0.33215710  0.67313219  0.16891233  1
  Te  Te205  1  0.33216814  0.66563973  0.49971859  1
  Te  Te206  1  0.33273382  0.66628595  0.83152122  1
  Te  Te207  1  0.67367475  -0.00030090  0.16891969  1
  Te  Te208  1  0.66401789  -0.00226850  0.50201794  1
  Te  Te209  1  0.66520297  -0.00109884  0.82926839  1
  Te  Te210  1  0.66656245  0.33361902  0.17300439  1
  Te  Te211  1  0.65986540  0.33525272  0.50065959  1
  Te  Te212  1  0.66267468  0.33803588  0.82975920  1
  Te  Te213  1  0.67437841  0.66642965  0.17010421  1
  Te  Te214  1  0.66767363  0.66943802  0.50007141  1
  Te  Te215  1  0.66700433  0.66112706  0.83166070  1
