# generated using pymatgen
data_AgSbTe2
_symmetry_space_group_name_H-M   'P 1'
_cell_length_a   18.32734588
_cell_length_b   18.32482964
_cell_length_c   18.32084968
_cell_angle_alpha   89.99618419
_cell_angle_beta   89.99786085
_cell_angle_gamma   89.99624792
_symmetry_Int_Tables_number   1
_chemical_formula_structural   AgSbTe2
_chemical_formula_sum   'Ag54 Sb54 Te108'
_cell_volume   6152.97472559
_cell_formula_units_Z   54
loop_
 _symmetry_equiv_pos_site_id
 _symmetry_equiv_pos_as_xyz
  1  'x, y, z'
loop_
 _atom_site_type_symbol
 _atom_site_label
 _atom_site_symmetry_multiplicity
 _atom_site_fract_x
 _atom_site_fract_y
 _atom_site_fract_z
 _atom_site_occupancy
  Ag  Ag0  1  -0.00001527  0.83708779  0.83196746  1
  Ag  Ag1  1  0.66884767  0.00175936  0.00114479  1
  Ag  Ag2  1  0.00021791  0.32780671  0.33503270  1
  Ag  Ag3  1  0.49896994  -0.00260015  0.17426988  1
  Ag  Ag4  1  0.66511961  0.65459745  0.00066596  1
  Ag  Ag5  1  0.00073134  0.16803116  0.17561275  1
  Ag  Ag6  1  0.49968555  0.50388848  0.66227759  1
  Ag  Ag7  1  0.50754981  0.50073630  0.00820238  1
  Ag  Ag8  1  0.82165003  0.49892259  0.00593835  1
  Ag  Ag9  1  0.83601088  -0.00127600  0.83523489  1
  Ag  Ag10  1  0.33791855  0.34367434  0.00306526  1
  Ag  Ag11  1  0.33471759  0.00615539  0.33619276  1
  Ag  Ag12  1  0.16795953  0.66917217  0.83203290  1
  Ag  Ag13  1  0.49703351  0.49802273  0.33015138  1
  Ag  Ag14  1  0.66055673  0.49864356  0.16039341  1
  Ag  Ag15  1  0.17067919  0.16791984  0.33748202  1
  Ag  Ag16  1  0.66519710  0.17288428  0.50026265  1
  Ag  Ag17  1  0.33987532  0.50195109  0.84468071  1
  Ag  Ag18  1  0.49515544  0.84260457  0.33333323  1
  Ag  Ag19  1  0.16843723  0.83864187  0.66750868  1
  Ag  Ag20  1  0.33442537  0.66578386  0.32792079  1
  Ag  Ag21  1  0.00488975  -0.00150584  0.66145032  1
  Ag  Ag22  1  0.33400740  0.16690085  0.17580918  1
  Ag  Ag23  1  0.16433030  0.32715905  0.49616382  1
  Ag  Ag24  1  0.83502005  0.33284708  0.49349378  1
  Ag  Ag25  1  0.16124801  -0.00377634  0.82334591  1
  Ag  Ag26  1  0.49541823  0.83466780  0.66126626  1
  Ag  Ag27  1  0.49108130  0.16314570  0.33627708  1
  Ag  Ag28  1  0.83997523  0.84206536  0.67262077  1
  Ag  Ag29  1  -0.00562666  0.33816573  0.00739246  1
  Ag  Ag30  1  0.16755742  0.66544811  0.50040074  1
  Ag  Ag31  1  0.83331650  0.83230476  -0.00223429  1
  Ag  Ag32  1  0.49592742  0.66073190  0.16711821  1
  Ag  Ag33  1  0.83234636  0.49661923  0.32767789  1
  Ag  Ag34  1  0.66410115  0.49346509  0.49624030  1
  Ag  Ag35  1  0.33747285  0.82820180  0.16915709  1
  Ag  Ag36  1  0.17228555  0.00440604  0.50148470  1
  Ag  Ag37  1  0.83627989  0.33278601  0.16827392  1
  Ag  Ag38  1  0.50141686  0.32952472  0.49648359  1
  Ag  Ag39  1  0.49247925  0.00879421  0.49235899  1
  Ag  Ag40  1  0.00620567  0.17048723  0.49225258  1
  Ag  Ag41  1  0.00679416  0.01046277  0.33938872  1
  Ag  Ag42  1  0.66853389  0.16887128  0.83313561  1
  Ag  Ag43  1  0.66769671  0.34243630  0.00133071  1
  Ag  Ag44  1  0.33156102  0.16377306  0.49342679  1
  Ag  Ag45  1  0.66234260  0.49681180  0.84750964  1
  Ag  Ag46  1  0.32842326  -0.00052491  0.65477893  1
  Ag  Ag47  1  0.83277273  0.16083831  0.66245846  1
  Ag  Ag48  1  -0.00043044  0.66016533  -0.00007277  1
  Ag  Ag49  1  0.33540427  0.66049002  0.00818328  1
  Ag  Ag50  1  -0.00053556  0.48904063  0.49511753  1
  Ag  Ag51  1  0.16927850  0.49335569  0.33675598  1
  Ag  Ag52  1  0.34174473  0.50036957  0.16361248  1
  Ag  Ag53  1  0.82996483  0.00561707  0.16314916  1
  Sb  Sb54  1  0.33367318  0.67055128  0.66450439  1
  Sb  Sb55  1  0.16919086  0.00173181  0.17138368  1
  Sb  Sb56  1  0.00251331  0.83836185  0.16303988  1
  Sb  Sb57  1  0.16948616  0.50047907  0.00441150  1
  Sb  Sb58  1  0.50145890  -0.00060128  0.83231753  1
  Sb  Sb59  1  0.33738610  0.16823452  0.83342682  1
  Sb  Sb60  1  0.83162668  0.16847374  -0.00053418  1
  Sb  Sb61  1  0.82908601  0.49820201  0.66586612  1
  Sb  Sb62  1  0.66401303  0.83477266  0.50151574  1
  Sb  Sb63  1  0.17456949  0.66500666  0.16727129  1
  Sb  Sb64  1  0.67103591  0.33508080  0.33268432  1
  Sb  Sb65  1  0.83797806  0.65923706  0.49916564  1
  Sb  Sb66  1  0.49494670  0.66419426  0.49251044  1
  Sb  Sb67  1  0.00179882  0.83767808  0.50394989  1
  Sb  Sb68  1  0.33698434  -0.00164246  0.00509115  1
  Sb  Sb69  1  0.66550837  0.66453893  0.67142103  1
  Sb  Sb70  1  -0.00134224  0.32677381  0.65974559  1
  Sb  Sb71  1  0.83037930  0.83250699  0.33197395  1
  Sb  Sb72  1  0.66634495  0.17048904  0.16919699  1
  Sb  Sb73  1  0.65901421  0.66026577  0.32793668  1
  Sb  Sb74  1  0.16603485  0.16674696  0.00519677  1
  Sb  Sb75  1  0.50146449  0.33637523  0.83178694  1
  Sb  Sb76  1  0.83176107  0.32955747  0.83630419  1
  Sb  Sb77  1  0.33478058  0.33059336  0.66573668  1
  Sb  Sb78  1  0.50327199  0.82892933  0.00252973  1
  Sb  Sb79  1  -0.00195830  0.49520701  0.17016841  1
  Sb  Sb80  1  0.83700975  0.67139704  0.83771130  1
  Sb  Sb81  1  0.16218416  0.83152149  -0.00530104  1
  Sb  Sb82  1  0.67135772  0.83283660  0.83583370  1
  Sb  Sb83  1  -0.00321096  0.16193503  0.83208689  1
  Sb  Sb84  1  0.66629070  0.33313811  0.66558693  1
  Sb  Sb85  1  0.49561981  0.66372835  0.83906795  1
  Sb  Sb86  1  0.00215456  0.67184627  0.66890191  1
  Sb  Sb87  1  0.32943237  0.33104638  0.32926116  1
  Sb  Sb88  1  0.83496847  0.00789172  0.50048263  1
  Sb  Sb89  1  0.66797835  0.00094807  0.66910366  1
  Sb  Sb90  1  0.16655399  0.33410181  0.83021759  1
  Sb  Sb91  1  0.50301089  0.16460102  0.65699783  1
  Sb  Sb92  1  0.83693659  0.17160785  0.33654646  1
  Sb  Sb93  1  -0.00489115  0.00135077  0.00014547  1
  Sb  Sb94  1  0.50192865  0.33607731  0.17216493  1
  Sb  Sb95  1  0.33439826  0.49429062  0.49493789  1
  Sb  Sb96  1  0.17146472  0.50456360  0.66031081  1
  Sb  Sb97  1  -0.00102417  0.50355944  0.83272387  1
  Sb  Sb98  1  0.17335897  0.83561711  0.33854402  1
  Sb  Sb99  1  0.16247804  0.15860461  0.65717577  1
  Sb  Sb100  1  0.50133201  0.17200314  0.00652054  1
  Sb  Sb101  1  0.32872999  0.83003687  0.83622735  1
  Sb  Sb102  1  0.16394350  0.33394150  0.17270563  1
  Sb  Sb103  1  0.33349174  0.83994803  0.49546062  1
  Sb  Sb104  1  0.00751908  0.66358111  0.32954903  1
  Sb  Sb105  1  0.66166452  0.83118286  0.16464863  1
  Sb  Sb106  1  0.82841051  0.66336536  0.16366220  1
  Sb  Sb107  1  0.66255342  0.00295688  0.33123718  1
  Te  Te108  1  0.16730613  0.16720738  0.17321674  1
  Te  Te109  1  0.16582806  0.16472660  0.49703711  1
  Te  Te110  1  0.16724561  0.16272366  0.83222763  1
  Te  Te111  1  0.17112979  0.49996884  0.17639461  1
  Te  Te112  1  0.16661705  0.49925940  0.49674843  1
  Te  Te113  1  0.16897958  0.50325206  0.82981815  1
  Te  Te114  1  0.17436484  0.83371727  0.16632943  1
  Te  Te115  1  0.16721066  0.83382939  0.50608554  1
  Te  Te116  1  0.16300369  0.83463741  0.82914899  1
  Te  Te117  1  0.49785404  0.16491124  0.17326596  1
  Te  Te118  1  0.49994617  0.16737349  0.49732582  1
  Te  Te119  1  0.50716129  0.16812991  0.83254453  1
  Te  Te120  1  0.50074458  0.49702751  0.16720539  1
  Te  Te121  1  0.50104202  0.49945999  0.49699961  1
  Te  Te122  1  0.50096173  0.50015253  0.83399819  1
  Te  Te123  1  0.49670323  0.83691859  0.16845060  1
  Te  Te124  1  0.50029702  0.83478669  0.49901798  1
  Te  Te125  1  0.50006826  0.83162777  0.82691258  1
  Te  Te126  1  0.83462186  0.16683611  0.16808863  1
  Te  Te127  1  0.83029686  0.17171789  0.50136923  1
  Te  Te128  1  0.82923584  0.16172549  0.82865825  1
  Te  Te129  1  0.83216707  0.49734210  0.16666906  1
  Te  Te130  1  0.83359009  0.49435830  0.50040386  1
  Te  Te131  1  0.82878869  0.49965347  0.83613408  1
  Te  Te132  1  0.83334397  0.83774872  0.16308014  1
  Te  Te133  1  0.83262528  0.83114519  0.50307221  1
  Te  Te134  1  0.83674872  0.83764855  0.83416491  1
  Te  Te135  1  0.16641758  -0.00011367  -0.00709675  1
  Te  Te136  1  0.16689618  0.00213231  0.33682834  1
  Te  Te137  1  0.16678983  -0.00131548  0.66440034  1
  Te  Te138  1  0.16437241  0.33253058  -0.00141291  1
  Te  Te139  1  0.16158511  0.33232809  0.33756478  1
  Te  Te140  1  0.16655282  0.33354243  0.65881520  1
  Te  Te141  1  0.16698313  0.66677450  -0.00427040  1
  Te  Te142  1  0.17251789  0.66624009  0.33781696  1
  Te  Te143  1  0.16741698  0.67298775  0.66661752  1
  Te  Te144  1  0.50563920  -0.00063325  0.00215589  1
  Te  Te145  1  0.49900188  0.00093539  0.33332768  1
  Te  Te146  1  0.49668338  -0.00276270  0.66465779  1
  Te  Te147  1  0.50108587  0.33900311  -0.00043144  1
  Te  Te148  1  0.50047641  0.33671481  0.33737570  1
  Te  Te149  1  0.49933847  0.33918508  0.65903386  1
  Te  Te150  1  0.49850931  0.66343875  0.00500078  1
  Te  Te151  1  0.49405644  0.66168743  0.32749206  1
  Te  Te152  1  0.49951293  0.66756713  0.66506458  1
  Te  Te153  1  0.83182828  0.00065499  0.00073139  1
  Te  Te154  1  0.83479387  -0.00223658  0.32871087  1
  Te  Te155  1  0.83442824  -0.00042163  0.66694947  1
  Te  Te156  1  0.83245017  0.33550332  0.00189498  1
  Te  Te157  1  0.83832249  0.33704647  0.33200014  1
  Te  Te158  1  0.83380433  0.32940123  0.66169431  1
  Te  Te159  1  0.83261757  0.66449795  0.00053375  1
  Te  Te160  1  0.83501585  0.66082500  0.33180679  1
  Te  Te161  1  0.83364577  0.67482477  0.66808418  1
  Te  Te162  1  -0.00045734  0.17313526  0.00439477  1
  Te  Te163  1  -0.00123905  0.16683362  0.33327213  1
  Te  Te164  1  -0.00602072  0.16009200  0.66412925  1
  Te  Te165  1  0.00124518  0.49939546  0.00022927  1
  Te  Te166  1  0.00040572  0.49935309  0.33655750  1
  Te  Te167  1  -0.00055371  0.49975166  0.66107802  1
  Te  Te168  1  -0.00549760  0.83088858  -0.00360335  1
  Te  Te169  1  -0.00056088  0.83722878  0.33280306  1
  Te  Te170  1  -0.00081809  0.83815315  0.66982067  1
  Te  Te171  1  0.33425007  0.16965624  0.00342799  1
  Te  Te172  1  0.33143746  0.16743603  0.33380633  1
  Te  Te173  1  0.33452976  0.16087303  0.66598324  1
  Te  Te174  1  0.33039465  0.50055301  0.00193140  1
  Te  Te175  1  0.33377528  0.49787787  0.33069935  1
  Te  Te176  1  0.33937958  0.49984236  0.67004081  1
  Te  Te177  1  0.33399892  0.82898745  0.00599651  1
  Te  Te178  1  0.33697810  0.83429832  0.32893035  1
  Te  Te179  1  0.33360170  0.83776030  0.66833865  1
  Te  Te180  1  0.66556316  0.16350530  -0.00182371  1
  Te  Te181  1  0.65919208  0.16809001  0.33859266  1
  Te  Te182  1  0.67028876  0.16709380  0.66637358  1
  Te  Te183  1  0.66576806  0.49888983  0.00311544  1
  Te  Te184  1  0.66726896  0.49994034  0.33609705  1
  Te  Te185  1  0.66103848  0.49996711  0.65974542  1
  Te  Te186  1  0.67234333  0.83885648  -0.00038674  1
  Te  Te187  1  0.65847684  0.82993094  0.33363941  1
  Te  Te188  1  0.66438820  0.83231169  0.66775863  1
  Te  Te189  1  -0.00122885  0.00456009  0.16950957  1
  Te  Te190  1  0.00049594  0.00347544  0.49963797  1
  Te  Te191  1  -0.00120688  -0.00179637  0.83225114  1
  Te  Te192  1  -0.00267485  0.33059222  0.16804248  1
  Te  Te193  1  0.00021171  0.33129339  0.49814680  1
  Te  Te194  1  0.00053730  0.33307163  0.83893029  1
  Te  Te195  1  0.00106291  0.66818928  0.16028513  1
  Te  Te196  1  0.00652285  0.66382236  0.49944023  1
  Te  Te197  1  0.00565510  0.67115402  0.83778542  1
  Te  Te198  1  0.33618191  0.00552241  0.16958538  1
  Te  Te199  1  0.33381741  0.00213065  0.49742707  1
  Te  Te200  1  0.33045533  -0.00033001  0.83453833  1
  Te  Te201  1  0.33296068  0.33227852  0.16172935  1
  Te  Te202  1  0.33339037  0.32550498  0.50089121  1
  Te  Te203  1  0.33260235  0.33778826  0.83954015  1
  Te  Te204  1  0.33574342  0.66357359  0.16748534  1
  Te  Te205  1  0.32775425  0.66561554  0.49571940  1
  Te  Te206  1  0.32850830  0.66252569  0.83479886  1
  Te  Te207  1  0.66707839  0.00160406  0.16427085  1
  Te  Te208  1  0.66241116  0.00354239  0.50005535  1
  Te  Te209  1  0.67047737  0.00246107  0.83682660  1
  Te  Te210  1  0.67220863  0.33644234  0.16216317  1
  Te  Te211  1  0.66640208  0.33322235  0.49996980  1
  Te  Te212  1  0.66691765  0.33386426  0.83886279  1
  Te  Te213  1  0.66109911  0.66181612  0.16112688  1
  Te  Te214  1  0.66770757  0.66088171  0.50009709  1
  Te  Te215  1  0.66644979  0.66029318  0.83993170  1
