# generated using pymatgen
data_AgSbTe2
_symmetry_space_group_name_H-M   'P 1'
_cell_length_a   18.32013215
_cell_length_b   18.31939416
_cell_length_c   18.32026957
_cell_angle_alpha   90.00302599
_cell_angle_beta   90.00165041
_cell_angle_gamma   90.00163372
_symmetry_Int_Tables_number   1
_chemical_formula_structural   AgSbTe2
_chemical_formula_sum   'Ag54 Sb54 Te108'
_cell_volume   6148.53384166
_cell_formula_units_Z   54
loop_
 _symmetry_equiv_pos_site_id
 _symmetry_equiv_pos_as_xyz
  1  'x, y, z'
loop_
 _atom_site_type_symbol
 _atom_site_label
 _atom_site_symmetry_multiplicity
 _atom_site_fract_x
 _atom_site_fract_y
 _atom_site_fract_z
 _atom_site_occupancy
  Ag  Ag0  1  0.33240953  0.65638032  0.66993303  1
  Ag  Ag1  1  0.33241798  0.33541882  0.66440292  1
  Ag  Ag2  1  0.16527634  0.49189597  0.67207344  1
  Ag  Ag3  1  -0.00346967  0.66497360  0.00117540  1
  Ag  Ag4  1  0.66777828  0.66536675  0.00186137  1
  Ag  Ag5  1  0.16846705  0.00391003  0.16672365  1
  Ag  Ag6  1  0.00305456  0.33620901  0.00341373  1
  Ag  Ag7  1  0.83016088  0.66809964  0.16984465  1
  Ag  Ag8  1  -0.01177620  0.17318349  0.50323437  1
  Ag  Ag9  1  0.83271352  0.65135796  0.49691249  1
  Ag  Ag10  1  0.16881719  0.49692266  -0.00435731  1
  Ag  Ag11  1  0.83149765  0.17604422  0.65912250  1
  Ag  Ag12  1  0.82576077  0.33417795  0.82501026  1
  Ag  Ag13  1  0.16721465  0.17450423  0.66688393  1
  Ag  Ag14  1  0.50589211  0.33350162  0.83494443  1
  Ag  Ag15  1  0.83076045  0.49191987  0.34382794  1
  Ag  Ag16  1  0.33685919  0.32995153  0.33293050  1
  Ag  Ag17  1  0.50458315  0.17164453  0.66510746  1
  Ag  Ag18  1  -0.01082769  0.33250797  0.33295436  1
  Ag  Ag19  1  0.50065282  0.01225214  0.49850324  1
  Ag  Ag20  1  0.82805910  0.33731131  0.50004785  1
  Ag  Ag21  1  0.83102298  0.17705380  0.34034279  1
  Ag  Ag22  1  0.83412155  0.83165760  0.66245633  1
  Ag  Ag23  1  0.66981905  0.33210592  0.33705716  1
  Ag  Ag24  1  0.66539576  0.49134601  0.83625464  1
  Ag  Ag25  1  0.67125839  0.83332276  0.84168401  1
  Ag  Ag26  1  0.17086745  0.33061090  0.16444217  1
  Ag  Ag27  1  0.17303372  0.83575597  0.32847197  1
  Ag  Ag28  1  0.66580449  0.17647963  0.83324684  1
  Ag  Ag29  1  0.66813192  -0.00051905  0.00167333  1
  Ag  Ag30  1  0.49483049  0.83608753  0.33187822  1
  Ag  Ag31  1  0.33820992  0.17177467  0.16800403  1
  Ag  Ag32  1  -0.01242476  0.49127079  0.50154245  1
  Ag  Ag33  1  0.33444526  0.00041860  0.33086633  1
  Ag  Ag34  1  0.83247163  0.83207761  0.33442648  1
  Ag  Ag35  1  0.83498809  0.49403916  0.65673185  1
  Ag  Ag36  1  0.33530821  0.66320159  0.00042275  1
  Ag  Ag37  1  0.66774662  0.49384072  0.16336662  1
  Ag  Ag38  1  0.50956916  0.33059075  0.49881522  1
  Ag  Ag39  1  0.67476107  0.49154663  0.49906183  1
  Ag  Ag40  1  0.33590323  0.49563007  0.83355304  1
  Ag  Ag41  1  0.49952902  0.33050668  0.16639388  1
  Ag  Ag42  1  -0.00341916  -0.00113456  -0.00021046  1
  Ag  Ag43  1  0.33631868  0.83263086  0.48991192  1
  Ag  Ag44  1  0.50345144  0.17377787  0.00065661  1
  Ag  Ag45  1  -0.00139375  0.00273959  0.66722587  1
  Ag  Ag46  1  0.50117004  0.49346423  -0.00218104  1
  Ag  Ag47  1  -0.00203578  0.83441375  0.16411044  1
  Ag  Ag48  1  0.66296874  0.17419598  0.16584104  1
  Ag  Ag49  1  0.16631311  0.33550133  0.83345957  1
  Ag  Ag50  1  0.66875132  0.83241393  0.16515399  1
  Ag  Ag51  1  -0.00742650  0.83504828  0.84192444  1
  Ag  Ag52  1  0.33354604  0.83666229  0.17390337  1
  Ag  Ag53  1  0.67075731  0.17384586  0.49967156  1
  Sb  Sb54  1  0.50153692  0.65938989  0.83456965  1
  Sb  Sb55  1  0.33411505  -0.00328543  0.00693294  1
  Sb  Sb56  1  0.83215431  0.66324394  0.83315686  1
  Sb  Sb57  1  -0.00104690  0.83390481  0.49640906  1
  Sb  Sb58  1  0.32960699  0.00390508  0.66145438  1
  Sb  Sb59  1  0.82782573  0.17002112  0.00016599  1
  Sb  Sb60  1  0.16406173  0.16663925  0.33509061  1
  Sb  Sb61  1  0.50627665  0.49736846  0.33006301  1
  Sb  Sb62  1  0.33284280  0.33809118  0.00041256  1
  Sb  Sb63  1  0.50506436  0.66367722  0.16541336  1
  Sb  Sb64  1  0.82902558  0.00651752  0.50052231  1
  Sb  Sb65  1  0.50380241  0.83905590  0.66296595  1
  Sb  Sb66  1  0.66372867  0.00383765  0.32900518  1
  Sb  Sb67  1  0.16380297  0.82933562  0.00496208  1
  Sb  Sb68  1  0.00095154  0.33011382  0.66448737  1
  Sb  Sb69  1  0.16593354  0.66013663  0.83455308  1
  Sb  Sb70  1  0.66497430  0.66513900  0.67047353  1
  Sb  Sb71  1  -0.00267775  0.16522870  0.16879344  1
  Sb  Sb72  1  0.49778497  0.00478120  0.17034078  1
  Sb  Sb73  1  0.50155965  0.49112461  0.67110348  1
  Sb  Sb74  1  0.50492244  0.66194376  0.50073354  1
  Sb  Sb75  1  0.16483078  0.33234495  0.50038004  1
  Sb  Sb76  1  0.00230273  0.00237334  0.33289175  1
  Sb  Sb77  1  0.50313286  0.83347072  0.00441222  1
  Sb  Sb78  1  0.33700807  0.16670929  0.49571118  1
  Sb  Sb79  1  -0.00527315  0.50144350  0.16789450  1
  Sb  Sb80  1  0.16244103  0.49896153  0.33271563  1
  Sb  Sb81  1  0.50305755  0.00800946  0.83053605  1
  Sb  Sb82  1  0.33598714  0.49998327  0.50493136  1
  Sb  Sb83  1  -0.00184262  0.49857393  0.83131524  1
  Sb  Sb84  1  0.33492003  0.82660391  0.83490752  1
  Sb  Sb85  1  0.16961593  0.17289460  -0.00138710  1
  Sb  Sb86  1  -0.00459661  0.66431118  0.32947790  1
  Sb  Sb87  1  0.83056272  0.33652979  0.17115367  1
  Sb  Sb88  1  0.67166996  0.00329619  0.66967934  1
  Sb  Sb89  1  0.66589260  0.33155331  0.66192410  1
  Sb  Sb90  1  0.16240368  0.66569586  0.50126885  1
  Sb  Sb91  1  0.83272694  0.00295144  0.83220532  1
  Sb  Sb92  1  0.16394636  0.00629882  0.83808464  1
  Sb  Sb93  1  -0.00626500  0.16735904  0.82975686  1
  Sb  Sb94  1  0.16953948  0.00132414  0.49535354  1
  Sb  Sb95  1  0.33361842  0.66698676  0.33142124  1
  Sb  Sb96  1  0.66621784  0.33457863  0.00197235  1
  Sb  Sb97  1  0.66595624  0.83401484  0.49549486  1
  Sb  Sb98  1  0.16357738  0.66543191  0.16458360  1
  Sb  Sb99  1  0.00017966  0.66783452  0.67071470  1
  Sb  Sb100  1  0.83331568  0.83137985  0.00050422  1
  Sb  Sb101  1  0.83070181  0.49833892  -0.00015307  1
  Sb  Sb102  1  0.50451160  0.16822298  0.33387647  1
  Sb  Sb103  1  0.33869539  0.17565615  0.83545233  1
  Sb  Sb104  1  0.33746917  0.49773067  0.16187878  1
  Sb  Sb105  1  0.16269071  0.83425841  0.66363992  1
  Sb  Sb106  1  0.83393072  -0.00390819  0.16691841  1
  Sb  Sb107  1  0.67078652  0.66236549  0.32808112  1
  Te  Te108  1  0.16829916  0.16928426  0.16674933  1
  Te  Te109  1  0.16333262  0.16570666  0.50636508  1
  Te  Te110  1  0.16772162  0.17407030  0.82845233  1
  Te  Te111  1  0.16612075  0.49398002  0.16370237  1
  Te  Te112  1  0.16429318  0.50118232  0.50444397  1
  Te  Te113  1  0.16525127  0.49465913  0.83242691  1
  Te  Te114  1  0.16606495  0.83269961  0.16888954  1
  Te  Te115  1  0.17127977  0.83347000  0.49433090  1
  Te  Te116  1  0.16426569  0.83507213  0.83238957  1
  Te  Te117  1  0.50140363  0.16993518  0.16730722  1
  Te  Te118  1  0.50217799  0.17034624  0.50103445  1
  Te  Te119  1  0.50500808  0.17292908  0.83228177  1
  Te  Te120  1  0.50600403  0.49469279  0.16238813  1
  Te  Te121  1  0.50633866  0.49314397  0.49995588  1
  Te  Te122  1  0.50287885  0.49372121  0.83665796  1
  Te  Te123  1  0.50143052  0.83439123  0.17013721  1
  Te  Te124  1  0.49798920  0.83118587  0.49656255  1
  Te  Te125  1  0.50531409  0.83414753  0.83267889  1
  Te  Te126  1  0.82737586  0.16616400  0.17221863  1
  Te  Te127  1  0.83130803  0.16863831  0.50022564  1
  Te  Te128  1  0.82632567  0.17161779  0.82958707  1
  Te  Te129  1  0.82734848  0.50460583  0.16900936  1
  Te  Te130  1  0.83113190  0.49601864  0.50022902  1
  Te  Te131  1  0.82957448  0.49549415  0.82976510  1
  Te  Te132  1  0.83226549  0.83074967  0.16713324  1
  Te  Te133  1  0.83323872  0.83667059  0.50035066  1
  Te  Te134  1  0.83265144  0.83275368  0.82932887  1
  Te  Te135  1  0.16382591  0.00129797  0.00591326  1
  Te  Te136  1  0.17120714  -0.00261266  0.32795699  1
  Te  Te137  1  0.16084820  0.00408687  0.66791684  1
  Te  Te138  1  0.16510501  0.33627272  0.00137198  1
  Te  Te139  1  0.17214531  0.33421576  0.32849510  1
  Te  Te140  1  0.16816322  0.33415774  0.66642984  1
  Te  Te141  1  0.16649607  0.65898282  0.00019432  1
  Te  Te142  1  0.16470419  0.67336374  0.33326827  1
  Te  Te143  1  0.17282193  0.66296231  0.66710460  1
  Te  Te144  1  0.50372708  0.00574468  -0.00087183  1
  Te  Te145  1  0.49557229  -0.00389111  0.33694015  1
  Te  Te146  1  0.49947616  0.00775684  0.66018517  1
  Te  Te147  1  0.49954022  0.33336767  0.00072204  1
  Te  Te148  1  0.49958266  0.33413518  0.33214150  1
  Te  Te149  1  0.49541266  0.32929193  0.66750658  1
  Te  Te150  1  0.50145293  0.66157774  0.00014696  1
  Te  Te151  1  0.50165993  0.67529583  0.33399088  1
  Te  Te152  1  0.49151542  0.66881049  0.66661260  1
  Te  Te153  1  0.83450562  0.00208850  -0.00036699  1
  Te  Te154  1  0.83333679  -0.00605767  0.33348416  1
  Te  Te155  1  0.83882081  -0.00324580  0.66639681  1
  Te  Te156  1  0.84277945  0.33352350  -0.00510276  1
  Te  Te157  1  0.83182267  0.33383147  0.33415008  1
  Te  Te158  1  0.83508518  0.33429068  0.66535511  1
  Te  Te159  1  0.83308274  0.66460138  0.00343433  1
  Te  Te160  1  0.83345569  0.66997715  0.33355564  1
  Te  Te161  1  0.83356105  0.66666928  0.66310918  1
  Te  Te162  1  0.00036521  0.16426934  -0.00037525  1
  Te  Te163  1  -0.00440341  0.17073172  0.33714814  1
  Te  Te164  1  -0.00481031  0.16405506  0.66515300  1
  Te  Te165  1  0.00274625  0.50032768  -0.00027649  1
  Te  Te166  1  -0.00491624  0.49488435  0.33698465  1
  Te  Te167  1  -0.00047664  0.50138144  0.66366556  1
  Te  Te168  1  0.00004123  0.83446563  0.00211345  1
  Te  Te169  1  -0.00394210  0.83417035  0.32794047  1
  Te  Te170  1  -0.00331424  0.83634672  0.66695598  1
  Te  Te171  1  0.33932161  0.16501323  0.00641119  1
  Te  Te172  1  0.33174670  0.16800729  0.32904627  1
  Te  Te173  1  0.33256824  0.17101354  0.66646365  1
  Te  Te174  1  0.33386179  0.50339806  -0.00355860  1
  Te  Te175  1  0.33306813  0.49556258  0.33431909  1
  Te  Te176  1  0.33288087  0.49699904  0.67020735  1
  Te  Te177  1  0.33414541  0.82620178  0.00359855  1
  Te  Te178  1  0.33315151  0.83042137  0.33145551  1
  Te  Te179  1  0.33307628  0.83346829  0.66553579  1
  Te  Te180  1  0.66366442  0.16635706  0.00167072  1
  Te  Te181  1  0.67022845  0.16925429  0.33216927  1
  Te  Te182  1  0.66773381  0.16575735  0.66784219  1
  Te  Te183  1  0.66499773  0.50124358  -0.00056761  1
  Te  Te184  1  0.67021000  0.49599561  0.33166734  1
  Te  Te185  1  0.66994276  0.50143688  0.67100663  1
  Te  Te186  1  0.66652399  0.83297380  0.00194148  1
  Te  Te187  1  0.67073530  0.83370972  0.32880499  1
  Te  Te188  1  0.67204741  0.83387028  0.66882011  1
  Te  Te189  1  0.00442822  -0.00276737  0.16462357  1
  Te  Te190  1  0.00082522  0.00420155  0.50297785  1
  Te  Te191  1  -0.00029297  -0.00474478  0.83685817  1
  Te  Te192  1  0.00120330  0.33277395  0.16760687  1
  Te  Te193  1  -0.00092912  0.33246436  0.49712174  1
  Te  Te194  1  0.00302782  0.33291186  0.83788005  1
  Te  Te195  1  -0.00454506  0.67058757  0.16154192  1
  Te  Te196  1  -0.00676357  0.66416344  0.50132823  1
  Te  Te197  1  -0.00088516  0.67474268  0.83987000  1
  Te  Te198  1  0.33082746  -0.00250825  0.17063019  1
  Te  Te199  1  0.33754859  -0.00334050  0.49395362  1
  Te  Te200  1  0.33337280  -0.00170856  0.83422747  1
  Te  Te201  1  0.33492903  0.33257778  0.16779286  1
  Te  Te202  1  0.33504618  0.33305298  0.49886812  1
  Te  Te203  1  0.33189861  0.33767258  0.83204584  1
  Te  Te204  1  0.33411334  0.66977188  0.16295424  1
  Te  Te205  1  0.33456770  0.67010293  0.50198110  1
  Te  Te206  1  0.33379085  0.65977802  0.83485100  1
  Te  Te207  1  0.66565826  -0.00237916  0.16148011  1
  Te  Te208  1  0.65937429  0.00386559  0.49983525  1
  Te  Te209  1  0.66653691  -0.00482307  0.84020128  1
  Te  Te210  1  0.66500010  0.33333337  0.16825668  1
  Te  Te211  1  0.66741570  0.33203007  0.49960825  1
  Te  Te212  1  0.66678956  0.33353683  0.83580487  1
  Te  Te213  1  0.66969616  0.66918400  0.16227446  1
  Te  Te214  1  0.67275243  0.66265294  0.50136896  1
  Te  Te215  1  0.66726480  0.67008553  0.83935518  1
