# generated using pymatgen
data_AgSbTe2
_symmetry_space_group_name_H-M   'P 1'
_cell_length_a   18.34526197
_cell_length_b   18.34450244
_cell_length_c   18.34704771
_cell_angle_alpha   90.00171341
_cell_angle_beta   90.00152317
_cell_angle_gamma   89.99767368
_symmetry_Int_Tables_number   1
_chemical_formula_structural   AgSbTe2
_chemical_formula_sum   'Ag54 Sb54 Te108'
_cell_volume   6174.41824293
_cell_formula_units_Z   54
loop_
 _symmetry_equiv_pos_site_id
 _symmetry_equiv_pos_as_xyz
  1  'x, y, z'
loop_
 _atom_site_type_symbol
 _atom_site_label
 _atom_site_symmetry_multiplicity
 _atom_site_fract_x
 _atom_site_fract_y
 _atom_site_fract_z
 _atom_site_occupancy
  Ag  Ag0  1  0.00468041  -0.01005223  -0.00417232  1
  Ag  Ag1  1  0.50454220  0.82778807  0.00303944  1
  Ag  Ag2  1  0.34638723  0.17189945  0.50179444  1
  Ag  Ag3  1  0.16223605  0.49876742  0.66808524  1
  Ag  Ag4  1  0.50454079  0.49365564  0.00148342  1
  Ag  Ag5  1  0.66577527  0.65734799  0.33630922  1
  Ag  Ag6  1  0.65935888  0.34436086  0.32163606  1
  Ag  Ag7  1  0.50573403  0.32860829  0.49312436  1
  Ag  Ag8  1  0.50569320  0.17318649  0.66019561  1
  Ag  Ag9  1  0.16438408  -0.00150122  0.83061003  1
  Ag  Ag10  1  0.82793492  -0.00299068  0.50277787  1
  Ag  Ag11  1  0.16597854  0.17448073  -0.00156253  1
  Ag  Ag12  1  0.16792401  0.33804752  0.15980513  1
  Ag  Ag13  1  0.34227255  0.33654527  0.66971801  1
  Ag  Ag14  1  0.83520740  0.66446538  0.50858515  1
  Ag  Ag15  1  0.66978565  0.66085509  0.66481148  1
  Ag  Ag16  1  0.16853551  0.83019363  -0.00111921  1
  Ag  Ag17  1  0.50821438  0.49242351  0.33090634  1
  Ag  Ag18  1  0.32272842  0.65635213  0.66646901  1
  Ag  Ag19  1  0.34452486  0.33455691  0.33797093  1
  Ag  Ag20  1  0.66867151  0.49488754  0.49687935  1
  Ag  Ag21  1  0.66498296  0.82539480  0.16172914  1
  Ag  Ag22  1  0.32678261  0.49726274  0.83055446  1
  Ag  Ag23  1  0.16346593  0.65786717  0.15658613  1
  Ag  Ag24  1  0.65622068  0.34212340  0.00888388  1
  Ag  Ag25  1  0.34187327  0.33564049  -0.00606561  1
  Ag  Ag26  1  0.66172975  0.17923574  0.50213705  1
  Ag  Ag27  1  0.16365335  -0.00173792  0.50689586  1
  Ag  Ag28  1  0.15920573  0.65978176  0.83064869  1
  Ag  Ag29  1  -0.00482657  0.50139621  0.50748677  1
  Ag  Ag30  1  -0.00397930  0.33697776  0.34245655  1
  Ag  Ag31  1  0.00169448  0.81940157  0.49953640  1
  Ag  Ag32  1  0.00061322  0.66010002  0.66838005  1
  Ag  Ag33  1  0.00507482  0.50059659  0.82672851  1
  Ag  Ag34  1  0.15701216  0.66583899  0.51004333  1
  Ag  Ag35  1  0.66868486  0.65826069  -0.00061127  1
  Ag  Ag36  1  0.17038816  0.34084003  0.83428745  1
  Ag  Ag37  1  0.66565216  0.18243645  0.17481752  1
  Ag  Ag38  1  0.82178405  0.33443961  0.16638495  1
  Ag  Ag39  1  0.83637039  0.65911277  0.82702646  1
  Ag  Ag40  1  0.66122788  0.33534842  0.66414973  1
  Ag  Ag41  1  0.82358733  0.49826123  0.33722354  1
  Ag  Ag42  1  -0.00128220  0.33999681  0.66576498  1
  Ag  Ag43  1  0.82822522  0.33995158  0.83064215  1
  Ag  Ag44  1  0.50354818  0.83196106  0.33216138  1
  Ag  Ag45  1  0.50383633  0.33503082  0.83135407  1
  Ag  Ag46  1  0.50158278  0.17730790  0.34621471  1
  Ag  Ag47  1  0.66608251  0.49710989  0.18192510  1
  Ag  Ag48  1  0.82446600  0.17349561  0.66516127  1
  Ag  Ag49  1  0.50739572  0.33372460  0.17841335  1
  Ag  Ag50  1  0.00208973  0.66629893  -0.01074854  1
  Ag  Ag51  1  0.50963241  0.01291027  0.49997721  1
  Ag  Ag52  1  0.66517462  0.82455526  0.83623596  1
  Ag  Ag53  1  0.66752022  0.01526158  0.66443134  1
  Sb  Sb54  1  0.66718409  0.16973124  0.82899435  1
  Sb  Sb55  1  -0.00221392  0.83030483  0.16812404  1
  Sb  Sb56  1  0.82865477  0.49913417  0.00200096  1
  Sb  Sb57  1  0.82544927  0.33816263  0.50336812  1
  Sb  Sb58  1  0.82827930  0.82627338  0.33644438  1
  Sb  Sb59  1  0.66628471  0.00189313  0.34115871  1
  Sb  Sb60  1  -0.00296099  0.49913849  0.16649496  1
  Sb  Sb61  1  0.83706624  0.49691127  0.66370139  1
  Sb  Sb62  1  0.00201308  0.17543077  0.83335130  1
  Sb  Sb63  1  0.16990261  0.83045642  0.33155414  1
  Sb  Sb64  1  -0.00438480  0.66105944  0.33866565  1
  Sb  Sb65  1  0.49908451  0.49210944  0.66625069  1
  Sb  Sb66  1  0.00017656  0.33822774  -0.00407580  1
  Sb  Sb67  1  0.83125762  0.66081214  0.16656924  1
  Sb  Sb68  1  -0.00194887  0.00022394  0.66844879  1
  Sb  Sb69  1  0.33070938  0.83430242  0.50118119  1
  Sb  Sb70  1  0.50340295  0.00419915  0.17010406  1
  Sb  Sb71  1  0.33177799  0.17704403  0.83014140  1
  Sb  Sb72  1  0.17123116  0.17172975  0.33164247  1
  Sb  Sb73  1  0.33355432  0.66094821  -0.00430429  1
  Sb  Sb74  1  0.33749272  0.66032822  0.33775742  1
  Sb  Sb75  1  0.66855412  0.50027137  0.83015312  1
  Sb  Sb76  1  0.50190626  0.66056990  0.16653067  1
  Sb  Sb77  1  -0.00104149  0.82594013  0.83088354  1
  Sb  Sb78  1  0.66927069  -0.00049530  -0.00515658  1
  Sb  Sb79  1  0.83539981  0.00022822  0.82839020  1
  Sb  Sb80  1  0.33629884  0.00580128  0.33675971  1
  Sb  Sb81  1  -0.00263335  0.17086127  0.16456746  1
  Sb  Sb82  1  0.16531116  0.82545507  0.66993849  1
  Sb  Sb83  1  0.82927292  0.00693704  0.17130519  1
  Sb  Sb84  1  0.83228562  0.83083464  0.66563192  1
  Sb  Sb85  1  0.49836853  0.00313317  0.82982165  1
  Sb  Sb86  1  0.16461117  0.00147863  0.16378321  1
  Sb  Sb87  1  -0.00409703  0.17312940  0.50107038  1
  Sb  Sb88  1  0.16959894  0.33508714  0.50346949  1
  Sb  Sb89  1  0.66749755  0.82998898  0.50204488  1
  Sb  Sb90  1  0.82456103  0.17575801  0.33949455  1
  Sb  Sb91  1  0.16766306  0.17334551  0.66958447  1
  Sb  Sb92  1  0.49927334  0.17371579  -0.00026603  1
  Sb  Sb93  1  0.50425751  0.66254631  0.50093854  1
  Sb  Sb94  1  0.33766667  0.83014937  0.16424501  1
  Sb  Sb95  1  0.33603210  0.49473928  0.50467962  1
  Sb  Sb96  1  0.83456417  0.16987614  -0.00397313  1
  Sb  Sb97  1  0.00081542  0.00480918  0.33554102  1
  Sb  Sb98  1  0.32902034  0.00608054  -0.00277529  1
  Sb  Sb99  1  0.50276197  0.66000907  0.83282898  1
  Sb  Sb100  1  0.83185319  0.83088345  -0.00104987  1
  Sb  Sb101  1  0.33419027  0.82651495  0.83388289  1
  Sb  Sb102  1  0.16924071  0.49952387  -0.00651352  1
  Sb  Sb103  1  0.50326230  0.83551807  0.66705166  1
  Sb  Sb104  1  0.33755893  0.49616116  0.16282048  1
  Sb  Sb105  1  0.33549760  0.00542758  0.66481607  1
  Sb  Sb106  1  0.16828811  0.49854286  0.33783916  1
  Sb  Sb107  1  0.33810066  0.17340751  0.16942631  1
  Te  Te108  1  0.16705346  0.16935764  0.16178940  1
  Te  Te109  1  0.16516644  0.16246056  0.49934219  1
  Te  Te110  1  0.16652429  0.16295718  0.83793007  1
  Te  Te111  1  0.16684880  0.50022010  0.16752014  1
  Te  Te112  1  0.16602520  0.50387083  0.50524908  1
  Te  Te113  1  0.16589248  0.50028882  0.83275015  1
  Te  Te114  1  0.16584792  0.83325404  0.16091651  1
  Te  Te115  1  0.16301841  0.83194033  0.49898853  1
  Te  Te116  1  0.16656066  0.83300415  0.83884034  1
  Te  Te117  1  0.50582524  0.17206865  0.16671509  1
  Te  Te118  1  0.50290977  0.16743229  0.50265603  1
  Te  Te119  1  0.49854828  0.17101626  0.83098475  1
  Te  Te120  1  0.50338434  0.49475761  0.16562378  1
  Te  Te121  1  0.50454507  0.49582069  0.49543094  1
  Te  Te122  1  0.49724392  0.49475139  0.83715711  1
  Te  Te123  1  0.50468360  0.83407638  0.16498132  1
  Te  Te124  1  0.49817549  0.83205106  0.49671388  1
  Te  Te125  1  0.50350582  0.83533026  0.83605228  1
  Te  Te126  1  0.82622402  0.17445836  0.16759848  1
  Te  Te127  1  0.82952444  0.16118208  0.50594307  1
  Te  Te128  1  0.83559422  0.16946773  0.82589381  1
  Te  Te129  1  0.82940153  0.49338562  0.17135305  1
  Te  Te130  1  0.83257722  0.50319491  0.49734228  1
  Te  Te131  1  0.83909186  0.50025135  0.83643248  1
  Te  Te132  1  0.82686441  0.83555129  0.16837106  1
  Te  Te133  1  0.83958593  0.83168904  0.49884461  1
  Te  Te134  1  0.82733450  0.82927569  0.83300090  1
  Te  Te135  1  0.16430809  -0.00316369  -0.00118952  1
  Te  Te136  1  0.16763646  -0.00061134  0.33810501  1
  Te  Te137  1  0.16695241  0.00033977  0.66775037  1
  Te  Te138  1  0.16475813  0.33328338  -0.00374808  1
  Te  Te139  1  0.16063262  0.33317635  0.33122984  1
  Te  Te140  1  0.16336753  0.33674931  0.67057971  1
  Te  Te141  1  0.16822537  0.66703148  -0.00298579  1
  Te  Te142  1  0.16763718  0.66716656  0.33363018  1
  Te  Te143  1  0.16393284  0.66444164  0.66833154  1
  Te  Te144  1  0.49892935  -0.00319869  -0.00021028  1
  Te  Te145  1  0.49957771  -0.00466174  0.33864643  1
  Te  Te146  1  0.50268171  0.00509339  0.66211706  1
  Te  Te147  1  0.50123964  0.33299080  -0.00790567  1
  Te  Te148  1  0.50130184  0.33429765  0.33471670  1
  Te  Te149  1  0.49994725  0.33391482  0.67093253  1
  Te  Te150  1  0.50303594  0.66862013  0.00005519  1
  Te  Te151  1  0.50493025  0.66924778  0.33289382  1
  Te  Te152  1  0.50674227  0.66818212  0.66728839  1
  Te  Te153  1  0.84114838  0.00126342  -0.00041591  1
  Te  Te154  1  0.83567025  0.00014140  0.34146715  1
  Te  Te155  1  0.83094819  0.00264841  0.66311982  1
  Te  Te156  1  0.83013971  0.33225696  -0.00267817  1
  Te  Te157  1  0.83489723  0.33719202  0.33239920  1
  Te  Te158  1  0.83401730  0.33229846  0.66913213  1
  Te  Te159  1  0.83020354  0.66681503  -0.00139934  1
  Te  Te160  1  0.82732208  0.65980527  0.33303809  1
  Te  Te161  1  0.83292834  0.66669717  0.66710876  1
  Te  Te162  1  0.00548134  0.16490624  -0.00014832  1
  Te  Te163  1  -0.00119652  0.17453251  0.33258889  1
  Te  Te164  1  -0.00165557  0.17099795  0.66673982  1
  Te  Te165  1  -0.00104815  0.50807018  -0.00152491  1
  Te  Te166  1  0.00076726  0.49490968  0.33455710  1
  Te  Te167  1  0.00036430  0.49981908  0.66546826  1
  Te  Te168  1  0.00299520  0.82861258  0.00082023  1
  Te  Te169  1  0.00051381  0.83397369  0.33919847  1
  Te  Te170  1  0.00054345  0.83075656  0.65960652  1
  Te  Te171  1  0.32711189  0.17341372  0.00051125  1
  Te  Te172  1  0.33898870  0.17306860  0.33815485  1
  Te  Te173  1  0.33488389  0.17221571  0.66131932  1
  Te  Te174  1  0.34038407  0.49504257  -0.00425924  1
  Te  Te175  1  0.33826330  0.49394739  0.33262747  1
  Te  Te176  1  0.33226339  0.49839278  0.66957357  1
  Te  Te177  1  0.33374351  0.83383776  -0.00030938  1
  Te  Te178  1  0.34039159  0.83165264  0.33230039  1
  Te  Te179  1  0.33484080  0.82587269  0.66711481  1
  Te  Te180  1  0.66773276  0.16818194  0.00149747  1
  Te  Te181  1  0.66186333  0.16751294  0.33611991  1
  Te  Te182  1  0.66577322  0.17024415  0.66543861  1
  Te  Te183  1  0.66298929  0.49920201  -0.00517144  1
  Te  Te184  1  0.66563008  0.50055824  0.33699590  1
  Te  Te185  1  0.66635314  0.49890237  0.66206014  1
  Te  Te186  1  0.66493698  0.83618133  -0.00195899  1
  Te  Te187  1  0.66293212  0.83534292  0.33045494  1
  Te  Te188  1  0.66589013  0.82197093  0.67157396  1
  Te  Te189  1  -0.00292631  0.00025850  0.16126771  1
  Te  Te190  1  0.00303562  0.00256101  0.50035149  1
  Te  Te191  1  0.00293858  -0.00355479  0.83612900  1
  Te  Te192  1  0.00817242  0.33309482  0.16495520  1
  Te  Te193  1  0.00096233  0.33942325  0.50281553  1
  Te  Te194  1  -0.00036671  0.33922616  0.82969991  1
  Te  Te195  1  0.00289744  0.66738401  0.16421143  1
  Te  Te196  1  -0.00193943  0.66272279  0.50005852  1
  Te  Te197  1  -0.00235277  0.66614188  0.83025326  1
  Te  Te198  1  0.33413369  0.00022581  0.16747157  1
  Te  Te199  1  0.32909924  0.00397436  0.50091481  1
  Te  Te200  1  0.32727454  -0.00204800  0.83220851  1
  Te  Te201  1  0.32734251  0.33265398  0.16539936  1
  Te  Te202  1  0.33535075  0.33120892  0.50176165  1
  Te  Te203  1  0.33043024  0.33591594  0.83189200  1
  Te  Te204  1  0.32440729  0.66480424  0.16826486  1
  Te  Te205  1  0.32983036  0.66611930  0.50599906  1
  Te  Te206  1  0.33092585  0.66073703  0.82769949  1
  Te  Te207  1  0.66735952  -0.00641407  0.16424704  1
  Te  Te208  1  0.66685280  -0.00452939  0.50588619  1
  Te  Te209  1  0.66682949  -0.00257374  0.82482005  1
  Te  Te210  1  0.66507841  0.33728883  0.16571243  1
  Te  Te211  1  0.66714375  0.33419393  0.50401188  1
  Te  Te212  1  0.66891174  0.33410308  0.82476400  1
  Te  Te213  1  0.66638787  0.66421769  0.16131064  1
  Te  Te214  1  0.67006914  0.66530788  0.50019261  1
  Te  Te215  1  0.66754228  0.66559421  0.83642466  1
