# generated using pymatgen
data_AgSbTe2
_symmetry_space_group_name_H-M   'P 1'
_cell_length_a   18.35195086
_cell_length_b   18.34903640
_cell_length_c   18.34274934
_cell_angle_alpha   90.00080528
_cell_angle_beta   89.99875559
_cell_angle_gamma   89.99728645
_symmetry_Int_Tables_number   1
_chemical_formula_structural   AgSbTe2
_chemical_formula_sum   'Ag54 Sb54 Te108'
_cell_volume   6176.74867586
_cell_formula_units_Z   54
loop_
 _symmetry_equiv_pos_site_id
 _symmetry_equiv_pos_as_xyz
  1  'x, y, z'
loop_
 _atom_site_type_symbol
 _atom_site_label
 _atom_site_symmetry_multiplicity
 _atom_site_fract_x
 _atom_site_fract_y
 _atom_site_fract_z
 _atom_site_occupancy
  Ag  Ag0  1  0.50960132  0.50575115  0.33643002  1
  Ag  Ag1  1  0.83522315  0.33579225  0.49136018  1
  Ag  Ag2  1  0.50352065  0.50590429  0.65426150  1
  Ag  Ag3  1  0.83479036  0.50151211  0.32830701  1
  Ag  Ag4  1  0.16283787  0.15776427  0.33471532  1
  Ag  Ag5  1  0.67693451  0.00123325  0.01073220  1
  Ag  Ag6  1  0.50230918  0.33403251  0.49766628  1
  Ag  Ag7  1  0.83341824  0.66453660  0.83559398  1
  Ag  Ag8  1  -0.00163050  0.16808716  0.84691114  1
  Ag  Ag9  1  -0.00471814  0.00258660  0.01255027  1
  Ag  Ag10  1  0.83020941  0.83103396  0.32914557  1
  Ag  Ag11  1  0.16255935  0.84542539  0.33011738  1
  Ag  Ag12  1  0.17939236  0.00695966  0.48605161  1
  Ag  Ag13  1  0.66405673  0.66593740  0.66221495  1
  Ag  Ag14  1  0.15737164  0.32888467  0.48904881  1
  Ag  Ag15  1  0.83690421  0.49363640  0.01088631  1
  Ag  Ag16  1  0.49029502  0.00032332  0.49518199  1
  Ag  Ag17  1  0.82945823  0.83233484  0.65618869  1
  Ag  Ag18  1  0.15425680  0.33310836  0.17396638  1
  Ag  Ag19  1  0.15437279  0.00323502  0.17666658  1
  Ag  Ag20  1  0.83712692  0.34230849  0.16623187  1
  Ag  Ag21  1  0.34566903  0.66989812  0.66444283  1
  Ag  Ag22  1  0.00634388  0.17086177  0.48794299  1
  Ag  Ag23  1  0.15240876  0.49967359  0.01042827  1
  Ag  Ag24  1  0.49993743  0.66122801  0.50125013  1
  Ag  Ag25  1  0.83790993  0.00013990  0.16899214  1
  Ag  Ag26  1  0.15774522  0.83139057  0.01058506  1
  Ag  Ag27  1  0.15208241  0.49863983  0.32879961  1
  Ag  Ag28  1  0.31636159  -0.00169808  0.34092500  1
  Ag  Ag29  1  0.67257345  0.66467701  0.33486421  1
  Ag  Ag30  1  0.33473429  0.84576785  0.49704371  1
  Ag  Ag31  1  0.33971327  -0.00560323  0.65236221  1
  Ag  Ag32  1  0.66759103  0.34162864  0.65362476  1
  Ag  Ag33  1  0.50101839  0.16915638  0.00018990  1
  Ag  Ag34  1  -0.00436846  0.66201145  0.32948088  1
  Ag  Ag35  1  0.83314771  0.33997369  0.84884401  1
  Ag  Ag36  1  0.67555306  0.33287338  0.00745836  1
  Ag  Ag37  1  -0.00473382  0.49336265  0.17002797  1
  Ag  Ag38  1  0.32470669  0.33320305  0.00139230  1
  Ag  Ag39  1  0.67760225  0.49879770  0.17107044  1
  Ag  Ag40  1  0.00081391  0.49308515  0.48903247  1
  Ag  Ag41  1  -0.00323860  0.66125496  0.00710630  1
  Ag  Ag42  1  0.83825846  0.83122827  0.00686824  1
  Ag  Ag43  1  -0.00397199  0.33947801  0.00836619  1
  Ag  Ag44  1  0.00415589  -0.00233126  0.32931059  1
  Ag  Ag45  1  0.66582785  -0.00670611  0.65801125  1
  Ag  Ag46  1  0.66932657  0.34270275  0.33178925  1
  Ag  Ag47  1  0.51071230  0.83193468  0.33715430  1
  Ag  Ag48  1  0.32916926  0.15856551  0.49886070  1
  Ag  Ag49  1  0.67165695  0.83337061  0.17120811  1
  Ag  Ag50  1  0.15628818  0.66647736  0.83634911  1
  Ag  Ag51  1  0.66965352  -0.00705727  0.33143081  1
  Ag  Ag52  1  0.50529074  0.66552939  0.82373095  1
  Ag  Ag53  1  0.00092631  0.17112550  0.16876249  1
  Sb  Sb54  1  -0.00689930  0.33343336  0.66541103  1
  Sb  Sb55  1  0.50415215  0.66606394  0.17243180  1
  Sb  Sb56  1  0.15918980  0.33738541  0.83788828  1
  Sb  Sb57  1  0.33391318  0.83587386  0.17405165  1
  Sb  Sb58  1  0.50432159  0.33342478  0.17106044  1
  Sb  Sb59  1  0.83465368  0.00283883  0.49234832  1
  Sb  Sb60  1  0.50357423  0.00100231  0.17409839  1
  Sb  Sb61  1  -0.00194200  0.83465402  0.83876199  1
  Sb  Sb62  1  0.32634525  0.16682995  0.17186422  1
  Sb  Sb63  1  0.50524540  0.82828220  0.65798935  1
  Sb  Sb64  1  0.33326466  0.49985468  0.83274105  1
  Sb  Sb65  1  0.83475393  0.16976059  0.00193050  1
  Sb  Sb66  1  0.67353399  0.66683659  0.00211078  1
  Sb  Sb67  1  0.82903559  0.66324566  0.49801273  1
  Sb  Sb68  1  0.50109016  0.16755118  0.66692815  1
  Sb  Sb69  1  0.32719731  0.16680363  0.83000037  1
  Sb  Sb70  1  0.66840621  0.50036198  0.83681660  1
  Sb  Sb71  1  0.83615911  0.66503484  0.16555480  1
  Sb  Sb72  1  0.16469529  0.83310947  0.66315614  1
  Sb  Sb73  1  0.33354743  0.49836077  0.49738625  1
  Sb  Sb74  1  0.32900771  0.49792968  0.16827694  1
  Sb  Sb75  1  0.00312810  0.83479498  0.49361583  1
  Sb  Sb76  1  0.16280418  0.66704567  0.16580286  1
  Sb  Sb77  1  0.16649047  0.16620533  0.65545987  1
  Sb  Sb78  1  0.16963833  0.66656132  0.49993453  1
  Sb  Sb79  1  0.16944154  0.50094126  0.66366326  1
  Sb  Sb80  1  0.16373803  -0.00370072  0.83527352  1
  Sb  Sb81  1  0.50341537  0.83520530  0.00582679  1
  Sb  Sb82  1  0.50214755  -0.00424072  0.82893170  1
  Sb  Sb83  1  0.50469018  0.49734062  0.00417533  1
  Sb  Sb84  1  -0.00243957  0.00043989  0.66180503  1
  Sb  Sb85  1  0.66824776  0.49883788  0.49159208  1
  Sb  Sb86  1  0.33931512  0.33378220  0.66486582  1
  Sb  Sb87  1  0.67130531  0.16868978  0.83613474  1
  Sb  Sb88  1  0.67341472  0.16779944  0.16756626  1
  Sb  Sb89  1  0.32569068  0.66259733  -0.00778989  1
  Sb  Sb90  1  -0.00197014  0.49797345  0.83837997  1
  Sb  Sb91  1  0.82717657  0.50134351  0.66382554  1
  Sb  Sb92  1  -0.00446694  0.66591078  0.66481361  1
  Sb  Sb93  1  -0.00672806  0.83635409  0.16749504  1
  Sb  Sb94  1  0.33213464  0.33034774  0.33243641  1
  Sb  Sb95  1  0.33360535  0.67185356  0.33924484  1
  Sb  Sb96  1  0.83239994  0.16457053  0.66564540  1
  Sb  Sb97  1  0.66159712  0.83367769  0.49135905  1
  Sb  Sb98  1  0.66901719  0.83201355  0.83590516  1
  Sb  Sb99  1  0.32983442  0.00277290  0.00409786  1
  Sb  Sb100  1  0.84013198  0.16805790  0.33197858  1
  Sb  Sb101  1  0.49719584  0.16495823  0.33279083  1
  Sb  Sb102  1  0.66751720  0.16841328  0.49721819  1
  Sb  Sb103  1  0.83373282  -0.00102603  0.83893014  1
  Sb  Sb104  1  0.16481721  0.16895703  0.00655296  1
  Sb  Sb105  1  0.33273097  0.83115707  0.82706928  1
  Sb  Sb106  1  -0.00474274  0.33621640  0.32766982  1
  Sb  Sb107  1  0.50682028  0.33739930  0.83148619  1
  Te  Te108  1  0.16186636  0.16887632  0.17133553  1
  Te  Te109  1  0.16597948  0.16836045  0.49528111  1
  Te  Te110  1  0.16000305  0.16748818  0.83245767  1
  Te  Te111  1  0.16446125  0.49830453  0.16698382  1
  Te  Te112  1  0.16385180  0.49612599  0.49695866  1
  Te  Te113  1  0.16606919  0.50623300  0.83579280  1
  Te  Te114  1  0.16880048  0.83628553  0.16929066  1
  Te  Te115  1  0.17092436  0.83537234  0.49559557  1
  Te  Te116  1  0.16565969  0.82743946  0.83592453  1
  Te  Te117  1  0.49797544  0.16729516  0.16010337  1
  Te  Te118  1  0.49738824  0.16717473  0.49985959  1
  Te  Te119  1  0.49772825  0.16681596  0.83854007  1
  Te  Te120  1  0.50332172  0.49960173  0.17371189  1
  Te  Te121  1  0.50012470  0.49868802  0.49673432  1
  Te  Te122  1  0.50071384  0.50589101  0.83324570  1
  Te  Te123  1  0.50623282  0.83327861  0.17479827  1
  Te  Te124  1  0.49608014  0.83746928  0.49521013  1
  Te  Te125  1  0.50020237  0.82626992  0.83537403  1
  Te  Te126  1  0.84012670  0.16125142  0.16672594  1
  Te  Te127  1  0.83979297  0.17415394  0.49994207  1
  Te  Te128  1  0.83943692  0.17252634  0.83280752  1
  Te  Te129  1  0.83449253  0.50092854  0.16730661  1
  Te  Te130  1  0.83843771  0.49592365  0.49646333  1
  Te  Te131  1  0.83349975  0.50055236  0.83299049  1
  Te  Te132  1  0.83018826  0.83655195  0.16878862  1
  Te  Te133  1  0.83494417  0.83339981  0.49694397  1
  Te  Te134  1  0.83378528  0.82941012  0.84340600  1
  Te  Te135  1  0.16349313  -0.00365282  0.00255084  1
  Te  Te136  1  0.16065260  0.00073881  0.33207480  1
  Te  Te137  1  0.16874047  -0.00211621  0.66477799  1
  Te  Te138  1  0.16164274  0.33644808  0.00145498  1
  Te  Te139  1  0.16970007  0.34113558  0.33286657  1
  Te  Te140  1  0.16905220  0.33507576  0.66455835  1
  Te  Te141  1  0.16206772  0.66624796  -0.00190989  1
  Te  Te142  1  0.16468515  0.65748111  0.33383787  1
  Te  Te143  1  0.16630134  0.66682460  0.67273790  1
  Te  Te144  1  0.50013574  0.00190495  -0.00061911  1
  Te  Te145  1  0.51114147  -0.00093680  0.33696974  1
  Te  Te146  1  0.50256122  -0.00078577  0.66227354  1
  Te  Te147  1  0.50737151  0.33241418  -0.00059225  1
  Te  Te148  1  0.50234096  0.33304602  0.33726394  1
  Te  Te149  1  0.50670371  0.33743365  0.66381816  1
  Te  Te150  1  0.49911329  0.66661246  -0.00336318  1
  Te  Te151  1  0.50040132  0.66832744  0.33818872  1
  Te  Te152  1  0.50435043  0.66674267  0.66336132  1
  Te  Te153  1  0.83497872  -0.00164421  0.00175118  1
  Te  Te154  1  0.82947397  -0.00055071  0.33032536  1
  Te  Te155  1  0.82816247  -0.00564109  0.66759741  1
  Te  Te156  1  0.83523979  0.33362496  0.00521270  1
  Te  Te157  1  0.82969130  0.33386427  0.33107443  1
  Te  Te158  1  0.82573284  0.33332625  0.66125517  1
  Te  Te159  1  0.83595556  0.66983754  -0.00353667  1
  Te  Te160  1  0.83364122  0.66737042  0.33439826  1
  Te  Te161  1  0.82810166  0.66942540  0.66949464  1
  Te  Te162  1  0.00103461  0.16303270  0.00529840  1
  Te  Te163  1  0.00307129  0.16308294  0.33036110  1
  Te  Te164  1  0.00006044  0.16561516  0.66545343  1
  Te  Te165  1  -0.00354781  0.50070863  -0.00017477  1
  Te  Te166  1  -0.00459959  0.49901209  0.33130799  1
  Te  Te167  1  0.00017000  0.50025168  0.65828331  1
  Te  Te168  1  -0.00013148  0.83131082  0.00150770  1
  Te  Te169  1  0.00081394  0.83074471  0.33315668  1
  Te  Te170  1  -0.00911430  0.83369530  0.66616274  1
  Te  Te171  1  0.33499904  0.17060865  -0.00153740  1
  Te  Te172  1  0.32939715  0.16211160  0.33843624  1
  Te  Te173  1  0.33386505  0.16183779  0.66199634  1
  Te  Te174  1  0.33282339  0.49341451  0.00044995  1
  Te  Te175  1  0.34048223  0.50156738  0.33252285  1
  Te  Te176  1  0.34087875  0.50409250  0.66557597  1
  Te  Te177  1  0.32945759  0.83369178  0.00047878  1
  Te  Te178  1  0.32777219  0.83722560  0.33754694  1
  Te  Te179  1  0.33266316  0.83361513  0.66063037  1
  Te  Te180  1  0.66344431  0.16377799  0.00083489  1
  Te  Te181  1  0.66558523  0.16574933  0.33280291  1
  Te  Te182  1  0.66579082  0.16468509  0.66768750  1
  Te  Te183  1  0.67167669  0.49827590  0.00716649  1
  Te  Te184  1  0.66937789  0.50216466  0.33091700  1
  Te  Te185  1  0.66240820  0.50076594  0.66880639  1
  Te  Te186  1  0.66972641  0.83731273  0.00643113  1
  Te  Te187  1  0.66951176  0.83019102  0.33166690  1
  Te  Te188  1  0.67087920  0.83237816  0.66825871  1
  Te  Te189  1  -0.00115958  -0.00280280  0.16823717  1
  Te  Te190  1  0.00243855  0.00448291  0.49514326  1
  Te  Te191  1  -0.00009433  0.00652676  0.83467415  1
  Te  Te192  1  -0.00165623  0.33361475  0.16551766  1
  Te  Te193  1  0.00018612  0.33168655  0.50242003  1
  Te  Te194  1  -0.00612713  0.32983971  0.83528370  1
  Te  Te195  1  0.00117062  0.65713471  0.16734232  1
  Te  Te196  1  0.00110155  0.66285439  0.49540636  1
  Te  Te197  1  -0.00364509  0.66657329  0.83352428  1
  Te  Te198  1  0.32977812  0.00123333  0.17345290  1
  Te  Te199  1  0.33422811  0.00165494  0.49752218  1
  Te  Te200  1  0.33301230  -0.00018287  0.82821497  1
  Te  Te201  1  0.33064378  0.33200023  0.16080826  1
  Te  Te202  1  0.33808080  0.32916856  0.50141856  1
  Te  Te203  1  0.33370986  0.33207160  0.83855895  1
  Te  Te204  1  0.33514997  0.66700010  0.16402470  1
  Te  Te205  1  0.33790248  0.66665401  0.50562317  1
  Te  Te206  1  0.33831926  0.66634162  0.82476756  1
  Te  Te207  1  0.66900944  0.00046387  0.16820766  1
  Te  Te208  1  0.66725719  0.00136112  0.49970486  1
  Te  Te209  1  0.66640748  0.00042511  0.83266501  1
  Te  Te210  1  0.67041337  0.33416560  0.16909805  1
  Te  Te211  1  0.66621720  0.33292558  0.49665672  1
  Te  Te212  1  0.67357006  0.33352465  0.84151991  1
  Te  Te213  1  0.66747265  0.66606875  0.17150167  1
  Te  Te214  1  0.66151843  0.66691161  0.50015958  1
  Te  Te215  1  0.66884641  0.66624350  0.83161284  1
