# generated using pymatgen
data_AgSbTe2
_symmetry_space_group_name_H-M   'P 1'
_cell_length_a   18.32133310
_cell_length_b   18.32290888
_cell_length_c   18.32327739
_cell_angle_alpha   89.99929664
_cell_angle_beta   89.99941244
_cell_angle_gamma   89.99880067
_symmetry_Int_Tables_number   1
_chemical_formula_structural   AgSbTe2
_chemical_formula_sum   'Ag54 Sb54 Te108'
_cell_volume   6151.12636044
_cell_formula_units_Z   54
loop_
 _symmetry_equiv_pos_site_id
 _symmetry_equiv_pos_as_xyz
  1  'x, y, z'
loop_
 _atom_site_type_symbol
 _atom_site_label
 _atom_site_symmetry_multiplicity
 _atom_site_fract_x
 _atom_site_fract_y
 _atom_site_fract_z
 _atom_site_occupancy
  Ag  Ag0  1  0.00142433  0.16495052  0.17018590  1
  Ag  Ag1  1  0.66636275  0.50904230  0.84610272  1
  Ag  Ag2  1  0.16922302  0.66965202  0.49852683  1
  Ag  Ag3  1  0.66998582  0.16626913  0.50440329  1
  Ag  Ag4  1  0.49705733  0.00291263  0.16901720  1
  Ag  Ag5  1  0.16482446  0.00397668  0.17214066  1
  Ag  Ag6  1  0.84464366  0.00212092  0.83328197  1
  Ag  Ag7  1  0.50714103  0.66631225  0.83398502  1
  Ag  Ag8  1  0.82994648  0.50412223  0.32611763  1
  Ag  Ag9  1  0.32289493  0.32301146  0.66532411  1
  Ag  Ag10  1  0.66452087  0.65805654  0.00281767  1
  Ag  Ag11  1  0.84318680  0.16597432  0.66670767  1
  Ag  Ag12  1  0.16693527  0.84114929  0.33273580  1
  Ag  Ag13  1  0.15956978  0.16019996  -0.00517084  1
  Ag  Ag14  1  0.51291075  0.50257130  0.00615282  1
  Ag  Ag15  1  0.00401946  0.00509364  -0.00233678  1
  Ag  Ag16  1  0.32842978  0.00612829  0.66100514  1
  Ag  Ag17  1  0.16534116  0.50077272  0.32961373  1
  Ag  Ag18  1  0.82854387  0.66513603  0.16859713  1
  Ag  Ag19  1  0.50391216  0.82942226  0.33220622  1
  Ag  Ag20  1  0.66515977  0.00700028  0.66731409  1
  Ag  Ag21  1  0.33758866  0.66547310  -0.00116545  1
  Ag  Ag22  1  0.32092462  0.16081563  0.50494430  1
  Ag  Ag23  1  0.16231206  0.16623927  0.66560926  1
  Ag  Ag24  1  0.16966833  0.00487969  0.49687499  1
  Ag  Ag25  1  0.66819969  0.34475398  -0.00084767  1
  Ag  Ag26  1  0.66886135  0.66683206  0.67072858  1
  Ag  Ag27  1  -0.00174252  0.84547647  0.83376090  1
  Ag  Ag28  1  0.00408964  0.16718431  0.50196149  1
  Ag  Ag29  1  0.82407553  0.49848864  0.00502965  1
  Ag  Ag30  1  0.16543499  0.32160050  0.49599694  1
  Ag  Ag31  1  0.00326982  0.00517090  0.32942833  1
  Ag  Ag32  1  0.66768515  0.50594351  0.15890541  1
  Ag  Ag33  1  0.49910281  0.33333570  0.16802885  1
  Ag  Ag34  1  0.66729550  0.66657170  0.32712449  1
  Ag  Ag35  1  0.50706689  0.50599026  0.32648549  1
  Ag  Ag36  1  0.16640115  0.32718366  0.17097413  1
  Ag  Ag37  1  0.32958057  0.84028723  0.49705037  1
  Ag  Ag38  1  0.32210840  0.16363208  0.82392593  1
  Ag  Ag39  1  0.16492324  0.49892709  0.00628250  1
  Ag  Ag40  1  0.84027873  0.16761609  -0.00186557  1
  Ag  Ag41  1  0.00261052  0.32365457  0.66206077  1
  Ag  Ag42  1  -0.00342122  0.66434759  0.66657844  1
  Ag  Ag43  1  0.66866215  0.32793001  0.66945495  1
  Ag  Ag44  1  0.16131346  0.00391142  0.83678638  1
  Ag  Ag45  1  0.83922644  0.16555211  0.33386839  1
  Ag  Ag46  1  0.32050750  -0.00160572  0.33969570  1
  Ag  Ag47  1  0.00330960  0.32321962  0.33664420  1
  Ag  Ag48  1  0.16547590  0.84239640  0.00472628  1
  Ag  Ag49  1  0.66670531  0.82481929  0.16628546  1
  Ag  Ag50  1  0.00332114  0.16207696  0.83332298  1
  Ag  Ag51  1  0.83351526  0.83424055  0.33050039  1
  Ag  Ag52  1  0.66935640  0.82812204  0.83706830  1
  Ag  Ag53  1  0.49913029  0.66757323  0.49824718  1
  Sb  Sb54  1  -0.00329337  0.49394526  0.16747861  1
  Sb  Sb55  1  0.00262770  0.00551726  0.66864464  1
  Sb  Sb56  1  0.16171495  0.66727662  0.16925648  1
  Sb  Sb57  1  0.33138838  0.49890112  0.49847215  1
  Sb  Sb58  1  0.00202795  0.49481609  0.49783573  1
  Sb  Sb59  1  0.16551438  0.84075540  0.66493197  1
  Sb  Sb60  1  0.83055668  0.49608367  0.66896361  1
  Sb  Sb61  1  -0.00208568  0.66857196  0.33726360  1
  Sb  Sb62  1  0.67009051  0.16442860  0.82907386  1
  Sb  Sb63  1  0.49866380  -0.00383700  0.83736049  1
  Sb  Sb64  1  -0.00428871  0.49703652  0.83556993  1
  Sb  Sb65  1  0.67092092  0.33810143  0.33217948  1
  Sb  Sb66  1  0.67034134  -0.00450897  0.33671596  1
  Sb  Sb67  1  0.33231687  0.83772499  0.83008724  1
  Sb  Sb68  1  0.16671688  0.32523620  0.83381557  1
  Sb  Sb69  1  0.50037212  0.17070783  0.00145990  1
  Sb  Sb70  1  -0.00119764  0.32561231  0.00081589  1
  Sb  Sb71  1  0.50261239  0.33760602  0.83634409  1
  Sb  Sb72  1  0.16512308  0.49402687  0.66598906  1
  Sb  Sb73  1  0.32620956  0.32724239  0.33752158  1
  Sb  Sb74  1  0.33633850  0.49758857  0.83573988  1
  Sb  Sb75  1  0.83863286  0.33019177  0.49965456  1
  Sb  Sb76  1  0.66276038  0.83501425  0.49847271  1
  Sb  Sb77  1  0.49642555  0.16692505  0.66617966  1
  Sb  Sb78  1  0.33611434  0.67116386  0.33109849  1
  Sb  Sb79  1  0.00580346  0.83876684  0.50197530  1
  Sb  Sb80  1  0.67122325  -0.00101427  -0.00249776  1
  Sb  Sb81  1  0.49613406  0.33647190  0.49639920  1
  Sb  Sb82  1  0.83876112  0.00347859  0.50238833  1
  Sb  Sb83  1  0.82729050  0.67113156  0.83697085  1
  Sb  Sb84  1  0.32522078  -0.00207347  0.00035072  1
  Sb  Sb85  1  0.33788327  0.49997856  0.16630123  1
  Sb  Sb86  1  -0.00161533  0.83913677  0.16514448  1
  Sb  Sb87  1  0.66656233  0.49850891  0.49774625  1
  Sb  Sb88  1  0.83496922  0.33525577  0.16688950  1
  Sb  Sb89  1  -0.00220066  0.67001999  -0.00354301  1
  Sb  Sb90  1  0.67225684  0.16735362  0.16844725  1
  Sb  Sb91  1  0.83247084  0.66766786  0.49683217  1
  Sb  Sb92  1  0.83317957  0.83822964  0.66480851  1
  Sb  Sb93  1  0.49789037  0.82773502  0.00486304  1
  Sb  Sb94  1  0.15871162  0.16287348  0.33737419  1
  Sb  Sb95  1  0.50711291  0.66488315  0.16816048  1
  Sb  Sb96  1  0.83578746  0.83419332  0.00240259  1
  Sb  Sb97  1  0.83618604  -0.00133600  0.16519353  1
  Sb  Sb98  1  0.16847711  0.67166895  0.83158247  1
  Sb  Sb99  1  0.50288232  0.50104804  0.66746138  1
  Sb  Sb100  1  0.83265066  0.32679908  0.83410431  1
  Sb  Sb101  1  0.33400924  0.33529753  -0.00251136  1
  Sb  Sb102  1  0.33376805  0.66773129  0.66689703  1
  Sb  Sb103  1  0.33668713  0.83453530  0.17160155  1
  Sb  Sb104  1  0.49299777  -0.00271456  0.49526591  1
  Sb  Sb105  1  0.50207680  0.83319255  0.66230961  1
  Sb  Sb106  1  0.32319295  0.16467474  0.16930033  1
  Sb  Sb107  1  0.50438724  0.16546558  0.33290717  1
  Te  Te108  1  0.16220128  0.16586479  0.16294340  1
  Te  Te109  1  0.16539190  0.16559926  0.50071960  1
  Te  Te110  1  0.16461231  0.16457582  0.83311627  1
  Te  Te111  1  0.16631124  0.49942550  0.16863531  1
  Te  Te112  1  0.16704370  0.50501766  0.49711551  1
  Te  Te113  1  0.16639590  0.50115006  0.83840049  1
  Te  Te114  1  0.16636795  0.83607372  0.16791046  1
  Te  Te115  1  0.16928855  0.83324935  0.49791681  1
  Te  Te116  1  0.16403019  0.83877168  0.83572583  1
  Te  Te117  1  0.50053908  0.16806465  0.16664426  1
  Te  Te118  1  0.50661824  0.16777236  0.49833650  1
  Te  Te119  1  0.49407553  0.16629813  0.83560065  1
  Te  Te120  1  0.50334315  0.49765750  0.16666465  1
  Te  Te121  1  0.49881910  0.50548297  0.49284939  1
  Te  Te122  1  0.50404259  0.50508832  0.83805774  1
  Te  Te123  1  0.50396261  0.83735975  0.17159329  1
  Te  Te124  1  0.49531140  0.82938061  0.49318870  1
  Te  Te125  1  0.50397477  0.82764300  0.83448033  1
  Te  Te126  1  0.83944788  0.16701129  0.16601857  1
  Te  Te127  1  0.83280564  0.16687619  0.50119746  1
  Te  Te128  1  0.83530273  0.16170342  0.83321748  1
  Te  Te129  1  0.83032625  0.50073294  0.16594055  1
  Te  Te130  1  0.83412537  0.49961341  0.48947553  1
  Te  Te131  1  0.82743785  0.49969660  0.83869165  1
  Te  Te132  1  0.82905026  0.83081100  0.17053684  1
  Te  Te133  1  0.83410243  0.83550173  0.49108203  1
  Te  Te134  1  0.83323156  0.83965613  0.83335885  1
  Te  Te135  1  0.16508767  0.00070336  -0.00082866  1
  Te  Te136  1  0.16429856  -0.00062804  0.33267978  1
  Te  Te137  1  0.16859330  0.00429764  0.66549265  1
  Te  Te138  1  0.16675650  0.33427969  0.00443045  1
  Te  Te139  1  0.16412371  0.33633282  0.33350771  1
  Te  Te140  1  0.16424446  0.32982445  0.66476586  1
  Te  Te141  1  0.16625840  0.66535136  0.00005860  1
  Te  Te142  1  0.16686556  0.66523160  0.33644387  1
  Te  Te143  1  0.16598131  0.66380499  0.66264599  1
  Te  Te144  1  0.49831932  0.00020732  0.00704361  1
  Te  Te145  1  0.50240339  -0.00345073  0.32815337  1
  Te  Te146  1  0.50353618  -0.00088950  0.66764081  1
  Te  Te147  1  0.50282039  0.33862071  0.00453522  1
  Te  Te148  1  0.49831381  0.33801674  0.32855626  1
  Te  Te149  1  0.50805032  0.33524817  0.66506852  1
  Te  Te150  1  0.50247947  0.66349023  0.00027438  1
  Te  Te151  1  0.50158424  0.66705834  0.33416342  1
  Te  Te152  1  0.50337101  0.66592587  0.66512205  1
  Te  Te153  1  0.83866652  0.00341205  -0.00365638  1
  Te  Te154  1  0.83812685  0.00111366  0.33373398  1
  Te  Te155  1  0.82863473  0.00477678  0.66985675  1
  Te  Te156  1  0.82980101  0.33321543  0.00054110  1
  Te  Te157  1  0.83935319  0.33089046  0.33297400  1
  Te  Te158  1  0.83216407  0.32823218  0.66658875  1
  Te  Te159  1  0.82938371  0.66447431  0.00414936  1
  Te  Te160  1  0.83065229  0.66628937  0.33096939  1
  Te  Te161  1  0.83159478  0.66568429  0.66544211  1
  Te  Te162  1  -0.00009337  0.16582234  -0.00335412  1
  Te  Te163  1  -0.00195962  0.16606032  0.33411827  1
  Te  Te164  1  0.00033389  0.16575894  0.66552895  1
  Te  Te165  1  0.00435249  0.49975277  -0.00016285  1
  Te  Te166  1  0.00176267  0.49881257  0.33276981  1
  Te  Te167  1  -0.00293474  0.50097904  0.66717523  1
  Te  Te168  1  0.00413820  0.83778116  -0.00407977  1
  Te  Te169  1  0.00168820  0.83674695  0.33350378  1
  Te  Te170  1  -0.00168482  0.82759606  0.67231718  1
  Te  Te171  1  0.32906548  0.16694136  -0.00229871  1
  Te  Te172  1  0.33702517  0.15917941  0.33826463  1
  Te  Te173  1  0.33317321  0.16594428  0.66464061  1
  Te  Te174  1  0.32558407  0.50335189  -0.00042139  1
  Te  Te175  1  0.32954011  0.49964687  0.33263097  1
  Te  Te176  1  0.33438591  0.49273252  0.66763453  1
  Te  Te177  1  0.32721265  0.82868234  -0.00086785  1
  Te  Te178  1  0.32902336  0.83650690  0.33647015  1
  Te  Te179  1  0.33393057  0.83751745  0.66064156  1
  Te  Te180  1  0.67153099  0.16851899  -0.00081121  1
  Te  Te181  1  0.67468819  0.16819212  0.33722717  1
  Te  Te182  1  0.66596018  0.16724426  0.66579154  1
  Te  Te183  1  0.66824826  0.50105288  0.00197086  1
  Te  Te184  1  0.66765044  0.50328835  0.33137993  1
  Te  Te185  1  0.66783856  0.50151584  0.66802752  1
  Te  Te186  1  0.66664034  0.83157230  0.00111331  1
  Te  Te187  1  0.66707489  0.82911755  0.33155855  1
  Te  Te188  1  0.66813400  0.82911136  0.66967699  1
  Te  Te189  1  0.00341985  0.00380310  0.16584957  1
  Te  Te190  1  0.00583203  0.00512912  0.49692936  1
  Te  Te191  1  0.00187859  0.00148838  0.83177246  1
  Te  Te192  1  0.00544785  0.32729838  0.17022787  1
  Te  Te193  1  0.00486058  0.32918306  0.50022915  1
  Te  Te194  1  -0.00043441  0.32883203  0.82566340  1
  Te  Te195  1  -0.00883133  0.66748335  0.16636698  1
  Te  Te196  1  0.00377480  0.66788124  0.50569393  1
  Te  Te197  1  -0.00092985  0.66682761  0.82768472  1
  Te  Te198  1  0.33109391  -0.00017300  0.17139468  1
  Te  Te199  1  0.33194220  0.00115852  0.49979234  1
  Te  Te200  1  0.33054223  0.00309083  0.82902546  1
  Te  Te201  1  0.33117654  0.33211667  0.16692793  1
  Te  Te202  1  0.32878010  0.32818558  0.50513948  1
  Te  Te203  1  0.33495592  0.32731245  0.82631185  1
  Te  Te204  1  0.33155568  0.66752387  0.15808686  1
  Te  Te205  1  0.33323452  0.66953381  0.50025794  1
  Te  Te206  1  0.33852137  0.66759801  0.83597661  1
  Te  Te207  1  0.66421646  -0.00182829  0.16692215  1
  Te  Te208  1  0.66523804  0.00319764  0.50562455  1
  Te  Te209  1  0.66476892  -0.00509220  0.82944031  1
  Te  Te210  1  0.66411227  0.33480977  0.16454763  1
  Te  Te211  1  0.66456615  0.32937301  0.50390688  1
  Te  Te212  1  0.66621930  0.33525219  0.83373194  1
  Te  Te213  1  0.66779058  0.66638929  0.16698533  1
  Te  Te214  1  0.66358202  0.66718891  0.50267235  1
  Te  Te215  1  0.66652070  0.66781591  0.83337084  1
