# generated using pymatgen
data_AgSbTe2
_symmetry_space_group_name_H-M   'P 1'
_cell_length_a   18.33888654
_cell_length_b   18.33166830
_cell_length_c   18.33297443
_cell_angle_alpha   89.99629042
_cell_angle_beta   89.99600525
_cell_angle_gamma   90.00456271
_symmetry_Int_Tables_number   1
_chemical_formula_structural   AgSbTe2
_chemical_formula_sum   'Ag54 Sb54 Te108'
_cell_volume   6163.22301905
_cell_formula_units_Z   54
loop_
 _symmetry_equiv_pos_site_id
 _symmetry_equiv_pos_as_xyz
  1  'x, y, z'
loop_
 _atom_site_type_symbol
 _atom_site_label
 _atom_site_symmetry_multiplicity
 _atom_site_fract_x
 _atom_site_fract_y
 _atom_site_fract_z
 _atom_site_occupancy
  Ag  Ag0  1  0.83727917  0.50027780  0.33003536  1
  Ag  Ag1  1  0.33640447  0.83508302  0.84150197  1
  Ag  Ag2  1  0.17254370  0.50158968  -0.00152155  1
  Ag  Ag3  1  0.49264332  0.00026732  0.15920671  1
  Ag  Ag4  1  0.33562479  -0.00785526  -0.00048590  1
  Ag  Ag5  1  0.16897384  0.34579749  0.83840294  1
  Ag  Ag6  1  0.33592702  0.50055988  0.50198612  1
  Ag  Ag7  1  0.50030473  0.50041829  0.67275435  1
  Ag  Ag8  1  -0.00355115  0.16243328  0.16480615  1
  Ag  Ag9  1  0.66069970  0.50048268  0.50582849  1
  Ag  Ag10  1  0.83543071  0.49764488  0.00130586  1
  Ag  Ag11  1  0.50030157  0.17253309  0.67470471  1
  Ag  Ag12  1  0.16913674  0.50429339  0.33190561  1
  Ag  Ag13  1  0.50064175  0.66242800  0.50572430  1
  Ag  Ag14  1  0.66372553  0.16578892  0.16769306  1
  Ag  Ag15  1  0.49891063  0.66729992  0.15477244  1
  Ag  Ag16  1  0.33247317  0.33778952  0.31802035  1
  Ag  Ag17  1  0.66419789  0.34336932  0.67210989  1
  Ag  Ag18  1  0.00932492  0.50258116  0.83816081  1
  Ag  Ag19  1  0.49950169  0.66826201  0.83863167  1
  Ag  Ag20  1  0.83246775  0.00577973  0.16679736  1
  Ag  Ag21  1  0.65896018  0.83893706  0.16255073  1
  Ag  Ag22  1  0.00563674  0.34118475  0.00223940  1
  Ag  Ag23  1  0.16426156  0.83004287  0.32321094  1
  Ag  Ag24  1  0.83109957  0.17237100  0.32640771  1
  Ag  Ag25  1  0.83486251  0.66416624  0.50160217  1
  Ag  Ag26  1  0.49180646  0.49995970  -0.00124930  1
  Ag  Ag27  1  0.84033502  0.83070322  0.32852919  1
  Ag  Ag28  1  0.33330279  0.83916040  0.16001917  1
  Ag  Ag29  1  0.49228810  -0.00751967  0.84169039  1
  Ag  Ag30  1  0.33135307  0.50277313  0.84005758  1
  Ag  Ag31  1  0.16955234  -0.00849427  0.49683873  1
  Ag  Ag32  1  0.00022434  0.65918424  -0.00316551  1
  Ag  Ag33  1  0.17612381  -0.00219913  0.83917865  1
  Ag  Ag34  1  0.33415313  0.00095583  0.68305307  1
  Ag  Ag35  1  0.82721040  0.33149887  0.16449590  1
  Ag  Ag36  1  0.34271862  0.16835784  0.16334634  1
  Ag  Ag37  1  0.00676168  0.83606625  0.16780823  1
  Ag  Ag38  1  -0.00173407  0.66266598  0.66833283  1
  Ag  Ag39  1  0.17419313  -0.00638795  0.16292228  1
  Ag  Ag40  1  0.65591777  0.33647626  0.00126199  1
  Ag  Ag41  1  0.16419901  0.66699578  0.50127584  1
  Ag  Ag42  1  0.66439971  0.17247202  0.49504747  1
  Ag  Ag43  1  0.49386454  0.83283911  0.00108672  1
  Ag  Ag44  1  0.17244393  0.50056462  0.67592734  1
  Ag  Ag45  1  0.33618732  0.34200147  0.00169530  1
  Ag  Ag46  1  0.00566831  0.82802225  0.48997951  1
  Ag  Ag47  1  0.33608579  0.49656318  0.15888057  1
  Ag  Ag48  1  0.65373521  0.83150085  0.84451042  1
  Ag  Ag49  1  0.17592141  0.83072398  0.00495482  1
  Ag  Ag50  1  0.66441133  0.66136085  0.66410776  1
  Ag  Ag51  1  0.49736541  0.33142889  0.16107507  1
  Ag  Ag52  1  0.49686624  0.16866663  0.00307110  1
  Ag  Ag53  1  0.82264394  0.50284669  0.66688657  1
  Sb  Sb54  1  0.49923102  0.82769167  0.67570304  1
  Sb  Sb55  1  0.16879503  0.82733206  0.66896660  1
  Sb  Sb56  1  0.66238091  0.49920876  0.16757990  1
  Sb  Sb57  1  0.00105840  -0.00299579  0.32858556  1
  Sb  Sb58  1  0.66376897  0.33454330  0.32857849  1
  Sb  Sb59  1  0.66739294  0.66426437  0.33701801  1
  Sb  Sb60  1  0.83582912  -0.00504092  0.49460680  1
  Sb  Sb61  1  0.17139190  0.67028187  0.16626799  1
  Sb  Sb62  1  0.16392741  0.16647694  0.32887559  1
  Sb  Sb63  1  0.33710345  0.17010359  0.49468274  1
  Sb  Sb64  1  0.50315555  0.16797109  0.32540245  1
  Sb  Sb65  1  0.17384389  0.16788616  0.00316080  1
  Sb  Sb66  1  0.66794417  -0.00016751  0.32960508  1
  Sb  Sb67  1  0.66831323  0.82909510  0.49614075  1
  Sb  Sb68  1  0.00881936  -0.00091729  0.00296304  1
  Sb  Sb69  1  0.65668363  0.00273985  0.00395476  1
  Sb  Sb70  1  0.49486773  -0.00393833  0.50213977  1
  Sb  Sb71  1  0.00395824  0.50289488  0.15960910  1
  Sb  Sb72  1  0.83104802  0.34303458  0.49319861  1
  Sb  Sb73  1  0.33129528  0.00264738  0.32412246  1
  Sb  Sb74  1  0.33557602  0.16492357  0.84156081  1
  Sb  Sb75  1  0.82503048  0.17496728  0.65849652  1
  Sb  Sb76  1  0.83440313  0.33776244  0.84169857  1
  Sb  Sb77  1  0.49631378  0.83082796  0.32268267  1
  Sb  Sb78  1  0.00061713  0.66707882  0.33239113  1
  Sb  Sb79  1  0.66051666  -0.00062423  0.66857716  1
  Sb  Sb80  1  0.66261125  0.16442606  0.83764877  1
  Sb  Sb81  1  0.17105830  0.33392067  0.16106075  1
  Sb  Sb82  1  0.66634253  0.66268310  -0.00275629  1
  Sb  Sb83  1  0.00311879  0.33591163  0.32496922  1
  Sb  Sb84  1  0.33784151  0.33417882  0.67189529  1
  Sb  Sb85  1  0.17283924  0.66534930  0.83272255  1
  Sb  Sb86  1  0.00505382  0.82652237  0.83845145  1
  Sb  Sb87  1  0.33531255  0.66473820  0.66691140  1
  Sb  Sb88  1  -0.00358819  0.15999056  0.49493575  1
  Sb  Sb89  1  0.49612359  0.50021161  0.33105381  1
  Sb  Sb90  1  -0.00452366  0.34281641  0.67383271  1
  Sb  Sb91  1  0.50163786  0.33752568  0.49868473  1
  Sb  Sb92  1  0.49594692  0.33710452  0.84056910  1
  Sb  Sb93  1  0.83208430  -0.00280107  0.84147714  1
  Sb  Sb94  1  0.33168876  0.66149036  0.33249280  1
  Sb  Sb95  1  0.83324978  0.82634100  0.66107462  1
  Sb  Sb96  1  0.82668014  0.17289432  0.00828215  1
  Sb  Sb97  1  0.83303227  0.82827591  0.00760513  1
  Sb  Sb98  1  0.00289014  0.17268269  0.84258528  1
  Sb  Sb99  1  0.17265352  0.16938426  0.66697231  1
  Sb  Sb100  1  0.66072945  0.50405280  0.83017823  1
  Sb  Sb101  1  0.33260876  0.66681866  0.00064952  1
  Sb  Sb102  1  0.82872274  0.66388841  0.82922058  1
  Sb  Sb103  1  0.16825941  0.34091469  0.50320490  1
  Sb  Sb104  1  0.82997358  0.66530522  0.16983655  1
  Sb  Sb105  1  0.32931026  0.82889479  0.49750423  1
  Sb  Sb106  1  0.00727419  -0.00639550  0.66746618  1
  Sb  Sb107  1  0.00146065  0.50681070  0.50513592  1
  Te  Te108  1  0.16184646  0.15966339  0.16826846  1
  Te  Te109  1  0.16610371  0.16030650  0.49822974  1
  Te  Te110  1  0.16683133  0.16016350  0.83226057  1
  Te  Te111  1  0.17155052  0.50194429  0.16620054  1
  Te  Te112  1  0.16835797  0.50323078  0.49645111  1
  Te  Te113  1  0.17075546  0.50402405  0.83607997  1
  Te  Te114  1  0.16826080  0.83200371  0.16514595  1
  Te  Te115  1  0.16493426  0.83096035  0.50198714  1
  Te  Te116  1  0.17141025  0.83528709  0.83851538  1
  Te  Te117  1  0.50165541  0.16731915  0.16395899  1
  Te  Te118  1  0.50452086  0.16524889  0.50020104  1
  Te  Te119  1  0.50077212  0.16164032  0.83489614  1
  Te  Te120  1  0.49735878  0.50093750  0.16432826  1
  Te  Te121  1  0.50079561  0.50174833  0.49894351  1
  Te  Te122  1  0.49552283  0.50164800  0.83449355  1
  Te  Te123  1  0.49888682  0.83346917  0.16247122  1
  Te  Te124  1  0.49976961  0.82704257  0.49712112  1
  Te  Te125  1  0.49672818  0.83262513  0.83700568  1
  Te  Te126  1  0.83070314  0.16671274  0.16798645  1
  Te  Te127  1  0.82837197  0.16480426  0.49103270  1
  Te  Te128  1  0.83309519  0.16586029  0.83082003  1
  Te  Te129  1  0.83301779  0.49782506  0.16631784  1
  Te  Te130  1  0.83457535  0.50468336  0.50240762  1
  Te  Te131  1  0.83734490  0.49962417  0.83372072  1
  Te  Te132  1  0.83239532  0.83265344  0.17021820  1
  Te  Te133  1  0.83692726  0.82888518  0.49309715  1
  Te  Te134  1  0.83128327  0.83349057  0.83313491  1
  Te  Te135  1  0.17280004  -0.00047948  0.00194421  1
  Te  Te136  1  0.16693063  -0.00404941  0.33246901  1
  Te  Te137  1  0.17185058  0.00127192  0.66959462  1
  Te  Te138  1  0.16940370  0.33436964  -0.00262201  1
  Te  Te139  1  0.17030217  0.33839071  0.33456461  1
  Te  Te140  1  0.16603335  0.33791223  0.67329603  1
  Te  Te141  1  0.16058216  0.66584340  -0.00035583  1
  Te  Te142  1  0.16621362  0.66607699  0.33847553  1
  Te  Te143  1  0.16504578  0.66072373  0.66339141  1
  Te  Te144  1  0.49679710  -0.00323276  0.00135051  1
  Te  Te145  1  0.49964842  -0.00081585  0.32794260  1
  Te  Te146  1  0.49532218  0.00117797  0.66827025  1
  Te  Te147  1  0.49762530  0.33783637  0.00120062  1
  Te  Te148  1  0.49395326  0.33371036  0.32512238  1
  Te  Te149  1  0.50398088  0.33527711  0.66649302  1
  Te  Te150  1  0.50244227  0.66425122  -0.00223178  1
  Te  Te151  1  0.49990149  0.66657502  0.34016323  1
  Te  Te152  1  0.50095493  0.66214036  0.66586447  1
  Te  Te153  1  0.83419818  0.00019309  0.00684908  1
  Te  Te154  1  0.83420416  -0.00524251  0.32766589  1
  Te  Te155  1  0.83429535  0.00198777  0.66710496  1
  Te  Te156  1  0.83350923  0.33780412  0.00533531  1
  Te  Te157  1  0.83412235  0.33575352  0.32649405  1
  Te  Te158  1  0.82704104  0.34117849  0.66587790  1
  Te  Te159  1  0.83704061  0.65991608  -0.00030739  1
  Te  Te160  1  0.83404620  0.66393044  0.33806686  1
  Te  Te161  1  0.83301203  0.66190346  0.66266443  1
  Te  Te162  1  -0.00130706  0.17117989  0.00559542  1
  Te  Te163  1  -0.00723920  0.16792758  0.32665825  1
  Te  Te164  1  -0.00252147  0.16786202  0.66569930  1
  Te  Te165  1  0.00175451  0.49959431  -0.00065215  1
  Te  Te166  1  0.00029909  0.50003041  0.33307471  1
  Te  Te167  1  0.00529768  0.50362808  0.67206793  1
  Te  Te168  1  0.00140024  0.83144829  0.00472978  1
  Te  Te169  1  0.00289265  0.83206262  0.33036118  1
  Te  Te170  1  0.00004600  0.82503793  0.66684956  1
  Te  Te171  1  0.33851144  0.16789885  0.00588828  1
  Te  Te172  1  0.33242571  0.17435389  0.32630482  1
  Te  Te173  1  0.33997113  0.16430480  0.66352212  1
  Te  Te174  1  0.33269079  0.50261531  -0.00009366  1
  Te  Te175  1  0.33021108  0.49703315  0.33631554  1
  Te  Te176  1  0.33459182  0.49842863  0.66420428  1
  Te  Te177  1  0.33345385  0.83114886  0.00090467  1
  Te  Te178  1  0.32633089  0.83402043  0.32869273  1
  Te  Te179  1  0.33348008  0.84032667  0.66800987  1
  Te  Te180  1  0.65992388  0.17306620  0.00490347  1
  Te  Te181  1  0.67131868  0.16758233  0.33145577  1
  Te  Te182  1  0.66047200  0.16747098  0.66547832  1
  Te  Te183  1  0.66964941  0.49591723  -0.00096412  1
  Te  Te184  1  0.67415001  0.49819050  0.34123225  1
  Te  Te185  1  0.66356666  0.50083084  0.66745045  1
  Te  Te186  1  0.66565162  0.83219165  0.00214227  1
  Te  Te187  1  0.67006818  0.83228644  0.32686505  1
  Te  Te188  1  0.66736583  0.82918204  0.66605508  1
  Te  Te189  1  -0.00080948  -0.00158472  0.16464641  1
  Te  Te190  1  0.00702520  -0.00826372  0.50190815  1
  Te  Te191  1  0.00373222  0.00002134  0.83433650  1
  Te  Te192  1  -0.00021773  0.33169587  0.16096485  1
  Te  Te193  1  -0.00013932  0.32839217  0.50018150  1
  Te  Te194  1  0.00533943  0.33929335  0.84081350  1
  Te  Te195  1  -0.00137170  0.67226328  0.16032607  1
  Te  Te196  1  0.00076261  0.66993548  0.50169340  1
  Te  Te197  1  -0.00093606  0.66257258  0.83211776  1
  Te  Te198  1  0.33337938  -0.00013768  0.16288440  1
  Te  Te199  1  0.32887705  0.00095071  0.49752532  1
  Te  Te200  1  0.33398990  0.00156196  0.83845219  1
  Te  Te201  1  0.33241092  0.33474735  0.16160223  1
  Te  Te202  1  0.33367254  0.33869325  0.50052874  1
  Te  Te203  1  0.32905695  0.33587458  0.83867708  1
  Te  Te204  1  0.33971710  0.66420084  0.16795157  1
  Te  Te205  1  0.33332331  0.66166113  0.50076017  1
  Te  Te206  1  0.33975901  0.66737034  0.83066709  1
  Te  Te207  1  0.66745670  0.00089907  0.16601230  1
  Te  Te208  1  0.66582910  0.00393418  0.50046214  1
  Te  Te209  1  0.66398498  -0.00751064  0.83453267  1
  Te  Te210  1  0.66500051  0.33253799  0.16369751  1
  Te  Te211  1  0.66703322  0.33371050  0.50256020  1
  Te  Te212  1  0.66658459  0.33282409  0.83480423  1
  Te  Te213  1  0.66007195  0.67020736  0.16717511  1
  Te  Te214  1  0.66635380  0.66404689  0.50378532  1
  Te  Te215  1  0.66118700  0.67157983  0.82800158  1
