# generated using pymatgen
data_AgSbTe2
_symmetry_space_group_name_H-M   'P 1'
_cell_length_a   18.33063093
_cell_length_b   18.33451084
_cell_length_c   18.33423620
_cell_angle_alpha   90.00313594
_cell_angle_beta   90.00003675
_cell_angle_gamma   90.00177276
_symmetry_Int_Tables_number   1
_chemical_formula_structural   AgSbTe2
_chemical_formula_sum   'Ag54 Sb54 Te108'
_cell_volume   6161.82787115
_cell_formula_units_Z   54
loop_
 _symmetry_equiv_pos_site_id
 _symmetry_equiv_pos_as_xyz
  1  'x, y, z'
loop_
 _atom_site_type_symbol
 _atom_site_label
 _atom_site_symmetry_multiplicity
 _atom_site_fract_x
 _atom_site_fract_y
 _atom_site_fract_z
 _atom_site_occupancy
  Ag  Ag0  1  0.16639406  -0.00099363  0.50530153  1
  Ag  Ag1  1  0.82946695  0.16824197  0.34122495  1
  Ag  Ag2  1  0.66568627  -0.00513821  0.66856574  1
  Ag  Ag3  1  0.51088167  0.00510207  0.15311380  1
  Ag  Ag4  1  0.50786816  0.67765696  0.50201222  1
  Ag  Ag5  1  0.34928897  -0.00084512  -0.00243127  1
  Ag  Ag6  1  0.83187825  -0.00286528  0.50009685  1
  Ag  Ag7  1  0.83806795  0.32098715  0.50454828  1
  Ag  Ag8  1  0.66606868  0.15605034  0.83553357  1
  Ag  Ag9  1  0.66376054  -0.00184911  -0.00872317  1
  Ag  Ag10  1  0.16116353  0.32180722  0.50295660  1
  Ag  Ag11  1  -0.00438388  0.83595439  0.16742459  1
  Ag  Ag12  1  -0.00098967  0.32911604  0.66413795  1
  Ag  Ag13  1  0.83039860  0.83203647  -0.00474605  1
  Ag  Ag14  1  0.83522231  0.15967347  0.65721804  1
  Ag  Ag15  1  0.82832118  0.50823812  -0.00047984  1
  Ag  Ag16  1  -0.00760745  0.83407765  0.83083496  1
  Ag  Ag17  1  0.16428789  0.67603111  0.82412394  1
  Ag  Ag18  1  0.16086360  0.32923153  0.82535003  1
  Ag  Ag19  1  0.83563656  0.33011583  0.82609942  1
  Ag  Ag20  1  0.50897976  0.16755121  0.33069127  1
  Ag  Ag21  1  0.67095581  0.66633465  0.34145995  1
  Ag  Ag22  1  0.83471213  0.67866980  0.17291451  1
  Ag  Ag23  1  0.33579965  0.50224350  0.50410129  1
  Ag  Ag24  1  0.16445480  0.67897266  0.50257985  1
  Ag  Ag25  1  0.16584890  0.32926085  0.17299976  1
  Ag  Ag26  1  0.50874277  0.84376255  -0.00580029  1
  Ag  Ag27  1  0.33485996  0.49956304  0.82941465  1
  Ag  Ag28  1  0.33571063  0.83628362  0.50044005  1
  Ag  Ag29  1  0.66633917  0.16299108  0.16747230  1
  Ag  Ag30  1  0.50649933  -0.00246716  0.84175331  1
  Ag  Ag31  1  0.67109099  0.83741988  0.81904352  1
  Ag  Ag32  1  0.82894485  -0.00141853  0.16962936  1
  Ag  Ag33  1  -0.00834666  0.67095585  0.33697046  1
  Ag  Ag34  1  0.16155866  0.83246453  0.34383138  1
  Ag  Ag35  1  -0.00298075  0.16008616  0.49884651  1
  Ag  Ag36  1  0.17032351  -0.00084396  0.82531421  1
  Ag  Ag37  1  0.51159624  0.83439336  0.66178476  1
  Ag  Ag38  1  -0.00438882  0.67119790  0.00342520  1
  Ag  Ag39  1  0.66516858  0.32875652  0.33497755  1
  Ag  Ag40  1  -0.01058227  0.16112416  0.17341287  1
  Ag  Ag41  1  0.50229379  0.15460115  0.00995430  1
  Ag  Ag42  1  0.32866287  0.16013638  0.50048041  1
  Ag  Ag43  1  0.50025538  0.50553550  0.65969481  1
  Ag  Ag44  1  0.50206424  0.49683981  0.33933372  1
  Ag  Ag45  1  0.66601366  0.68115206  0.66104071  1
  Ag  Ag46  1  0.82881855  0.67719395  0.49655888  1
  Ag  Ag47  1  0.50181853  0.32202810  0.16838815  1
  Ag  Ag48  1  0.15776902  0.16638715  0.66164517  1
  Ag  Ag49  1  -0.00357052  0.83597545  0.50107367  1
  Ag  Ag50  1  0.66906682  0.83315722  0.50525009  1
  Ag  Ag51  1  0.82611651  0.83770049  0.66040637  1
  Ag  Ag52  1  0.50325662  0.50174712  0.00036696  1
  Ag  Ag53  1  0.50454851  -0.00524683  0.50087564  1
  Sb  Sb54  1  -0.00554007  -0.00513510  -0.00062496  1
  Sb  Sb55  1  0.67318446  0.83962663  0.16918904  1
  Sb  Sb56  1  -0.00425257  0.66724300  0.66320854  1
  Sb  Sb57  1  0.17172686  0.50250860  0.33730097  1
  Sb  Sb58  1  0.33538369  0.00102829  0.33601681  1
  Sb  Sb59  1  0.82826439  0.50134793  0.66801546  1
  Sb  Sb60  1  -0.00192988  -0.00456524  0.33639053  1
  Sb  Sb61  1  0.49785817  0.67102744  0.82861124  1
  Sb  Sb62  1  0.82774025  0.00040215  0.83075337  1
  Sb  Sb63  1  0.50845782  0.66986899  0.17210183  1
  Sb  Sb64  1  0.16413656  0.00360340  0.16825016  1
  Sb  Sb65  1  0.00269570  0.50381851  0.83330369  1
  Sb  Sb66  1  0.67038092  0.67376055  -0.00086570  1
  Sb  Sb67  1  0.33766941  0.16483101  0.17128925  1
  Sb  Sb68  1  -0.00162023  0.50058371  0.16619454  1
  Sb  Sb69  1  0.33799360  0.66720439  0.66320550  1
  Sb  Sb70  1  0.33102621  0.83651478  0.16979186  1
  Sb  Sb71  1  0.83186321  0.32871680  0.16725195  1
  Sb  Sb72  1  0.16304657  0.16363130  0.34033899  1
  Sb  Sb73  1  0.33873134  -0.00087012  0.66686589  1
  Sb  Sb74  1  0.83561988  0.66906507  0.83175708  1
  Sb  Sb75  1  -0.00367229  0.33468737  0.33754202  1
  Sb  Sb76  1  0.16793474  0.50058122  -0.00240806  1
  Sb  Sb77  1  -0.00332799  0.16218525  0.83148526  1
  Sb  Sb78  1  0.33829601  0.33226356  0.33591726  1
  Sb  Sb79  1  0.50506608  0.16276694  0.66355446  1
  Sb  Sb80  1  0.32912425  0.33284146  0.66432456  1
  Sb  Sb81  1  0.50220187  0.33039293  0.83678873  1
  Sb  Sb82  1  0.33175661  0.67060272  -0.00317156  1
  Sb  Sb83  1  0.50279939  0.33114815  0.49604293  1
  Sb  Sb84  1  0.33503614  0.32908289  -0.00116645  1
  Sb  Sb85  1  0.82786825  0.16198905  0.00025219  1
  Sb  Sb86  1  0.16460816  0.83462435  -0.00078336  1
  Sb  Sb87  1  0.66631945  0.49538486  0.16681019  1
  Sb  Sb88  1  0.00300366  0.50132578  0.50040116  1
  Sb  Sb89  1  0.33665648  0.49883888  0.16672768  1
  Sb  Sb90  1  0.17026922  0.16481087  -0.00385649  1
  Sb  Sb91  1  0.67123399  0.32969748  0.66258087  1
  Sb  Sb92  1  -0.00573087  0.00218908  0.66464435  1
  Sb  Sb93  1  0.66139790  0.50747290  0.50024644  1
  Sb  Sb94  1  0.15727192  0.66573756  0.17044392  1
  Sb  Sb95  1  0.66611643  0.32699811  0.00209525  1
  Sb  Sb96  1  0.49963151  0.83572563  0.33791139  1
  Sb  Sb97  1  0.67075540  0.16015132  0.49890908  1
  Sb  Sb98  1  0.33602389  0.16706328  0.82819162  1
  Sb  Sb99  1  0.66387930  0.50215938  0.83384480  1
  Sb  Sb100  1  0.83601166  0.83624262  0.33817011  1
  Sb  Sb101  1  0.66718029  0.00009980  0.33594201  1
  Sb  Sb102  1  0.82820907  0.49984931  0.33228462  1
  Sb  Sb103  1  0.16301690  0.83829395  0.66262455  1
  Sb  Sb104  1  0.17106787  0.49700283  0.66548056  1
  Sb  Sb105  1  0.33608065  0.66747459  0.33843627  1
  Sb  Sb106  1  -0.00204634  0.33491168  -0.00233594  1
  Sb  Sb107  1  0.33520313  0.83311625  0.82839159  1
  Te  Te108  1  0.16642214  0.16935975  0.16835145  1
  Te  Te109  1  0.16232585  0.16366336  0.50119835  1
  Te  Te110  1  0.16651191  0.16677022  0.82838242  1
  Te  Te111  1  0.16787975  0.49153367  0.16707582  1
  Te  Te112  1  0.17391178  0.50084566  0.50028621  1
  Te  Te113  1  0.17084260  0.49491621  0.83271446  1
  Te  Te114  1  0.15915844  0.83381676  0.17076191  1
  Te  Te115  1  0.16234265  0.83650299  0.50307919  1
  Te  Te116  1  0.16682984  0.83474280  0.83099719  1
  Te  Te117  1  0.50029699  0.16469303  0.16831789  1
  Te  Te118  1  0.49987008  0.16395558  0.49747596  1
  Te  Te119  1  0.50408245  0.16223485  0.83272962  1
  Te  Te120  1  0.49966577  0.50076712  0.16584027  1
  Te  Te121  1  0.49614919  0.49746899  0.50022122  1
  Te  Te122  1  0.49718323  0.50007109  0.83541811  1
  Te  Te123  1  0.50003865  0.83964960  0.16526348  1
  Te  Te124  1  0.50073706  0.83352418  0.49846323  1
  Te  Te125  1  0.50026955  0.83652309  0.83421702  1
  Te  Te126  1  0.83145843  0.16423506  0.16530647  1
  Te  Te127  1  0.83393789  0.16410619  0.50069275  1
  Te  Te128  1  0.83025893  0.16895738  0.83324140  1
  Te  Te129  1  0.83342557  0.50057677  0.16049500  1
  Te  Te130  1  0.83379662  0.50154765  0.49980989  1
  Te  Te131  1  0.83297366  0.49626667  0.83686190  1
  Te  Te132  1  0.83692653  0.83620370  0.16852499  1
  Te  Te133  1  0.83502283  0.83561246  0.49946869  1
  Te  Te134  1  0.83303044  0.83414849  0.83463406  1
  Te  Te135  1  0.16659110  0.00015779  -0.00259025  1
  Te  Te136  1  0.16738877  -0.00509310  0.33783145  1
  Te  Te137  1  0.16803588  0.00412721  0.66578738  1
  Te  Te138  1  0.16652946  0.33312931  -0.00390771  1
  Te  Te139  1  0.16547261  0.33364248  0.33698309  1
  Te  Te140  1  0.16305501  0.33045678  0.66419118  1
  Te  Te141  1  0.16066919  0.66657965  -0.00137978  1
  Te  Te142  1  0.16444732  0.66991072  0.33806443  1
  Te  Te143  1  0.16443620  0.66651887  0.66506209  1
  Te  Te144  1  0.50497787  -0.00080471  -0.00230101  1
  Te  Te145  1  0.49982024  0.00395599  0.34187637  1
  Te  Te146  1  0.50482859  -0.00180121  0.66046539  1
  Te  Te147  1  0.50019332  0.33988382  0.00560308  1
  Te  Te148  1  0.50429342  0.33106797  0.32941104  1
  Te  Te149  1  0.50182698  0.33647308  0.66758081  1
  Te  Te150  1  0.50038264  0.66321681  0.00147883  1
  Te  Te151  1  0.50520381  0.66402843  0.33839701  1
  Te  Te152  1  0.50388022  0.66812781  0.66286262  1
  Te  Te153  1  0.82778995  -0.00537973  0.00226390  1
  Te  Te154  1  0.83350367  0.00785286  0.33294676  1
  Te  Te155  1  0.82863016  -0.00037817  0.66516765  1
  Te  Te156  1  0.83329068  0.33672028  -0.00298406  1
  Te  Te157  1  0.82850268  0.33157839  0.33596083  1
  Te  Te158  1  0.83626510  0.33471115  0.66512400  1
  Te  Te159  1  0.83524281  0.67038197  -0.00112252  1
  Te  Te160  1  0.83221852  0.66435579  0.33556549  1
  Te  Te161  1  0.82853532  0.66908770  0.66182586  1
  Te  Te162  1  0.00058141  0.16637386  0.00637118  1
  Te  Te163  1  -0.00419919  0.16846416  0.33444569  1
  Te  Te164  1  -0.00340784  0.16838170  0.66463753  1
  Te  Te165  1  -0.00467955  0.50700918  -0.00002868  1
  Te  Te166  1  0.00075131  0.50992203  0.33215945  1
  Te  Te167  1  -0.00136532  0.49110664  0.66771693  1
  Te  Te168  1  -0.00221722  0.83043896  -0.00039284  1
  Te  Te169  1  0.00145016  0.82983505  0.33620688  1
  Te  Te170  1  -0.00583027  0.83263134  0.66580011  1
  Te  Te171  1  0.34048981  0.16150309  -0.00145189  1
  Te  Te172  1  0.33794522  0.16632438  0.34165999  1
  Te  Te173  1  0.32919406  0.16625283  0.66000660  1
  Te  Te174  1  0.33749979  0.50124709  -0.00337146  1
  Te  Te175  1  0.34228396  0.49996378  0.33810252  1
  Te  Te176  1  0.34004457  0.50035048  0.66602241  1
  Te  Te177  1  0.33732263  0.83791192  0.00010462  1
  Te  Te178  1  0.32571038  0.83400868  0.33934598  1
  Te  Te179  1  0.34110447  0.83326259  0.66009285  1
  Te  Te180  1  0.66202455  0.16185292  -0.00023914  1
  Te  Te181  1  0.66850685  0.16683713  0.33284391  1
  Te  Te182  1  0.67282931  0.16336011  0.67012571  1
  Te  Te183  1  0.66708884  0.50141749  -0.00061135  1
  Te  Te184  1  0.66086752  0.50058232  0.33318694  1
  Te  Te185  1  0.65960614  0.50063752  0.66813715  1
  Te  Te186  1  0.66753911  0.83742847  0.00333663  1
  Te  Te187  1  0.66682557  0.82656452  0.33887078  1
  Te  Te188  1  0.66778032  0.83646402  0.66403078  1
  Te  Te189  1  -0.00382232  0.00016572  0.16696632  1
  Te  Te190  1  -0.00159786  0.00006173  0.50061498  1
  Te  Te191  1  0.00755972  -0.00544975  0.83298636  1
  Te  Te192  1  0.00293389  0.32849742  0.16674806  1
  Te  Te193  1  -0.00081487  0.33391262  0.50170832  1
  Te  Te194  1  -0.00017599  0.33185411  0.83079445  1
  Te  Te195  1  -0.00568495  0.66956396  0.16603351  1
  Te  Te196  1  0.00091116  0.66843542  0.49912920  1
  Te  Te197  1  0.00432808  0.67133132  0.83339905  1
  Te  Te198  1  0.33607737  -0.00033417  0.16010519  1
  Te  Te199  1  0.33059933  -0.00114968  0.50065164  1
  Te  Te200  1  0.33169531  0.00040417  0.83603571  1
  Te  Te201  1  0.33084236  0.33263538  0.16691678  1
  Te  Te202  1  0.32899664  0.33336576  0.49994818  1
  Te  Te203  1  0.32928679  0.33727719  0.83242132  1
  Te  Te204  1  0.33207332  0.66708130  0.16644040  1
  Te  Te205  1  0.32963248  0.66832660  0.49968209  1
  Te  Te206  1  0.32509772  0.66206672  0.83260475  1
  Te  Te207  1  0.66785096  0.00403721  0.16980002  1
  Te  Te208  1  0.66932899  -0.00442488  0.50190892  1
  Te  Te209  1  0.66636350  -0.00252934  0.83208173  1
  Te  Te210  1  0.66283300  0.32661587  0.17073703  1
  Te  Te211  1  0.67197731  0.33314257  0.49552137  1
  Te  Te212  1  0.67155056  0.33109165  0.83280571  1
  Te  Te213  1  0.67509978  0.66676897  0.16969920  1
  Te  Te214  1  0.66714344  0.66877824  0.50131611  1
  Te  Te215  1  0.66645293  0.67407812  0.82867994  1
