# generated using pymatgen
data_AgSbTe2
_symmetry_space_group_name_H-M   'P 1'
_cell_length_a   18.33151392
_cell_length_b   18.33707626
_cell_length_c   18.33422353
_cell_angle_alpha   90.00106810
_cell_angle_beta   89.99569446
_cell_angle_gamma   90.00038121
_symmetry_Int_Tables_number   1
_chemical_formula_structural   AgSbTe2
_chemical_formula_sum   'Ag54 Sb54 Te108'
_cell_volume   6162.98264183
_cell_formula_units_Z   54
loop_
 _symmetry_equiv_pos_site_id
 _symmetry_equiv_pos_as_xyz
  1  'x, y, z'
loop_
 _atom_site_type_symbol
 _atom_site_label
 _atom_site_symmetry_multiplicity
 _atom_site_fract_x
 _atom_site_fract_y
 _atom_site_fract_z
 _atom_site_occupancy
  Ag  Ag0  1  0.33939832  0.33656996  0.33560605  1
  Ag  Ag1  1  0.49218567  0.83101120  -0.00175268  1
  Ag  Ag2  1  0.83731284  0.82910188  0.33614606  1
  Ag  Ag3  1  0.84177732  0.82849808  0.66330181  1
  Ag  Ag4  1  0.50285887  0.66880550  0.49671129  1
  Ag  Ag5  1  0.00885380  -0.01132626  0.66163388  1
  Ag  Ag6  1  0.49247570  0.67171707  0.16406864  1
  Ag  Ag7  1  0.17248786  0.82901171  0.00561167  1
  Ag  Ag8  1  0.49030893  -0.00344552  0.50111384  1
  Ag  Ag9  1  0.33471991  -0.00412317  0.33486343  1
  Ag  Ag10  1  0.16199125  0.83462809  0.66883196  1
  Ag  Ag11  1  0.32743163  0.83294337  0.16467457  1
  Ag  Ag12  1  0.65852014  0.66490068  0.34033061  1
  Ag  Ag13  1  0.50201118  0.33304987  0.49838242  1
  Ag  Ag14  1  0.00199877  0.50347739  0.82641265  1
  Ag  Ag15  1  0.00237177  0.51352501  0.50948525  1
  Ag  Ag16  1  0.49761303  -0.01113530  0.83371916  1
  Ag  Ag17  1  0.66197247  0.33939518  0.34087715  1
  Ag  Ag18  1  0.00194845  0.51368303  0.16606035  1
  Ag  Ag19  1  0.00977807  0.66568606  0.00856658  1
  Ag  Ag20  1  0.66083938  0.82935267  0.82891711  1
  Ag  Ag21  1  0.16332503  0.15699419  0.66373665  1
  Ag  Ag22  1  0.67244051  0.33861168  0.66184655  1
  Ag  Ag23  1  0.49264700  0.51387477  0.00492754  1
  Ag  Ag24  1  0.33832419  0.66992819  0.32753964  1
  Ag  Ag25  1  0.32997747  0.67206675  0.00722304  1
  Ag  Ag26  1  0.84520869  -0.00296321  0.16800312  1
  Ag  Ag27  1  -0.00070623  0.83009600  0.50362007  1
  Ag  Ag28  1  0.16949447  -0.01110038  0.16910376  1
  Ag  Ag29  1  0.16080119  0.50370140  0.67046316  1
  Ag  Ag30  1  0.48840061  -0.01000760  0.16510716  1
  Ag  Ag31  1  0.83866032  0.33968947  0.82723225  1
  Ag  Ag32  1  0.16008911  0.33872151  0.82868708  1
  Ag  Ag33  1  0.17063741  0.00008596  0.50473321  1
  Ag  Ag34  1  0.67431714  0.66800078  0.66166072  1
  Ag  Ag35  1  0.32748194  -0.00316798  0.65795795  1
  Ag  Ag36  1  0.33569352  0.15925462  0.49959776  1
  Ag  Ag37  1  0.00068983  0.15955172  0.17062768  1
  Ag  Ag38  1  0.65642429  0.17020558  0.50064617  1
  Ag  Ag39  1  0.00268084  0.16286430  0.50212280  1
  Ag  Ag40  1  0.16597325  0.51133040  -0.00216604  1
  Ag  Ag41  1  -0.00038647  0.34060514  0.66586473  1
  Ag  Ag42  1  -0.00021894  0.66840828  0.33504949  1
  Ag  Ag43  1  0.00780670  0.83015120  0.17015620  1
  Ag  Ag44  1  0.83394201  0.66637821  0.82547756  1
  Ag  Ag45  1  -0.00190052  0.66950906  0.66285524  1
  Ag  Ag46  1  0.49670592  0.15165777  0.00142100  1
  Ag  Ag47  1  0.83729065  0.33086663  0.16785936  1
  Ag  Ag48  1  0.16758482  0.67187536  0.16237553  1
  Ag  Ag49  1  0.33546683  -0.01040956  0.00845895  1
  Ag  Ag50  1  0.83791315  0.66978921  0.50444959  1
  Ag  Ag51  1  0.50465834  0.67186143  0.83648003  1
  Ag  Ag52  1  0.49820480  0.83227389  0.67051243  1
  Ag  Ag53  1  0.49890369  0.50708293  0.33221701  1
  Sb  Sb54  1  0.32935087  0.83779650  0.49592376  1
  Sb  Sb55  1  0.83179134  0.33758669  0.50091172  1
  Sb  Sb56  1  0.67102869  0.50623839  0.83117446  1
  Sb  Sb57  1  -0.00118353  0.33886931  0.33700050  1
  Sb  Sb58  1  0.32767502  0.50189050  0.83465921  1
  Sb  Sb59  1  0.00455898  -0.00677178  0.33555329  1
  Sb  Sb60  1  0.33416877  0.16410681  0.82831415  1
  Sb  Sb61  1  0.66778186  0.83187351  0.50349786  1
  Sb  Sb62  1  0.83730173  0.50258756  0.00030037  1
  Sb  Sb63  1  0.17170488  -0.00024788  0.82973949  1
  Sb  Sb64  1  0.16376630  0.83259753  0.33079610  1
  Sb  Sb65  1  0.83166184  0.50613855  0.33355213  1
  Sb  Sb66  1  0.83548592  0.83096089  -0.00053147  1
  Sb  Sb67  1  0.33093703  0.32855964  0.66149683  1
  Sb  Sb68  1  0.16812212  0.32839004  0.50573641  1
  Sb  Sb69  1  0.83068053  -0.00488044  0.83480328  1
  Sb  Sb70  1  0.66861900  0.50143022  0.16811411  1
  Sb  Sb71  1  0.16433818  0.66571158  0.83747250  1
  Sb  Sb72  1  0.66486793  -0.00536235  0.66384715  1
  Sb  Sb73  1  0.32952424  0.15776232  0.17173247  1
  Sb  Sb74  1  0.32953572  0.50897558  0.16740718  1
  Sb  Sb75  1  0.66547872  0.33417872  -0.00170231  1
  Sb  Sb76  1  0.50145419  0.82743184  0.33348151  1
  Sb  Sb77  1  0.32948263  0.49964876  0.49913558  1
  Sb  Sb78  1  0.50141874  0.33623734  0.82791758  1
  Sb  Sb79  1  0.33404203  0.33500625  0.00639022  1
  Sb  Sb80  1  0.49657674  0.15986599  0.66466966  1
  Sb  Sb81  1  0.16805796  0.50281851  0.33291929  1
  Sb  Sb82  1  0.16686747  0.16491811  0.33874106  1
  Sb  Sb83  1  0.83640182  -0.00603051  0.49771188  1
  Sb  Sb84  1  0.00748410  -0.00760155  0.00067033  1
  Sb  Sb85  1  0.66553327  0.83235136  0.16548235  1
  Sb  Sb86  1  0.66471870  0.16421619  0.82631107  1
  Sb  Sb87  1  0.83873167  0.16389932  0.66504131  1
  Sb  Sb88  1  0.84133618  0.50764754  0.66626526  1
  Sb  Sb89  1  0.16505836  0.67307964  0.49836314  1
  Sb  Sb90  1  0.00109269  0.33976623  -0.00338613  1
  Sb  Sb91  1  -0.00280895  0.82593310  0.82945353  1
  Sb  Sb92  1  0.66757906  0.50073333  0.50067728  1
  Sb  Sb93  1  0.83368226  0.16222252  0.33419212  1
  Sb  Sb94  1  0.16239116  0.33485947  0.16357234  1
  Sb  Sb95  1  0.83206370  0.16599608  0.00191540  1
  Sb  Sb96  1  0.33151481  0.67473711  0.66609712  1
  Sb  Sb97  1  0.49877332  0.16786086  0.33336492  1
  Sb  Sb98  1  0.66764548  0.16715825  0.17229683  1
  Sb  Sb99  1  0.49456871  0.50758948  0.66535135  1
  Sb  Sb100  1  0.33805057  0.83268032  0.84017517  1
  Sb  Sb101  1  0.00111765  0.17095889  0.83079872  1
  Sb  Sb102  1  0.66196542  -0.00428376  0.33525551  1
  Sb  Sb103  1  0.50253560  0.33589758  0.17228571  1
  Sb  Sb104  1  0.83736313  0.66904540  0.16871192  1
  Sb  Sb105  1  0.66237893  0.66832819  -0.00117718  1
  Sb  Sb106  1  0.65602156  -0.00107060  0.00087930  1
  Sb  Sb107  1  0.17082174  0.16316713  -0.00299273  1
  Te  Te108  1  0.16103531  0.16592990  0.16511211  1
  Te  Te109  1  0.16424087  0.16187547  0.50390639  1
  Te  Te110  1  0.16674262  0.17268635  0.82742214  1
  Te  Te111  1  0.16108247  0.50208121  0.16228307  1
  Te  Te112  1  0.16103882  0.49925577  0.50288986  1
  Te  Te113  1  0.16203354  0.49961425  0.83535381  1
  Te  Te114  1  0.16642564  0.83188465  0.16648455  1
  Te  Te115  1  0.16116326  0.83958237  0.50481329  1
  Te  Te116  1  0.16500966  0.83345078  0.83058512  1
  Te  Te117  1  0.49956901  0.16477776  0.16228271  1
  Te  Te118  1  0.49741639  0.16552296  0.50004868  1
  Te  Te119  1  0.50139506  0.16639465  0.83900760  1
  Te  Te120  1  0.49990684  0.50389361  0.16743897  1
  Te  Te121  1  0.49836032  0.50226232  0.49732085  1
  Te  Te122  1  0.49988309  0.50468055  0.83548583  1
  Te  Te123  1  0.50078363  0.83206187  0.16656670  1
  Te  Te124  1  0.50027813  0.83392709  0.50218268  1
  Te  Te125  1  0.49982258  0.83226698  0.83286717  1
  Te  Te126  1  0.83771014  0.16460693  0.16696460  1
  Te  Te127  1  0.84072983  0.16543709  0.49948267  1
  Te  Te128  1  0.83215380  0.17238918  0.83454131  1
  Te  Te129  1  0.83958853  0.49589747  0.16606045  1
  Te  Te130  1  0.84311429  0.50749068  0.49934755  1
  Te  Te131  1  0.83907167  0.50048767  0.83387440  1
  Te  Te132  1  0.83486981  0.83659069  0.16678946  1
  Te  Te133  1  0.83507428  0.82943801  0.50153495  1
  Te  Te134  1  0.82684000  0.82992960  0.82999956  1
  Te  Te135  1  0.17403645  -0.00379716  0.00052580  1
  Te  Te136  1  0.17216436  -0.00034250  0.33187488  1
  Te  Te137  1  0.16691323  -0.00247638  0.66766572  1
  Te  Te138  1  0.16817195  0.33430766  -0.00683956  1
  Te  Te139  1  0.17351111  0.33389878  0.33319181  1
  Te  Te140  1  0.16484027  0.33770242  0.66947572  1
  Te  Te141  1  0.16798739  0.66835661  0.00026057  1
  Te  Te142  1  0.16759532  0.66575619  0.32724600  1
  Te  Te143  1  0.16375230  0.66911832  0.66726342  1
  Te  Te144  1  0.49510243  -0.00578011  0.00225399  1
  Te  Te145  1  0.49683751  -0.00099757  0.33293181  1
  Te  Te146  1  0.49904550  -0.00404447  0.66418912  1
  Te  Te147  1  0.49951679  0.33827862  -0.00047405  1
  Te  Te148  1  0.50151058  0.33475260  0.33695571  1
  Te  Te149  1  0.50072698  0.33399170  0.66110683  1
  Te  Te150  1  0.50061843  0.67033719  0.00224416  1
  Te  Te151  1  0.50002984  0.66692703  0.33473605  1
  Te  Te152  1  0.49825715  0.67028706  0.66433456  1
  Te  Te153  1  0.83472074  -0.00022817  0.00580935  1
  Te  Te154  1  0.83296673  -0.00698842  0.32848656  1
  Te  Te155  1  0.83649365  -0.00798008  0.66752339  1
  Te  Te156  1  0.83255825  0.33388507  0.00224302  1
  Te  Te157  1  0.82903259  0.33392161  0.33166441  1
  Te  Te158  1  0.83383900  0.33160068  0.66747482  1
  Te  Te159  1  0.83514362  0.66632273  -0.00550618  1
  Te  Te160  1  0.83800816  0.66956198  0.33528216  1
  Te  Te161  1  0.83360067  0.66887478  0.66560713  1
  Te  Te162  1  0.00118739  0.16518928  0.00546986  1
  Te  Te163  1  0.00015531  0.16849248  0.33285116  1
  Te  Te164  1  0.00351531  0.16909847  0.66523516  1
  Te  Te165  1  0.00343321  0.50504807  0.00306673  1
  Te  Te166  1  0.00031207  0.50524735  0.32925820  1
  Te  Te167  1  0.00256603  0.50018152  0.66646557  1
  Te  Te168  1  0.00368747  0.82695977  0.00199825  1
  Te  Te169  1  -0.00258011  0.82954310  0.33368904  1
  Te  Te170  1  0.00058954  0.83105819  0.66701952  1
  Te  Te171  1  0.33766559  0.16577952  0.00057226  1
  Te  Te172  1  0.33284431  0.16133745  0.33911974  1
  Te  Te173  1  0.32854913  0.16088761  0.66028465  1
  Te  Te174  1  0.33190600  0.50296718  0.00108150  1
  Te  Te175  1  0.33768559  0.50214653  0.33342667  1
  Te  Te176  1  0.32306316  0.50020404  0.66635603  1
  Te  Te177  1  0.33256321  0.83184629  0.00357526  1
  Te  Te178  1  0.33378129  0.83181694  0.32700847  1
  Te  Te179  1  0.33330741  0.83839469  0.66443846  1
  Te  Te180  1  0.65874309  0.16743824  0.00007395  1
  Te  Te181  1  0.66641416  0.17197286  0.34046733  1
  Te  Te182  1  0.66724970  0.17029156  0.65997213  1
  Te  Te183  1  0.65637362  0.49980746  -0.00024570  1
  Te  Te184  1  0.66154840  0.50199353  0.33432124  1
  Te  Te185  1  0.66364625  0.50115162  0.66621811  1
  Te  Te186  1  0.66424938  0.83357992  -0.00657691  1
  Te  Te187  1  0.67481148  0.82700876  0.33383176  1
  Te  Te188  1  0.66122749  0.82868363  0.66804150  1
  Te  Te189  1  0.00489912  -0.00316340  0.16730931  1
  Te  Te190  1  0.00122563  -0.00023300  0.50176992  1
  Te  Te191  1  -0.00190421  0.00116630  0.82793064  1
  Te  Te192  1  -0.00291735  0.32953161  0.16769460  1
  Te  Te193  1  -0.00052633  0.32728283  0.50377110  1
  Te  Te194  1  -0.00147281  0.33723546  0.83031500  1
  Te  Te195  1  -0.00176913  0.67032838  0.16663957  1
  Te  Te196  1  0.00343898  0.66969280  0.49999569  1
  Te  Te197  1  -0.00205258  0.66335453  0.82729441  1
  Te  Te198  1  0.33102641  -0.00318697  0.16786743  1
  Te  Te199  1  0.33226153  -0.00068122  0.49819467  1
  Te  Te200  1  0.33924304  0.00072803  0.83124537  1
  Te  Te201  1  0.33259932  0.33044218  0.17533513  1
  Te  Te202  1  0.33773913  0.32983160  0.49488052  1
  Te  Te203  1  0.33030328  0.33273390  0.83330251  1
  Te  Te204  1  0.33254977  0.66970826  0.16659814  1
  Te  Te205  1  0.33657381  0.66793282  0.49566685  1
  Te  Te206  1  0.34252826  0.66580801  0.83619311  1
  Te  Te207  1  0.66574962  0.00144684  0.16852321  1
  Te  Te208  1  0.66267613  0.00722149  0.49878452  1
  Te  Te209  1  0.66087649  -0.00416938  0.83251449  1
  Te  Te210  1  0.67336278  0.33285777  0.17112686  1
  Te  Te211  1  0.66562983  0.33420833  0.50112719  1
  Te  Te212  1  0.67162226  0.33357920  0.82693684  1
  Te  Te213  1  0.66540340  0.66632518  0.17223048  1
  Te  Te214  1  0.66483611  0.66663340  0.50123987  1
  Te  Te215  1  0.66677758  0.66902242  0.83053909  1
