# generated using pymatgen
data_AgSbTe2
_symmetry_space_group_name_H-M   'P 1'
_cell_length_a   18.34277100
_cell_length_b   18.32718937
_cell_length_c   18.33158489
_cell_angle_alpha   90.00816775
_cell_angle_beta   90.00173951
_cell_angle_gamma   90.00091797
_symmetry_Int_Tables_number   1
_chemical_formula_structural   AgSbTe2
_chemical_formula_sum   'Ag54 Sb54 Te108'
_cell_volume   6162.55518274
_cell_formula_units_Z   54
loop_
 _symmetry_equiv_pos_site_id
 _symmetry_equiv_pos_as_xyz
  1  'x, y, z'
loop_
 _atom_site_type_symbol
 _atom_site_label
 _atom_site_symmetry_multiplicity
 _atom_site_fract_x
 _atom_site_fract_y
 _atom_site_fract_z
 _atom_site_occupancy
  Ag  Ag0  1  0.49919429  0.82995815  0.67102390  1
  Ag  Ag1  1  0.16565073  0.65600525  0.83069665  1
  Ag  Ag2  1  0.83528644  0.17236578  -0.00021212  1
  Ag  Ag3  1  -0.00091090  0.33066128  0.00038438  1
  Ag  Ag4  1  0.49513671  0.34087634  0.51061975  1
  Ag  Ag5  1  0.66494238  0.65877969  0.00605385  1
  Ag  Ag6  1  0.51069521  0.50000141  -0.00859933  1
  Ag  Ag7  1  0.83261288  0.00331390  0.83450785  1
  Ag  Ag8  1  0.16749844  0.34293207  0.50278124  1
  Ag  Ag9  1  0.32392880  0.49772017  0.50908827  1
  Ag  Ag10  1  0.66886769  0.00012529  -0.00393731  1
  Ag  Ag11  1  0.66420674  0.81964896  0.16384588  1
  Ag  Ag12  1  0.66105633  0.33343982  0.66644024  1
  Ag  Ag13  1  0.49346140  0.49425740  0.67166198  1
  Ag  Ag14  1  0.16629835  0.16796108  0.67287928  1
  Ag  Ag15  1  0.83695315  0.83059606  0.33673761  1
  Ag  Ag16  1  0.83508768  0.33585369  0.50513533  1
  Ag  Ag17  1  0.16678242  0.66519817  0.16788838  1
  Ag  Ag18  1  0.33080589  0.49843288  0.82718563  1
  Ag  Ag19  1  0.50578806  0.34297490  0.82958986  1
  Ag  Ag20  1  0.17288097  0.49941599  0.66333153  1
  Ag  Ag21  1  0.00748433  -0.00280293  0.67463921  1
  Ag  Ag22  1  0.66618893  0.00173086  0.67796890  1
  Ag  Ag23  1  0.82881759  0.33560583  0.83327440  1
  Ag  Ag24  1  0.67005474  0.16966199  0.16080571  1
  Ag  Ag25  1  0.66631992  0.66016753  0.31990389  1
  Ag  Ag26  1  0.16389247  0.49920308  -0.00559348  1
  Ag  Ag27  1  0.66140642  0.49737197  0.83869727  1
  Ag  Ag28  1  0.32556497  0.00098730  0.66972039  1
  Ag  Ag29  1  0.82225889  0.66708562  0.16579563  1
  Ag  Ag30  1  0.33921013  0.83081420  0.16755225  1
  Ag  Ag31  1  0.16662283  0.50323468  0.34813104  1
  Ag  Ag32  1  0.00356593  0.82756459  0.50304831  1
  Ag  Ag33  1  0.33705760  0.34047574  0.66384947  1
  Ag  Ag34  1  -0.00616626  0.00753834  -0.00803497  1
  Ag  Ag35  1  0.00838719  0.49786648  0.83281306  1
  Ag  Ag36  1  -0.00057143  0.33561316  0.33595066  1
  Ag  Ag37  1  0.50517631  0.00161388  0.83410135  1
  Ag  Ag38  1  0.50461675  0.82854090  -0.00401068  1
  Ag  Ag39  1  0.51061238  0.66686629  0.16591201  1
  Ag  Ag40  1  0.16421752  -0.00204145  0.82987037  1
  Ag  Ag41  1  0.83254951  0.83778283  0.66477340  1
  Ag  Ag42  1  0.32954066  0.33694819  0.34297319  1
  Ag  Ag43  1  0.00981038  0.49930373  0.50687148  1
  Ag  Ag44  1  0.66549617  0.50707138  0.15767705  1
  Ag  Ag45  1  0.16714535  0.83299213  0.66446447  1
  Ag  Ag46  1  0.49799950  0.65907014  0.49987849  1
  Ag  Ag47  1  0.16942207  0.65578053  0.50170663  1
  Ag  Ag48  1  0.16201666  0.82344934  0.34181345  1
  Ag  Ag49  1  0.15664712  0.17226244  -0.00487664  1
  Ag  Ag50  1  0.51083692  0.17089254  -0.00244736  1
  Ag  Ag51  1  0.82814248  0.49543349  -0.00379250  1
  Ag  Ag52  1  0.66844767  0.34175750  0.33724228  1
  Ag  Ag53  1  -0.00281949  0.16839824  0.15842456  1
  Sb  Sb54  1  0.33088474  0.33635265  -0.00298692  1
  Sb  Sb55  1  0.16477912  0.17266137  0.33296734  1
  Sb  Sb56  1  0.66556130  0.83239164  0.83684689  1
  Sb  Sb57  1  0.67085724  0.33459230  -0.00267833  1
  Sb  Sb58  1  0.33203271  0.66283444  0.66717458  1
  Sb  Sb59  1  0.00081478  0.83427232  0.82897582  1
  Sb  Sb60  1  0.00058243  0.66157952  0.33330389  1
  Sb  Sb61  1  0.00020241  0.00165676  0.33381367  1
  Sb  Sb62  1  0.00092061  0.17101438  0.49845662  1
  Sb  Sb63  1  0.16612439  0.33660564  0.82917083  1
  Sb  Sb64  1  0.66640220  0.17055180  0.49782536  1
  Sb  Sb65  1  0.16621242  -0.00362128  0.15896836  1
  Sb  Sb66  1  0.33857896  0.66556718  0.00184814  1
  Sb  Sb67  1  0.82806067  0.83293622  -0.00058278  1
  Sb  Sb68  1  0.16546218  -0.00200851  0.50925043  1
  Sb  Sb69  1  0.83712772  0.16509295  0.67332234  1
  Sb  Sb70  1  0.50256221  -0.00698818  0.15601775  1
  Sb  Sb71  1  -0.00209723  0.83555008  0.16931186  1
  Sb  Sb72  1  -0.00264104  0.66418026  0.00063469  1
  Sb  Sb73  1  0.83438282  0.00123716  0.50864939  1
  Sb  Sb74  1  0.33098781  0.00085573  0.33994462  1
  Sb  Sb75  1  0.83381118  0.66381926  0.49681504  1
  Sb  Sb76  1  0.66608098  0.49805037  0.50125350  1
  Sb  Sb77  1  0.00141806  0.33163310  0.66816073  1
  Sb  Sb78  1  0.33574846  0.50422222  0.16560387  1
  Sb  Sb79  1  0.66717376  -0.00251233  0.32820986  1
  Sb  Sb80  1  0.16950268  0.83060305  -0.00264737  1
  Sb  Sb81  1  0.49726921  0.17097067  0.67265729  1
  Sb  Sb82  1  0.00076773  0.16991690  0.83861468  1
  Sb  Sb83  1  0.32843876  0.82601132  0.50034347  1
  Sb  Sb84  1  0.33293771  0.66160540  0.33324787  1
  Sb  Sb85  1  0.33251460  0.17779431  0.50453284  1
  Sb  Sb86  1  0.83216145  -0.00344072  0.15880812  1
  Sb  Sb87  1  0.83510356  0.50153964  0.32999653  1
  Sb  Sb88  1  0.33328126  0.82938624  0.83304796  1
  Sb  Sb89  1  0.50366533  0.33961579  0.16212307  1
  Sb  Sb90  1  0.83169192  0.33750884  0.16364467  1
  Sb  Sb91  1  0.50010323  -0.00211536  0.51338076  1
  Sb  Sb92  1  0.49777047  0.49987228  0.33609637  1
  Sb  Sb93  1  0.16593177  0.33890828  0.16922722  1
  Sb  Sb94  1  0.00316647  0.66972658  0.66574707  1
  Sb  Sb95  1  0.33302416  0.17221386  0.83218215  1
  Sb  Sb96  1  0.33320431  0.16358441  0.16341533  1
  Sb  Sb97  1  0.33492488  -0.00033532  -0.00807449  1
  Sb  Sb98  1  0.83387551  0.50111294  0.67130410  1
  Sb  Sb99  1  -0.00174533  0.49712381  0.16336955  1
  Sb  Sb100  1  0.49989621  0.83021325  0.33265175  1
  Sb  Sb101  1  0.66881173  0.83112304  0.49866417  1
  Sb  Sb102  1  0.83548686  0.66400978  0.83641524  1
  Sb  Sb103  1  0.50190627  0.17204471  0.32591428  1
  Sb  Sb104  1  0.66594878  0.16980259  0.83731886  1
  Sb  Sb105  1  0.83357535  0.16610216  0.32673002  1
  Sb  Sb106  1  0.66389080  0.66527124  0.66924208  1
  Sb  Sb107  1  0.49730596  0.66254206  0.83460942  1
  Te  Te108  1  0.16456124  0.16545228  0.16176824  1
  Te  Te109  1  0.16582169  0.17002854  0.50300245  1
  Te  Te110  1  0.16699041  0.16443057  0.83320792  1
  Te  Te111  1  0.16739416  0.50453216  0.15653093  1
  Te  Te112  1  0.16586714  0.49936991  0.50343335  1
  Te  Te113  1  0.16747531  0.49708165  0.83266532  1
  Te  Te114  1  0.16606567  0.82926091  0.16713925  1
  Te  Te115  1  0.16433281  0.83161763  0.50193852  1
  Te  Te116  1  0.16777577  0.83455996  0.82790185  1
  Te  Te117  1  0.50199339  0.16598231  0.15760272  1
  Te  Te118  1  0.50009664  0.17356553  0.49824977  1
  Te  Te119  1  0.49889912  0.16290312  0.83991424  1
  Te  Te120  1  0.50306374  0.50595128  0.16204606  1
  Te  Te121  1  0.50087206  0.49914856  0.50223558  1
  Te  Te122  1  0.49990126  0.50152496  0.83216543  1
  Te  Te123  1  0.50242189  0.82801457  0.16575371  1
  Te  Te124  1  0.49840156  0.82951711  0.50483940  1
  Te  Te125  1  0.49885205  0.83371030  0.83229612  1
  Te  Te126  1  0.83356015  0.16588968  0.16042640  1
  Te  Te127  1  0.83437456  0.17540379  0.49877654  1
  Te  Te128  1  0.83293784  0.16830251  0.83931732  1
  Te  Te129  1  0.82978728  0.50478301  0.16200804  1
  Te  Te130  1  0.83794985  0.49560322  0.50083668  1
  Te  Te131  1  0.83256561  0.49877704  0.83600104  1
  Te  Te132  1  0.82993559  0.82923786  0.16942991  1
  Te  Te133  1  0.83800640  0.83287801  0.50125720  1
  Te  Te134  1  0.83335903  0.83585551  0.82692626  1
  Te  Te135  1  0.16637013  0.00037148  -0.00713296  1
  Te  Te136  1  0.16666379  -0.00330416  0.33308067  1
  Te  Te137  1  0.16601958  -0.00223839  0.67001266  1
  Te  Te138  1  0.16297578  0.33226562  -0.00031424  1
  Te  Te139  1  0.16414464  0.33696518  0.33658076  1
  Te  Te140  1  0.16740872  0.33493303  0.66458364  1
  Te  Te141  1  0.16544809  0.66457506  -0.00325104  1
  Te  Te142  1  0.16666546  0.66419372  0.33686999  1
  Te  Te143  1  0.16683706  0.66515170  0.66491819  1
  Te  Te144  1  0.50174770  -0.00086741  -0.00640680  1
  Te  Te145  1  0.49897498  0.00142039  0.33718659  1
  Te  Te146  1  0.50525324  0.00283579  0.67362610  1
  Te  Te147  1  0.49803938  0.33608081  -0.00504325  1
  Te  Te148  1  0.50488814  0.33498175  0.33500050  1
  Te  Te149  1  0.49985600  0.33335008  0.66847837  1
  Te  Te150  1  0.50421849  0.66581597  0.00097486  1
  Te  Te151  1  0.50416147  0.66673179  0.33242511  1
  Te  Te152  1  0.49974858  0.66847175  0.66335668  1
  Te  Te153  1  0.83229281  0.00022659  -0.00533685  1
  Te  Te154  1  0.83327142  -0.00735404  0.33580590  1
  Te  Te155  1  0.82889805  -0.00136567  0.67261011  1
  Te  Te156  1  0.83706438  0.33467673  -0.00222339  1
  Te  Te157  1  0.83303779  0.33316756  0.33505291  1
  Te  Te158  1  0.83038808  0.33259688  0.66942017  1
  Te  Te159  1  0.82942148  0.66429964  0.00387103  1
  Te  Te160  1  0.82981829  0.66969777  0.32973714  1
  Te  Te161  1  0.83225010  0.67588917  0.66616011  1
  Te  Te162  1  -0.00124927  0.16709008  0.00026172  1
  Te  Te163  1  -0.00037202  0.17286206  0.32670456  1
  Te  Te164  1  0.00518522  0.15938382  0.66560910  1
  Te  Te165  1  0.00145030  0.49845859  -0.00247757  1
  Te  Te166  1  0.00410182  0.49469486  0.33354988  1
  Te  Te167  1  0.00177172  0.49960177  0.66808307  1
  Te  Te168  1  -0.00100060  0.84107138  0.00014432  1
  Te  Te169  1  0.00143724  0.83384364  0.33715878  1
  Te  Te170  1  0.00358956  0.83677540  0.66377842  1
  Te  Te171  1  0.32937608  0.16748397  0.00014755  1
  Te  Te172  1  0.33288885  0.17456772  0.33226152  1
  Te  Te173  1  0.32686601  0.16464782  0.66807122  1
  Te  Te174  1  0.32752570  0.49928160  -0.00265365  1
  Te  Te175  1  0.32832453  0.49487350  0.33270721  1
  Te  Te176  1  0.33444358  0.49914485  0.66669553  1
  Te  Te177  1  0.34171154  0.83374091  0.00536166  1
  Te  Te178  1  0.32673953  0.83428220  0.33079850  1
  Te  Te179  1  0.33480232  0.83739111  0.66603115  1
  Te  Te180  1  0.66841175  0.16749416  0.00190214  1
  Te  Te181  1  0.66823591  0.16824298  0.32490169  1
  Te  Te182  1  0.66792664  0.16739532  0.66575981  1
  Te  Te183  1  0.66727021  0.49748186  -0.00068970  1
  Te  Te184  1  0.66697597  0.50053519  0.33150673  1
  Te  Te185  1  0.66539689  0.49661241  0.67049935  1
  Te  Te186  1  0.66376230  0.83765249  0.00343731  1
  Te  Te187  1  0.66929143  0.83187370  0.32849669  1
  Te  Te188  1  0.66289609  0.83510236  0.66651784  1
  Te  Te189  1  -0.00023799  0.00617605  0.16267320  1
  Te  Te190  1  -0.00152139  -0.00373808  0.50287837  1
  Te  Te191  1  -0.00057721  -0.00031442  0.83360016  1
  Te  Te192  1  -0.00092692  0.32980807  0.16459494  1
  Te  Te193  1  0.00089721  0.33554646  0.49997976  1
  Te  Te194  1  -0.00431031  0.33777587  0.83636419  1
  Te  Te195  1  0.00765332  0.66775417  0.16687990  1
  Te  Te196  1  0.00265896  0.66455323  0.49916004  1
  Te  Te197  1  0.00486133  0.66003121  0.83412435  1
  Te  Te198  1  0.33444550  -0.00736634  0.17004103  1
  Te  Te199  1  0.33408734  0.00153037  0.50878316  1
  Te  Te200  1  0.33098795  -0.00157690  0.82783406  1
  Te  Te201  1  0.33520683  0.33271496  0.17404222  1
  Te  Te202  1  0.33377243  0.33838231  0.50256547  1
  Te  Te203  1  0.33862047  0.33836851  0.82928650  1
  Te  Te204  1  0.32580906  0.67157446  0.16780007  1
  Te  Te205  1  0.33486989  0.65895269  0.49825660  1
  Te  Te206  1  0.32524629  0.65992004  0.83511589  1
  Te  Te207  1  0.66659620  0.00765971  0.16070517  1
  Te  Te208  1  0.66670436  0.00108856  0.50368993  1
  Te  Te209  1  0.66726358  -0.00186795  0.83567175  1
  Te  Te210  1  0.66669956  0.33165608  0.17331594  1
  Te  Te211  1  0.66813914  0.33309572  0.50014048  1
  Te  Te212  1  0.66690482  0.33596626  0.83093631  1
  Te  Te213  1  0.66613153  0.66366042  0.16394245  1
  Te  Te214  1  0.66357277  0.66601779  0.49707464  1
  Te  Te215  1  0.66694168  0.66009663  0.83921864  1
