# generated using pymatgen
data_AgSbTe2
_symmetry_space_group_name_H-M   'P 1'
_cell_length_a   18.32322459
_cell_length_b   18.32561567
_cell_length_c   18.32888874
_cell_angle_alpha   90.00147100
_cell_angle_beta   89.99884081
_cell_angle_gamma   90.00273994
_symmetry_Int_Tables_number   1
_chemical_formula_structural   AgSbTe2
_chemical_formula_sum   'Ag54 Sb54 Te108'
_cell_volume   6154.55437934
_cell_formula_units_Z   54
loop_
 _symmetry_equiv_pos_site_id
 _symmetry_equiv_pos_as_xyz
  1  'x, y, z'
loop_
 _atom_site_type_symbol
 _atom_site_label
 _atom_site_symmetry_multiplicity
 _atom_site_fract_x
 _atom_site_fract_y
 _atom_site_fract_z
 _atom_site_occupancy
  Ag  Ag0  1  0.83699259  0.32955506  0.50029628  1
  Ag  Ag1  1  0.49393845  0.50230671  0.32590624  1
  Ag  Ag2  1  0.17386823  0.49103854  0.32781594  1
  Ag  Ag3  1  0.00355101  0.66679679  0.67314128  1
  Ag  Ag4  1  0.32852217  0.16506110  0.49393077  1
  Ag  Ag5  1  0.66950449  0.15926844  0.49922657  1
  Ag  Ag6  1  0.84221731  -0.00185005  0.83310966  1
  Ag  Ag7  1  0.49004102  0.33455214  0.83319974  1
  Ag  Ag8  1  0.66691268  0.33062043  0.66440504  1
  Ag  Ag9  1  0.67211174  0.83689176  0.83008607  1
  Ag  Ag10  1  0.32658924  0.17285268  0.83664594  1
  Ag  Ag11  1  0.83428802  0.50149382  0.66202531  1
  Ag  Ag12  1  0.49586929  0.66403159  0.16634916  1
  Ag  Ag13  1  0.32670419  0.65489354  -0.00420402  1
  Ag  Ag14  1  0.50273169  0.83241665  0.33067468  1
  Ag  Ag15  1  0.16208433  -0.00186667  0.83202821  1
  Ag  Ag16  1  0.66852083  0.83352436  0.17497169  1
  Ag  Ag17  1  0.67094367  0.84168551  0.49355887  1
  Ag  Ag18  1  0.00763013  0.66801208  -0.00499731  1
  Ag  Ag19  1  0.83092468  0.83515595  0.66326028  1
  Ag  Ag20  1  0.33480955  0.84053791  0.49348777  1
  Ag  Ag21  1  0.32962501  0.00438530  0.33518939  1
  Ag  Ag22  1  0.48445732  0.50031286  0.00815568  1
  Ag  Ag23  1  0.16501410  0.17290411  0.00171116  1
  Ag  Ag24  1  0.33297486  0.33620265  0.67351533  1
  Ag  Ag25  1  0.32812073  0.33024290  0.32988230  1
  Ag  Ag26  1  0.67664366  -0.00407905  0.33800654  1
  Ag  Ag27  1  0.65659811  0.50250388  0.16911393  1
  Ag  Ag28  1  0.84611820  0.16430801  -0.00039903  1
  Ag  Ag29  1  0.17169875  0.49117410  0.00326941  1
  Ag  Ag30  1  0.83264878  -0.00027796  0.49683863  1
  Ag  Ag31  1  0.32905814  0.17663647  0.16941860  1
  Ag  Ag32  1  0.01196165  0.32591244  -0.00083556  1
  Ag  Ag33  1  0.00206498  0.83899611  0.83860701  1
  Ag  Ag34  1  0.67284429  -0.00191061  0.65547674  1
  Ag  Ag35  1  -0.00085873  0.49832226  0.49817973  1
  Ag  Ag36  1  0.33349343  0.83190371  0.16928554  1
  Ag  Ag37  1  0.33227046  0.49507900  0.84520967  1
  Ag  Ag38  1  -0.00116175  0.83655550  0.16173747  1
  Ag  Ag39  1  0.00052841  0.00161881  -0.00279087  1
  Ag  Ag40  1  0.32840752  0.34151581  0.00274599  1
  Ag  Ag41  1  0.16568224  0.00540368  0.49725921  1
  Ag  Ag42  1  0.32863090  0.83116487  0.83350320  1
  Ag  Ag43  1  0.00786213  0.15657569  0.84015388  1
  Ag  Ag44  1  0.33488224  0.49783079  0.15927026  1
  Ag  Ag45  1  0.82884233  0.84312735  0.33595935  1
  Ag  Ag46  1  0.83498466  0.49968259  0.33689915  1
  Ag  Ag47  1  0.17028860  0.33292996  0.16672612  1
  Ag  Ag48  1  0.32856314  0.66464730  0.67602231  1
  Ag  Ag49  1  0.16869716  0.32811814  0.49261287  1
  Ag  Ag50  1  0.16894602  0.67222050  0.83621267  1
  Ag  Ag51  1  -0.00277055  -0.00150393  0.33032706  1
  Ag  Ag52  1  0.83703233  -0.00275147  0.17530881  1
  Ag  Ag53  1  0.17074012  0.16984335  0.33083288  1
  Sb  Sb54  1  0.83713441  0.83871019  0.00121052  1
  Sb  Sb55  1  0.49133947  0.16584280  0.33297766  1
  Sb  Sb56  1  0.00650095  0.16115832  0.16095733  1
  Sb  Sb57  1  0.00404439  0.50408344  0.16973996  1
  Sb  Sb58  1  0.83252499  0.32893471  0.82940519  1
  Sb  Sb59  1  0.66322193  0.16399826  0.17185084  1
  Sb  Sb60  1  0.83408378  0.66972573  0.50042574  1
  Sb  Sb61  1  0.83846597  0.49458721  0.00121742  1
  Sb  Sb62  1  0.50274695  -0.00052342  0.49760173  1
  Sb  Sb63  1  0.16454682  0.83294010  0.66901556  1
  Sb  Sb64  1  0.50056276  -0.00695282  0.16943778  1
  Sb  Sb65  1  0.49041659  0.17335970  -0.00030798  1
  Sb  Sb66  1  0.49596018  0.00061280  0.83450991  1
  Sb  Sb67  1  0.67648553  -0.00077538  0.00240284  1
  Sb  Sb68  1  0.83308027  0.16276873  0.66772723  1
  Sb  Sb69  1  0.49060178  0.34096681  0.16461128  1
  Sb  Sb70  1  0.66348226  0.33005947  0.33780310  1
  Sb  Sb71  1  0.66285167  0.33345756  -0.00353437  1
  Sb  Sb72  1  0.32806128  0.49716742  0.49697205  1
  Sb  Sb73  1  0.16758173  0.83685581  0.33304185  1
  Sb  Sb74  1  0.00679368  0.33070025  0.33097104  1
  Sb  Sb75  1  0.66765811  0.66879018  0.66753364  1
  Sb  Sb76  1  0.67284660  0.49874172  0.49449254  1
  Sb  Sb77  1  0.83199301  0.67234512  0.16614101  1
  Sb  Sb78  1  0.00285368  0.16778793  0.50208727  1
  Sb  Sb79  1  0.32538507  0.00205217  0.00232229  1
  Sb  Sb80  1  0.66665955  0.16174428  0.82944567  1
  Sb  Sb81  1  0.00600912  0.50195296  0.83228933  1
  Sb  Sb82  1  0.33296499  0.66634263  0.32945805  1
  Sb  Sb83  1  -0.00037760  0.83308685  0.50101876  1
  Sb  Sb84  1  0.17169774  0.66218081  0.16041938  1
  Sb  Sb85  1  0.49951128  0.16791193  0.66704539  1
  Sb  Sb86  1  0.84138409  0.67434234  0.83232509  1
  Sb  Sb87  1  0.16415318  0.00379633  0.16762207  1
  Sb  Sb88  1  0.16769324  0.16777625  0.66828528  1
  Sb  Sb89  1  0.66182199  0.50299818  0.83585706  1
  Sb  Sb90  1  0.33552663  0.00013385  0.66286617  1
  Sb  Sb91  1  0.50265748  0.83245709  0.66322001  1
  Sb  Sb92  1  0.49630698  0.82744323  0.00545516  1
  Sb  Sb93  1  0.66582960  0.66724877  0.00144581  1
  Sb  Sb94  1  0.16580795  0.83337530  -0.00075013  1
  Sb  Sb95  1  0.49547880  0.33366244  0.50194815  1
  Sb  Sb96  1  0.83914405  0.16339926  0.33161760  1
  Sb  Sb97  1  -0.00458041  -0.00542649  0.66937005  1
  Sb  Sb98  1  0.83863764  0.32988821  0.17027369  1
  Sb  Sb99  1  0.66629763  0.67344915  0.33223781  1
  Sb  Sb100  1  0.16797895  0.66622471  0.50288238  1
  Sb  Sb101  1  0.00210379  0.33692713  0.66904360  1
  Sb  Sb102  1  0.00055172  0.67046371  0.33209217  1
  Sb  Sb103  1  0.50126246  0.49935691  0.66566372  1
  Sb  Sb104  1  0.17159321  0.33073656  0.83729040  1
  Sb  Sb105  1  0.16605760  0.49936304  0.66850784  1
  Sb  Sb106  1  0.48972331  0.66415724  0.83907223  1
  Sb  Sb107  1  0.49681601  0.66819435  0.49517840  1
  Te  Te108  1  0.17100762  0.16993741  0.16693559  1
  Te  Te109  1  0.16808728  0.16565643  0.49911928  1
  Te  Te110  1  0.16751797  0.16476767  0.83423663  1
  Te  Te111  1  0.16958685  0.49606607  0.16661724  1
  Te  Te112  1  0.16137284  0.49830383  0.49775738  1
  Te  Te113  1  0.17229068  0.50296399  0.83622587  1
  Te  Te114  1  0.16805057  0.83268571  0.16761993  1
  Te  Te115  1  0.17156881  0.83902509  0.50068814  1
  Te  Te116  1  0.16623991  0.83615300  0.83334127  1
  Te  Te117  1  0.49103590  0.16645388  0.16609382  1
  Te  Te118  1  0.49738076  0.16728548  0.49965670  1
  Te  Te119  1  0.49375842  0.17184255  0.83418651  1
  Te  Te120  1  0.49763511  0.50117727  0.16754336  1
  Te  Te121  1  0.50276119  0.50111227  0.49099979  1
  Te  Te122  1  0.49580301  0.49675207  0.83442506  1
  Te  Te123  1  0.49915821  0.82811358  0.17078192  1
  Te  Te124  1  0.49566842  0.83295841  0.49324388  1
  Te  Te125  1  0.49766242  0.83317562  0.83455373  1
  Te  Te126  1  0.83216859  0.16125462  0.16214864  1
  Te  Te127  1  0.83317399  0.16540132  0.49984830  1
  Te  Te128  1  0.83360212  0.16112272  0.83713260  1
  Te  Te129  1  0.83207078  0.49908876  0.17066477  1
  Te  Te130  1  0.83570843  0.50068283  0.50008473  1
  Te  Te131  1  0.83154477  0.49985984  0.82954510  1
  Te  Te132  1  0.83247206  0.83731972  0.16900646  1
  Te  Te133  1  0.83267256  0.83658534  0.49783828  1
  Te  Te134  1  0.83457030  0.83796492  0.83316687  1
  Te  Te135  1  0.16012584  0.00660025  -0.00278324  1
  Te  Te136  1  0.16976104  0.00171065  0.33513049  1
  Te  Te137  1  0.16680479  0.00011994  0.66499623  1
  Te  Te138  1  0.16825205  0.33283995  -0.00103628  1
  Te  Te139  1  0.16782763  0.33221397  0.33285971  1
  Te  Te140  1  0.17143211  0.33470032  0.65629385  1
  Te  Te141  1  0.16733161  0.66607808  -0.00386705  1
  Te  Te142  1  0.16508940  0.65594713  0.33404321  1
  Te  Te143  1  0.16741362  0.66641286  0.67173463  1
  Te  Te144  1  0.50126075  0.00199547  0.00084770  1
  Te  Te145  1  0.49190542  -0.00490448  0.33219085  1
  Te  Te146  1  0.51351712  -0.00074828  0.66876643  1
  Te  Te147  1  0.49528356  0.33977533  -0.00526370  1
  Te  Te148  1  0.49402385  0.33793125  0.33345526  1
  Te  Te149  1  0.49789579  0.33489785  0.67074466  1
  Te  Te150  1  0.49633620  0.66009909  0.00520567  1
  Te  Te151  1  0.49995685  0.66662970  0.32737063  1
  Te  Te152  1  0.49204193  0.66545788  0.66744245  1
  Te  Te153  1  0.84062935  0.00394980  -0.00424661  1
  Te  Te154  1  0.83569821  0.00122500  0.33507443  1
  Te  Te155  1  0.83030541  -0.00351832  0.66468555  1
  Te  Te156  1  0.83472076  0.32609045  0.00048917  1
  Te  Te157  1  0.83358565  0.33395334  0.33877015  1
  Te  Te158  1  0.83343156  0.33572564  0.66216581  1
  Te  Te159  1  0.84134040  0.66435237  -0.00071730  1
  Te  Te160  1  0.83413959  0.66088773  0.33322070  1
  Te  Te161  1  0.83611725  0.66697222  0.66703749  1
  Te  Te162  1  0.00365113  0.16589071  -0.00016187  1
  Te  Te163  1  0.00773097  0.16011202  0.33327687  1
  Te  Te164  1  -0.00022875  0.16782118  0.67829793  1
  Te  Te165  1  0.00473441  0.50267962  0.00086086  1
  Te  Te166  1  -0.00337301  0.49994016  0.33640917  1
  Te  Te167  1  -0.00442931  0.50424891  0.66465228  1
  Te  Te168  1  -0.00033398  0.83444154  -0.00039245  1
  Te  Te169  1  -0.00363965  0.83691940  0.33141564  1
  Te  Te170  1  -0.00590979  0.82753934  0.66950587  1
  Te  Te171  1  0.32739777  0.16876591  -0.00090070  1
  Te  Te172  1  0.33074583  0.16675048  0.33305140  1
  Te  Te173  1  0.33442440  0.16984422  0.66788729  1
  Te  Te174  1  0.32983793  0.49870484  0.00016092  1
  Te  Te175  1  0.33258608  0.49930662  0.33321572  1
  Te  Te176  1  0.33456023  0.49857590  0.66547089  1
  Te  Te177  1  0.33287958  0.83399427  -0.00021591  1
  Te  Te178  1  0.33346712  0.83260308  0.33342078  1
  Te  Te179  1  0.33494573  0.83210393  0.66985684  1
  Te  Te180  1  0.66642436  0.16763248  0.00049892  1
  Te  Te181  1  0.66470820  0.16036881  0.33837920  1
  Te  Te182  1  0.66668001  0.16889084  0.66107210  1
  Te  Te183  1  0.66812143  0.49965333  0.00677268  1
  Te  Te184  1  0.66843448  0.49864055  0.32844640  1
  Te  Te185  1  0.67163950  0.49713739  0.66591852  1
  Te  Te186  1  0.66594996  0.83232045  0.00017656  1
  Te  Te187  1  0.66808067  0.83649651  0.33280765  1
  Te  Te188  1  0.66972903  0.83403572  0.66832296  1
  Te  Te189  1  -0.00195580  -0.00371777  0.16732309  1
  Te  Te190  1  -0.00007567  0.00000781  0.49866291  1
  Te  Te191  1  0.00112351  -0.00150251  0.83140878  1
  Te  Te192  1  0.00572668  0.33451863  0.16011366  1
  Te  Te193  1  -0.00049974  0.33520258  0.50034229  1
  Te  Te194  1  -0.00040059  0.33279213  0.83828840  1
  Te  Te195  1  0.00074117  0.67517041  0.16223601  1
  Te  Te196  1  0.00161091  0.66187217  0.50460907  1
  Te  Te197  1  0.00624063  0.66885066  0.83401777  1
  Te  Te198  1  0.33229176  -0.00716876  0.16987325  1
  Te  Te199  1  0.33225388  0.00145914  0.49934762  1
  Te  Te200  1  0.32846780  -0.00251913  0.83205975  1
  Te  Te201  1  0.33055154  0.33602074  0.16690783  1
  Te  Te202  1  0.33054364  0.33034183  0.49699356  1
  Te  Te203  1  0.33108556  0.33341861  0.83220966  1
  Te  Te204  1  0.33521730  0.66847938  0.16308076  1
  Te  Te205  1  0.33199421  0.67260954  0.50678995  1
  Te  Te206  1  0.33027482  0.66943838  0.83568615  1
  Te  Te207  1  0.67106435  -0.00375316  0.17119347  1
  Te  Te208  1  0.66756389  -0.00072535  0.49792928  1
  Te  Te209  1  0.66764355  -0.00390347  0.83478538  1
  Te  Te210  1  0.66815415  0.33496288  0.16718496  1
  Te  Te211  1  0.66929013  0.33107377  0.50442355  1
  Te  Te212  1  0.66339120  0.33265798  0.82695469  1
  Te  Te213  1  0.66262375  0.66791581  0.16551737  1
  Te  Te214  1  0.66482140  0.67825115  0.50183383  1
  Te  Te215  1  0.66706497  0.67456748  0.83382956  1
