# generated using pymatgen
data_AgSbTe2
_symmetry_space_group_name_H-M   'P 1'
_cell_length_a   18.36030018
_cell_length_b   18.35797925
_cell_length_c   18.35780160
_cell_angle_alpha   89.99585239
_cell_angle_beta   90.00170845
_cell_angle_gamma   89.99911419
_symmetry_Int_Tables_number   1
_chemical_formula_structural   AgSbTe2
_chemical_formula_sum   'Ag54 Sb54 Te108'
_cell_volume   6187.64405192
_cell_formula_units_Z   54
loop_
 _symmetry_equiv_pos_site_id
 _symmetry_equiv_pos_as_xyz
  1  'x, y, z'
loop_
 _atom_site_type_symbol
 _atom_site_label
 _atom_site_symmetry_multiplicity
 _atom_site_fract_x
 _atom_site_fract_y
 _atom_site_fract_z
 _atom_site_occupancy
  Ag  Ag0  1  0.82314431  0.34180707  0.50489445  1
  Ag  Ag1  1  0.16725168  0.66179869  0.16433011  1
  Ag  Ag2  1  0.51181628  0.16471731  0.66969075  1
  Ag  Ag3  1  0.66868996  0.67018919  0.00121414  1
  Ag  Ag4  1  0.66590123  0.01152870  0.67347614  1
  Ag  Ag5  1  0.34233998  0.17047994  0.84117220  1
  Ag  Ag6  1  0.33874314  0.50029419  0.16514113  1
  Ag  Ag7  1  0.82958672  0.50129956  0.67164820  1
  Ag  Ag8  1  0.50271255  0.83429067  0.00170228  1
  Ag  Ag9  1  0.82400919  0.65915518  0.50593218  1
  Ag  Ag10  1  0.65928651  0.17816630  0.16405406  1
  Ag  Ag11  1  0.81854720  0.82362365  -0.00310750  1
  Ag  Ag12  1  0.82272702  0.00218997  0.83239314  1
  Ag  Ag13  1  -0.01062470  0.50273460  0.83856379  1
  Ag  Ag14  1  0.82423299  0.50118590  0.32179158  1
  Ag  Ag15  1  0.34158256  0.17092167  0.16112220  1
  Ag  Ag16  1  0.50601880  0.00121892  0.84201599  1
  Ag  Ag17  1  0.16699729  0.50273317  0.32112995  1
  Ag  Ag18  1  0.50296844  0.82244998  0.32250293  1
  Ag  Ag19  1  0.16407694  0.66150683  0.84388956  1
  Ag  Ag20  1  0.17388239  0.16268599  0.00090939  1
  Ag  Ag21  1  0.51012377  0.33881297  0.49407546  1
  Ag  Ag22  1  -0.00385782  0.50257034  0.16586335  1
  Ag  Ag23  1  0.66477793  0.17963089  0.51542531  1
  Ag  Ag24  1  0.82117777  0.33927507  0.16637796  1
  Ag  Ag25  1  0.66415776  0.65896857  0.33742034  1
  Ag  Ag26  1  0.50052514  0.00041040  0.15956505  1
  Ag  Ag27  1  0.50754379  0.66210517  0.49571987  1
  Ag  Ag28  1  0.00159916  0.82124475  0.16405928  1
  Ag  Ag29  1  0.66247802  -0.00609047  -0.00806205  1
  Ag  Ag30  1  0.82853787  0.34291390  0.82739998  1
  Ag  Ag31  1  0.66519091  0.49723058  0.16814401  1
  Ag  Ag32  1  0.16273687  0.50046899  0.66785649  1
  Ag  Ag33  1  0.33270322  0.49989578  0.84142443  1
  Ag  Ag34  1  0.16816297  0.33817410  0.49395594  1
  Ag  Ag35  1  0.50673960  0.50655028  0.01129855  1
  Ag  Ag36  1  0.34587400  -0.00174145  0.00184801  1
  Ag  Ag37  1  0.16975482  0.34525329  0.16771816  1
  Ag  Ag38  1  0.50485563  0.33898157  0.16951597  1
  Ag  Ag39  1  0.66934911  0.66674564  0.65668300  1
  Ag  Ag40  1  0.66361281  0.16272654  0.82599426  1
  Ag  Ag41  1  0.34486764  0.66159356  0.32911691  1
  Ag  Ag42  1  0.33805105  0.82394884  0.16263044  1
  Ag  Ag43  1  0.83099311  0.66147334  0.82971977  1
  Ag  Ag44  1  0.82368141  0.82528469  0.67562291  1
  Ag  Ag45  1  0.66429024  0.82028440  0.50705874  1
  Ag  Ag46  1  0.50746941  0.50389080  0.32731111  1
  Ag  Ag47  1  0.50998025  0.83583404  0.66702488  1
  Ag  Ag48  1  0.17065039  0.83218205  0.00429862  1
  Ag  Ag49  1  0.82126212  0.18127384  0.67048906  1
  Ag  Ag50  1  -0.00754814  0.66045985  0.32891835  1
  Ag  Ag51  1  0.66614216  0.34165534  0.33561464  1
  Ag  Ag52  1  0.66912645  0.32266570  0.65411835  1
  Ag  Ag53  1  0.82690660  0.50370873  0.00177393  1
  Sb  Sb54  1  0.83032525  0.16939912  -0.00462800  1
  Sb  Sb55  1  -0.00957584  0.66325860  0.66520059  1
  Sb  Sb56  1  0.50430260  -0.00131612  0.50062656  1
  Sb  Sb57  1  0.16954732  0.17995612  0.32609122  1
  Sb  Sb58  1  -0.00489126  -0.00306667  -0.00005797  1
  Sb  Sb59  1  0.16932749  -0.00325306  0.83652059  1
  Sb  Sb60  1  0.50785476  0.49939803  0.66624128  1
  Sb  Sb61  1  0.50038143  0.16416312  -0.00072053  1
  Sb  Sb62  1  0.16950322  0.17539292  0.67160275  1
  Sb  Sb63  1  0.17326791  -0.00193318  0.16455539  1
  Sb  Sb64  1  -0.00641169  0.34175014  0.33143387  1
  Sb  Sb65  1  0.17289259  0.82279695  0.32560114  1
  Sb  Sb66  1  0.66888859  0.49735597  0.83865100  1
  Sb  Sb67  1  -0.01031446  0.82859996  0.49424824  1
  Sb  Sb68  1  0.16819513  0.00539837  0.50254290  1
  Sb  Sb69  1  0.34501620  0.00038090  0.67746586  1
  Sb  Sb70  1  0.33950260  0.66452199  0.66504508  1
  Sb  Sb71  1  -0.01053136  0.33784183  0.66592123  1
  Sb  Sb72  1  0.66976755  0.49986067  0.49388492  1
  Sb  Sb73  1  0.16859047  0.50274001  0.00293208  1
  Sb  Sb74  1  0.34295761  0.83119450  0.49290285  1
  Sb  Sb75  1  0.50222128  0.16958220  0.33206366  1
  Sb  Sb76  1  0.34098629  0.33592015  0.66691124  1
  Sb  Sb77  1  0.66761632  0.83893852  0.82573628  1
  Sb  Sb78  1  0.33333667  0.50038804  0.49621863  1
  Sb  Sb79  1  0.83412373  0.65904859  0.16516136  1
  Sb  Sb80  1  0.16422642  0.34022478  0.83660680  1
  Sb  Sb81  1  0.50599918  0.33093181  0.83546117  1
  Sb  Sb82  1  -0.00932192  0.17055633  0.50069789  1
  Sb  Sb83  1  0.82300049  0.00339548  0.15937871  1
  Sb  Sb84  1  0.50561244  0.66873187  0.83138570  1
  Sb  Sb85  1  -0.00011515  0.17195893  0.16525164  1
  Sb  Sb86  1  0.33476091  0.33131049  0.00284346  1
  Sb  Sb87  1  0.16702179  0.82577038  0.67134856  1
  Sb  Sb88  1  0.49778953  0.66273602  0.17239709  1
  Sb  Sb89  1  -0.00368849  0.50024022  0.49586226  1
  Sb  Sb90  1  0.82553890  0.82214887  0.32877089  1
  Sb  Sb91  1  -0.00510399  0.82552970  0.83969839  1
  Sb  Sb92  1  0.66541286  -0.00158681  0.33204050  1
  Sb  Sb93  1  -0.00429494  0.66565816  0.00451542  1
  Sb  Sb94  1  0.33772964  -0.00611943  0.32266649  1
  Sb  Sb95  1  0.66628739  0.33421147  0.00309919  1
  Sb  Sb96  1  0.82617325  -0.00033148  0.50775441  1
  Sb  Sb97  1  -0.01283583  -0.00227670  0.67018731  1
  Sb  Sb98  1  0.82778886  0.17614527  0.33708248  1
  Sb  Sb99  1  0.16666292  0.66217592  0.49686068  1
  Sb  Sb100  1  0.34110676  0.34134911  0.32879654  1
  Sb  Sb101  1  0.34210400  0.17001026  0.49934751  1
  Sb  Sb102  1  -0.00494778  0.17307467  0.83443798  1
  Sb  Sb103  1  0.66296346  0.82789124  0.16470505  1
  Sb  Sb104  1  0.33536170  0.83044599  0.84039945  1
  Sb  Sb105  1  -0.00095717  0.33731653  0.00150539  1
  Sb  Sb106  1  0.33875093  0.66816182  0.00500054  1
  Sb  Sb107  1  -0.00097403  -0.01130156  0.32917727  1
  Te  Te108  1  0.16788535  0.16594853  0.16197065  1
  Te  Te109  1  0.16716409  0.17322598  0.50091644  1
  Te  Te110  1  0.16744756  0.16748424  0.83738859  1
  Te  Te111  1  0.16770344  0.50189923  0.16286431  1
  Te  Te112  1  0.16522236  0.49770423  0.50654311  1
  Te  Te113  1  0.17049137  0.50264637  0.83657251  1
  Te  Te114  1  0.16992174  0.83178706  0.16361644  1
  Te  Te115  1  0.16626093  0.83495012  0.50082713  1
  Te  Te116  1  0.16539974  0.82539992  0.83803412  1
  Te  Te117  1  0.49952273  0.17119399  0.16689744  1
  Te  Te118  1  0.50493342  0.17214708  0.50232122  1
  Te  Te119  1  0.50164535  0.16573501  0.83258375  1
  Te  Te120  1  0.49798508  0.49973817  0.16901446  1
  Te  Te121  1  0.49695643  0.49814831  0.49902713  1
  Te  Te122  1  0.49378967  0.49970034  0.83378773  1
  Te  Te123  1  0.49984174  0.83355449  0.16339567  1
  Te  Te124  1  0.50499757  0.83181026  0.50532600  1
  Te  Te125  1  0.49819238  0.83762867  0.83424537  1
  Te  Te126  1  0.83273469  0.17459911  0.16641967  1
  Te  Te127  1  0.82659699  0.17147017  0.50559085  1
  Te  Te128  1  0.83105113  0.16644877  0.83049727  1
  Te  Te129  1  0.83417872  0.49822604  0.16531883  1
  Te  Te130  1  0.83586094  0.49931948  0.50705783  1
  Te  Te131  1  0.83068886  0.50064234  0.83561608  1
  Te  Te132  1  0.83473288  0.83587439  0.16015830  1
  Te  Te133  1  0.82582849  0.83017816  0.49947187  1
  Te  Te134  1  0.83410915  0.82681017  0.83723167  1
  Te  Te135  1  0.16670886  -0.00306461  -0.00077691  1
  Te  Te136  1  0.16784472  0.00032357  0.33500657  1
  Te  Te137  1  0.16575929  -0.00042221  0.66820363  1
  Te  Te138  1  0.16618391  0.32902201  0.00474185  1
  Te  Te139  1  0.16585962  0.34195896  0.33092714  1
  Te  Te140  1  0.16748535  0.33879271  0.66808026  1
  Te  Te141  1  0.16832497  0.66898716  0.00226349  1
  Te  Te142  1  0.16700462  0.66114418  0.33135877  1
  Te  Te143  1  0.16795760  0.66176428  0.66639401  1
  Te  Te144  1  0.50300974  0.00061931  0.00007563  1
  Te  Te145  1  0.50026952  -0.00669331  0.32890389  1
  Te  Te146  1  0.50637353  -0.00091305  0.66746063  1
  Te  Te147  1  0.50004888  0.34427064  0.00543007  1
  Te  Te148  1  0.50507602  0.33568414  0.33335524  1
  Te  Te149  1  0.50735801  0.33125975  0.66447672  1
  Te  Te150  1  0.50452761  0.66758786  -0.00311479  1
  Te  Te151  1  0.50368407  0.66434030  0.33535891  1
  Te  Te152  1  0.50476887  0.66930887  0.66242087  1
  Te  Te153  1  0.82810177  -0.00092237  -0.00688015  1
  Te  Te154  1  0.83385702  -0.00047705  0.33271509  1
  Te  Te155  1  0.82534766  -0.01066411  0.67228315  1
  Te  Te156  1  0.83367816  0.33679019  0.00393991  1
  Te  Te157  1  0.82865860  0.34047349  0.33351380  1
  Te  Te158  1  0.82856923  0.33792685  0.66572430  1
  Te  Te159  1  0.83074804  0.66660331  -0.00104164  1
  Te  Te160  1  0.82788321  0.66095053  0.33465688  1
  Te  Te161  1  0.83078390  0.66505987  0.66708535  1
  Te  Te162  1  0.00913696  0.16484554  -0.00030476  1
  Te  Te163  1  0.00042241  0.16304545  0.33334893  1
  Te  Te164  1  -0.00448333  0.16593001  0.66726643  1
  Te  Te165  1  -0.00616045  0.50099623  0.00156808  1
  Te  Te166  1  0.00381190  0.50348042  0.32917122  1
  Te  Te167  1  0.00082525  0.50047516  0.67308616  1
  Te  Te168  1  0.00880601  0.83221201  0.00618236  1
  Te  Te169  1  0.00054797  0.82323659  0.32579529  1
  Te  Te170  1  -0.00326418  0.83199268  0.66545705  1
  Te  Te171  1  0.33418750  0.16473711  0.00047389  1
  Te  Te172  1  0.33374276  0.16471516  0.32577421  1
  Te  Te173  1  0.33790130  0.16730104  0.67170131  1
  Te  Te174  1  0.33663590  0.50096668  0.00252057  1
  Te  Te175  1  0.32984856  0.50314354  0.32958135  1
  Te  Te176  1  0.33016620  0.50030039  0.67078281  1
  Te  Te177  1  0.33681411  0.83542340  0.00390139  1
  Te  Te178  1  0.34048548  0.82645485  0.32573055  1
  Te  Te179  1  0.33669112  0.83367786  0.66642386  1
  Te  Te180  1  0.66771752  0.16211475  0.00567513  1
  Te  Te181  1  0.66662066  0.16672241  0.32289299  1
  Te  Te182  1  0.66701721  0.16702514  0.67048530  1
  Te  Te183  1  0.66640812  0.50012473  0.00397008  1
  Te  Te184  1  0.66649508  0.49958075  0.32997751  1
  Te  Te185  1  0.67020863  0.50786500  0.67187799  1
  Te  Te186  1  0.66281479  0.83416847  0.00145206  1
  Te  Te187  1  0.66120319  0.83102042  0.33695963  1
  Te  Te188  1  0.66709028  0.82342344  0.66615237  1
  Te  Te189  1  -0.00202806  -0.00301705  0.16668085  1
  Te  Te190  1  -0.00060375  -0.00047862  0.49857098  1
  Te  Te191  1  -0.00512370  -0.00038774  0.83348103  1
  Te  Te192  1  0.00750566  0.33912001  0.16737574  1
  Te  Te193  1  0.00827176  0.33289503  0.49893534  1
  Te  Te194  1  -0.00746244  0.34149431  0.83337602  1
  Te  Te195  1  0.00241224  0.66334672  0.16896500  1
  Te  Te196  1  -0.00458716  0.66675926  0.49118807  1
  Te  Te197  1  0.00021324  0.66064357  0.83175175  1
  Te  Te198  1  0.33927723  0.00417983  0.16034534  1
  Te  Te199  1  0.33418554  0.00080937  0.50085036  1
  Te  Te200  1  0.33670361  0.00424621  0.84127711  1
  Te  Te201  1  0.33021558  0.33404567  0.16759628  1
  Te  Te202  1  0.32801766  0.33242080  0.49892967  1
  Te  Te203  1  0.33335694  0.33191102  0.83382429  1
  Te  Te204  1  0.32978024  0.66481565  0.16892354  1
  Te  Te205  1  0.33812598  0.66736334  0.49298727  1
  Te  Te206  1  0.33049548  0.66280374  0.83285872  1
  Te  Te207  1  0.66029632  0.00131683  0.16441113  1
  Te  Te208  1  0.66622342  0.00651169  0.50248693  1
  Te  Te209  1  0.66552304  0.00174729  0.83304965  1
  Te  Te210  1  0.66465548  0.33682104  0.16609187  1
  Te  Te211  1  0.66697063  0.33601110  0.49795545  1
  Te  Te212  1  0.67021108  0.32676435  0.83257506  1
  Te  Te213  1  0.66712635  0.66115140  0.16345032  1
  Te  Te214  1  0.66700535  0.66306856  0.49666629  1
  Te  Te215  1  0.66978662  0.66463888  0.84235633  1
