# generated using pymatgen
data_AgSbTe2
_symmetry_space_group_name_H-M   'P 1'
_cell_length_a   18.33942894
_cell_length_b   18.33667982
_cell_length_c   18.33855547
_cell_angle_alpha   89.99891091
_cell_angle_beta   89.99755597
_cell_angle_gamma   90.00075287
_symmetry_Int_Tables_number   1
_chemical_formula_structural   AgSbTe2
_chemical_formula_sum   'Ag54 Sb54 Te108'
_cell_volume   6166.96711716
_cell_formula_units_Z   54
loop_
 _symmetry_equiv_pos_site_id
 _symmetry_equiv_pos_as_xyz
  1  'x, y, z'
loop_
 _atom_site_type_symbol
 _atom_site_label
 _atom_site_symmetry_multiplicity
 _atom_site_fract_x
 _atom_site_fract_y
 _atom_site_fract_z
 _atom_site_occupancy
  Ag  Ag0  1  0.33623992  0.66164057  0.33183905  1
  Ag  Ag1  1  0.83130220  0.00012406  0.17564737  1
  Ag  Ag2  1  0.50107141  0.65997657  0.83190874  1
  Ag  Ag3  1  0.00392976  0.32915359  0.34325149  1
  Ag  Ag4  1  0.84023509  0.32859582  0.50091279  1
  Ag  Ag5  1  0.33458878  0.16944862  0.82566435  1
  Ag  Ag6  1  0.66933274  -0.00043185  0.34313001  1
  Ag  Ag7  1  0.00259591  0.17085492  0.81973936  1
  Ag  Ag8  1  0.33063289  0.00877355  -0.00215278  1
  Ag  Ag9  1  0.83221511  0.33097288  0.82557096  1
  Ag  Ag10  1  0.16106264  0.16821495  0.34413583  1
  Ag  Ag11  1  0.00629824  0.33114487  0.00021941  1
  Ag  Ag12  1  0.33372988  0.83301247  0.16774361  1
  Ag  Ag13  1  0.68169181  0.16765951  0.50411765  1
  Ag  Ag14  1  0.83470966  0.16769151  0.65693836  1
  Ag  Ag15  1  0.65888115  0.17070760  0.82247584  1
  Ag  Ag16  1  0.16789073  0.84133431  0.33618733  1
  Ag  Ag17  1  -0.00097655  0.32856759  0.65619552  1
  Ag  Ag18  1  0.16292825  0.84570466  0.65812330  1
  Ag  Ag19  1  0.16889246  0.83498030  0.00331320  1
  Ag  Ag20  1  0.32698859  0.33298406  0.33286212  1
  Ag  Ag21  1  0.50820641  0.16636090  0.66282428  1
  Ag  Ag22  1  0.16749402  0.33111577  0.17334984  1
  Ag  Ag23  1  0.16349429  0.01334633  0.50286560  1
  Ag  Ag24  1  0.50174587  0.32497438  0.50366845  1
  Ag  Ag25  1  0.67136722  0.66934615  0.65771699  1
  Ag  Ag26  1  0.16430486  0.49046029  -0.00204256  1
  Ag  Ag27  1  0.33984521  0.48658613  0.83598691  1
  Ag  Ag28  1  -0.00648627  0.66338444  0.66152175  1
  Ag  Ag29  1  0.15229365  0.32495241  0.49376125  1
  Ag  Ag30  1  0.83081311  0.01531474  0.49530815  1
  Ag  Ag31  1  0.31598185  0.16962539  0.50368165  1
  Ag  Ag32  1  0.82844140  0.66795810  0.17822381  1
  Ag  Ag33  1  0.00045070  0.17153258  0.18048568  1
  Ag  Ag34  1  0.51105102  0.00911240  0.50610150  1
  Ag  Ag35  1  0.17394566  0.00453800  0.82426606  1
  Ag  Ag36  1  0.83634440  0.49681718  0.00283790  1
  Ag  Ag37  1  0.83314460  0.66032487  0.49715478  1
  Ag  Ag38  1  0.50543106  0.66528582  0.16809196  1
  Ag  Ag39  1  0.66929825  0.66944616  0.33636036  1
  Ag  Ag40  1  0.50067124  0.33009432  0.83061911  1
  Ag  Ag41  1  -0.00799926  0.48542662  0.49969382  1
  Ag  Ag42  1  0.49370310  0.33300089  0.16888722  1
  Ag  Ag43  1  -0.00051495  0.17095647  0.50081820  1
  Ag  Ag44  1  0.66467388  0.00824730  0.66053015  1
  Ag  Ag45  1  0.49626390  0.01337337  0.82636154  1
  Ag  Ag46  1  0.83945778  0.17252057  0.34431949  1
  Ag  Ag47  1  0.32851581  0.33028132  0.00067629  1
  Ag  Ag48  1  0.67541864  0.49085980  0.50414979  1
  Ag  Ag49  1  0.83274044  0.49422952  0.34121343  1
  Ag  Ag50  1  0.66440886  0.83061118  0.17039054  1
  Ag  Ag51  1  0.66327497  0.49032434  0.82662868  1
  Ag  Ag52  1  0.16075466  0.16476515  0.65775640  1
  Ag  Ag53  1  0.00129619  0.83778492  0.50054492  1
  Sb  Sb54  1  0.33298055  0.83854678  0.83812501  1
  Sb  Sb55  1  0.50469465  0.49185257  0.66840734  1
  Sb  Sb56  1  0.49524710  0.83394523  0.00160702  1
  Sb  Sb57  1  0.16600185  0.66454805  0.16893800  1
  Sb  Sb58  1  0.00140801  0.83736578  0.17301636  1
  Sb  Sb59  1  0.67278127  0.32778123  0.66576946  1
  Sb  Sb60  1  0.83908722  0.82851559  0.00420081  1
  Sb  Sb61  1  0.00430328  0.00601045  -0.00073860  1
  Sb  Sb62  1  0.49748869  0.83872787  0.66708426  1
  Sb  Sb63  1  0.49803521  0.16893833  -0.00862664  1
  Sb  Sb64  1  0.66838529  0.33247419  0.33782865  1
  Sb  Sb65  1  0.50539359  0.49870297  0.33403243  1
  Sb  Sb66  1  0.67080727  0.16426046  0.17303933  1
  Sb  Sb67  1  -0.00270639  0.49121202  0.82901755  1
  Sb  Sb68  1  0.49765274  0.83310844  0.33388173  1
  Sb  Sb69  1  0.16260989  0.49409242  0.33205979  1
  Sb  Sb70  1  0.33542129  0.66658419  0.66261514  1
  Sb  Sb71  1  0.00010530  0.65979211  -0.00456868  1
  Sb  Sb72  1  0.50242578  0.00182557  0.16736645  1
  Sb  Sb73  1  0.66901650  0.50246846  0.16932511  1
  Sb  Sb74  1  -0.00485759  0.00915310  0.33748101  1
  Sb  Sb75  1  0.16665512  0.16821450  -0.00164317  1
  Sb  Sb76  1  0.32978302  0.16780657  0.16899954  1
  Sb  Sb77  1  0.82800151  0.65590062  0.82804282  1
  Sb  Sb78  1  0.83585110  0.33206742  0.17120409  1
  Sb  Sb79  1  0.16674210  0.32618532  0.83197411  1
  Sb  Sb80  1  0.32971476  0.32840154  0.66608571  1
  Sb  Sb81  1  0.50018624  0.49780121  -0.00228727  1
  Sb  Sb82  1  0.50738277  0.66600297  0.49978811  1
  Sb  Sb83  1  -0.00045463  0.00797120  0.66222198  1
  Sb  Sb84  1  0.50039060  0.16871018  0.34510288  1
  Sb  Sb85  1  0.67171587  0.83819941  0.49651560  1
  Sb  Sb86  1  0.16191690  0.66503706  0.49941354  1
  Sb  Sb87  1  0.00374683  0.84014087  0.82699212  1
  Sb  Sb88  1  -0.00294109  0.66213527  0.33937010  1
  Sb  Sb89  1  0.66623064  0.83497820  0.83458394  1
  Sb  Sb90  1  0.83691968  0.83452966  0.33649710  1
  Sb  Sb91  1  0.83787091  0.83896961  0.66374389  1
  Sb  Sb92  1  0.83632190  0.17238147  -0.00056855  1
  Sb  Sb93  1  0.17047939  0.67004736  0.83144687  1
  Sb  Sb94  1  0.83163076  0.49276854  0.66053351  1
  Sb  Sb95  1  0.33390006  0.00401431  0.66885139  1
  Sb  Sb96  1  0.33323467  0.66364651  0.00284904  1
  Sb  Sb97  1  0.32638682  0.83958789  0.49540929  1
  Sb  Sb98  1  0.66338342  0.00131999  -0.00215696  1
  Sb  Sb99  1  -0.00156639  0.49369934  0.17073924  1
  Sb  Sb100  1  0.33300502  0.49947049  0.16370749  1
  Sb  Sb101  1  0.16424615  0.49442300  0.67007191  1
  Sb  Sb102  1  0.33464122  0.00405402  0.33292994  1
  Sb  Sb103  1  0.83134033  0.01148794  0.82870782  1
  Sb  Sb104  1  0.33315213  0.49143594  0.50272044  1
  Sb  Sb105  1  0.66738430  0.66534334  0.00203987  1
  Sb  Sb106  1  0.66679265  0.33485839  -0.00275966  1
  Sb  Sb107  1  0.16392318  0.00505359  0.17010744  1
  Te  Te108  1  0.16269344  0.17129866  0.17013360  1
  Te  Te109  1  0.16118751  0.16916107  0.50019340  1
  Te  Te110  1  0.16831308  0.16297106  0.83248229  1
  Te  Te111  1  0.16597638  0.49423681  0.15904766  1
  Te  Te112  1  0.16437085  0.49490907  0.50104302  1
  Te  Te113  1  0.16869354  0.50138979  0.83794306  1
  Te  Te114  1  0.16872834  0.83414233  0.16996037  1
  Te  Te115  1  0.16323101  0.83164794  0.49893078  1
  Te  Te116  1  0.16699370  0.84045412  0.83460003  1
  Te  Te117  1  0.50097858  0.17107026  0.16671177  1
  Te  Te118  1  0.50578940  0.16506994  0.50260783  1
  Te  Te119  1  0.49825596  0.16941225  0.82974738  1
  Te  Te120  1  0.50082773  0.50182182  0.16551776  1
  Te  Te121  1  0.50406369  0.49585407  0.50158162  1
  Te  Te122  1  0.50131691  0.49786579  0.83329406  1
  Te  Te123  1  0.49912073  0.83131417  0.16673403  1
  Te  Te124  1  0.49646978  0.84139045  0.50170925  1
  Te  Te125  1  0.50065166  0.82882972  0.83408123  1
  Te  Te126  1  0.83638792  0.16362693  0.16898846  1
  Te  Te127  1  0.83752185  0.16962085  0.49986005  1
  Te  Te128  1  0.83770752  0.17203137  0.83262186  1
  Te  Te129  1  0.83270023  0.50403140  0.16752991  1
  Te  Te130  1  0.83202971  0.49949996  0.49980894  1
  Te  Te131  1  0.82967630  0.49245402  0.83598613  1
  Te  Te132  1  0.83244818  0.83284198  0.16806285  1
  Te  Te133  1  0.83974201  0.82565876  0.50072926  1
  Te  Te134  1  0.83474508  0.83324595  0.83507960  1
  Te  Te135  1  0.17045574  -0.00299693  0.00230387  1
  Te  Te136  1  0.16798752  0.00257052  0.33738747  1
  Te  Te137  1  0.16596944  0.00260967  0.66495772  1
  Te  Te138  1  0.16807642  0.33318894  -0.00142040  1
  Te  Te139  1  0.16575769  0.33331077  0.33341163  1
  Te  Te140  1  0.16069778  0.32837712  0.66142403  1
  Te  Te141  1  0.16581813  0.66941422  0.00008591  1
  Te  Te142  1  0.17147522  0.66566429  0.33188563  1
  Te  Te143  1  0.16442316  0.66720001  0.66691430  1
  Te  Te144  1  0.49368663  -0.00034829  -0.00476023  1
  Te  Te145  1  0.50609356  0.00086728  0.33677881  1
  Te  Te146  1  0.50257094  0.00305586  0.66665113  1
  Te  Te147  1  0.49423164  0.33434390  -0.00187800  1
  Te  Te148  1  0.49647351  0.33382643  0.33122665  1
  Te  Te149  1  0.49848732  0.32668273  0.66837892  1
  Te  Te150  1  0.49967471  0.66617624  0.00211785  1
  Te  Te151  1  0.50157387  0.66612564  0.32956733  1
  Te  Te152  1  0.50391177  0.66809060  0.66921304  1
  Te  Te153  1  0.83352054  -0.00192129  0.00221880  1
  Te  Te154  1  0.83022579  0.00034828  0.33561952  1
  Te  Te155  1  0.82668551  0.00546501  0.66221096  1
  Te  Te156  1  0.83426621  0.33838295  0.00314868  1
  Te  Te157  1  0.83471176  0.33344652  0.33511798  1
  Te  Te158  1  0.83830731  0.32790039  0.66609904  1
  Te  Te159  1  0.83506670  0.65966127  0.00103720  1
  Te  Te160  1  0.83178279  0.66727283  0.33531793  1
  Te  Te161  1  0.83228281  0.66879323  0.66323093  1
  Te  Te162  1  0.00052343  0.17203848  -0.00008787  1
  Te  Te163  1  -0.00014811  0.16937180  0.33719306  1
  Te  Te164  1  -0.00086094  0.16787580  0.66328538  1
  Te  Te165  1  0.00037520  0.49400953  -0.00108827  1
  Te  Te166  1  -0.00514396  0.49449887  0.33805801  1
  Te  Te167  1  -0.00051842  0.49986680  0.66133497  1
  Te  Te168  1  0.00706713  0.83283169  -0.00000500  1
  Te  Te169  1  0.00800221  0.83076658  0.33762040  1
  Te  Te170  1  0.00479918  0.82933078  0.66290352  1
  Te  Te171  1  0.33224359  0.16868013  -0.00136463  1
  Te  Te172  1  0.32969308  0.17167549  0.33644297  1
  Te  Te173  1  0.32921922  0.16610383  0.66529558  1
  Te  Te174  1  0.32974434  0.49589455  -0.00485941  1
  Te  Te175  1  0.33324381  0.49781306  0.33371739  1
  Te  Te176  1  0.33330745  0.50010515  0.67555329  1
  Te  Te177  1  0.32818879  0.83287452  0.00569277  1
  Te  Te178  1  0.32904169  0.83335326  0.32938396  1
  Te  Te179  1  0.32338362  0.83273478  0.66577504  1
  Te  Te180  1  0.66779879  0.16661246  -0.00805904  1
  Te  Te181  1  0.67238666  0.16304329  0.33861793  1
  Te  Te182  1  0.66813944  0.16692430  0.66483573  1
  Te  Te183  1  0.67299153  0.50039810  -0.00700656  1
  Te  Te184  1  0.67258525  0.50393573  0.33775928  1
  Te  Te185  1  0.66700368  0.50843911  0.66624833  1
  Te  Te186  1  0.66850559  0.83341772  0.00875929  1
  Te  Te187  1  0.66707393  0.83331982  0.32960125  1
  Te  Te188  1  0.66651842  0.83077995  0.66727018  1
  Te  Te189  1  -0.00653917  0.00666010  0.16652274  1
  Te  Te190  1  0.00014151  -0.00235044  0.50005879  1
  Te  Te191  1  0.00340774  0.00850240  0.83309293  1
  Te  Te192  1  0.00176334  0.32942500  0.16227787  1
  Te  Te193  1  -0.00317194  0.33130321  0.49912867  1
  Te  Te194  1  -0.00110231  0.32912198  0.83745549  1
  Te  Te195  1  -0.00685615  0.66743516  0.16566899  1
  Te  Te196  1  -0.00330851  0.66873699  0.50293313  1
  Te  Te197  1  -0.00102709  0.66614609  0.82560269  1
  Te  Te198  1  0.33407188  -0.00346256  0.16193013  1
  Te  Te199  1  0.32665599  0.00692596  0.49855650  1
  Te  Te200  1  0.33431913  0.00322039  0.83662146  1
  Te  Te201  1  0.33230511  0.33325511  0.16595856  1
  Te  Te202  1  0.34198420  0.32984698  0.49844535  1
  Te  Te203  1  0.33309739  0.32982496  0.83354121  1
  Te  Te204  1  0.33452797  0.66938802  0.17085090  1
  Te  Te205  1  0.33640237  0.66483964  0.49362778  1
  Te  Te206  1  0.33896685  0.66686727  0.83306097  1
  Te  Te207  1  0.66957693  -0.00316777  0.16631677  1
  Te  Te208  1  0.67010953  -0.00011227  0.50081988  1
  Te  Te209  1  0.66256780  0.00390717  0.82991052  1
  Te  Te210  1  0.65838460  0.33306622  0.16650955  1
  Te  Te211  1  0.66262610  0.33324469  0.50041531  1
  Te  Te212  1  0.66532313  0.33165564  0.83193782  1
  Te  Te213  1  0.66663273  0.66836786  0.16952792  1
  Te  Te214  1  0.66862790  0.67012952  0.49732048  1
  Te  Te215  1  0.66219011  0.66655040  0.83212400  1
