# generated using pymatgen
data_AgSbTe2
_symmetry_space_group_name_H-M   'P 1'
_cell_length_a   18.31059499
_cell_length_b   18.31447480
_cell_length_c   18.31559192
_cell_angle_alpha   89.99790039
_cell_angle_beta   90.00168316
_cell_angle_gamma   89.99992771
_symmetry_Int_Tables_number   1
_chemical_formula_structural   AgSbTe2
_chemical_formula_sum   'Ag54 Sb54 Te108'
_cell_volume   6142.11415724
_cell_formula_units_Z   54
loop_
 _symmetry_equiv_pos_site_id
 _symmetry_equiv_pos_as_xyz
  1  'x, y, z'
loop_
 _atom_site_type_symbol
 _atom_site_label
 _atom_site_symmetry_multiplicity
 _atom_site_fract_x
 _atom_site_fract_y
 _atom_site_fract_z
 _atom_site_occupancy
  Ag  Ag0  1  0.32799262  0.16597130  0.16573667  1
  Ag  Ag1  1  0.49823468  -0.00031292  0.15964416  1
  Ag  Ag2  1  0.66497282  0.50581277  0.83911187  1
  Ag  Ag3  1  0.50111518  0.50012550  0.66586289  1
  Ag  Ag4  1  0.67098988  0.33487947  0.00000591  1
  Ag  Ag5  1  0.83047471  0.66665007  0.16781223  1
  Ag  Ag6  1  0.16612315  0.00370475  0.82635675  1
  Ag  Ag7  1  0.66773051  0.50764823  0.16210322  1
  Ag  Ag8  1  0.83091758  0.83441039  0.00063880  1
  Ag  Ag9  1  0.00337624  0.49332199  0.49931397  1
  Ag  Ag10  1  0.15966672  0.84127377  0.66666006  1
  Ag  Ag11  1  0.32423092  0.33196339  0.33366903  1
  Ag  Ag12  1  0.83766268  0.16727110  0.00543102  1
  Ag  Ag13  1  0.84065599  0.83368817  0.67385128  1
  Ag  Ag14  1  0.16295657  0.32455531  0.49620952  1
  Ag  Ag15  1  0.32762995  0.16406858  0.83487538  1
  Ag  Ag16  1  0.00576151  -0.00495402  0.66950053  1
  Ag  Ag17  1  0.49476875  0.00742582  0.50316343  1
  Ag  Ag18  1  0.50305245  0.66372303  0.83197967  1
  Ag  Ag19  1  0.33810292  0.83920850  0.16679500  1
  Ag  Ag20  1  0.16141075  0.17330435  0.34204943  1
  Ag  Ag21  1  0.49618191  0.33114420  0.50023342  1
  Ag  Ag22  1  0.66920746  0.82893533  0.15920413  1
  Ag  Ag23  1  0.84714485  0.33029832  0.49081705  1
  Ag  Ag24  1  0.32560464  0.66714012  0.66083431  1
  Ag  Ag25  1  0.32175121  0.16829066  0.49782961  1
  Ag  Ag26  1  0.33877930  0.00720265  -0.00037920  1
  Ag  Ag27  1  0.16615777  0.49257829  0.33822054  1
  Ag  Ag28  1  0.00625030  0.16591921  0.83241162  1
  Ag  Ag29  1  0.83553520  0.33163023  0.16795575  1
  Ag  Ag30  1  0.67363622  0.66570470  0.32448082  1
  Ag  Ag31  1  0.00416442  0.33104435  0.33858456  1
  Ag  Ag32  1  0.67155556  0.83259285  0.83889200  1
  Ag  Ag33  1  0.33029967  0.66091123  0.33617804  1
  Ag  Ag34  1  0.16439064  0.15884259  0.65531126  1
  Ag  Ag35  1  0.00047099  0.66079644  0.33555753  1
  Ag  Ag36  1  -0.00565437  0.83254952  0.82890782  1
  Ag  Ag37  1  0.67371247  0.67108169  0.00415721  1
  Ag  Ag38  1  0.16868440  0.01252102  0.50734063  1
  Ag  Ag39  1  0.66674788  -0.00317156  0.67502031  1
  Ag  Ag40  1  0.33237267  0.32516272  0.00399455  1
  Ag  Ag41  1  0.00050512  0.16964277  0.17140966  1
  Ag  Ag42  1  0.00374226  0.67244387  0.66864924  1
  Ag  Ag43  1  -0.00173777  0.50147722  0.82971120  1
  Ag  Ag44  1  0.49899946  0.33355262  0.83247250  1
  Ag  Ag45  1  0.83415847  0.83090494  0.32911198  1
  Ag  Ag46  1  -0.00373552  0.33062128  0.00275629  1
  Ag  Ag47  1  0.49658091  0.49969043  0.33819742  1
  Ag  Ag48  1  0.49874554  0.00157389  0.83378952  1
  Ag  Ag49  1  0.66277513  -0.00787341  -0.00378072  1
  Ag  Ag50  1  0.84227141  0.17200267  0.32814578  1
  Ag  Ag51  1  -0.00683663  0.66417270  -0.00299522  1
  Ag  Ag52  1  0.16466959  0.66538943  0.49933883  1
  Ag  Ag53  1  0.00956505  0.17318791  0.49461805  1
  Sb  Sb54  1  0.66539773  0.33049181  0.67152630  1
  Sb  Sb55  1  -0.00370253  0.83569660  0.16335310  1
  Sb  Sb56  1  0.83220178  0.49973678  0.00083775  1
  Sb  Sb57  1  0.17083334  0.00227741  0.16657423  1
  Sb  Sb58  1  0.83229599  0.50558760  0.66639781  1
  Sb  Sb59  1  0.16104514  0.83497292  -0.00523682  1
  Sb  Sb60  1  0.16827046  0.32789010  0.82821055  1
  Sb  Sb61  1  0.50840746  0.83586468  -0.00040371  1
  Sb  Sb62  1  0.33472457  0.49623913  0.83195634  1
  Sb  Sb63  1  0.66624066  -0.00421905  0.33055455  1
  Sb  Sb64  1  0.66894360  0.67050471  0.67079982  1
  Sb  Sb65  1  0.49509207  0.66394050  0.50249335  1
  Sb  Sb66  1  0.84198081  0.16236540  0.66687633  1
  Sb  Sb67  1  0.66823048  0.49934423  0.49946987  1
  Sb  Sb68  1  -0.00525075  0.49603024  0.16898780  1
  Sb  Sb69  1  0.50250442  0.33000585  0.16590128  1
  Sb  Sb70  1  0.16161280  0.66730203  0.17320188  1
  Sb  Sb71  1  0.49681532  0.17103415  0.33453852  1
  Sb  Sb72  1  0.33150828  0.83749784  0.49766538  1
  Sb  Sb73  1  0.83623085  0.49905484  0.33307426  1
  Sb  Sb74  1  0.16306939  0.83354432  0.33846780  1
  Sb  Sb75  1  0.16397534  0.49834508  0.00350034  1
  Sb  Sb76  1  -0.00211125  0.00249467  -0.00685835  1
  Sb  Sb77  1  -0.00014610  0.33313094  0.66399924  1
  Sb  Sb78  1  0.84007304  0.66386341  0.49374984  1
  Sb  Sb79  1  0.33420221  0.66844988  0.00151500  1
  Sb  Sb80  1  0.00100321  0.00442982  0.33817288  1
  Sb  Sb81  1  0.49903724  0.16535006  -0.00042872  1
  Sb  Sb82  1  0.66843030  0.16727991  0.49994470  1
  Sb  Sb83  1  0.33388004  0.33430293  0.66341033  1
  Sb  Sb84  1  0.50205504  0.82844036  0.33188733  1
  Sb  Sb85  1  0.32827253  0.49390631  0.49815830  1
  Sb  Sb86  1  0.16396824  0.16668795  -0.00026327  1
  Sb  Sb87  1  0.16740515  0.50029550  0.66118684  1
  Sb  Sb88  1  0.16514198  0.67068111  0.82690868  1
  Sb  Sb89  1  0.49942454  0.83192263  0.66896081  1
  Sb  Sb90  1  0.33378258  0.83891829  0.83704173  1
  Sb  Sb91  1  0.66876962  0.16535668  0.16382202  1
  Sb  Sb92  1  0.00055374  0.83425169  0.50618794  1
  Sb  Sb93  1  0.49439167  0.16737963  0.66760459  1
  Sb  Sb94  1  0.32978702  -0.00199862  0.67012808  1
  Sb  Sb95  1  0.66797078  0.83370817  0.50171113  1
  Sb  Sb96  1  0.66644622  0.16383770  0.83660482  1
  Sb  Sb97  1  0.16176966  0.33097216  0.17392243  1
  Sb  Sb98  1  0.50643424  0.66896942  0.16437524  1
  Sb  Sb99  1  0.66909819  0.33790140  0.32820890  1
  Sb  Sb100  1  0.83207530  -0.00164446  0.83296443  1
  Sb  Sb101  1  0.83222181  0.33155918  0.83744861  1
  Sb  Sb102  1  0.50356824  0.49849507  -0.00210611  1
  Sb  Sb103  1  0.83617253  0.00428085  0.50096721  1
  Sb  Sb104  1  0.33925918  0.49708788  0.17002667  1
  Sb  Sb105  1  0.83236709  0.66916696  0.84024502  1
  Sb  Sb106  1  0.33331078  0.00355530  0.33000285  1
  Sb  Sb107  1  0.82963094  0.00109449  0.16496270  1
  Te  Te108  1  0.16694864  0.16545067  0.17320038  1
  Te  Te109  1  0.16587391  0.16812716  0.49921877  1
  Te  Te110  1  0.16679865  0.16390909  0.83306053  1
  Te  Te111  1  0.16726334  0.50075988  0.17621390  1
  Te  Te112  1  0.16222348  0.50358987  0.49691892  1
  Te  Te113  1  0.16036887  0.49926542  0.83259580  1
  Te  Te114  1  0.17064966  0.83490093  0.16657552  1
  Te  Te115  1  0.16708889  0.82860769  0.50608424  1
  Te  Te116  1  0.16321817  0.83828257  0.82772455  1
  Te  Te117  1  0.49483076  0.16054058  0.16770016  1
  Te  Te118  1  0.49901380  0.16823913  0.50081307  1
  Te  Te119  1  0.49574838  0.16767737  0.83265603  1
  Te  Te120  1  0.50735148  0.49940192  0.17192069  1
  Te  Te121  1  0.50016019  0.49647432  0.50142816  1
  Te  Te122  1  0.50067400  0.49727386  0.83176960  1
  Te  Te123  1  0.50044793  0.83838921  0.16724881  1
  Te  Te124  1  0.49960426  0.84191159  0.50036559  1
  Te  Te125  1  0.50342286  0.83587888  0.83285389  1
  Te  Te126  1  0.83536768  0.16786841  0.16678548  1
  Te  Te127  1  0.83615250  0.17172629  0.49675348  1
  Te  Te128  1  0.84070454  0.16670719  0.83731172  1
  Te  Te129  1  0.82707084  0.49938498  0.16767636  1
  Te  Te130  1  0.83961424  0.49151727  0.50068500  1
  Te  Te131  1  0.83463903  0.49975135  0.83168174  1
  Te  Te132  1  0.83119250  0.83313901  0.16618003  1
  Te  Te133  1  0.83300559  0.83452747  0.49428115  1
  Te  Te134  1  0.83333964  0.83290982  0.83381206  1
  Te  Te135  1  0.17250175  -0.00038843  -0.00556341  1
  Te  Te136  1  0.16735013  0.00252748  0.34066274  1
  Te  Te137  1  0.16735536  -0.00039578  0.66721995  1
  Te  Te138  1  0.16579502  0.33363480  -0.00051421  1
  Te  Te139  1  0.16518163  0.33322795  0.33579760  1
  Te  Te140  1  0.16788467  0.33010432  0.65813063  1
  Te  Te141  1  0.15967506  0.66676404  0.00041609  1
  Te  Te142  1  0.16491484  0.66780511  0.33735151  1
  Te  Te143  1  0.16475624  0.66596389  0.66249153  1
  Te  Te144  1  0.50072085  0.00080213  -0.00215227  1
  Te  Te145  1  0.50081243  0.00051406  0.33861672  1
  Te  Te146  1  0.50073746  -0.00013225  0.66794835  1
  Te  Te147  1  0.49976884  0.33199775  -0.00283399  1
  Te  Te148  1  0.50030530  0.33828195  0.33441248  1
  Te  Te149  1  0.50053619  0.33714889  0.66818202  1
  Te  Te150  1  0.50280003  0.66587123  -0.00744026  1
  Te  Te151  1  0.49449533  0.66124870  0.33379413  1
  Te  Te152  1  0.50015635  0.66355494  0.67024363  1
  Te  Te153  1  0.82879336  -0.00040166  -0.00013660  1
  Te  Te154  1  0.83291445  -0.00317295  0.33335311  1
  Te  Te155  1  0.83332374  -0.00573809  0.66580428  1
  Te  Te156  1  0.83572983  0.33107245  0.00250135  1
  Te  Te157  1  0.83576787  0.33174145  0.33089888  1
  Te  Te158  1  0.83080230  0.33236232  0.66023761  1
  Te  Te159  1  0.83375786  0.66896489  0.00548190  1
  Te  Te160  1  0.83476111  0.66712510  0.32918403  1
  Te  Te161  1  0.83899427  0.67338899  0.66253186  1
  Te  Te162  1  -0.00213209  0.16860004  -0.00070420  1
  Te  Te163  1  0.00024463  0.16738976  0.33373609  1
  Te  Te164  1  0.00376582  0.16579064  0.67056237  1
  Te  Te165  1  0.00018429  0.50020019  -0.00263901  1
  Te  Te166  1  0.00279236  0.49951619  0.33420205  1
  Te  Te167  1  -0.00040571  0.50497139  0.66805389  1
  Te  Te168  1  -0.00655666  0.83135109  -0.00472781  1
  Te  Te169  1  -0.00479424  0.83037372  0.33228028  1
  Te  Te170  1  -0.00042274  0.83332285  0.66830750  1
  Te  Te171  1  0.33174630  0.16723511  0.00021446  1
  Te  Te172  1  0.33235171  0.17057995  0.33378926  1
  Te  Te173  1  0.32697362  0.16620902  0.66813205  1
  Te  Te174  1  0.33254326  0.49230155  0.00141439  1
  Te  Te175  1  0.33277676  0.49867324  0.33353713  1
  Te  Te176  1  0.33908896  0.50746970  0.66587469  1
  Te  Te177  1  0.33043886  0.83567818  0.00628077  1
  Te  Te178  1  0.33220053  0.82925132  0.32771439  1
  Te  Te179  1  0.32883462  0.82595495  0.66762645  1
  Te  Te180  1  0.67390245  0.16989484  0.00006172  1
  Te  Te181  1  0.67521463  0.16643818  0.33245591  1
  Te  Te182  1  0.66831263  0.15764274  0.66845741  1
  Te  Te183  1  0.66637906  0.50029341  -0.00169077  1
  Te  Te184  1  0.66366610  0.50512529  0.33203855  1
  Te  Te185  1  0.66237337  0.50108369  0.67228527  1
  Te  Te186  1  0.67035462  0.83279237  -0.00058371  1
  Te  Te187  1  0.67011059  0.82793510  0.33001909  1
  Te  Te188  1  0.66985694  0.83796907  0.67111399  1
  Te  Te189  1  0.00216507  0.00688057  0.16496108  1
  Te  Te190  1  0.00414719  0.00514153  0.50605852  1
  Te  Te191  1  0.00260936  0.00054760  0.82968659  1
  Te  Te192  1  -0.00380821  0.33055167  0.16434012  1
  Te  Te193  1  0.00243762  0.33308287  0.49963072  1
  Te  Te194  1  0.00019328  0.33352941  0.83515745  1
  Te  Te195  1  -0.00580072  0.66704111  0.16567726  1
  Te  Te196  1  0.00233358  0.66571402  0.49721404  1
  Te  Te197  1  0.00015414  0.66713510  0.83351597  1
  Te  Te198  1  0.33658604  0.00216897  0.16315301  1
  Te  Te199  1  0.33315482  0.00515435  0.50028379  1
  Te  Te200  1  0.33667093  0.00276734  0.83671026  1
  Te  Te201  1  0.33403024  0.32903121  0.16725473  1
  Te  Te202  1  0.33570517  0.32908109  0.49647635  1
  Te  Te203  1  0.33617961  0.32871525  0.83451271  1
  Te  Te204  1  0.33379666  0.66810794  0.16883888  1
  Te  Te205  1  0.33003652  0.66740487  0.49818380  1
  Te  Te206  1  0.33785972  0.66676825  0.83424380  1
  Te  Te207  1  0.65993098  -0.00402259  0.16249123  1
  Te  Te208  1  0.66249516  -0.00012157  0.50275532  1
  Te  Te209  1  0.66308170  -0.00167267  0.83563282  1
  Te  Te210  1  0.67105094  0.33422745  0.16064157  1
  Te  Te211  1  0.65741496  0.33434144  0.50070175  1
  Te  Te212  1  0.66301889  0.33436521  0.83857863  1
  Te  Te213  1  0.66767986  0.66795205  0.16535180  1
  Te  Te214  1  0.66535998  0.66599724  0.49392143  1
  Te  Te215  1  0.66515402  0.66664666  0.83512300  1
