# generated using pymatgen
data_AgSbTe2
_symmetry_space_group_name_H-M   'P 1'
_cell_length_a   18.33792304
_cell_length_b   18.34499472
_cell_length_c   18.33335121
_cell_angle_alpha   90.00394634
_cell_angle_beta   90.00342575
_cell_angle_gamma   89.99944414
_symmetry_Int_Tables_number   1
_chemical_formula_structural   AgSbTe2
_chemical_formula_sum   'Ag54 Sb54 Te108'
_cell_volume   6167.50617804
_cell_formula_units_Z   54
loop_
 _symmetry_equiv_pos_site_id
 _symmetry_equiv_pos_as_xyz
  1  'x, y, z'
loop_
 _atom_site_type_symbol
 _atom_site_label
 _atom_site_symmetry_multiplicity
 _atom_site_fract_x
 _atom_site_fract_y
 _atom_site_fract_z
 _atom_site_occupancy
  Ag  Ag0  1  0.49834517  0.83210396  0.66968343  1
  Ag  Ag1  1  0.83974035  0.50349509  0.34475997  1
  Ag  Ag2  1  0.50093454  0.33911623  0.82271721  1
  Ag  Ag3  1  0.16686792  0.49838783  0.66473477  1
  Ag  Ag4  1  0.16660797  0.83522679  -0.01039241  1
  Ag  Ag5  1  -0.00497532  0.65752999  0.33583852  1
  Ag  Ag6  1  0.33832444  0.83151909  0.83083927  1
  Ag  Ag7  1  0.34404418  0.33638084  0.66682765  1
  Ag  Ag8  1  0.32678619  -0.00246580  0.33938706  1
  Ag  Ag9  1  0.66870921  0.50528109  0.82631424  1
  Ag  Ag10  1  0.50140742  0.33020252  0.51079795  1
  Ag  Ag11  1  0.83112624  -0.00116941  0.82980608  1
  Ag  Ag12  1  0.50300285  0.17960355  0.66517927  1
  Ag  Ag13  1  0.83636570  0.50040806  -0.00914393  1
  Ag  Ag14  1  0.16446019  0.16816365  -0.00668358  1
  Ag  Ag15  1  0.49623070  0.00930527  0.50688472  1
  Ag  Ag16  1  0.50842761  0.66594897  0.82525677  1
  Ag  Ag17  1  0.00148132  0.00173509  0.33831231  1
  Ag  Ag18  1  0.00292966  0.17007687  0.82845257  1
  Ag  Ag19  1  0.82812409  0.65834201  0.82765811  1
  Ag  Ag20  1  0.00235641  0.17721983  0.50376515  1
  Ag  Ag21  1  0.33596530  0.83179216  0.16340089  1
  Ag  Ag22  1  0.17425903  0.83015980  0.66925598  1
  Ag  Ag23  1  0.15818147  0.49784169  0.34795701  1
  Ag  Ag24  1  0.33117031  0.16668459  0.50266229  1
  Ag  Ag25  1  0.66282933  0.82605719  0.83013906  1
  Ag  Ag26  1  0.66723763  0.16695551  0.16987991  1
  Ag  Ag27  1  0.66252614  0.66106245  0.66883288  1
  Ag  Ag28  1  0.83411920  0.34072857  0.82549921  1
  Ag  Ag29  1  0.83764828  0.65783421  0.49834930  1
  Ag  Ag30  1  0.33819683  0.50155007  0.82789705  1
  Ag  Ag31  1  0.50698545  0.49347827  0.66864734  1
  Ag  Ag32  1  0.65990421  -0.00063655  0.66813994  1
  Ag  Ag33  1  0.15923324  0.33645582  0.50650865  1
  Ag  Ag34  1  -0.00335609  0.65680258  0.00018739  1
  Ag  Ag35  1  0.66210651  0.17017958  0.50511501  1
  Ag  Ag36  1  0.65834981  0.33961528  0.66751123  1
  Ag  Ag37  1  0.16145408  0.33201737  0.82558560  1
  Ag  Ag38  1  0.16719780  0.00097420  0.82520274  1
  Ag  Ag39  1  0.83414752  0.82346703  0.33333372  1
  Ag  Ag40  1  0.84139807  0.33878696  0.50416456  1
  Ag  Ag41  1  0.16920293  0.00401624  0.50540943  1
  Ag  Ag42  1  0.50404281  0.66437278  0.51050610  1
  Ag  Ag43  1  -0.00099384  0.33715803  -0.00120807  1
  Ag  Ag44  1  -0.00087508  0.49555719  0.49779499  1
  Ag  Ag45  1  0.66398215  0.83012406  0.16249075  1
  Ag  Ag46  1  -0.00082363  0.33921519  0.34141708  1
  Ag  Ag47  1  0.16015126  0.65376739  0.50233894  1
  Ag  Ag48  1  0.50113972  -0.00869088  0.82377096  1
  Ag  Ag49  1  0.83127389  0.66034012  0.17218539  1
  Ag  Ag50  1  0.51176860  0.66862831  0.16708210  1
  Ag  Ag51  1  0.15879318  0.33384895  0.16748488  1
  Ag  Ag52  1  0.82564447  0.50006796  0.66787371  1
  Ag  Ag53  1  0.83881291  0.34245168  0.16930824  1
  Sb  Sb54  1  0.66941000  0.16786094  0.82837577  1
  Sb  Sb55  1  0.50300327  0.83177040  0.33767116  1
  Sb  Sb56  1  0.32896659  0.66937012  0.33534706  1
  Sb  Sb57  1  0.33596203  0.16426018  0.17266367  1
  Sb  Sb58  1  0.50128276  0.50206288  0.34521290  1
  Sb  Sb59  1  -0.00267018  0.17151846  0.16761693  1
  Sb  Sb60  1  0.00049029  0.83048044  0.49923766  1
  Sb  Sb61  1  0.34175794  0.66056853  0.66698496  1
  Sb  Sb62  1  -0.00242261  0.49784406  0.17504429  1
  Sb  Sb63  1  0.67473157  0.49580875  0.50797314  1
  Sb  Sb64  1  0.67024310  0.50284346  0.16060036  1
  Sb  Sb65  1  0.16685342  0.00276692  0.16846090  1
  Sb  Sb66  1  0.82961114  0.82796800  0.66533045  1
  Sb  Sb67  1  -0.00056908  0.83109547  0.16775107  1
  Sb  Sb68  1  0.83347754  0.00180334  0.50433754  1
  Sb  Sb69  1  0.33367066  0.83682398  0.50501902  1
  Sb  Sb70  1  0.66512964  0.83456856  0.50603459  1
  Sb  Sb71  1  0.15850304  0.49923937  -0.00522748  1
  Sb  Sb72  1  0.16504526  0.66524720  0.82616927  1
  Sb  Sb73  1  -0.00098358  0.33446962  0.66521859  1
  Sb  Sb74  1  0.32765877  0.66774830  -0.00227042  1
  Sb  Sb75  1  0.16370570  0.83101689  0.33666852  1
  Sb  Sb76  1  0.32534151  0.33066928  0.34263689  1
  Sb  Sb77  1  -0.00031385  0.00063122  0.66434965  1
  Sb  Sb78  1  0.67231364  0.66718329  -0.00722842  1
  Sb  Sb79  1  0.16204937  0.66318504  0.17000972  1
  Sb  Sb80  1  0.83830755  0.17381611  -0.00306152  1
  Sb  Sb81  1  0.34025289  0.00351908  0.66358159  1
  Sb  Sb82  1  -0.00420601  0.66466230  0.66436027  1
  Sb  Sb83  1  0.49696410  0.83109472  -0.00815531  1
  Sb  Sb84  1  0.32399677  0.33362144  -0.01012330  1
  Sb  Sb85  1  -0.00330829  0.49492981  0.82714236  1
  Sb  Sb86  1  0.66835356  -0.00139670  0.33932946  1
  Sb  Sb87  1  0.83197241  -0.00109933  0.16482320  1
  Sb  Sb88  1  0.82665999  0.17538943  0.66609575  1
  Sb  Sb89  1  0.50112184  -0.00527878  0.16833791  1
  Sb  Sb90  1  0.50001641  0.16708736  0.34449894  1
  Sb  Sb91  1  0.50588723  0.50247534  -0.01140254  1
  Sb  Sb92  1  0.33122107  -0.00124421  -0.00080158  1
  Sb  Sb93  1  0.50370144  0.33695949  0.16740468  1
  Sb  Sb94  1  0.17092647  0.16963646  0.66616131  1
  Sb  Sb95  1  0.66778362  -0.00019408  -0.00910582  1
  Sb  Sb96  1  -0.00019199  0.83514034  0.83318375  1
  Sb  Sb97  1  0.16392054  0.17096237  0.33577702  1
  Sb  Sb98  1  0.49715441  0.16870472  -0.00894438  1
  Sb  Sb99  1  0.83780144  0.82589137  0.00074429  1
  Sb  Sb100  1  0.67379452  0.33336325  -0.00683898  1
  Sb  Sb101  1  0.33015945  0.16658967  0.82561036  1
  Sb  Sb102  1  0.33375513  0.50313805  0.16189154  1
  Sb  Sb103  1  0.00130995  0.00284276  0.00076268  1
  Sb  Sb104  1  0.67437186  0.66695365  0.33964365  1
  Sb  Sb105  1  0.32841722  0.49500310  0.50752061  1
  Sb  Sb106  1  0.83517987  0.17033762  0.33476883  1
  Sb  Sb107  1  0.67441268  0.33370428  0.34215246  1
  Te  Te108  1  0.16780943  0.17259618  0.16150691  1
  Te  Te109  1  0.16455024  0.16604494  0.50044556  1
  Te  Te110  1  0.16533241  0.16794687  0.83254224  1
  Te  Te111  1  0.16894771  0.49375567  0.16440803  1
  Te  Te112  1  0.16698069  0.49746200  0.50316806  1
  Te  Te113  1  0.16788398  0.49681625  0.82872851  1
  Te  Te114  1  0.17205784  0.83302257  0.16599752  1
  Te  Te115  1  0.16765445  0.84086028  0.50439027  1
  Te  Te116  1  0.16655998  0.83288452  0.83098197  1
  Te  Te117  1  0.50443150  0.16661350  0.16516114  1
  Te  Te118  1  0.50188379  0.16771541  0.50457334  1
  Te  Te119  1  0.49924964  0.17014628  0.82796259  1
  Te  Te120  1  0.50092033  0.50618562  0.16780490  1
  Te  Te121  1  0.49756452  0.50208394  0.50686285  1
  Te  Te122  1  0.50093866  0.50083853  0.82910673  1
  Te  Te123  1  0.50004691  0.83001296  0.16671110  1
  Te  Te124  1  0.50004662  0.82766543  0.50501572  1
  Te  Te125  1  0.50048825  0.83150844  0.83199064  1
  Te  Te126  1  0.82846920  0.16877695  0.16515181  1
  Te  Te127  1  0.83673550  0.17101489  0.50052074  1
  Te  Te128  1  0.83835510  0.16569238  0.83278610  1
  Te  Te129  1  0.83243835  0.50066893  0.16503791  1
  Te  Te130  1  0.83426159  0.49936058  0.50240825  1
  Te  Te131  1  0.83501769  0.49909137  0.82864968  1
  Te  Te132  1  0.83047284  0.83123067  0.16875160  1
  Te  Te133  1  0.83232841  0.82937341  0.49566262  1
  Te  Te134  1  0.82939172  0.83483772  0.83302475  1
  Te  Te135  1  0.16558778  -0.00057879  -0.00183069  1
  Te  Te136  1  0.16544945  -0.00072563  0.33579765  1
  Te  Te137  1  0.16705159  0.00102040  0.66633560  1
  Te  Te138  1  0.16055202  0.33266024  -0.00313459  1
  Te  Te139  1  0.16163025  0.33713645  0.33532233  1
  Te  Te140  1  0.16648923  0.33367315  0.66596366  1
  Te  Te141  1  0.15842726  0.66965760  0.00051201  1
  Te  Te142  1  0.16071078  0.66262667  0.33881157  1
  Te  Te143  1  0.16621641  0.66546555  0.66171744  1
  Te  Te144  1  0.49935774  0.00094506  -0.00898585  1
  Te  Te145  1  0.49842321  -0.00067642  0.34098039  1
  Te  Te146  1  0.49941064  -0.00798207  0.66641423  1
  Te  Te147  1  0.49915639  0.33470307  -0.00346137  1
  Te  Te148  1  0.49925683  0.33558684  0.33765546  1
  Te  Te149  1  0.50135367  0.33573871  0.66718024  1
  Te  Te150  1  0.49912263  0.66623072  0.00650652  1
  Te  Te151  1  0.49977285  0.66595310  0.33061265  1
  Te  Te152  1  0.50171654  0.66875628  0.66825277  1
  Te  Te153  1  0.83541023  -0.00036203  -0.00869939  1
  Te  Te154  1  0.83704832  -0.00312657  0.33441051  1
  Te  Te155  1  0.82853641  -0.00323127  0.67128555  1
  Te  Te156  1  0.83819311  0.33808448  0.00027039  1
  Te  Te157  1  0.83847045  0.33672229  0.33245541  1
  Te  Te158  1  0.83066636  0.33856678  0.66552232  1
  Te  Te159  1  0.83793189  0.66278590  0.00011309  1
  Te  Te160  1  0.83551195  0.66401559  0.33553427  1
  Te  Te161  1  0.82938169  0.66402743  0.66652756  1
  Te  Te162  1  0.00537577  0.17066683  -0.00291133  1
  Te  Te163  1  0.00016626  0.16627266  0.33808888  1
  Te  Te164  1  -0.00291373  0.16506380  0.66604226  1
  Te  Te165  1  -0.00493469  0.49852716  -0.00098983  1
  Te  Te166  1  -0.00064922  0.49905579  0.33783352  1
  Te  Te167  1  0.00501747  0.50192075  0.65869550  1
  Te  Te168  1  0.00675206  0.83304571  0.00132467  1
  Te  Te169  1  -0.00411992  0.83440993  0.33220673  1
  Te  Te170  1  0.01166593  0.83259062  0.66714270  1
  Te  Te171  1  0.32563141  0.16617126  0.00331347  1
  Te  Te172  1  0.33303776  0.15909324  0.34039656  1
  Te  Te173  1  0.34014293  0.17403403  0.66095711  1
  Te  Te174  1  0.33372531  0.50044912  -0.00996541  1
  Te  Te175  1  0.32807264  0.50007661  0.33105032  1
  Te  Te176  1  0.32953169  0.49524289  0.67095010  1
  Te  Te177  1  0.32693367  0.83383225  -0.00207696  1
  Te  Te178  1  0.33325394  0.83724537  0.32964442  1
  Te  Te179  1  0.33346737  0.83345440  0.67131354  1
  Te  Te180  1  0.66577452  0.16639077  0.00732463  1
  Te  Te181  1  0.66715833  0.16550973  0.33311267  1
  Te  Te182  1  0.66217154  0.16362900  0.66416017  1
  Te  Te183  1  0.67495978  0.50000264  -0.01050667  1
  Te  Te184  1  0.67303529  0.49996093  0.33030232  1
  Te  Te185  1  0.66598377  0.50014756  0.66924265  1
  Te  Te186  1  0.66743641  0.83418032  0.00090843  1
  Te  Te187  1  0.67154051  0.83359624  0.32678950  1
  Te  Te188  1  0.66415326  0.83471509  0.67089769  1
  Te  Te189  1  -0.00052996  0.00264980  0.17561920  1
  Te  Te190  1  0.00213064  0.00084982  0.49746069  1
  Te  Te191  1  0.00427603  0.00505627  0.83384435  1
  Te  Te192  1  -0.00075684  0.33250366  0.16439461  1
  Te  Te193  1  -0.00026844  0.33384737  0.50055548  1
  Te  Te194  1  -0.00074654  0.33150228  0.83439520  1
  Te  Te195  1  -0.00552657  0.66589250  0.16832744  1
  Te  Te196  1  -0.00068566  0.66488885  0.49764739  1
  Te  Te197  1  -0.00593117  0.66661855  0.83744285  1
  Te  Te198  1  0.33515037  -0.00471879  0.17374267  1
  Te  Te199  1  0.33301407  0.00272555  0.49841469  1
  Te  Te200  1  0.32932638  -0.00351268  0.83327414  1
  Te  Te201  1  0.33285848  0.33328347  0.16698033  1
  Te  Te202  1  0.33465911  0.32900898  0.50363879  1
  Te  Te203  1  0.33269157  0.33394232  0.82857644  1
  Te  Te204  1  0.33200296  0.67185654  0.16671176  1
  Te  Te205  1  0.33207239  0.66783073  0.49916733  1
  Te  Te206  1  0.33526683  0.66862502  0.83385095  1
  Te  Te207  1  0.66625335  -0.00112596  0.16646006  1
  Te  Te208  1  0.66438217  0.00446457  0.50544546  1
  Te  Te209  1  0.66484876  0.00064976  0.82839044  1
  Te  Te210  1  0.67024755  0.33172048  0.16617142  1
  Te  Te211  1  0.66394229  0.33004060  0.50482485  1
  Te  Te212  1  0.67006303  0.33315983  0.82906351  1
  Te  Te213  1  0.67029264  0.66938706  0.16686271  1
  Te  Te214  1  0.66451012  0.66695632  0.50561599  1
  Te  Te215  1  0.66747896  0.66624294  0.83138791  1
