# generated using pymatgen
data_AgSbTe2
_symmetry_space_group_name_H-M   'P 1'
_cell_length_a   18.31904742
_cell_length_b   18.32399750
_cell_length_c   18.32127968
_cell_angle_alpha   90.00155929
_cell_angle_beta   89.99974824
_cell_angle_gamma   89.99726863
_symmetry_Int_Tables_number   1
_chemical_formula_structural   AgSbTe2
_chemical_formula_sum   'Ag54 Sb54 Te108'
_cell_volume   6150.05379471
_cell_formula_units_Z   54
loop_
 _symmetry_equiv_pos_site_id
 _symmetry_equiv_pos_as_xyz
  1  'x, y, z'
loop_
 _atom_site_type_symbol
 _atom_site_label
 _atom_site_symmetry_multiplicity
 _atom_site_fract_x
 _atom_site_fract_y
 _atom_site_fract_z
 _atom_site_occupancy
  Ag  Ag0  1  0.49511887  0.15954265  -0.00050289  1
  Ag  Ag1  1  0.33822541  0.00504135  -0.00387712  1
  Ag  Ag2  1  0.67172855  0.33067281  0.34186611  1
  Ag  Ag3  1  0.82324834  -0.00296322  0.49770323  1
  Ag  Ag4  1  0.66017909  0.00325019  0.65642259  1
  Ag  Ag5  1  0.66553065  0.32948531  0.65869028  1
  Ag  Ag6  1  0.49667982  0.84266330  -0.00391549  1
  Ag  Ag7  1  0.83222230  0.67365903  0.49726009  1
  Ag  Ag8  1  0.67000802  0.84143158  0.49773754  1
  Ag  Ag9  1  0.50526315  0.84322989  0.33716405  1
  Ag  Ag10  1  0.15783347  0.67815382  0.16919426  1
  Ag  Ag11  1  0.00316622  0.16907725  0.83500867  1
  Ag  Ag12  1  0.50740900  0.32566384  0.50188415  1
  Ag  Ag13  1  0.83600187  0.66381373  0.17621823  1
  Ag  Ag14  1  0.16917527  -0.00408453  0.17120161  1
  Ag  Ag15  1  0.49782502  -0.00033534  0.17407882  1
  Ag  Ag16  1  0.00003203  0.16161289  0.17389833  1
  Ag  Ag17  1  0.49634532  0.16153403  0.33462398  1
  Ag  Ag18  1  0.66286721  0.00102574  0.33823514  1
  Ag  Ag19  1  -0.00326274  0.32816684  0.33567825  1
  Ag  Ag20  1  0.83426228  0.16991092  0.66488214  1
  Ag  Ag21  1  0.16676619  0.33267318  0.49131542  1
  Ag  Ag22  1  0.33146064  0.32966129  0.33656068  1
  Ag  Ag23  1  0.66958088  0.49980000  0.17703046  1
  Ag  Ag24  1  -0.00065694  0.83325647  0.83183336  1
  Ag  Ag25  1  0.83325969  0.33796496  0.18124799  1
  Ag  Ag26  1  0.50115386  0.83914016  0.66688467  1
  Ag  Ag27  1  0.33526322  0.16766519  0.50107284  1
  Ag  Ag28  1  0.33871112  0.67228800  0.66764757  1
  Ag  Ag29  1  0.15665350  0.83785901  0.32889286  1
  Ag  Ag30  1  0.49798826  0.00042467  0.82731655  1
  Ag  Ag31  1  -0.00269000  0.49492603  0.82944680  1
  Ag  Ag32  1  0.66617065  0.66756423  -0.00070298  1
  Ag  Ag33  1  0.49931610  0.32740465  0.82534836  1
  Ag  Ag34  1  0.33540411  0.32391896  -0.00211413  1
  Ag  Ag35  1  -0.00247852  0.66919658  0.66999157  1
  Ag  Ag36  1  0.83461259  0.49653319  0.33481062  1
  Ag  Ag37  1  -0.00827648  0.83490009  0.49102607  1
  Ag  Ag38  1  0.83461533  0.66326413  0.82979703  1
  Ag  Ag39  1  0.83733854  0.83159933  0.33767247  1
  Ag  Ag40  1  -0.00240400  -0.00167871  0.33349055  1
  Ag  Ag41  1  0.50416649  0.00206987  0.49891166  1
  Ag  Ag42  1  0.16813791  0.16928108  0.33271267  1
  Ag  Ag43  1  0.66853301  0.49059459  0.49705287  1
  Ag  Ag44  1  0.34235606  -0.00029839  0.66957863  1
  Ag  Ag45  1  0.16461920  0.33087460  0.82987656  1
  Ag  Ag46  1  0.00257184  0.83704544  0.17453269  1
  Ag  Ag47  1  0.16893224  0.83441581  0.00944841  1
  Ag  Ag48  1  0.50155829  0.50012589  0.66696225  1
  Ag  Ag49  1  0.15727023  0.48710440  0.33333142  1
  Ag  Ag50  1  0.83494099  0.33587400  0.82888649  1
  Ag  Ag51  1  0.33479861  0.16747787  0.83037207  1
  Ag  Ag52  1  0.50386853  0.67276587  0.82883307  1
  Ag  Ag53  1  0.82467785  0.33223738  0.49625075  1
  Sb  Sb54  1  0.33630267  0.00492280  0.33425961  1
  Sb  Sb55  1  0.66280786  0.33623925  0.00021099  1
  Sb  Sb56  1  0.83182223  0.83198381  0.00407607  1
  Sb  Sb57  1  -0.00375655  0.50097441  0.16833062  1
  Sb  Sb58  1  0.33908567  0.49307499  0.50073806  1
  Sb  Sb59  1  0.33740484  0.66948220  -0.00459789  1
  Sb  Sb60  1  0.50338917  0.16288572  0.66434259  1
  Sb  Sb61  1  -0.00124862  -0.00333893  0.66201654  1
  Sb  Sb62  1  0.66195537  0.16535019  0.49901578  1
  Sb  Sb63  1  0.65782065  -0.00414123  0.00214886  1
  Sb  Sb64  1  0.82841844  0.49791311  0.66193095  1
  Sb  Sb65  1  -0.00224786  0.67012485  0.33574593  1
  Sb  Sb66  1  0.16966404  0.00326370  0.83792099  1
  Sb  Sb67  1  0.00224835  0.16517304  0.49708002  1
  Sb  Sb68  1  0.16130529  0.66388157  0.49575056  1
  Sb  Sb69  1  0.34040409  0.32843370  0.66438077  1
  Sb  Sb70  1  0.67020404  0.83120999  0.17353459  1
  Sb  Sb71  1  0.66631589  0.83264124  0.82867367  1
  Sb  Sb72  1  0.83431394  0.16801977  0.33911955  1
  Sb  Sb73  1  0.33202266  0.49322515  0.83149829  1
  Sb  Sb74  1  0.16848462  0.83311374  0.66464439  1
  Sb  Sb75  1  0.32765927  0.83571062  0.16712283  1
  Sb  Sb76  1  0.66232383  0.16733204  0.83131215  1
  Sb  Sb77  1  0.83406989  -0.00093539  0.17534934  1
  Sb  Sb78  1  0.33105635  0.66388223  0.33814674  1
  Sb  Sb79  1  0.67087044  0.16913175  0.16966978  1
  Sb  Sb80  1  0.16486496  0.66446691  0.83631494  1
  Sb  Sb81  1  0.66713066  0.66673435  0.66719041  1
  Sb  Sb82  1  0.33097741  0.16559674  0.16843568  1
  Sb  Sb83  1  0.33434326  0.83901312  0.83310172  1
  Sb  Sb84  1  0.16895840  0.00277025  0.49349193  1
  Sb  Sb85  1  0.33742653  0.49779167  0.16925316  1
  Sb  Sb86  1  -0.00586664  0.33529127  0.66464825  1
  Sb  Sb87  1  0.83216813  0.50042623  0.00384772  1
  Sb  Sb88  1  0.33637491  0.83920946  0.49964554  1
  Sb  Sb89  1  0.50450854  0.32799178  0.17068206  1
  Sb  Sb90  1  0.16643291  0.50266002  0.00488846  1
  Sb  Sb91  1  0.50520500  0.49626238  0.33854683  1
  Sb  Sb92  1  0.83020469  0.16818789  -0.00360979  1
  Sb  Sb93  1  0.82983526  -0.00013453  0.82547979  1
  Sb  Sb94  1  0.66915141  0.49938508  0.82928424  1
  Sb  Sb95  1  -0.00426253  0.66949854  -0.00264276  1
  Sb  Sb96  1  0.17249569  0.16362668  0.00433399  1
  Sb  Sb97  1  0.50334899  0.67440972  0.16246072  1
  Sb  Sb98  1  0.66927854  0.66702055  0.33340116  1
  Sb  Sb99  1  0.50174205  0.49893292  -0.00465140  1
  Sb  Sb100  1  -0.00648018  0.50162675  0.50105636  1
  Sb  Sb101  1  0.00482517  -0.00165403  0.00589947  1
  Sb  Sb102  1  0.16966792  0.49829509  0.66193869  1
  Sb  Sb103  1  0.82951243  0.83406185  0.65897360  1
  Sb  Sb104  1  0.16198398  0.33094413  0.17096813  1
  Sb  Sb105  1  0.00389473  0.33143336  0.00019717  1
  Sb  Sb106  1  0.50516086  0.66973958  0.50466596  1
  Sb  Sb107  1  0.16385636  0.16772402  0.66370597  1
  Te  Te108  1  0.16057870  0.16318155  0.17129481  1
  Te  Te109  1  0.17119836  0.17120975  0.49520662  1
  Te  Te110  1  0.16736704  0.17064973  0.83499520  1
  Te  Te111  1  0.16634441  0.50229716  0.17323782  1
  Te  Te112  1  0.16677509  0.49508920  0.49354604  1
  Te  Te113  1  0.16181258  0.49477183  0.83393805  1
  Te  Te114  1  0.16378661  0.83511810  0.16794754  1
  Te  Te115  1  0.16349210  0.83299244  0.49505890  1
  Te  Te116  1  0.16216663  0.83386165  0.83406821  1
  Te  Te117  1  0.50045900  0.16136471  0.16939124  1
  Te  Te118  1  0.49565812  0.16687831  0.49823038  1
  Te  Te119  1  0.49703189  0.16714420  0.83269022  1
  Te  Te120  1  0.50743405  0.50264955  0.16725767  1
  Te  Te121  1  0.50649173  0.49909155  0.50477742  1
  Te  Te122  1  0.50040884  0.49819415  0.82831200  1
  Te  Te123  1  0.50122857  0.83856540  0.16866026  1
  Te  Te124  1  0.50213841  0.83619515  0.49935580  1
  Te  Te125  1  0.49982308  0.83393999  0.83172764  1
  Te  Te126  1  0.84071001  0.17063901  0.16429706  1
  Te  Te127  1  0.83718893  0.17048327  0.50434129  1
  Te  Te128  1  0.83566870  0.16809452  0.82964823  1
  Te  Te129  1  0.83131185  0.50068362  0.17059143  1
  Te  Te130  1  0.82944749  0.49504354  0.49578275  1
  Te  Te131  1  0.83602516  0.50134648  0.83245016  1
  Te  Te132  1  0.83907836  0.83021774  0.17181670  1
  Te  Te133  1  0.83204795  0.83396774  0.49794765  1
  Te  Te134  1  0.83738116  0.83073585  0.83488083  1
  Te  Te135  1  0.17224402  -0.00481919  0.00554809  1
  Te  Te136  1  0.16832977  -0.00028709  0.33003201  1
  Te  Te137  1  0.17287242  -0.00035014  0.66588988  1
  Te  Te138  1  0.17256219  0.33399634  -0.00291718  1
  Te  Te139  1  0.16512166  0.33050610  0.33207712  1
  Te  Te140  1  0.16727088  0.33404910  0.66917941  1
  Te  Te141  1  0.16832250  0.67168412  0.00584379  1
  Te  Te142  1  0.16615367  0.67275270  0.32864115  1
  Te  Te143  1  0.16610442  0.66543261  0.66609141  1
  Te  Te144  1  0.49808496  -0.00044127  -0.00298758  1
  Te  Te145  1  0.49823991  0.00089201  0.33537487  1
  Te  Te146  1  0.50208339  0.00048537  0.66578080  1
  Te  Te147  1  0.49599470  0.33120296  -0.00031946  1
  Te  Te148  1  0.50136569  0.33233426  0.33622815  1
  Te  Te149  1  0.50373045  0.33194192  0.66484393  1
  Te  Te150  1  0.50227095  0.66954725  -0.00648725  1
  Te  Te151  1  0.49834611  0.67239651  0.33292103  1
  Te  Te152  1  0.49986036  0.66943105  0.66966507  1
  Te  Te153  1  0.82992286  0.00073231  -0.00046209  1
  Te  Te154  1  0.83321716  0.00037972  0.33822772  1
  Te  Te155  1  0.83036854  0.00339613  0.65889539  1
  Te  Te156  1  0.83238588  0.33316680  -0.01034389  1
  Te  Te157  1  0.83249355  0.33074801  0.33617339  1
  Te  Te158  1  0.82920559  0.33303489  0.66825667  1
  Te  Te159  1  0.82846064  0.66710003  -0.00434177  1
  Te  Te160  1  0.83339107  0.66657821  0.33494283  1
  Te  Te161  1  0.83550409  0.66591739  0.66823507  1
  Te  Te162  1  0.00077756  0.16493472  -0.00461018  1
  Te  Te163  1  0.00104512  0.16687197  0.33270835  1
  Te  Te164  1  -0.00353927  0.16537457  0.67235805  1
  Te  Te165  1  0.00074509  0.50011238  -0.00972375  1
  Te  Te166  1  -0.00267376  0.49529976  0.33362565  1
  Te  Te167  1  0.00110543  0.50578484  0.67045103  1
  Te  Te168  1  0.00330274  0.83460908  -0.00111880  1
  Te  Te169  1  -0.00208101  0.83374116  0.33423336  1
  Te  Te170  1  0.00015460  0.83058080  0.66927490  1
  Te  Te171  1  0.33693448  0.16616662  -0.00059417  1
  Te  Te172  1  0.33382442  0.17022314  0.33437052  1
  Te  Te173  1  0.33083545  0.16190278  0.66799078  1
  Te  Te174  1  0.33323129  0.49276130  0.00065943  1
  Te  Te175  1  0.33042734  0.49352568  0.33414751  1
  Te  Te176  1  0.33953906  0.50654171  0.66643070  1
  Te  Te177  1  0.33495643  0.83701394  -0.00026523  1
  Te  Te178  1  0.33540007  0.83214458  0.33422229  1
  Te  Te179  1  0.33768181  0.83522053  0.66654422  1
  Te  Te180  1  0.65657994  0.16614901  0.00137730  1
  Te  Te181  1  0.66131365  0.16714534  0.33198198  1
  Te  Te182  1  0.67370555  0.16700471  0.66755883  1
  Te  Te183  1  0.66600708  0.50562052  0.00531563  1
  Te  Te184  1  0.67006127  0.49841967  0.33593365  1
  Te  Te185  1  0.66168743  0.49534307  0.66204594  1
  Te  Te186  1  0.66184562  0.82856912  0.00106373  1
  Te  Te187  1  0.66691611  0.83516607  0.33775131  1
  Te  Te188  1  0.66223751  0.83779926  0.66095068  1
  Te  Te189  1  0.00094801  -0.00027049  0.17195670  1
  Te  Te190  1  -0.00013825  -0.00415383  0.49484845  1
  Te  Te191  1  -0.00031823  -0.00002560  0.83267851  1
  Te  Te192  1  -0.00590878  0.33266172  0.16821628  1
  Te  Te193  1  0.00307564  0.33371390  0.49703000  1
  Te  Te194  1  -0.00141347  0.33089444  0.83248842  1
  Te  Te195  1  -0.00313656  0.66891067  0.16551605  1
  Te  Te196  1  -0.00567120  0.67068576  0.50489535  1
  Te  Te197  1  -0.00060574  0.67077859  0.83139795  1
  Te  Te198  1  0.33541220  0.00054889  0.16196796  1
  Te  Te199  1  0.33786968  0.00556618  0.50394485  1
  Te  Te200  1  0.33616411  0.00469787  0.83290838  1
  Te  Te201  1  0.33478586  0.33300355  0.16798900  1
  Te  Te202  1  0.33191100  0.32865514  0.49770083  1
  Te  Te203  1  0.33698260  0.32875992  0.83176752  1
  Te  Te204  1  0.32909201  0.66463864  0.16555807  1
  Te  Te205  1  0.33219910  0.66585343  0.50692980  1
  Te  Te206  1  0.33564137  0.66571697  0.82868312  1
  Te  Te207  1  0.66263234  0.00004504  0.17300593  1
  Te  Te208  1  0.66536159  0.00101368  0.49767515  1
  Te  Te209  1  0.66055707  -0.00074988  0.82954530  1
  Te  Te210  1  0.67288358  0.33752861  0.16784909  1
  Te  Te211  1  0.66614621  0.33079309  0.49886284  1
  Te  Te212  1  0.66629513  0.33433000  0.83260658  1
  Te  Te213  1  0.67183011  0.66336667  0.16413530  1
  Te  Te214  1  0.67304331  0.66749420  0.50089189  1
  Te  Te215  1  0.66786285  0.66595431  0.83512640  1
