# generated using pymatgen
data_AgSbTe2
_symmetry_space_group_name_H-M   'P 1'
_cell_length_a   18.31745781
_cell_length_b   18.32571621
_cell_length_c   18.32238808
_cell_angle_alpha   90.00119337
_cell_angle_beta   90.00002723
_cell_angle_gamma   89.99862294
_symmetry_Int_Tables_number   1
_chemical_formula_structural   AgSbTe2
_chemical_formula_sum   'Ag54 Sb54 Te108'
_cell_volume   6150.46900334
_cell_formula_units_Z   54
loop_
 _symmetry_equiv_pos_site_id
 _symmetry_equiv_pos_as_xyz
  1  'x, y, z'
loop_
 _atom_site_type_symbol
 _atom_site_label
 _atom_site_symmetry_multiplicity
 _atom_site_fract_x
 _atom_site_fract_y
 _atom_site_fract_z
 _atom_site_occupancy
  Ag  Ag0  1  0.66686913  0.32812722  0.33008115  1
  Ag  Ag1  1  0.33282691  0.50222006  0.83282088  1
  Ag  Ag2  1  0.66493089  0.50241709  0.49533498  1
  Ag  Ag3  1  0.66980971  0.16326300  0.16891791  1
  Ag  Ag4  1  0.83246311  0.66761734  0.83583040  1
  Ag  Ag5  1  0.49713038  0.32325376  0.83121225  1
  Ag  Ag6  1  0.00624314  0.50182131  0.83200439  1
  Ag  Ag7  1  0.16965297  -0.00415137  0.50337256  1
  Ag  Ag8  1  0.17155868  0.32951263  0.49523931  1
  Ag  Ag9  1  0.82620585  0.83331932  0.32779732  1
  Ag  Ag10  1  0.33018804  0.82949049  0.49973411  1
  Ag  Ag11  1  0.49408124  0.67051126  0.49793565  1
  Ag  Ag12  1  0.66274014  0.67347879  0.00835726  1
  Ag  Ag13  1  0.66492786  0.00315849  0.66006235  1
  Ag  Ag14  1  0.16825552  0.33408277  0.17093713  1
  Ag  Ag15  1  0.66639905  0.67901015  0.33267388  1
  Ag  Ag16  1  0.51300172  0.83174815  0.33712941  1
  Ag  Ag17  1  0.66960133  -0.00697225  0.33471181  1
  Ag  Ag18  1  -0.00210223  0.16525237  0.49850485  1
  Ag  Ag19  1  0.67187049  0.83712977  0.17490755  1
  Ag  Ag20  1  0.33103572  0.50193389  0.16702830  1
  Ag  Ag21  1  0.82193566  0.16218683  0.00282190  1
  Ag  Ag22  1  0.49762023  0.49492636  0.66649953  1
  Ag  Ag23  1  0.17116013  0.83986059  0.65629955  1
  Ag  Ag24  1  0.16597958  0.83034999  0.33386513  1
  Ag  Ag25  1  0.49727490  0.16807187  0.67282121  1
  Ag  Ag26  1  -0.00582774  -0.00737142  0.33480598  1
  Ag  Ag27  1  0.33345786  0.66811088  0.66213436  1
  Ag  Ag28  1  0.82803568  0.50597163  0.33265852  1
  Ag  Ag29  1  0.82724713  0.83587799  0.00912394  1
  Ag  Ag30  1  0.33030065  0.83835352  0.83264980  1
  Ag  Ag31  1  0.65995212  0.83520024  0.48809154  1
  Ag  Ag32  1  0.17086567  0.67090133  0.17291608  1
  Ag  Ag33  1  0.66231768  0.00292753  0.00245522  1
  Ag  Ag34  1  0.49262715  0.00480871  0.83471369  1
  Ag  Ag35  1  0.82442067  0.16620440  0.66322651  1
  Ag  Ag36  1  -0.00263107  0.83172211  0.17168682  1
  Ag  Ag37  1  0.33403605  -0.00335231  -0.00577083  1
  Ag  Ag38  1  0.33362457  0.33752253  0.33704211  1
  Ag  Ag39  1  0.66609764  0.31868179  0.00945126  1
  Ag  Ag40  1  0.17375022  -0.00069397  0.83127646  1
  Ag  Ag41  1  0.17438105  0.16054623  0.66608545  1
  Ag  Ag42  1  0.33481803  0.33403783  0.66510635  1
  Ag  Ag43  1  0.17360704  0.83799115  0.00264376  1
  Ag  Ag44  1  0.00470805  0.67594422  0.33338963  1
  Ag  Ag45  1  0.50389015  0.16365828  -0.00704277  1
  Ag  Ag46  1  0.82736500  0.16479888  0.33257766  1
  Ag  Ag47  1  0.17483070  0.67741839  0.49304396  1
  Ag  Ag48  1  0.33614047  0.16027092  0.83360485  1
  Ag  Ag49  1  0.66946716  0.16303898  0.49214728  1
  Ag  Ag50  1  0.17311302  0.15924339  -0.00465770  1
  Ag  Ag51  1  0.33534306  0.67265458  -0.00213289  1
  Ag  Ag52  1  0.82779171  0.33080415  0.17026400  1
  Ag  Ag53  1  0.33124678  0.66907488  0.33770831  1
  Sb  Sb54  1  0.50005419  0.83720856  0.00376441  1
  Sb  Sb55  1  0.17477720  0.49992304  0.66646597  1
  Sb  Sb56  1  0.83025316  0.00164580  0.16833867  1
  Sb  Sb57  1  -0.00045885  0.33254186  0.33307554  1
  Sb  Sb58  1  0.16711899  -0.00275429  0.16687102  1
  Sb  Sb59  1  0.00117782  0.00207871  0.66074924  1
  Sb  Sb60  1  0.33401290  0.16301569  0.50476718  1
  Sb  Sb61  1  0.66140235  0.83485885  0.83500398  1
  Sb  Sb62  1  0.49690553  0.33533942  0.50260022  1
  Sb  Sb63  1  0.00767573  0.33198344  0.66542247  1
  Sb  Sb64  1  0.66017284  0.32581232  0.66425355  1
  Sb  Sb65  1  0.66124252  0.67118749  0.66166240  1
  Sb  Sb66  1  0.82660142  0.33373253  0.83790164  1
  Sb  Sb67  1  0.49927188  -0.00333623  0.50510709  1
  Sb  Sb68  1  0.00561580  0.83092066  0.83899970  1
  Sb  Sb69  1  0.17548912  0.32767519  0.83344500  1
  Sb  Sb70  1  0.83327661  -0.00187846  0.83516110  1
  Sb  Sb71  1  0.66180108  0.50113438  0.82988047  1
  Sb  Sb72  1  0.16894255  0.67227055  0.83415238  1
  Sb  Sb73  1  0.00211695  0.66953829  0.00445437  1
  Sb  Sb74  1  0.33519070  0.17080672  0.16193994  1
  Sb  Sb75  1  0.83244416  0.00094448  0.49637256  1
  Sb  Sb76  1  0.83249799  0.32875288  0.49481829  1
  Sb  Sb77  1  0.00556313  0.83829036  0.49129320  1
  Sb  Sb78  1  0.82678845  0.49594204  0.66390853  1
  Sb  Sb79  1  0.83058822  0.50155965  0.00415024  1
  Sb  Sb80  1  0.50276655  -0.00026566  0.16200120  1
  Sb  Sb81  1  0.83279446  0.66867597  0.49784541  1
  Sb  Sb82  1  -0.00449653  0.16281754  0.17108919  1
  Sb  Sb83  1  0.49939663  0.49664942  -0.00569675  1
  Sb  Sb84  1  0.83410698  0.66722198  0.16767002  1
  Sb  Sb85  1  0.66315865  0.50064854  0.17243419  1
  Sb  Sb86  1  0.49595758  0.66780697  0.17197540  1
  Sb  Sb87  1  -0.00246059  0.49721171  0.49978740  1
  Sb  Sb88  1  0.33696481  0.33192523  -0.00094237  1
  Sb  Sb89  1  0.33213699  0.82785962  0.16777413  1
  Sb  Sb90  1  0.00561427  0.16850156  0.82960002  1
  Sb  Sb91  1  0.16650566  0.50580057  0.33403477  1
  Sb  Sb92  1  0.50276848  0.50477271  0.33849175  1
  Sb  Sb93  1  0.65943800  0.16511896  0.83625899  1
  Sb  Sb94  1  0.00019768  -0.00100068  0.00460100  1
  Sb  Sb95  1  0.16963935  0.50137157  0.00032570  1
  Sb  Sb96  1  0.49830322  0.66910459  0.83039506  1
  Sb  Sb97  1  0.33688585  0.50696781  0.50094784  1
  Sb  Sb98  1  -0.00262479  0.33124220  0.00107483  1
  Sb  Sb99  1  0.00285829  0.50419855  0.16647427  1
  Sb  Sb100  1  0.00747506  0.66827488  0.66179312  1
  Sb  Sb101  1  0.33453230  -0.00043478  0.67335765  1
  Sb  Sb102  1  0.33486534  -0.00364984  0.32998766  1
  Sb  Sb103  1  0.83429374  0.83678630  0.66488616  1
  Sb  Sb104  1  0.50604370  0.16294854  0.33490351  1
  Sb  Sb105  1  0.49382827  0.83586951  0.66285239  1
  Sb  Sb106  1  0.16370613  0.16385759  0.33570147  1
  Sb  Sb107  1  0.50108371  0.33244833  0.16511667  1
  Te  Te108  1  0.16554418  0.16998473  0.16433669  1
  Te  Te109  1  0.16857489  0.16665434  0.50148416  1
  Te  Te110  1  0.17047349  0.16225459  0.83338286  1
  Te  Te111  1  0.17006576  0.49865039  0.16709935  1
  Te  Te112  1  0.16467234  0.49353056  0.50159588  1
  Te  Te113  1  0.16977812  0.49978682  0.83254142  1
  Te  Te114  1  0.16591922  0.83137620  0.16512383  1
  Te  Te115  1  0.16691199  0.83431003  0.49851602  1
  Te  Te116  1  0.17020456  0.83741791  0.84061728  1
  Te  Te117  1  0.50721551  0.16700770  0.16124863  1
  Te  Te118  1  0.50431374  0.16578074  0.50532280  1
  Te  Te119  1  0.49675885  0.16473943  0.83337707  1
  Te  Te120  1  0.49093610  0.50001129  0.16597515  1
  Te  Te121  1  0.50448351  0.50468148  0.50515975  1
  Te  Te122  1  0.49387575  0.50013704  0.82730530  1
  Te  Te123  1  0.50868271  0.83327383  0.17479514  1
  Te  Te124  1  0.49861167  0.83090466  0.49739123  1
  Te  Te125  1  0.49134580  0.83828941  0.83292330  1
  Te  Te126  1  0.83135870  0.17061757  0.16501197  1
  Te  Te127  1  0.83137815  0.16624843  0.49981452  1
  Te  Te128  1  0.83722442  0.16706881  0.83683903  1
  Te  Te129  1  0.83455693  0.49374860  0.17207803  1
  Te  Te130  1  0.82798206  0.49834456  0.49510292  1
  Te  Te131  1  0.83241222  0.50288750  0.83313287  1
  Te  Te132  1  0.83208283  0.83109325  0.16675250  1
  Te  Te133  1  0.82744875  0.83366750  0.49713769  1
  Te  Te134  1  0.83625967  0.82969759  0.83399794  1
  Te  Te135  1  0.16655717  -0.00096623  0.00016078  1
  Te  Te136  1  0.16785007  -0.00423785  0.33602662  1
  Te  Te137  1  0.16660724  0.00019552  0.66574596  1
  Te  Te138  1  0.16705249  0.32862824  0.00329738  1
  Te  Te139  1  0.16845456  0.33273595  0.33257535  1
  Te  Te140  1  0.17459509  0.32878175  0.66535564  1
  Te  Te141  1  0.17052872  0.67035043  0.00307406  1
  Te  Te142  1  0.16967863  0.66698017  0.33353264  1
  Te  Te143  1  0.17278639  0.67012050  0.66275499  1
  Te  Te144  1  0.50092621  0.00243754  -0.00424435  1
  Te  Te145  1  0.50442073  -0.00543747  0.33404999  1
  Te  Te146  1  0.50446120  0.00417021  0.67204979  1
  Te  Te147  1  0.50511414  0.32943120  -0.00377556  1
  Te  Te148  1  0.49846937  0.33349880  0.33374655  1
  Te  Te149  1  0.49526017  0.33050592  0.66917703  1
  Te  Te150  1  0.49946897  0.66681556  -0.00037244  1
  Te  Te151  1  0.50102754  0.66997671  0.33773999  1
  Te  Te152  1  0.49482778  0.66609146  0.66237104  1
  Te  Te153  1  0.83002985  -0.00100412  -0.00064896  1
  Te  Te154  1  0.83122920  0.00019158  0.33364693  1
  Te  Te155  1  0.82890749  0.00626525  0.66786651  1
  Te  Te156  1  0.82768253  0.33013842  0.00519950  1
  Te  Te157  1  0.83252661  0.32672937  0.33062094  1
  Te  Te158  1  0.83329259  0.32648448  0.66798666  1
  Te  Te159  1  0.83188374  0.66964012  -0.00081356  1
  Te  Te160  1  0.82725841  0.66951023  0.33300090  1
  Te  Te161  1  0.83373057  0.66617669  0.67211121  1
  Te  Te162  1  0.00096708  0.16535388  0.00049336  1
  Te  Te163  1  -0.00496859  0.16366304  0.33774371  1
  Te  Te164  1  0.00226908  0.16708987  0.66113667  1
  Te  Te165  1  -0.00016981  0.50049756  -0.00667985  1
  Te  Te166  1  -0.00875352  0.50496063  0.33368370  1
  Te  Te167  1  -0.00313692  0.49988269  0.67118978  1
  Te  Te168  1  -0.00443889  0.83369251  0.00706876  1
  Te  Te169  1  0.00246609  0.83319236  0.33208282  1
  Te  Te170  1  0.00729562  0.83386937  0.66656772  1
  Te  Te171  1  0.33210277  0.16509318  -0.00314311  1
  Te  Te172  1  0.33616498  0.16955228  0.33181921  1
  Te  Te173  1  0.33363190  0.16732419  0.66999273  1
  Te  Te174  1  0.33347417  0.50495765  -0.00248677  1
  Te  Te175  1  0.33406974  0.49964341  0.33251503  1
  Te  Te176  1  0.33741072  0.50016127  0.66796680  1
  Te  Te177  1  0.33340951  0.83327316  0.00120856  1
  Te  Te178  1  0.32556851  0.83158176  0.33393053  1
  Te  Te179  1  0.32953493  0.83179343  0.66578983  1
  Te  Te180  1  0.66472249  0.16383860  0.00048701  1
  Te  Te181  1  0.66706499  0.16869673  0.33138108  1
  Te  Te182  1  0.66574025  0.16334423  0.66662620  1
  Te  Te183  1  0.66604913  0.50943689  0.00031151  1
  Te  Te184  1  0.66845732  0.49337220  0.33581766  1
  Te  Te185  1  0.66041412  0.49913065  0.65982547  1
  Te  Te186  1  0.66744939  0.83258719  -0.00031676  1
  Te  Te187  1  0.66901635  0.83599746  0.33234872  1
  Te  Te188  1  0.66730955  0.84097338  0.66465563  1
  Te  Te189  1  -0.00010736  -0.00637240  0.17502005  1
  Te  Te190  1  0.00680733  0.00505000  0.49447039  1
  Te  Te191  1  0.00744879  0.00013277  0.83247005  1
  Te  Te192  1  0.00581243  0.33476845  0.16668850  1
  Te  Te193  1  0.00808273  0.32784388  0.49963770  1
  Te  Te194  1  -0.00048052  0.34021745  0.83315263  1
  Te  Te195  1  0.00615533  0.66988004  0.17236681  1
  Te  Te196  1  0.00478484  0.66508745  0.49368397  1
  Te  Te197  1  -0.00225223  0.66296538  0.83225919  1
  Te  Te198  1  0.33487507  0.00079362  0.15641864  1
  Te  Te199  1  0.32936099  -0.00711796  0.49831793  1
  Te  Te200  1  0.33217059  -0.00050983  0.83592957  1
  Te  Te201  1  0.33037688  0.33777126  0.16917916  1
  Te  Te202  1  0.33095857  0.33292548  0.49863381  1
  Te  Te203  1  0.33779523  0.33543438  0.83140754  1
  Te  Te204  1  0.33029836  0.66365531  0.16632896  1
  Te  Te205  1  0.33311536  0.66821576  0.49883029  1
  Te  Te206  1  0.33323194  0.66683660  0.83531860  1
  Te  Te207  1  0.66688889  0.00111526  0.16606748  1
  Te  Te208  1  0.66533509  0.00118367  0.49807263  1
  Te  Te209  1  0.66561766  -0.00104105  0.83794829  1
  Te  Te210  1  0.66748653  0.33392710  0.16789432  1
  Te  Te211  1  0.66525313  0.32910411  0.49589044  1
  Te  Te212  1  0.65905849  0.33581350  0.83765766  1
  Te  Te213  1  0.66631697  0.66830734  0.16847093  1
  Te  Te214  1  0.66645911  0.66944794  0.49688674  1
  Te  Te215  1  0.66943058  0.66733923  0.83328286  1
