# generated using pymatgen
data_AgSbTe2
_symmetry_space_group_name_H-M   'P 1'
_cell_length_a   18.34418441
_cell_length_b   18.33878910
_cell_length_c   18.33911799
_cell_angle_alpha   90.00345380
_cell_angle_beta   89.99749109
_cell_angle_gamma   90.00338111
_symmetry_Int_Tables_number   1
_chemical_formula_structural   AgSbTe2
_chemical_formula_sum   'Ag54 Sb54 Te108'
_cell_volume   6169.46502511
_cell_formula_units_Z   54
loop_
 _symmetry_equiv_pos_site_id
 _symmetry_equiv_pos_as_xyz
  1  'x, y, z'
loop_
 _atom_site_type_symbol
 _atom_site_label
 _atom_site_symmetry_multiplicity
 _atom_site_fract_x
 _atom_site_fract_y
 _atom_site_fract_z
 _atom_site_occupancy
  Ag  Ag0  1  0.84188328  0.83683189  0.33181834  1
  Ag  Ag1  1  0.33773078  0.32773192  0.00655559  1
  Ag  Ag2  1  0.17793193  0.67062376  0.82892490  1
  Ag  Ag3  1  0.50514086  0.00439182  0.16293633  1
  Ag  Ag4  1  0.65516634  0.32968878  0.32611902  1
  Ag  Ag5  1  0.82353537  0.31918247  0.83525667  1
  Ag  Ag6  1  0.49349400  0.83180711  0.66636988  1
  Ag  Ag7  1  0.49874602  0.48388031  -0.00631192  1
  Ag  Ag8  1  0.17320762  0.16324156  0.00848868  1
  Ag  Ag9  1  0.17004647  0.67847402  0.49850254  1
  Ag  Ag10  1  0.33042679  0.67296245  0.33715277  1
  Ag  Ag11  1  0.33869139  0.16231436  0.84440111  1
  Ag  Ag12  1  0.83030546  0.00203272  0.83840548  1
  Ag  Ag13  1  0.16794288  0.84426485  0.00520342  1
  Ag  Ag14  1  0.84396524  -0.00000946  0.49305839  1
  Ag  Ag15  1  0.50209392  0.32474365  0.83978738  1
  Ag  Ag16  1  0.33142028  0.83957914  0.50231147  1
  Ag  Ag17  1  0.82888218  0.00096444  0.16325466  1
  Ag  Ag18  1  0.49456516  0.66991018  0.83159875  1
  Ag  Ag19  1  0.01142308  0.15538546  0.49068439  1
  Ag  Ag20  1  0.66379086  0.49765692  0.50077905  1
  Ag  Ag21  1  0.33734586  0.32125716  0.32697412  1
  Ag  Ag22  1  0.83237855  0.67129488  0.83584764  1
  Ag  Ag23  1  0.33113865  0.16001707  0.49245534  1
  Ag  Ag24  1  0.17737178  0.50519557  0.66651476  1
  Ag  Ag25  1  0.66816277  0.84728181  0.16833638  1
  Ag  Ag26  1  0.33273695  0.67238314  0.66513006  1
  Ag  Ag27  1  0.15842659  -0.00461233  0.49809354  1
  Ag  Ag28  1  0.33626441  0.83754757  0.82442809  1
  Ag  Ag29  1  0.49898767  0.33221789  0.50078558  1
  Ag  Ag30  1  0.49795544  0.50382989  0.67167719  1
  Ag  Ag31  1  0.33249847  -0.00555567  0.66638811  1
  Ag  Ag32  1  0.17404837  0.32561504  0.16655872  1
  Ag  Ag33  1  0.65839414  0.16461630  0.15662413  1
  Ag  Ag34  1  -0.00045877  -0.00215452  0.33931591  1
  Ag  Ag35  1  0.50151909  0.16697408  0.00424692  1
  Ag  Ag36  1  0.01538249  0.84505812  0.49595674  1
  Ag  Ag37  1  0.83383832  0.67609784  0.16565872  1
  Ag  Ag38  1  0.81739514  0.16239921  0.00004276  1
  Ag  Ag39  1  0.49289151  0.16389899  0.32336985  1
  Ag  Ag40  1  0.33368592  0.16791803  0.16644832  1
  Ag  Ag41  1  0.00609953  0.16283076  0.16831779  1
  Ag  Ag42  1  0.17464998  0.16244455  0.32829562  1
  Ag  Ag43  1  0.83101131  0.50216658  0.66881138  1
  Ag  Ag44  1  0.49303008  0.84140114  0.33579113  1
  Ag  Ag45  1  0.65522046  0.16576418  0.84345754  1
  Ag  Ag46  1  0.00934776  0.67941249  0.33445422  1
  Ag  Ag47  1  0.00472478  -0.00081217  0.65283092  1
  Ag  Ag48  1  0.65524636  0.32007295  0.00329936  1
  Ag  Ag49  1  0.16658947  0.83937057  0.33616496  1
  Ag  Ag50  1  0.66923829  0.00803327  0.00383414  1
  Ag  Ag51  1  0.33494108  0.48547692  0.16788947  1
  Ag  Ag52  1  0.49923955  0.00730754  0.83712430  1
  Ag  Ag53  1  -0.00454531  0.00309214  0.00303527  1
  Sb  Sb54  1  0.66422064  -0.00035024  0.67195270  1
  Sb  Sb55  1  0.83461306  0.32676654  0.16263730  1
  Sb  Sb56  1  0.83659949  0.84250692  0.00338226  1
  Sb  Sb57  1  0.66022882  0.66563089  0.66807990  1
  Sb  Sb58  1  0.49711078  0.16538994  0.67010590  1
  Sb  Sb59  1  0.82853756  0.83285710  0.66422615  1
  Sb  Sb60  1  0.83119734  0.50530776  0.33587414  1
  Sb  Sb61  1  0.00058127  0.32398957  0.00023413  1
  Sb  Sb62  1  0.49309880  0.66482262  0.50261693  1
  Sb  Sb63  1  0.83477878  0.16550502  0.67244774  1
  Sb  Sb64  1  0.49897762  0.00315676  0.49991917  1
  Sb  Sb65  1  0.16934326  0.50074672  0.33735181  1
  Sb  Sb66  1  0.17315369  0.49758609  -0.00247933  1
  Sb  Sb67  1  0.66656492  0.66796746  -0.00080169  1
  Sb  Sb68  1  -0.00119928  0.50152302  0.83227023  1
  Sb  Sb69  1  0.66377824  0.33351810  0.67085982  1
  Sb  Sb70  1  0.00594008  0.67217613  0.66338882  1
  Sb  Sb71  1  0.00008863  0.32788027  0.66641294  1
  Sb  Sb72  1  -0.00183349  0.50056768  0.50124789  1
  Sb  Sb73  1  0.33583821  0.33271227  0.66697403  1
  Sb  Sb74  1  0.33533100  0.83983893  0.16896960  1
  Sb  Sb75  1  0.17053937  -0.00358340  0.83090804  1
  Sb  Sb76  1  0.49537305  0.84022424  -0.00079925  1
  Sb  Sb77  1  0.16640623  0.00486213  0.16975840  1
  Sb  Sb78  1  -0.00007019  0.67642514  0.00417007  1
  Sb  Sb79  1  0.00353895  0.49622849  0.16750871  1
  Sb  Sb80  1  0.00314698  0.16231685  0.83701331  1
  Sb  Sb81  1  -0.00344288  0.84361136  0.17503539  1
  Sb  Sb82  1  0.83290737  0.16069452  0.32769440  1
  Sb  Sb83  1  0.82768820  0.32813512  0.50344053  1
  Sb  Sb84  1  0.16482602  0.66638773  0.16929780  1
  Sb  Sb85  1  0.66201916  0.83208034  0.49315556  1
  Sb  Sb86  1  0.00316298  0.32518414  0.33338487  1
  Sb  Sb87  1  0.00487384  0.83645009  0.82758941  1
  Sb  Sb88  1  0.49680507  0.49527522  0.33208080  1
  Sb  Sb89  1  0.82671508  0.49437686  -0.00402957  1
  Sb  Sb90  1  0.66077792  0.49412393  0.16851991  1
  Sb  Sb91  1  0.66336547  0.16793446  0.49684105  1
  Sb  Sb92  1  0.33801788  0.50035133  0.83468192  1
  Sb  Sb93  1  0.66134402  0.83961103  0.83945293  1
  Sb  Sb94  1  0.66401023  0.49435018  0.83105610  1
  Sb  Sb95  1  0.33473846  0.00697998  -0.00330377  1
  Sb  Sb96  1  0.33356766  0.66492580  -0.00004539  1
  Sb  Sb97  1  0.49371794  0.32487446  0.16373652  1
  Sb  Sb98  1  0.83872372  0.67200569  0.49957113  1
  Sb  Sb99  1  0.50200698  0.67267501  0.16357674  1
  Sb  Sb100  1  0.16941397  0.16713467  0.66517361  1
  Sb  Sb101  1  0.17372722  0.32877772  0.49540035  1
  Sb  Sb102  1  0.17204784  0.33404824  0.83748695  1
  Sb  Sb103  1  0.17384367  0.83158090  0.66206599  1
  Sb  Sb104  1  0.33632141  0.50034780  0.49818188  1
  Sb  Sb105  1  0.66235575  0.66587112  0.33275215  1
  Sb  Sb106  1  0.32872444  0.00117851  0.33832302  1
  Sb  Sb107  1  0.66893309  0.00364989  0.32707406  1
  Te  Te108  1  0.16954927  0.16562008  0.16858140  1
  Te  Te109  1  0.16921838  0.16443942  0.49819292  1
  Te  Te110  1  0.17378519  0.16780980  0.83543005  1
  Te  Te111  1  0.17223777  0.49557766  0.16609387  1
  Te  Te112  1  0.16645288  0.49928765  0.50576246  1
  Te  Te113  1  0.16670817  0.50511728  0.82848660  1
  Te  Te114  1  0.16645401  0.83344746  0.16770263  1
  Te  Te115  1  0.17102233  0.83462906  0.49801973  1
  Te  Te116  1  0.17209774  0.82999780  0.83597335  1
  Te  Te117  1  0.49947092  0.16416735  0.16618885  1
  Te  Te118  1  0.49684542  0.17020816  0.49949683  1
  Te  Te119  1  0.49679146  0.16678811  0.83164679  1
  Te  Te120  1  0.49543156  0.50527362  0.16270539  1
  Te  Te121  1  0.50246787  0.49702847  0.50219914  1
  Te  Te122  1  0.50063655  0.50253815  0.83316294  1
  Te  Te123  1  0.50403165  0.83874275  0.16968074  1
  Te  Te124  1  0.49521637  0.83344353  0.49747772  1
  Te  Te125  1  0.49625668  0.83119221  0.83281893  1
  Te  Te126  1  0.83388367  0.16310264  0.16145312  1
  Te  Te127  1  0.83280533  0.16132503  0.50078398  1
  Te  Te128  1  0.83713554  0.16305189  0.83774090  1
  Te  Te129  1  0.83353504  0.50193022  0.16615392  1
  Te  Te130  1  0.82978980  0.49923596  0.50491268  1
  Te  Te131  1  0.83168963  0.50670690  0.82994869  1
  Te  Te132  1  0.83131649  0.83591214  0.16923203  1
  Te  Te133  1  0.82955542  0.83859121  0.49558837  1
  Te  Te134  1  0.83206602  0.83421447  0.83352219  1
  Te  Te135  1  0.16578440  0.00206580  -0.00103972  1
  Te  Te136  1  0.16264474  0.00098608  0.33579616  1
  Te  Te137  1  0.16648780  0.00020298  0.66250217  1
  Te  Te138  1  0.17063691  0.32985082  0.00335758  1
  Te  Te139  1  0.17097896  0.32904296  0.32919620  1
  Te  Te140  1  0.16635438  0.34318851  0.66772442  1
  Te  Te141  1  0.16550316  0.66670380  -0.00420873  1
  Te  Te142  1  0.16824703  0.66801947  0.33478024  1
  Te  Te143  1  0.16964023  0.66531139  0.66728813  1
  Te  Te144  1  0.50250546  0.00366341  -0.00157973  1
  Te  Te145  1  0.50202067  0.00212257  0.33290765  1
  Te  Te146  1  0.49646513  -0.00366886  0.67061238  1
  Te  Te147  1  0.49866888  0.32847677  -0.00031731  1
  Te  Te148  1  0.49730613  0.33119510  0.33533979  1
  Te  Te149  1  0.49919290  0.33880900  0.66645150  1
  Te  Te150  1  0.50011165  0.66843616  -0.00579622  1
  Te  Te151  1  0.49462519  0.66976006  0.33230216  1
  Te  Te152  1  0.49483747  0.66618608  0.66910057  1
  Te  Te153  1  0.83137209  0.00259061  0.00135520  1
  Te  Te154  1  0.83575767  -0.00338782  0.33034511  1
  Te  Te155  1  0.83436456  -0.00155457  0.67371074  1
  Te  Te156  1  0.83280105  0.32724221  -0.00527982  1
  Te  Te157  1  0.83247105  0.33487788  0.33349354  1
  Te  Te158  1  0.83280193  0.33804091  0.67292977  1
  Te  Te159  1  0.83424653  0.66482008  -0.00049672  1
  Te  Te160  1  0.83201133  0.67295731  0.33114585  1
  Te  Te161  1  0.83416708  0.66509394  0.66899584  1
  Te  Te162  1  0.01169398  0.16262140  0.00371880  1
  Te  Te163  1  -0.00046098  0.16197359  0.33156442  1
  Te  Te164  1  0.00167570  0.15978239  0.66107137  1
  Te  Te165  1  -0.00037878  0.49985616  0.00096710  1
  Te  Te166  1  -0.00031437  0.50442826  0.33406035  1
  Te  Te167  1  -0.00595846  0.50059427  0.66618199  1
  Te  Te168  1  0.00666053  0.84020953  -0.00114143  1
  Te  Te169  1  0.00157457  0.83616273  0.33562754  1
  Te  Te170  1  -0.00304362  0.83996151  0.65878988  1
  Te  Te171  1  0.33451641  0.16747467  0.00199250  1
  Te  Te172  1  0.33413463  0.16420829  0.33335795  1
  Te  Te173  1  0.33246000  0.16351384  0.66163434  1
  Te  Te174  1  0.33813684  0.49466547  0.00420010  1
  Te  Te175  1  0.33252165  0.50201222  0.32888166  1
  Te  Te176  1  0.33687830  0.50332622  0.66649299  1
  Te  Te177  1  0.32755215  0.83284866  -0.00010373  1
  Te  Te178  1  0.33178920  0.83395950  0.33453196  1
  Te  Te179  1  0.33550213  0.83223418  0.66559525  1
  Te  Te180  1  0.66231154  0.16473713  -0.00067484  1
  Te  Te181  1  0.66387518  0.17104659  0.33117560  1
  Te  Te182  1  0.66701706  0.16628692  0.67252632  1
  Te  Te183  1  0.65908470  0.49634044  0.00039694  1
  Te  Te184  1  0.66533543  0.49251664  0.33735827  1
  Te  Te185  1  0.66449259  0.49991781  0.66284819  1
  Te  Te186  1  0.66619139  0.83606548  0.00745971  1
  Te  Te187  1  0.66118339  0.83238358  0.32785177  1
  Te  Te188  1  0.65603584  0.83299563  0.66608769  1
  Te  Te189  1  -0.00074486  0.00465720  0.16337653  1
  Te  Te190  1  -0.00021549  0.00003204  0.49705901  1
  Te  Te191  1  -0.00381119  -0.00068842  0.84134590  1
  Te  Te192  1  0.00614565  0.32700401  0.16768920  1
  Te  Te193  1  -0.00047825  0.32670393  0.50005927  1
  Te  Te194  1  -0.00684253  0.33289747  0.83235371  1
  Te  Te195  1  -0.00393123  0.66514965  0.17202592  1
  Te  Te196  1  0.00597587  0.66877842  0.49512111  1
  Te  Te197  1  -0.00516330  0.66880036  0.83344188  1
  Te  Te198  1  0.34051226  0.00664348  0.16606823  1
  Te  Te199  1  0.33491581  -0.00038770  0.50498636  1
  Te  Te200  1  0.33568143  -0.00089650  0.82970213  1
  Te  Te201  1  0.33208676  0.32918946  0.16735825  1
  Te  Te202  1  0.33830945  0.33072171  0.49716205  1
  Te  Te203  1  0.33795963  0.32907887  0.83495973  1
  Te  Te204  1  0.33303686  0.66972840  0.17089432  1
  Te  Te205  1  0.32912991  0.66694106  0.49944817  1
  Te  Te206  1  0.33488841  0.66724678  0.83340414  1
  Te  Te207  1  0.66704505  0.00458753  0.16559439  1
  Te  Te208  1  0.67225944  -0.00011478  0.50149759  1
  Te  Te209  1  0.66570419  0.00389454  0.83802875  1
  Te  Te210  1  0.66980815  0.32865158  0.16518439  1
  Te  Te211  1  0.66211555  0.33512579  0.49773275  1
  Te  Te212  1  0.66409517  0.32876407  0.83731616  1
  Te  Te213  1  0.67291111  0.66339495  0.16677230  1
  Te  Te214  1  0.66819602  0.66033893  0.49979215  1
  Te  Te215  1  0.66926467  0.66853387  0.83372002  1
