# generated using pymatgen
data_AgSbTe2
_symmetry_space_group_name_H-M   'P 1'
_cell_length_a   18.33591493
_cell_length_b   18.33270432
_cell_length_c   18.33439827
_cell_angle_alpha   90.00187950
_cell_angle_beta   90.00062980
_cell_angle_gamma   89.99970327
_symmetry_Int_Tables_number   1
_chemical_formula_structural   AgSbTe2
_chemical_formula_sum   'Ag54 Sb54 Te108'
_cell_volume   6163.05126484
_cell_formula_units_Z   54
loop_
 _symmetry_equiv_pos_site_id
 _symmetry_equiv_pos_as_xyz
  1  'x, y, z'
loop_
 _atom_site_type_symbol
 _atom_site_label
 _atom_site_symmetry_multiplicity
 _atom_site_fract_x
 _atom_site_fract_y
 _atom_site_fract_z
 _atom_site_occupancy
  Ag  Ag0  1  0.49946794  0.49997521  0.66737510  1
  Ag  Ag1  1  0.66945029  0.00455728  0.33873962  1
  Ag  Ag2  1  0.00490050  0.16585989  0.50117069  1
  Ag  Ag3  1  0.00064780  0.83497725  0.82378789  1
  Ag  Ag4  1  0.66757586  -0.00035304  -0.01194784  1
  Ag  Ag5  1  0.49401370  0.16711428  0.33464472  1
  Ag  Ag6  1  0.00060866  0.32725316  0.33814072  1
  Ag  Ag7  1  0.65957143  0.49974195  0.82743393  1
  Ag  Ag8  1  0.66911138  0.00208756  0.66639822  1
  Ag  Ag9  1  0.16451334  0.33566333  0.50409265  1
  Ag  Ag10  1  0.16649617  0.16900840  -0.00739211  1
  Ag  Ag11  1  0.16613203  0.66667920  0.16736349  1
  Ag  Ag12  1  0.83989591  0.16470057  0.33507351  1
  Ag  Ag13  1  0.32928817  0.66537396  0.34342150  1
  Ag  Ag14  1  0.83316695  0.83972074  0.34348936  1
  Ag  Ag15  1  0.48694905  0.66221278  0.50977225  1
  Ag  Ag16  1  0.15976801  0.00613672  0.50169061  1
  Ag  Ag17  1  0.84082445  -0.00114983  0.50251959  1
  Ag  Ag18  1  0.32717750  0.17101834  0.83012722  1
  Ag  Ag19  1  0.16840339  0.65427260  0.50435487  1
  Ag  Ag20  1  0.48846175  0.66146182  0.82655343  1
  Ag  Ag21  1  0.16341984  0.17023220  0.33779777  1
  Ag  Ag22  1  0.33259170  0.50391533  0.82576047  1
  Ag  Ag23  1  0.32131095  0.16477544  0.16592006  1
  Ag  Ag24  1  0.00654964  0.67081803  0.66460377  1
  Ag  Ag25  1  -0.00085312  0.84035590  0.50606006  1
  Ag  Ag26  1  0.32691056  0.65882999  0.66815970  1
  Ag  Ag27  1  0.32980707  0.81914575  0.82961202  1
  Ag  Ag28  1  0.00532463  0.16424735  0.18232071  1
  Ag  Ag29  1  0.00159075  -0.00448374  0.66369510  1
  Ag  Ag30  1  0.84315007  0.66765267  0.16841645  1
  Ag  Ag31  1  0.16751636  0.49672100  0.34543034  1
  Ag  Ag32  1  0.49891520  -0.00011940  0.82894738  1
  Ag  Ag33  1  0.16665152  0.16663350  0.66686784  1
  Ag  Ag34  1  0.66394741  0.34168548  0.66704403  1
  Ag  Ag35  1  0.67115553  0.32890356  0.34203196  1
  Ag  Ag36  1  0.32585782  0.00074489  0.66972225  1
  Ag  Ag37  1  0.33267245  0.34186288  0.66996245  1
  Ag  Ag38  1  0.01080304  0.49982279  0.50280384  1
  Ag  Ag39  1  0.48993849  0.33726101  0.82795525  1
  Ag  Ag40  1  0.67080770  0.83496985  0.16666988  1
  Ag  Ag41  1  0.83795471  0.50089326  -0.01395809  1
  Ag  Ag42  1  0.83745779  0.83118995  0.66502881  1
  Ag  Ag43  1  0.17572766  0.66055510  0.82604832  1
  Ag  Ag44  1  0.83559637  0.33571143  0.82815782  1
  Ag  Ag45  1  0.66738426  0.49927916  0.51103694  1
  Ag  Ag46  1  0.16665688  0.01317527  0.17165310  1
  Ag  Ag47  1  0.00921820  0.16586345  0.82554971  1
  Ag  Ag48  1  0.16477112  0.50048296  -0.00428159  1
  Ag  Ag49  1  0.32748372  0.50495467  0.50934066  1
  Ag  Ag50  1  0.16972008  0.33261205  0.82542092  1
  Ag  Ag51  1  0.66581890  0.83294475  0.83078917  1
  Ag  Ag52  1  0.32808082  0.66447443  -0.01759384  1
  Ag  Ag53  1  0.82779977  0.50210297  0.66853040  1
  Sb  Sb54  1  0.16662392  0.83312549  -0.00316312  1
  Sb  Sb55  1  0.33346804  -0.00101901  0.33901760  1
  Sb  Sb56  1  0.49602231  0.49648955  0.34229674  1
  Sb  Sb57  1  0.66426018  0.66570400  0.33517856  1
  Sb  Sb58  1  0.83905450  0.16927165  0.00134487  1
  Sb  Sb59  1  0.83669176  -0.00317342  0.17367699  1
  Sb  Sb60  1  0.32437771  0.17038413  0.50418713  1
  Sb  Sb61  1  0.49665316  0.33707073  0.50624517  1
  Sb  Sb62  1  0.49816276  0.00128194  0.16443529  1
  Sb  Sb63  1  0.16011221  0.83405984  0.66719981  1
  Sb  Sb64  1  0.00328060  0.49791683  0.17190448  1
  Sb  Sb65  1  0.00401701  0.49933246  0.82429087  1
  Sb  Sb66  1  0.00560033  0.66344311  0.34077292  1
  Sb  Sb67  1  0.16682707  0.33055410  0.16931086  1
  Sb  Sb68  1  0.33392030  0.83449514  0.16336162  1
  Sb  Sb69  1  0.66533310  0.66327213  0.66746280  1
  Sb  Sb70  1  0.50011992  -0.00311459  0.50661912  1
  Sb  Sb71  1  -0.00290608  0.00624477  0.34368455  1
  Sb  Sb72  1  0.67097051  0.17032186  0.49934351  1
  Sb  Sb73  1  0.32984783  0.49814756  0.16552792  1
  Sb  Sb74  1  -0.00239399  0.83686020  0.16905820  1
  Sb  Sb75  1  0.32991827  0.33431214  0.33989330  1
  Sb  Sb76  1  0.83959038  0.16713677  0.66318181  1
  Sb  Sb77  1  0.83836799  0.33154589  0.50422465  1
  Sb  Sb78  1  0.83092443  0.00183569  0.82584755  1
  Sb  Sb79  1  0.00373659  0.33384860  0.66342465  1
  Sb  Sb80  1  0.66538301  0.16815945  0.83037902  1
  Sb  Sb81  1  0.50101401  0.83344443  -0.00584321  1
  Sb  Sb82  1  0.49919949  0.33107425  0.16570002  1
  Sb  Sb83  1  0.00264398  0.33320304  -0.00027213  1
  Sb  Sb84  1  0.49663044  0.50121121  -0.01251002  1
  Sb  Sb85  1  0.50316505  0.82789804  0.66898826  1
  Sb  Sb86  1  0.00565273  0.66520577  -0.00661797  1
  Sb  Sb87  1  0.83189420  0.82908461  -0.00399012  1
  Sb  Sb88  1  0.49400938  0.16996717  0.66456810  1
  Sb  Sb89  1  0.83805723  0.66843933  0.49957229  1
  Sb  Sb90  1  0.16988412  0.49741002  0.66610146  1
  Sb  Sb91  1  0.66946350  0.16175911  0.17135526  1
  Sb  Sb92  1  0.83644515  0.49923998  0.33873752  1
  Sb  Sb93  1  -0.00111964  0.00214864  -0.00580755  1
  Sb  Sb94  1  0.83446060  0.66299531  0.83294312  1
  Sb  Sb95  1  0.67212590  0.83072315  0.50496480  1
  Sb  Sb96  1  0.50511338  0.83628934  0.33568575  1
  Sb  Sb97  1  0.49462032  0.66707369  0.16542515  1
  Sb  Sb98  1  0.32495229  0.82705516  0.50947938  1
  Sb  Sb99  1  0.83488981  0.33644934  0.16620188  1
  Sb  Sb100  1  0.16968821  0.00352321  0.82817604  1
  Sb  Sb101  1  0.32952219  0.33745950  -0.01040493  1
  Sb  Sb102  1  0.66827774  0.33029162  -0.00711703  1
  Sb  Sb103  1  0.66404099  0.66887915  -0.00291904  1
  Sb  Sb104  1  0.67020749  0.50406204  0.16452674  1
  Sb  Sb105  1  0.49354475  0.16631861  -0.00134703  1
  Sb  Sb106  1  0.33375843  -0.00164309  -0.00874170  1
  Sb  Sb107  1  0.16121863  0.83346570  0.33615554  1
  Te  Te108  1  0.16449719  0.16928709  0.17061986  1
  Te  Te109  1  0.16531947  0.16692401  0.49964185  1
  Te  Te110  1  0.16701337  0.16438194  0.83139473  1
  Te  Te111  1  0.16644537  0.50397521  0.16012149  1
  Te  Te112  1  0.16755542  0.49809832  0.50207479  1
  Te  Te113  1  0.16800431  0.49966707  0.83441988  1
  Te  Te114  1  0.16646610  0.82814971  0.16702479  1
  Te  Te115  1  0.15882781  0.84138542  0.49952181  1
  Te  Te116  1  0.16756848  0.82999469  0.83379853  1
  Te  Te117  1  0.49691635  0.16599400  0.17181874  1
  Te  Te118  1  0.49863074  0.16565809  0.49370351  1
  Te  Te119  1  0.49556403  0.16689560  0.83294485  1
  Te  Te120  1  0.50073132  0.49945610  0.16572627  1
  Te  Te121  1  0.50149880  0.50316705  0.50505681  1
  Te  Te122  1  0.49951351  0.49977958  0.82885980  1
  Te  Te123  1  0.50866659  0.83391492  0.16607422  1
  Te  Te124  1  0.49932386  0.82416738  0.50042904  1
  Te  Te125  1  0.50363419  0.83533451  0.83215446  1
  Te  Te126  1  0.84119055  0.16731802  0.17018627  1
  Te  Te127  1  0.83831952  0.16305081  0.49574874  1
  Te  Te128  1  0.83739704  0.17319431  0.83522157  1
  Te  Te129  1  0.83510212  0.50635209  0.16659005  1
  Te  Te130  1  0.82736978  0.50004665  0.50438200  1
  Te  Te131  1  0.83702209  0.49789324  0.82990105  1
  Te  Te132  1  0.83141749  0.82913064  0.16624320  1
  Te  Te133  1  0.83750409  0.83495739  0.50275554  1
  Te  Te134  1  0.83276404  0.83328437  0.82891165  1
  Te  Te135  1  0.16701373  0.00561181  0.00668565  1
  Te  Te136  1  0.16787140  0.00296178  0.33420340  1
  Te  Te137  1  0.16509528  0.00265247  0.66430906  1
  Te  Te138  1  0.16620958  0.33389194  -0.00397314  1
  Te  Te139  1  0.16571161  0.33437244  0.33585689  1
  Te  Te140  1  0.16877767  0.32942637  0.66593144  1
  Te  Te141  1  0.16895703  0.66549941  -0.00116637  1
  Te  Te142  1  0.16914729  0.66584902  0.33702959  1
  Te  Te143  1  0.16650723  0.66784270  0.66574300  1
  Te  Te144  1  0.50602622  0.00146986  -0.00594598  1
  Te  Te145  1  0.50461872  0.00467940  0.33452759  1
  Te  Te146  1  0.50477574  0.00087605  0.66961779  1
  Te  Te147  1  0.50138749  0.33322295  -0.00884292  1
  Te  Te148  1  0.50296059  0.32805441  0.33410620  1
  Te  Te149  1  0.50128122  0.33622404  0.67054233  1
  Te  Te150  1  0.49197673  0.66599605  -0.00458221  1
  Te  Te151  1  0.49392140  0.66659556  0.33436792  1
  Te  Te152  1  0.49980551  0.66215858  0.66827642  1
  Te  Te153  1  0.82709584  0.00066051  0.00159149  1
  Te  Te154  1  0.83021031  0.00034633  0.33739878  1
  Te  Te155  1  0.83328666  0.00027899  0.66221044  1
  Te  Te156  1  0.83374955  0.34043101  -0.00440508  1
  Te  Te157  1  0.83298556  0.33036187  0.33410910  1
  Te  Te158  1  0.82860359  0.33477877  0.66924647  1
  Te  Te159  1  0.83353921  0.66135737  0.00502169  1
  Te  Te160  1  0.83347432  0.66839048  0.32855792  1
  Te  Te161  1  0.83655580  0.66723314  0.66606515  1
  Te  Te162  1  0.00615430  0.16657376  -0.00844663  1
  Te  Te163  1  0.00206096  0.16664514  0.33872814  1
  Te  Te164  1  0.00423807  0.16704914  0.66480622  1
  Te  Te165  1  0.00096731  0.49962537  0.00179902  1
  Te  Te166  1  0.00496009  0.49416316  0.33960129  1
  Te  Te167  1  -0.00730235  0.50070611  0.66137492  1
  Te  Te168  1  -0.00155928  0.83391465  -0.00983840  1
  Te  Te169  1  -0.00770563  0.83230729  0.33683004  1
  Te  Te170  1  -0.00283491  0.83392679  0.66607671  1
  Te  Te171  1  0.32715339  0.16627029  -0.00027697  1
  Te  Te172  1  0.32996906  0.16649525  0.33198513  1
  Te  Te173  1  0.32959821  0.16318874  0.66952255  1
  Te  Te174  1  0.32922393  0.50392285  -0.00267611  1
  Te  Te175  1  0.32807696  0.50223639  0.33411169  1
  Te  Te176  1  0.33354709  0.50028931  0.66803373  1
  Te  Te177  1  0.33404219  0.82795211  -0.00655637  1
  Te  Te178  1  0.33555844  0.82858009  0.33273605  1
  Te  Te179  1  0.33667739  0.83809067  0.67303666  1
  Te  Te180  1  0.66710531  0.16042170  0.00266890  1
  Te  Te181  1  0.67221159  0.16700603  0.33371306  1
  Te  Te182  1  0.66606283  0.16351270  0.66570483  1
  Te  Te183  1  0.67140128  0.49972486  -0.00506826  1
  Te  Te184  1  0.66610578  0.49490487  0.33310483  1
  Te  Te185  1  0.66747477  0.50055977  0.67057670  1
  Te  Te186  1  0.66735059  0.83861529  -0.00503655  1
  Te  Te187  1  0.67244522  0.83560789  0.33448509  1
  Te  Te188  1  0.67223106  0.83636433  0.67007093  1
  Te  Te189  1  0.00593910  0.00293760  0.16295107  1
  Te  Te190  1  -0.00020526  0.00122682  0.50364754  1
  Te  Te191  1  -0.00054613  -0.00018100  0.82708233  1
  Te  Te192  1  -0.00071703  0.32631514  0.17446630  1
  Te  Te193  1  0.00331129  0.33269593  0.49767197  1
  Te  Te194  1  0.00397490  0.33012097  0.83227897  1
  Te  Te195  1  0.00340702  0.66800657  0.16622875  1
  Te  Te196  1  0.00427692  0.66193795  0.50461852  1
  Te  Te197  1  0.00220146  0.66990843  0.82660859  1
  Te  Te198  1  0.32936427  0.00243765  0.16602757  1
  Te  Te199  1  0.33086551  -0.00288008  0.50771845  1
  Te  Te200  1  0.33662533  0.00624900  0.83010583  1
  Te  Te201  1  0.33531548  0.32507170  0.16601386  1
  Te  Te202  1  0.32901688  0.33967935  0.50630800  1
  Te  Te203  1  0.33028606  0.33252473  0.82946516  1
  Te  Te204  1  0.32743688  0.66780295  0.17210302  1
  Te  Te205  1  0.32900094  0.66528223  0.50417845  1
  Te  Te206  1  0.33277551  0.66402213  0.82698787  1
  Te  Te207  1  0.66631803  -0.00490911  0.17423348  1
  Te  Te208  1  0.66742046  -0.00095421  0.50133060  1
  Te  Te209  1  0.66491970  0.00067312  0.82925260  1
  Te  Te210  1  0.66701205  0.33281542  0.17163710  1
  Te  Te211  1  0.66580694  0.33709609  0.50254216  1
  Te  Te212  1  0.67011134  0.33575178  0.82975148  1
  Te  Te213  1  0.66538969  0.67306019  0.16611745  1
  Te  Te214  1  0.66496290  0.66074777  0.49907690  1
  Te  Te215  1  0.66522085  0.66616329  0.83469014  1
