# generated using pymatgen
data_AgSbTe2
_symmetry_space_group_name_H-M   'P 1'
_cell_length_a   18.33647375
_cell_length_b   18.33150972
_cell_length_c   18.33914771
_cell_angle_alpha   90.00015356
_cell_angle_beta   89.99937970
_cell_angle_gamma   90.00276400
_symmetry_Int_Tables_number   1
_chemical_formula_structural   AgSbTe2
_chemical_formula_sum   'Ag54 Sb54 Te108'
_cell_volume   6164.43393150
_cell_formula_units_Z   54
loop_
 _symmetry_equiv_pos_site_id
 _symmetry_equiv_pos_as_xyz
  1  'x, y, z'
loop_
 _atom_site_type_symbol
 _atom_site_label
 _atom_site_symmetry_multiplicity
 _atom_site_fract_x
 _atom_site_fract_y
 _atom_site_fract_z
 _atom_site_occupancy
  Ag  Ag0  1  0.33154464  0.66772966  0.66810601  1
  Ag  Ag1  1  0.66427369  0.66784212  0.66678753  1
  Ag  Ag2  1  0.16089138  0.00007714  0.83820048  1
  Ag  Ag3  1  0.33117222  0.33142204  0.31976023  1
  Ag  Ag4  1  0.49534381  0.17485558  0.00180856  1
  Ag  Ag5  1  0.49966849  0.66299161  0.16502009  1
  Ag  Ag6  1  0.83143330  0.67210502  0.16345756  1
  Ag  Ag7  1  0.83383064  0.83177874  0.67856989  1
  Ag  Ag8  1  0.17336818  0.32708456  0.16709600  1
  Ag  Ag9  1  0.00143635  0.00722992  0.67840304  1
  Ag  Ag10  1  0.33570278  0.32407968  0.00288189  1
  Ag  Ag11  1  0.16880308  0.66933115  0.49880622  1
  Ag  Ag12  1  0.00403761  0.32493497  0.32315597  1
  Ag  Ag13  1  -0.00040564  0.16488246  0.84431314  1
  Ag  Ag14  1  0.16969671  0.67114435  0.83511540  1
  Ag  Ag15  1  0.00121352  0.66666244  0.00074565  1
  Ag  Ag16  1  0.84626297  0.16593618  -0.00094100  1
  Ag  Ag17  1  0.00114446  0.32137200  0.00194289  1
  Ag  Ag18  1  0.50071513  0.32883834  0.84871085  1
  Ag  Ag19  1  0.50115095  0.49135667  0.00381879  1
  Ag  Ag20  1  0.00435938  0.00482660  0.32530081  1
  Ag  Ag21  1  0.65930773  0.33313471  0.32728785  1
  Ag  Ag22  1  0.84147211  -0.00064963  0.16037970  1
  Ag  Ag23  1  0.32876248  0.16424494  0.84382475  1
  Ag  Ag24  1  0.33190989  0.66957373  0.33025333  1
  Ag  Ag25  1  0.33503838  0.83482739  0.83810793  1
  Ag  Ag26  1  0.83242843  0.49635605  0.00218589  1
  Ag  Ag27  1  0.49190686  0.66413427  0.49267120  1
  Ag  Ag28  1  0.16182429  -0.00236889  0.48379650  1
  Ag  Ag29  1  0.00124250  0.16527918  0.49697591  1
  Ag  Ag30  1  0.49224092  0.33274979  0.16541874  1
  Ag  Ag31  1  0.00502337  0.16569364  0.15738236  1
  Ag  Ag32  1  0.66727694  0.83599401  0.83650564  1
  Ag  Ag33  1  0.16713747  0.50322659  0.33336752  1
  Ag  Ag34  1  0.00133402  0.32515065  0.67563460  1
  Ag  Ag35  1  0.49931807  0.83112125  0.00223821  1
  Ag  Ag36  1  -0.00073888  0.00916817  0.00171336  1
  Ag  Ag37  1  0.16052856  0.00765121  0.16696336  1
  Ag  Ag38  1  0.49850061  0.33590059  0.49007570  1
  Ag  Ag39  1  0.16955711  0.83680645  0.33229951  1
  Ag  Ag40  1  0.83347725  0.83727372  -0.00036791  1
  Ag  Ag41  1  0.83447650  0.83275068  0.32750068  1
  Ag  Ag42  1  0.67534656  0.16555956  0.84088345  1
  Ag  Ag43  1  0.84213243  0.00415224  0.84341049  1
  Ag  Ag44  1  0.83337909  0.32308916  0.84061865  1
  Ag  Ag45  1  0.16078107  0.16616909  0.00151185  1
  Ag  Ag46  1  0.66535758  0.49279004  0.16464264  1
  Ag  Ag47  1  0.32175378  -0.00699478  0.32945351  1
  Ag  Ag48  1  0.83775890  0.66987202  0.49424930  1
  Ag  Ag49  1  0.49284912  0.82833961  0.32587232  1
  Ag  Ag50  1  0.33337312  0.66620135  0.00154725  1
  Ag  Ag51  1  0.32488690  0.17061918  0.16112582  1
  Ag  Ag52  1  0.66682018  0.17160266  0.15706481  1
  Ag  Ag53  1  0.16567731  0.50360211  0.66374780  1
  Sb  Sb54  1  0.50249602  0.82992613  0.66882524  1
  Sb  Sb55  1  0.67524893  -0.00492324  0.67078241  1
  Sb  Sb56  1  0.66853865  0.83125474  0.50210272  1
  Sb  Sb57  1  0.32741490  0.16706886  0.49639059  1
  Sb  Sb58  1  0.49997673  0.16979376  0.67553290  1
  Sb  Sb59  1  0.33187755  0.50017234  0.83685006  1
  Sb  Sb60  1  0.49888543  0.16794490  0.32596565  1
  Sb  Sb61  1  0.67009435  0.33770020  0.66730033  1
  Sb  Sb62  1  0.32490782  -0.00445348  0.66704040  1
  Sb  Sb63  1  0.67691042  0.00390547  0.00016397  1
  Sb  Sb64  1  0.16803327  0.66635343  0.16667088  1
  Sb  Sb65  1  -0.00083399  0.84186462  0.83540344  1
  Sb  Sb66  1  0.33233369  0.82977651  0.49937279  1
  Sb  Sb67  1  0.49092015  -0.00169414  0.49503404  1
  Sb  Sb68  1  0.67053676  0.16925469  0.49995720  1
  Sb  Sb69  1  0.00279145  0.66809392  0.66966477  1
  Sb  Sb70  1  0.33294976  0.50150027  0.49789966  1
  Sb  Sb71  1  0.00038611  0.83801302  0.49893892  1
  Sb  Sb72  1  0.83408622  0.33692777  0.50130267  1
  Sb  Sb73  1  0.49614069  0.50230556  0.67154316  1
  Sb  Sb74  1  0.66907819  0.00306709  0.33095619  1
  Sb  Sb75  1  0.83710389  0.50247690  0.32626601  1
  Sb  Sb76  1  0.49553283  0.66495631  0.83963483  1
  Sb  Sb77  1  0.83723700  0.67158074  0.83943404  1
  Sb  Sb78  1  0.00113211  0.49612091  0.49895654  1
  Sb  Sb79  1  0.66763241  0.83521037  0.16195358  1
  Sb  Sb80  1  0.83750371  0.50495710  0.67306905  1
  Sb  Sb81  1  0.33440919  0.83627594  0.16434846  1
  Sb  Sb82  1  0.49862835  0.00339489  0.83759359  1
  Sb  Sb83  1  0.83756074  0.16228812  0.32356977  1
  Sb  Sb84  1  0.32678676  0.00476137  0.00415894  1
  Sb  Sb85  1  0.00417458  0.66980939  0.32916441  1
  Sb  Sb86  1  0.49896190  0.00311077  0.16418884  1
  Sb  Sb87  1  0.66538928  0.66759763  -0.00113276  1
  Sb  Sb88  1  0.66315763  0.66456333  0.33305757  1
  Sb  Sb89  1  0.84248378  -0.00384026  0.49872010  1
  Sb  Sb90  1  0.83731946  0.16177959  0.67645783  1
  Sb  Sb91  1  0.66553180  0.50177338  0.49287469  1
  Sb  Sb92  1  0.00055297  0.49328788  0.83602552  1
  Sb  Sb93  1  0.32845767  0.33698782  0.67031593  1
  Sb  Sb94  1  0.16336627  0.83099554  0.66570835  1
  Sb  Sb95  1  0.16528322  0.83693794  0.00205967  1
  Sb  Sb96  1  0.16520720  0.16353541  0.32353395  1
  Sb  Sb97  1  0.16660885  0.33034197  0.84011263  1
  Sb  Sb98  1  0.16374231  0.16931678  0.67344743  1
  Sb  Sb99  1  -0.00204757  0.84277074  0.16549450  1
  Sb  Sb100  1  -0.00354424  0.49307416  0.16492661  1
  Sb  Sb101  1  0.16689663  0.49678829  0.00282912  1
  Sb  Sb102  1  0.66696935  0.49929244  0.83997832  1
  Sb  Sb103  1  0.49468422  0.50148524  0.32613239  1
  Sb  Sb104  1  0.66417657  0.33027245  0.00527329  1
  Sb  Sb105  1  0.33675934  0.49446020  0.16562293  1
  Sb  Sb106  1  0.16855162  0.33144186  0.49206543  1
  Sb  Sb107  1  0.83345975  0.32944735  0.15982750  1
  Te  Te108  1  0.16608055  0.16701737  0.16196986  1
  Te  Te109  1  0.16206774  0.16305907  0.50535331  1
  Te  Te110  1  0.16601039  0.16541148  0.83910048  1
  Te  Te111  1  0.16523677  0.49532975  0.17126047  1
  Te  Te112  1  0.16713042  0.50368104  0.49805047  1
  Te  Te113  1  0.16659008  0.50718974  0.83099843  1
  Te  Te114  1  0.16738433  0.83738720  0.17294592  1
  Te  Te115  1  0.16639334  0.83281258  0.49607504  1
  Te  Te116  1  0.17049118  0.83291992  0.83397572  1
  Te  Te117  1  0.50497777  0.16967819  0.16228710  1
  Te  Te118  1  0.50034369  0.16999416  0.50075785  1
  Te  Te119  1  0.49829414  0.16909922  0.83898212  1
  Te  Te120  1  0.50341146  0.50065224  0.16318745  1
  Te  Te121  1  0.50008305  0.50246894  0.50055197  1
  Te  Te122  1  0.50060850  0.49185892  0.84056221  1
  Te  Te123  1  0.50131445  0.83114334  0.16680346  1
  Te  Te124  1  0.50041088  0.82859113  0.49600915  1
  Te  Te125  1  0.50084677  0.83346193  0.83614597  1
  Te  Te126  1  0.83227800  0.16317569  0.16035436  1
  Te  Te127  1  0.83868010  0.16705927  0.50166048  1
  Te  Te128  1  0.83433532  0.16459841  0.83763285  1
  Te  Te129  1  0.82899694  0.50583762  0.16193091  1
  Te  Te130  1  0.83300495  0.50968369  0.50069810  1
  Te  Te131  1  0.83263759  0.49497859  0.84103538  1
  Te  Te132  1  0.83199847  0.83349081  0.16421033  1
  Te  Te133  1  0.83372036  0.82829344  0.49386826  1
  Te  Te134  1  0.83151517  0.83615619  0.83682858  1
  Te  Te135  1  0.16151454  0.00246887  0.00020994  1
  Te  Te136  1  0.16550533  -0.00015459  0.32824158  1
  Te  Te137  1  0.16079835  -0.00107704  0.67599586  1
  Te  Te138  1  0.16675721  0.33216696  0.00417960  1
  Te  Te139  1  0.16765675  0.33417584  0.32996424  1
  Te  Te140  1  0.16221743  0.34018056  0.66515094  1
  Te  Te141  1  0.16962446  0.66551857  -0.00078814  1
  Te  Te142  1  0.16903205  0.66862514  0.33415769  1
  Te  Te143  1  0.16888527  0.66572528  0.66457508  1
  Te  Te144  1  0.49777704  -0.01004902  0.00054279  1
  Te  Te145  1  0.49750783  -0.00796695  0.33259483  1
  Te  Te146  1  0.49857994  -0.00010607  0.66343659  1
  Te  Te147  1  0.50011025  0.33428822  0.00477663  1
  Te  Te148  1  0.49673837  0.33495203  0.32917477  1
  Te  Te149  1  0.49980250  0.33644374  0.66145282  1
  Te  Te150  1  0.49790409  0.67120438  0.00293009  1
  Te  Te151  1  0.49726329  0.66731579  0.33186897  1
  Te  Te152  1  0.49660518  0.66609160  0.66264058  1
  Te  Te153  1  0.83745310  -0.00027978  0.00033890  1
  Te  Te154  1  0.83677739  -0.00543692  0.33099440  1
  Te  Te155  1  0.84072900  -0.00743502  0.66660755  1
  Te  Te156  1  0.83552060  0.33138382  -0.00172634  1
  Te  Te157  1  0.84026508  0.33384411  0.33469595  1
  Te  Te158  1  0.83934035  0.33564082  0.67064672  1
  Te  Te159  1  0.83238879  0.66927005  0.00242355  1
  Te  Te160  1  0.83419984  0.66962923  0.33101719  1
  Te  Te161  1  0.83389838  0.66969698  0.66738168  1
  Te  Te162  1  0.00085081  0.16627868  0.00071213  1
  Te  Te163  1  -0.00017361  0.16565160  0.33545173  1
  Te  Te164  1  -0.00048123  0.16670786  0.66520878  1
  Te  Te165  1  -0.00363114  0.50699617  0.00013644  1
  Te  Te166  1  0.00566619  0.49393667  0.33227082  1
  Te  Te167  1  0.00472544  0.49520112  0.66703356  1
  Te  Te168  1  -0.00344922  0.82529524  -0.00026565  1
  Te  Te169  1  -0.00056353  0.83767468  0.33268849  1
  Te  Te170  1  -0.00638539  0.83696310  0.66683238  1
  Te  Te171  1  0.33601165  0.16578949  0.00102097  1
  Te  Te172  1  0.33454149  0.17120509  0.32965888  1
  Te  Te173  1  0.33257140  0.16623924  0.67251444  1
  Te  Te174  1  0.33670044  0.50528777  0.00036138  1
  Te  Te175  1  0.32759892  0.50082984  0.33201139  1
  Te  Te176  1  0.32723543  0.50671763  0.66787699  1
  Te  Te177  1  0.33318232  0.83215612  -0.00203483  1
  Te  Te178  1  0.33323126  0.83230486  0.33267872  1
  Te  Te179  1  0.33411735  0.82791929  0.67451792  1
  Te  Te180  1  0.65687992  0.16631080  -0.00243197  1
  Te  Te181  1  0.66777102  0.17296034  0.33146792  1
  Te  Te182  1  0.66817088  0.16680733  0.67319250  1
  Te  Te183  1  0.66650560  0.50134996  0.00550823  1
  Te  Te184  1  0.66818538  0.49380355  0.32604307  1
  Te  Te185  1  0.66789522  0.50671277  0.66641469  1
  Te  Te186  1  0.66708865  0.83466683  -0.00488528  1
  Te  Te187  1  0.67005826  0.83386244  0.33242798  1
  Te  Te188  1  0.67119937  0.82824075  0.67242281  1
  Te  Te189  1  0.00028845  0.00405996  0.16471965  1
  Te  Te190  1  0.00512058  0.00397032  0.49563340  1
  Te  Te191  1  0.00012479  0.00267054  0.83691662  1
  Te  Te192  1  -0.00101887  0.32796036  0.16344685  1
  Te  Te193  1  0.00035988  0.32846396  0.49880037  1
  Te  Te194  1  -0.00019695  0.32765848  0.83751650  1
  Te  Te195  1  -0.00167308  0.66475899  0.16282442  1
  Te  Te196  1  0.00214867  0.66588369  0.49998537  1
  Te  Te197  1  0.00596969  0.66588888  0.83632708  1
  Te  Te198  1  0.33169392  0.00611664  0.17113534  1
  Te  Te199  1  0.32350104  -0.00014983  0.49461490  1
  Te  Te200  1  0.33039857  -0.00014378  0.83316096  1
  Te  Te201  1  0.33370555  0.33054367  0.16312673  1
  Te  Te202  1  0.33866257  0.33208049  0.50038837  1
  Te  Te203  1  0.33572074  0.32864603  0.83713282  1
  Te  Te204  1  0.33555662  0.66756674  0.16652132  1
  Te  Te205  1  0.33180662  0.66696144  0.49627769  1
  Te  Te206  1  0.33188690  0.66858058  0.83689294  1
  Te  Te207  1  0.67147340  0.00820506  0.16800496  1
  Te  Te208  1  0.66559230  0.00197270  0.50139696  1
  Te  Te209  1  0.66920849  0.00066195  0.83271663  1
  Te  Te210  1  0.66794525  0.33188936  0.16997816  1
  Te  Te211  1  0.66169669  0.33392744  0.49481502  1
  Te  Te212  1  0.66654779  0.33053664  0.83034931  1
  Te  Te213  1  0.66530165  0.66659533  0.16721113  1
  Te  Te214  1  0.66677048  0.66647206  0.50353269  1
  Te  Te215  1  0.66598352  0.66859965  0.82824891  1
