# generated using pymatgen
data_AgSbTe2
_symmetry_space_group_name_H-M   'P 1'
_cell_length_a   18.33126692
_cell_length_b   18.33568185
_cell_length_c   18.33712998
_cell_angle_alpha   89.99903100
_cell_angle_beta   90.00326481
_cell_angle_gamma   89.99777121
_symmetry_Int_Tables_number   1
_chemical_formula_structural   AgSbTe2
_chemical_formula_sum   'Ag54 Sb54 Te108'
_cell_volume   6163.40786204
_cell_formula_units_Z   54
loop_
 _symmetry_equiv_pos_site_id
 _symmetry_equiv_pos_as_xyz
  1  'x, y, z'
loop_
 _atom_site_type_symbol
 _atom_site_label
 _atom_site_symmetry_multiplicity
 _atom_site_fract_x
 _atom_site_fract_y
 _atom_site_fract_z
 _atom_site_occupancy
  Ag  Ag0  1  0.50544135  0.83147927  0.00554279  1
  Ag  Ag1  1  0.82900257  0.17036101  0.00007691  1
  Ag  Ag2  1  0.16337894  0.33563613  0.16635829  1
  Ag  Ag3  1  0.66909686  0.16861897  0.16272087  1
  Ag  Ag4  1  0.33675278  0.32495128  0.32922100  1
  Ag  Ag5  1  -0.01021912  0.00631414  0.00857931  1
  Ag  Ag6  1  0.15375304  -0.00482888  0.49737317  1
  Ag  Ag7  1  0.82858847  0.16646315  0.32686649  1
  Ag  Ag8  1  0.66767127  0.49419792  0.84155315  1
  Ag  Ag9  1  0.33947835  0.66618959  0.00112075  1
  Ag  Ag10  1  0.82934457  0.32629835  0.83795166  1
  Ag  Ag11  1  0.67204047  0.16361483  0.49457158  1
  Ag  Ag12  1  -0.00843049  0.15826263  0.48979793  1
  Ag  Ag13  1  0.66586417  0.83481054  0.16362037  1
  Ag  Ag14  1  0.82356375  0.49047180  0.00035570  1
  Ag  Ag15  1  0.00259003  0.84336114  0.48830571  1
  Ag  Ag16  1  0.66626443  0.84075748  0.84348060  1
  Ag  Ag17  1  0.50345220  0.66579767  0.84402166  1
  Ag  Ag18  1  -0.00286394  0.49822169  0.49055680  1
  Ag  Ag19  1  0.50876148  0.50507404  0.00052001  1
  Ag  Ag20  1  0.83374120  0.49273212  0.32993574  1
  Ag  Ag21  1  0.34343367  0.49550260  0.83630473  1
  Ag  Ag22  1  0.15758349  0.50323971  0.66612840  1
  Ag  Ag23  1  0.67100753  0.32681720  0.00027743  1
  Ag  Ag24  1  0.83405021  0.00291172  0.49938762  1
  Ag  Ag25  1  0.16357763  0.82969464  0.65499367  1
  Ag  Ag26  1  0.50965700  0.00066598  0.49417187  1
  Ag  Ag27  1  0.83264809  0.49865200  0.66965296  1
  Ag  Ag28  1  0.66906988  0.00291193  0.67430658  1
  Ag  Ag29  1  0.15579497  0.83611626  0.33189767  1
  Ag  Ag30  1  0.16599790  0.83312274  0.00766957  1
  Ag  Ag31  1  0.33176524  0.00334023  0.33392279  1
  Ag  Ag32  1  -0.01048642  0.32433666  0.00394051  1
  Ag  Ag33  1  0.67016248  0.33045828  0.68159581  1
  Ag  Ag34  1  -0.00498598  0.16459840  0.16468229  1
  Ag  Ag35  1  0.16808827  0.66782531  0.16813076  1
  Ag  Ag36  1  0.66634579  0.66567342  0.66953722  1
  Ag  Ag37  1  0.34076170  0.16927397  0.84297308  1
  Ag  Ag38  1  0.50449852  0.84176752  0.32613398  1
  Ag  Ag39  1  -0.00158419  0.00028299  0.33304197  1
  Ag  Ag40  1  0.66883141  0.16754453  0.84744819  1
  Ag  Ag41  1  -0.01520931  0.16549856  0.84854357  1
  Ag  Ag42  1  0.67287952  0.49245139  0.15693177  1
  Ag  Ag43  1  0.34055089  0.16885622  0.16577772  1
  Ag  Ag44  1  0.66835337  0.32680702  0.32608206  1
  Ag  Ag45  1  0.51438820  0.16429501  0.00580177  1
  Ag  Ag46  1  0.67168461  0.01198471  -0.00439057  1
  Ag  Ag47  1  0.83508811  0.84640637  0.33163841  1
  Ag  Ag48  1  -0.00152871  0.83822297  0.17014870  1
  Ag  Ag49  1  0.82843287  0.00840688  0.83397464  1
  Ag  Ag50  1  0.16361500  0.67724293  0.49696250  1
  Ag  Ag51  1  0.51097482  0.16109855  0.32643484  1
  Ag  Ag52  1  -0.00672199  0.49786788  0.16774280  1
  Ag  Ag53  1  0.49943353  0.66980131  0.16056646  1
  Sb  Sb54  1  0.16530047  0.16637204  0.66509081  1
  Sb  Sb55  1  0.67286332  0.49403110  0.50081512  1
  Sb  Sb56  1  0.66991351  0.00565173  0.33090337  1
  Sb  Sb57  1  0.33510248  -0.00000482  0.00529914  1
  Sb  Sb58  1  0.83349549  0.00341493  0.16789131  1
  Sb  Sb59  1  0.32730680  0.50015461  0.50279390  1
  Sb  Sb60  1  0.50324964  -0.00091795  0.17025793  1
  Sb  Sb61  1  0.50771729  -0.00097751  0.83408787  1
  Sb  Sb62  1  0.16384319  0.16069981  0.33057355  1
  Sb  Sb63  1  0.50385909  0.32750232  0.49601516  1
  Sb  Sb64  1  0.16216971  0.33295496  0.83850664  1
  Sb  Sb65  1  0.50864753  0.33473626  0.83669313  1
  Sb  Sb66  1  0.33227741  0.66852691  0.32687338  1
  Sb  Sb67  1  0.00399410  0.66859575  0.00349063  1
  Sb  Sb68  1  0.33494370  0.49674647  0.16266622  1
  Sb  Sb69  1  -0.00582146  0.84034511  0.83793333  1
  Sb  Sb70  1  -0.00404170  0.32725674  0.32573398  1
  Sb  Sb71  1  0.83018396  0.16868669  0.67037501  1
  Sb  Sb72  1  0.66654442  0.66596554  0.33490754  1
  Sb  Sb73  1  0.50150359  0.83475200  0.66765929  1
  Sb  Sb74  1  0.50216073  0.33209891  0.16528889  1
  Sb  Sb75  1  -0.00176029  0.66564593  0.66524505  1
  Sb  Sb76  1  0.33548063  0.66599566  0.67268897  1
  Sb  Sb77  1  0.33565029  0.33414354  0.00341109  1
  Sb  Sb78  1  0.66074180  0.66439542  -0.00266090  1
  Sb  Sb79  1  0.16330376  -0.00296153  0.17084220  1
  Sb  Sb80  1  0.82982648  0.83722526  0.00558029  1
  Sb  Sb81  1  0.33709431  0.33385798  0.66664494  1
  Sb  Sb82  1  0.33364547  0.83752727  0.16727445  1
  Sb  Sb83  1  0.33501593  0.16373229  0.49334687  1
  Sb  Sb84  1  0.83451556  0.33273125  0.15944659  1
  Sb  Sb85  1  0.83047895  0.66492040  0.16545610  1
  Sb  Sb86  1  0.83757650  0.66849329  0.49880694  1
  Sb  Sb87  1  0.33858811  0.83536679  0.83704370  1
  Sb  Sb88  1  0.83305773  0.32702256  0.50297077  1
  Sb  Sb89  1  0.16308744  0.33085360  0.49437722  1
  Sb  Sb90  1  0.16014712  0.50329221  0.33475839  1
  Sb  Sb91  1  0.16641872  0.50310613  -0.00083185  1
  Sb  Sb92  1  -0.00539049  0.00057952  0.66254825  1
  Sb  Sb93  1  0.49766866  0.67351084  0.49704880  1
  Sb  Sb94  1  0.16169761  0.00030472  0.82982338  1
  Sb  Sb95  1  0.50602242  0.49791518  0.32583280  1
  Sb  Sb96  1  0.67206668  0.84065804  0.49620196  1
  Sb  Sb97  1  0.50616932  0.16581515  0.66942241  1
  Sb  Sb98  1  0.32514799  0.83562899  0.49625495  1
  Sb  Sb99  1  0.33661229  0.00103406  0.66268472  1
  Sb  Sb100  1  0.83508591  0.83212676  0.66364009  1
  Sb  Sb101  1  -0.00706154  0.49508987  0.83893089  1
  Sb  Sb102  1  0.50781960  0.50216244  0.67452744  1
  Sb  Sb103  1  0.82427516  0.66575872  0.83418791  1
  Sb  Sb104  1  -0.00565731  0.33338618  0.67105814  1
  Sb  Sb105  1  0.16184859  0.16153422  0.00289522  1
  Sb  Sb106  1  0.17261270  0.66692922  0.83490391  1
  Sb  Sb107  1  0.00031409  0.67509254  0.33206362  1
  Te  Te108  1  0.15965445  0.17012218  0.16627510  1
  Te  Te109  1  0.16261041  0.16153167  0.49956679  1
  Te  Te110  1  0.16959494  0.16687005  0.83212342  1
  Te  Te111  1  0.16526060  0.50312523  0.16669294  1
  Te  Te112  1  0.16041567  0.49993264  0.50339390  1
  Te  Te113  1  0.16492165  0.50006927  0.82805359  1
  Te  Te114  1  0.16710662  0.83097270  0.16837595  1
  Te  Te115  1  0.16254767  0.83452626  0.49616988  1
  Te  Te116  1  0.16597014  0.83405167  0.83786331  1
  Te  Te117  1  0.50326869  0.16644201  0.16634332  1
  Te  Te118  1  0.50234878  0.16132233  0.49546516  1
  Te  Te119  1  0.50373343  0.16645410  0.83818975  1
  Te  Te120  1  0.50383240  0.50514161  0.16156850  1
  Te  Te121  1  0.49800224  0.50317216  0.49820438  1
  Te  Te122  1  0.50287461  0.50217466  0.83808223  1
  Te  Te123  1  0.49930924  0.83226524  0.16618404  1
  Te  Te124  1  0.49955874  0.83812384  0.49576923  1
  Te  Te125  1  0.50586018  0.82993712  0.83558083  1
  Te  Te126  1  0.83299956  0.16728447  0.16665812  1
  Te  Te127  1  0.83353435  0.16375199  0.50170842  1
  Te  Te128  1  0.82929410  0.16581700  0.83384035  1
  Te  Te129  1  0.83220943  0.50046255  0.16714674  1
  Te  Te130  1  0.83832610  0.50053134  0.49733713  1
  Te  Te131  1  0.82892669  0.49940212  0.83477641  1
  Te  Te132  1  0.83477876  0.83111702  0.17221954  1
  Te  Te133  1  0.84038456  0.83636832  0.49521928  1
  Te  Te134  1  0.82547841  0.83661905  0.83293307  1
  Te  Te135  1  0.16615255  -0.00775805  -0.00160052  1
  Te  Te136  1  0.16453755  -0.00489390  0.33674351  1
  Te  Te137  1  0.16784830  -0.00406616  0.66040102  1
  Te  Te138  1  0.16413101  0.33444416  0.00558299  1
  Te  Te139  1  0.16907525  0.33490490  0.32760852  1
  Te  Te140  1  0.16811009  0.33998240  0.66597188  1
  Te  Te141  1  0.17216785  0.67132494  0.00300679  1
  Te  Te142  1  0.16838889  0.67231335  0.33243234  1
  Te  Te143  1  0.16768760  0.66650229  0.66501635  1
  Te  Te144  1  0.50246099  -0.00032545  0.00013178  1
  Te  Te145  1  0.50166548  0.00149200  0.33484938  1
  Te  Te146  1  0.50507598  -0.00078610  0.65683986  1
  Te  Te147  1  0.50388912  0.32969419  0.00021536  1
  Te  Te148  1  0.50158842  0.32798823  0.33179016  1
  Te  Te149  1  0.50920259  0.33435334  0.66422414  1
  Te  Te150  1  0.49878606  0.66782556  0.00160134  1
  Te  Te151  1  0.49827556  0.67200855  0.32847723  1
  Te  Te152  1  0.50445336  0.66851422  0.66798542  1
  Te  Te153  1  0.83227470  0.00161802  -0.00317005  1
  Te  Te154  1  0.83589756  0.00404613  0.33607522  1
  Te  Te155  1  0.82773981  -0.00156739  0.66676925  1
  Te  Te156  1  0.83230780  0.33145912  -0.00246456  1
  Te  Te157  1  0.82999194  0.32994297  0.33637072  1
  Te  Te158  1  0.82799777  0.33983421  0.67178001  1
  Te  Te159  1  0.83674701  0.65778265  -0.00053041  1
  Te  Te160  1  0.83269437  0.65949587  0.33352609  1
  Te  Te161  1  0.82767906  0.66112971  0.66630197  1
  Te  Te162  1  -0.00080136  0.16456371  0.00339394  1
  Te  Te163  1  -0.00302021  0.16259590  0.33129928  1
  Te  Te164  1  0.00080317  0.16808093  0.66263454  1
  Te  Te165  1  -0.00131328  0.49806946  0.00589131  1
  Te  Te166  1  -0.00450572  0.49650211  0.32936737  1
  Te  Te167  1  -0.00294325  0.49947373  0.66873685  1
  Te  Te168  1  -0.00085981  0.83816037  0.00551899  1
  Te  Te169  1  -0.00300725  0.83683288  0.33071884  1
  Te  Te170  1  0.00411499  0.83256823  0.66684665  1
  Te  Te171  1  0.33246845  0.16650512  0.00308174  1
  Te  Te172  1  0.33155427  0.16528926  0.32942992  1
  Te  Te173  1  0.33498168  0.16824535  0.67421124  1
  Te  Te174  1  0.33520511  0.50150383  -0.00486550  1
  Te  Te175  1  0.33463454  0.49475017  0.33293843  1
  Te  Te176  1  0.33271846  0.49948620  0.67399362  1
  Te  Te177  1  0.33563713  0.83163631  0.00011102  1
  Te  Te178  1  0.34043593  0.83731404  0.33220348  1
  Te  Te179  1  0.32490056  0.83359666  0.66813735  1
  Te  Te180  1  0.66997173  0.16749900  0.00305713  1
  Te  Te181  1  0.66838289  0.16608841  0.33110679  1
  Te  Te182  1  0.66666408  0.16682884  0.66007741  1
  Te  Te183  1  0.66585455  0.50143649  0.00136070  1
  Te  Te184  1  0.67174688  0.49575294  0.33198883  1
  Te  Te185  1  0.67127254  0.49605843  0.66617246  1
  Te  Te186  1  0.66549894  0.83084918  0.00252412  1
  Te  Te187  1  0.66889818  0.83368620  0.32905156  1
  Te  Te188  1  0.66747789  0.83698596  0.66722923  1
  Te  Te189  1  0.00010067  -0.00061347  0.16757628  1
  Te  Te190  1  -0.00353193  0.00094737  0.49985036  1
  Te  Te191  1  -0.00590495  0.00591299  0.83382955  1
  Te  Te192  1  0.00295847  0.33365615  0.16375517  1
  Te  Te193  1  0.00031847  0.33662773  0.50078742  1
  Te  Te194  1  -0.00501757  0.32667981  0.83946309  1
  Te  Te195  1  0.00586857  0.66617484  0.16669583  1
  Te  Te196  1  0.00513159  0.66058780  0.49955637  1
  Te  Te197  1  0.00125490  0.66947630  0.83411841  1
  Te  Te198  1  0.33008057  0.00962687  0.17325781  1
  Te  Te199  1  0.33443968  0.00111282  0.49476890  1
  Te  Te200  1  0.33428988  0.00709544  0.83222304  1
  Te  Te201  1  0.32828197  0.32919024  0.16985177  1
  Te  Te202  1  0.33303845  0.33239339  0.49272513  1
  Te  Te203  1  0.33132920  0.33253709  0.83367473  1
  Te  Te204  1  0.33334789  0.66485198  0.16182111  1
  Te  Te205  1  0.32549735  0.66583419  0.50039149  1
  Te  Te206  1  0.34017313  0.66427037  0.83917252  1
  Te  Te207  1  0.66800852  -0.00242574  0.15756551  1
  Te  Te208  1  0.67075939  0.00297071  0.50003829  1
  Te  Te209  1  0.66766170  0.00183294  0.83463869  1
  Te  Te210  1  0.66650818  0.33331872  0.16482808  1
  Te  Te211  1  0.66685555  0.32595860  0.49183464  1
  Te  Te212  1  0.66953441  0.33285276  0.83819238  1
  Te  Te213  1  0.66283592  0.67097861  0.17020257  1
  Te  Te214  1  0.66465777  0.66750169  0.50741123  1
  Te  Te215  1  0.66237809  0.66351481  0.82865137  1
