# generated using pymatgen
data_AgSbTe2
_symmetry_space_group_name_H-M   'P 1'
_cell_length_a   18.32159189
_cell_length_b   18.32462223
_cell_length_c   18.32061808
_cell_angle_alpha   90.00388869
_cell_angle_beta   89.99765598
_cell_angle_gamma   90.00044364
_symmetry_Int_Tables_number   1
_chemical_formula_structural   AgSbTe2
_chemical_formula_sum   'Ag54 Sb54 Te108'
_cell_volume   6150.89559247
_cell_formula_units_Z   54
loop_
 _symmetry_equiv_pos_site_id
 _symmetry_equiv_pos_as_xyz
  1  'x, y, z'
loop_
 _atom_site_type_symbol
 _atom_site_label
 _atom_site_symmetry_multiplicity
 _atom_site_fract_x
 _atom_site_fract_y
 _atom_site_fract_z
 _atom_site_occupancy
  Ag  Ag0  1  0.83091396  0.16680574  0.32803916  1
  Ag  Ag1  1  0.49771181  0.66555033  0.82998876  1
  Ag  Ag2  1  0.33364345  0.66699719  0.66400743  1
  Ag  Ag3  1  0.67035570  0.17236069  0.16972427  1
  Ag  Ag4  1  0.00269046  0.00388870  -0.00828936  1
  Ag  Ag5  1  0.67522426  0.00194086  0.00087246  1
  Ag  Ag6  1  0.17022321  -0.00622729  0.49826157  1
  Ag  Ag7  1  0.82929082  0.33499374  0.49456083  1
  Ag  Ag8  1  0.16993756  0.67262262  0.17374612  1
  Ag  Ag9  1  -0.00123767  0.32186092  0.00016293  1
  Ag  Ag10  1  0.66175774  0.49561900  0.17311414  1
  Ag  Ag11  1  0.34415755  0.50015303  0.16822359  1
  Ag  Ag12  1  0.66039618  0.33526216  0.33164531  1
  Ag  Ag13  1  0.83906352  0.16254223  0.00318343  1
  Ag  Ag14  1  0.00087484  0.67269661  0.66194419  1
  Ag  Ag15  1  0.33163731  0.16242848  0.49994823  1
  Ag  Ag16  1  0.83700037  0.83843676  0.66403627  1
  Ag  Ag17  1  0.50055662  0.49852948  0.00669431  1
  Ag  Ag18  1  0.84108262  0.00319083  0.83675017  1
  Ag  Ag19  1  0.48586067  0.00109485  0.83357375  1
  Ag  Ag20  1  0.00888892  0.82921294  0.50311911  1
  Ag  Ag21  1  0.50443143  0.33777368  0.17390994  1
  Ag  Ag22  1  0.16727896  0.84394139  0.00580734  1
  Ag  Ag23  1  0.16845018  0.00092656  0.83298476  1
  Ag  Ag24  1  0.17525930  0.50406730  0.66381974  1
  Ag  Ag25  1  0.33128089  0.15950075  0.82591102  1
  Ag  Ag26  1  0.32930590  0.00525490  0.34006984  1
  Ag  Ag27  1  0.66533815  0.66059677  0.33486130  1
  Ag  Ag28  1  0.83837100  0.66316970  0.50003840  1
  Ag  Ag29  1  0.49416696  0.16955958  0.33253766  1
  Ag  Ag30  1  0.83619738  0.00782586  0.16120591  1
  Ag  Ag31  1  0.82423768  0.32266587  0.17488293  1
  Ag  Ag32  1  0.83475086  0.16120163  0.66603661  1
  Ag  Ag33  1  0.16232417  0.67332947  0.49920336  1
  Ag  Ag34  1  0.34340801  0.32450663  0.34013142  1
  Ag  Ag35  1  -0.00196861  0.50739557  0.50427200  1
  Ag  Ag36  1  0.49908943  0.33400477  0.49166156  1
  Ag  Ag37  1  0.33706134  0.33121900  0.66088749  1
  Ag  Ag38  1  0.00367752  0.16156099  0.83651953  1
  Ag  Ag39  1  0.17246828  0.83988023  0.33629101  1
  Ag  Ag40  1  0.49749827  0.33269170  0.83227266  1
  Ag  Ag41  1  0.16522412  -0.00084663  0.16424121  1
  Ag  Ag42  1  0.17541349  0.15835258  0.33080498  1
  Ag  Ag43  1  0.82804442  0.66643140  0.17380832  1
  Ag  Ag44  1  0.50133965  0.65640803  0.16811233  1
  Ag  Ag45  1  0.66518964  0.66437056  0.65793191  1
  Ag  Ag46  1  0.49534568  0.50072332  0.66947948  1
  Ag  Ag47  1  0.32674916  0.00021355  0.66587780  1
  Ag  Ag48  1  0.66794214  0.50023849  0.49439194  1
  Ag  Ag49  1  0.16045755  0.15994009  0.00365804  1
  Ag  Ag50  1  0.33264752  0.84447374  0.82238012  1
  Ag  Ag51  1  0.00667523  -0.00262771  0.67083416  1
  Ag  Ag52  1  0.32820154  0.83952389  0.50284027  1
  Ag  Ag53  1  0.49220774  0.83751123  0.33388252  1
  Sb  Sb54  1  0.00241858  0.83458730  0.17088960  1
  Sb  Sb55  1  0.33600201  0.49798171  0.83174332  1
  Sb  Sb56  1  0.32751394  0.00071339  -0.00309964  1
  Sb  Sb57  1  0.16998169  0.49840618  -0.00130008  1
  Sb  Sb58  1  0.66652428  0.83183745  0.16842347  1
  Sb  Sb59  1  0.49813023  0.82934506  0.66276517  1
  Sb  Sb60  1  -0.00185258  0.33032170  0.33121585  1
  Sb  Sb61  1  0.33334341  0.66709698  -0.00252178  1
  Sb  Sb62  1  0.17179522  0.32488677  0.83253298  1
  Sb  Sb63  1  0.00704983  0.84136878  0.82687812  1
  Sb  Sb64  1  0.66792941  0.32851277  0.00905393  1
  Sb  Sb65  1  0.16786014  0.33049611  0.16809740  1
  Sb  Sb66  1  0.17231018  0.67586162  0.82765301  1
  Sb  Sb67  1  0.66303195  0.49999482  0.83266162  1
  Sb  Sb68  1  0.66505822  0.82691093  0.50011389  1
  Sb  Sb69  1  0.66709817  -0.00215291  0.66991315  1
  Sb  Sb70  1  0.84050341  0.00092346  0.50031991  1
  Sb  Sb71  1  -0.00198647  0.50064985  0.17004500  1
  Sb  Sb72  1  0.82991490  0.49482050  0.33497669  1
  Sb  Sb73  1  0.49455968  0.83176319  0.00208200  1
  Sb  Sb74  1  0.66314529  0.00291483  0.32961366  1
  Sb  Sb75  1  0.49974744  0.17021552  0.66438676  1
  Sb  Sb76  1  0.33305291  0.33135107  0.00056341  1
  Sb  Sb77  1  0.66122305  0.33797723  0.65924160  1
  Sb  Sb78  1  0.33651193  0.66836867  0.33716818  1
  Sb  Sb79  1  0.82849181  0.49341767  0.00495370  1
  Sb  Sb80  1  0.33094174  0.83126145  0.17127513  1
  Sb  Sb81  1  0.49831352  0.00149615  0.16458276  1
  Sb  Sb82  1  0.50022229  0.66145053  0.49875564  1
  Sb  Sb83  1  0.66612012  0.66896453  0.00332057  1
  Sb  Sb84  1  0.66488118  0.17188899  0.49406513  1
  Sb  Sb85  1  0.16957468  0.50112756  0.33667839  1
  Sb  Sb86  1  0.66498632  0.16451430  0.83797707  1
  Sb  Sb87  1  0.82887455  0.32504068  0.83267212  1
  Sb  Sb88  1  0.00179160  0.49501816  0.82752514  1
  Sb  Sb89  1  0.00258586  0.33133701  0.66843493  1
  Sb  Sb90  1  0.16623531  0.83338778  0.65982646  1
  Sb  Sb91  1  0.16844767  0.33279981  0.49959464  1
  Sb  Sb92  1  0.33559302  0.49854601  0.49951558  1
  Sb  Sb93  1  -0.00322261  0.66727430  0.34095689  1
  Sb  Sb94  1  0.50021447  0.49637026  0.33200368  1
  Sb  Sb95  1  0.82934483  0.67561663  0.82743021  1
  Sb  Sb96  1  0.49889231  0.16866073  0.00264122  1
  Sb  Sb97  1  0.00779262  0.00135728  0.33422411  1
  Sb  Sb98  1  0.00271839  0.16503992  0.50424569  1
  Sb  Sb99  1  0.16797711  0.16430592  0.66597841  1
  Sb  Sb100  1  0.83439097  0.83655270  0.33702982  1
  Sb  Sb101  1  -0.00476604  0.16530262  0.16010643  1
  Sb  Sb102  1  0.33525034  0.16851042  0.17186125  1
  Sb  Sb103  1  0.49179272  0.00410244  0.50229982  1
  Sb  Sb104  1  0.83992338  0.84140171  -0.00249969  1
  Sb  Sb105  1  0.83139838  0.50051072  0.66291241  1
  Sb  Sb106  1  0.66019777  0.83507759  0.83222928  1
  Sb  Sb107  1  0.00115179  0.67043696  -0.00412668  1
  Te  Te108  1  0.16733409  0.16381832  0.16733612  1
  Te  Te109  1  0.17020451  0.16428943  0.49685433  1
  Te  Te110  1  0.16797369  0.16191445  0.83367651  1
  Te  Te111  1  0.16665625  0.50392616  0.16671581  1
  Te  Te112  1  0.16510799  0.50321963  0.50308659  1
  Te  Te113  1  0.16755456  0.50177190  0.82868816  1
  Te  Te114  1  0.16650120  0.83342230  0.16871252  1
  Te  Te115  1  0.16829802  0.83319710  0.49827553  1
  Te  Te116  1  0.17263504  0.83925197  0.83928220  1
  Te  Te117  1  0.50354023  0.17015545  0.16991722  1
  Te  Te118  1  0.49650566  0.17213040  0.49543025  1
  Te  Te119  1  0.49654809  0.16534206  0.83412521  1
  Te  Te120  1  0.50161976  0.49919080  0.16801276  1
  Te  Te121  1  0.50274104  0.49421032  0.50549992  1
  Te  Te122  1  0.49985119  0.50162505  0.83083683  1
  Te  Te123  1  0.49828947  0.83060848  0.17102557  1
  Te  Te124  1  0.49513423  0.83363016  0.49443017  1
  Te  Te125  1  0.49300631  0.83348489  0.83386283  1
  Te  Te126  1  0.83260430  0.16561107  0.16621702  1
  Te  Te127  1  0.83383465  0.16913801  0.49934085  1
  Te  Te128  1  0.83228123  0.16239698  0.83411182  1
  Te  Te129  1  0.82941540  0.50639455  0.16785928  1
  Te  Te130  1  0.83142306  0.50182624  0.50061851  1
  Te  Te131  1  0.83226611  0.50079820  0.83497258  1
  Te  Te132  1  0.83452344  0.83074374  0.16717071  1
  Te  Te133  1  0.83469632  0.83047842  0.50295654  1
  Te  Te134  1  0.83313923  0.84148214  0.82820729  1
  Te  Te135  1  0.16572867  0.00251739  0.00243864  1
  Te  Te136  1  0.16827482  0.00033709  0.33405357  1
  Te  Te137  1  0.16704588  0.00063626  0.66751444  1
  Te  Te138  1  0.16093369  0.32989940  0.00015893  1
  Te  Te139  1  0.16944605  0.32746003  0.33287019  1
  Te  Te140  1  0.17260379  0.33899439  0.66675512  1
  Te  Te141  1  0.16521574  0.66675156  0.00481686  1
  Te  Te142  1  0.16684995  0.66900510  0.33394836  1
  Te  Te143  1  0.16852420  0.66568921  0.66396906  1
  Te  Te144  1  0.50135372  -0.00053514  -0.00472704  1
  Te  Te145  1  0.49512821  0.00207245  0.33317727  1
  Te  Te146  1  0.49828836  -0.00069225  0.67376655  1
  Te  Te147  1  0.50060990  0.33703031  -0.00137399  1
  Te  Te148  1  0.50026586  0.33204157  0.33285490  1
  Te  Te149  1  0.49700577  0.33589939  0.66790341  1
  Te  Te150  1  0.50070453  0.66361064  0.00166668  1
  Te  Te151  1  0.50293732  0.66958778  0.33042335  1
  Te  Te152  1  0.49844307  0.66468641  0.66643007  1
  Te  Te153  1  0.83741810  0.00214040  0.00146045  1
  Te  Te154  1  0.83245398  0.00483594  0.32841488  1
  Te  Te155  1  0.83249635  0.00079561  0.66626702  1
  Te  Te156  1  0.83625302  0.32618499  0.00149919  1
  Te  Te157  1  0.83190805  0.32848766  0.33349895  1
  Te  Te158  1  0.83278520  0.32925290  0.66310485  1
  Te  Te159  1  0.83393886  0.66812435  0.00167684  1
  Te  Te160  1  0.82906276  0.66997016  0.33453423  1
  Te  Te161  1  0.83342517  0.66739379  0.66372305  1
  Te  Te162  1  0.00047314  0.16375254  -0.00258526  1
  Te  Te163  1  -0.00162694  0.16632370  0.33510097  1
  Te  Te164  1  -0.00297795  0.16371893  0.67203151  1
  Te  Te165  1  -0.00022199  0.49834830  -0.00195758  1
  Te  Te166  1  0.00092331  0.49885769  0.34287009  1
  Te  Te167  1  0.00223066  0.50027085  0.66292248  1
  Te  Te168  1  0.00760010  0.83872558  -0.00103545  1
  Te  Te169  1  0.00555212  0.83410625  0.34193203  1
  Te  Te170  1  -0.00203093  0.83454837  0.66336147  1
  Te  Te171  1  0.32890151  0.16803838  -0.00661129  1
  Te  Te172  1  0.33393762  0.16577348  0.33407737  1
  Te  Te173  1  0.33442091  0.16561810  0.66478686  1
  Te  Te174  1  0.33818493  0.49924551  0.00640212  1
  Te  Te175  1  0.33254361  0.49388245  0.32866501  1
  Te  Te176  1  0.33481727  0.50009272  0.66582720  1
  Te  Te177  1  0.32677530  0.83285948  -0.00432480  1
  Te  Te178  1  0.33259351  0.83505785  0.33721915  1
  Te  Te179  1  0.33362564  0.83540451  0.66350710  1
  Te  Te180  1  0.66850262  0.16210576  0.00580896  1
  Te  Te181  1  0.66807587  0.16930571  0.32947411  1
  Te  Te182  1  0.67328192  0.16687838  0.66507750  1
  Te  Te183  1  0.66106222  0.50022099  0.00543710  1
  Te  Te184  1  0.66644628  0.50025449  0.33327482  1
  Te  Te185  1  0.66262549  0.50506790  0.66408895  1
  Te  Te186  1  0.66678300  0.84088201  0.00023018  1
  Te  Te187  1  0.66275724  0.83088985  0.33398474  1
  Te  Te188  1  0.67215699  0.82590671  0.66621413  1
  Te  Te189  1  0.00161244  -0.00094016  0.16399796  1
  Te  Te190  1  0.00672315  -0.00318088  0.50599547  1
  Te  Te191  1  0.00141812  0.00182776  0.83112021  1
  Te  Te192  1  -0.00543902  0.33625884  0.16199094  1
  Te  Te193  1  -0.00486247  0.33558771  0.50042865  1
  Te  Te194  1  -0.00067853  0.32654993  0.83736932  1
  Te  Te195  1  -0.00011128  0.66653870  0.16550594  1
  Te  Te196  1  -0.00026010  0.66737606  0.50292947  1
  Te  Te197  1  -0.00052689  0.66646956  0.82408920  1
  Te  Te198  1  0.32920851  -0.00014074  0.17188204  1
  Te  Te199  1  0.33076089  0.00131277  0.50183866  1
  Te  Te200  1  0.32948230  0.00149237  0.83273252  1
  Te  Te201  1  0.33612486  0.33636681  0.16882017  1
  Te  Te202  1  0.33466942  0.33144894  0.50021455  1
  Te  Te203  1  0.33834202  0.33044016  0.82986618  1
  Te  Te204  1  0.33365551  0.66385484  0.16770875  1
  Te  Te205  1  0.33043015  0.66743767  0.50346287  1
  Te  Te206  1  0.33805284  0.66691203  0.82746021  1
  Te  Te207  1  0.66796723  0.00279660  0.16269078  1
  Te  Te208  1  0.66599361  -0.00172176  0.50018287  1
  Te  Te209  1  0.67097091  -0.00041244  0.83775357  1
  Te  Te210  1  0.66665442  0.33420256  0.16988455  1
  Te  Te211  1  0.66852142  0.33783395  0.49387910  1
  Te  Te212  1  0.65841824  0.33289119  0.83250214  1
  Te  Te213  1  0.66569291  0.66489750  0.16866004  1
  Te  Te214  1  0.66798892  0.66216163  0.49799359  1
  Te  Te215  1  0.65991312  0.66769777  0.83047030  1
