# generated using pymatgen
data_AgSbTe2
_symmetry_space_group_name_H-M   'P 1'
_cell_length_a   18.37075354
_cell_length_b   18.36843601
_cell_length_c   18.36805760
_cell_angle_alpha   89.99565566
_cell_angle_beta   89.99910624
_cell_angle_gamma   89.99628625
_symmetry_Int_Tables_number   1
_chemical_formula_structural   AgSbTe2
_chemical_formula_sum   'Ag54 Sb54 Te108'
_cell_volume   6198.15426074
_cell_formula_units_Z   54
loop_
 _symmetry_equiv_pos_site_id
 _symmetry_equiv_pos_as_xyz
  1  'x, y, z'
loop_
 _atom_site_type_symbol
 _atom_site_label
 _atom_site_symmetry_multiplicity
 _atom_site_fract_x
 _atom_site_fract_y
 _atom_site_fract_z
 _atom_site_occupancy
  Ag  Ag0  1  0.33425148  0.00389922  0.67139756  1
  Ag  Ag1  1  0.49813267  0.00291668  0.51366157  1
  Ag  Ag2  1  0.66920990  0.16595058  0.49700440  1
  Ag  Ag3  1  0.33378098  0.48706341  0.83303724  1
  Ag  Ag4  1  0.33348452  0.31608252  0.67429010  1
  Ag  Ag5  1  0.17210307  0.00425811  0.51306872  1
  Ag  Ag6  1  0.82950029  0.01123327  0.15470686  1
  Ag  Ag7  1  0.33821187  0.00435792  -0.01049986  1
  Ag  Ag8  1  0.66559943  0.50101601  0.83216604  1
  Ag  Ag9  1  0.82868401  0.68123053  0.83353807  1
  Ag  Ag10  1  0.16572268  0.48136575  -0.00460267  1
  Ag  Ag11  1  0.67738554  0.16360691  0.16729256  1
  Ag  Ag12  1  0.32074372  0.16623087  0.82473127  1
  Ag  Ag13  1  0.66823124  0.84803472  0.15945606  1
  Ag  Ag14  1  0.66671751  0.68272228  0.66766295  1
  Ag  Ag15  1  0.00120653  0.32824427  0.00659987  1
  Ag  Ag16  1  0.01823683  0.00390618  0.66740629  1
  Ag  Ag17  1  0.64941340  -0.00073043  0.67808565  1
  Ag  Ag18  1  0.67290759  0.31898131  0.00172699  1
  Ag  Ag19  1  0.83019985  0.84945266  -0.00755155  1
  Ag  Ag20  1  0.15374080  0.32698144  0.15610128  1
  Ag  Ag21  1  0.16923130  0.00860932  0.82730025  1
  Ag  Ag22  1  0.51355023  0.00349559  0.16573596  1
  Ag  Ag23  1  0.17039186  0.84998295  0.67121692  1
  Ag  Ag24  1  0.50436130  0.84680672  0.66590639  1
  Ag  Ag25  1  -0.00232272  0.48297906  0.16608711  1
  Ag  Ag26  1  0.33026341  0.16442785  0.16403106  1
  Ag  Ag27  1  0.50147828  0.83826942  0.33638553  1
  Ag  Ag28  1  0.82261779  -0.00155156  0.83468539  1
  Ag  Ag29  1  0.66914108  0.00206371  -0.00449842  1
  Ag  Ag30  1  0.82004602  0.84014530  0.67504318  1
  Ag  Ag31  1  0.67205650  0.32939996  0.32369622  1
  Ag  Ag32  1  0.84356350  0.32073417  0.16766678  1
  Ag  Ag33  1  0.16983641  0.83636565  0.33294334  1
  Ag  Ag34  1  0.33750254  0.66753060  0.33325114  1
  Ag  Ag35  1  0.15915436  0.16634601  -0.00637275  1
  Ag  Ag36  1  0.49116225  0.31932222  0.83310021  1
  Ag  Ag37  1  -0.00077768  0.00847168  0.33651785  1
  Ag  Ag38  1  -0.00905389  0.16982430  0.16564950  1
  Ag  Ag39  1  0.83476084  0.16567480  0.00581223  1
  Ag  Ag40  1  0.66698348  0.49441041  0.50376697  1
  Ag  Ag41  1  0.17096619  0.32045483  0.83815489  1
  Ag  Ag42  1  0.32755188  0.16309033  0.51331182  1
  Ag  Ag43  1  0.00914733  0.16477911  0.84040588  1
  Ag  Ag44  1  -0.00046688  0.16273072  0.49966791  1
  Ag  Ag45  1  0.67106897  0.83965861  0.83017960  1
  Ag  Ag46  1  0.17988936  0.15931358  0.68296601  1
  Ag  Ag47  1  0.83580248  0.16682159  0.32012737  1
  Ag  Ag48  1  0.83016963  0.48467721  0.32976237  1
  Ag  Ag49  1  -0.00937449  0.32377153  0.31908123  1
  Ag  Ag50  1  0.50162495  0.00300040  0.82471505  1
  Ag  Ag51  1  0.16514530  0.66841838  0.83244152  1
  Ag  Ag52  1  0.49123683  0.15720257  0.66774617  1
  Ag  Ag53  1  0.66694461  0.66597566  0.33592095  1
  Sb  Sb54  1  0.33462046  0.33168443  0.33576926  1
  Sb  Sb55  1  0.83342664  0.15931676  0.67168907  1
  Sb  Sb56  1  0.50261716  0.67602903  0.16934032  1
  Sb  Sb57  1  0.83152884  0.50432674  0.66572882  1
  Sb  Sb58  1  0.50637330  0.84015919  -0.00339005  1
  Sb  Sb59  1  0.16697355  0.49421519  0.67504154  1
  Sb  Sb60  1  0.32956639  0.32195304  -0.00621747  1
  Sb  Sb61  1  0.83338789  0.32681649  0.83979272  1
  Sb  Sb62  1  0.66845072  0.67088550  -0.00345184  1
  Sb  Sb63  1  0.33083220  0.00153357  0.33446154  1
  Sb  Sb64  1  0.66625008  0.16189141  0.83527538  1
  Sb  Sb65  1  0.67113208  0.49400227  0.16463534  1
  Sb  Sb66  1  0.66411541  0.32611285  0.67108056  1
  Sb  Sb67  1  0.50342528  0.32341134  0.16099871  1
  Sb  Sb68  1  0.66614767  0.83986733  0.50276834  1
  Sb  Sb69  1  0.00172579  0.84372454  0.50072816  1
  Sb  Sb70  1  0.16214543  0.50134488  0.32861030  1
  Sb  Sb71  1  -0.00443646  0.67845730  0.67018060  1
  Sb  Sb72  1  0.50220085  0.32303839  0.50618457  1
  Sb  Sb73  1  0.49633731  0.49421158  -0.00285209  1
  Sb  Sb74  1  0.33084734  0.67145037  -0.00072867  1
  Sb  Sb75  1  0.83032508  0.83944279  0.33341549  1
  Sb  Sb76  1  0.83086536  0.32770746  0.49154733  1
  Sb  Sb77  1  0.50237680  0.67215339  0.83106553  1
  Sb  Sb78  1  0.50502089  0.16144269  0.33656459  1
  Sb  Sb79  1  -0.00591394  0.00962963  -0.00331377  1
  Sb  Sb80  1  0.15952151  0.84384307  -0.00375146  1
  Sb  Sb81  1  0.66934292  0.00276458  0.33143172  1
  Sb  Sb82  1  0.15802626  0.16269547  0.33178179  1
  Sb  Sb83  1  0.16626062  0.32380049  0.50113257  1
  Sb  Sb84  1  0.16275198  0.00751518  0.16307194  1
  Sb  Sb85  1  0.50237086  0.49765122  0.66884032  1
  Sb  Sb86  1  0.16691559  0.66316892  0.16316992  1
  Sb  Sb87  1  0.33548808  0.84253262  0.83259785  1
  Sb  Sb88  1  0.82924656  0.66654377  0.50282387  1
  Sb  Sb89  1  0.83201346  0.00240684  0.50508251  1
  Sb  Sb90  1  0.32696739  0.49261670  0.16032203  1
  Sb  Sb91  1  -0.00333792  0.66708523  0.33287210  1
  Sb  Sb92  1  0.33717918  0.49346092  0.50444206  1
  Sb  Sb93  1  -0.00050302  0.49255178  0.83657317  1
  Sb  Sb94  1  0.50833471  0.50357520  0.33267532  1
  Sb  Sb95  1  0.33823873  0.84196143  0.16866740  1
  Sb  Sb96  1  -0.00564554  0.84490400  0.83261376  1
  Sb  Sb97  1  -0.00526355  0.84387604  0.16656884  1
  Sb  Sb98  1  -0.00080835  0.65910694  -0.00241408  1
  Sb  Sb99  1  0.33461804  0.84259760  0.50009885  1
  Sb  Sb100  1  0.83132190  0.66874070  0.16291608  1
  Sb  Sb101  1  0.33671146  0.67236026  0.66641813  1
  Sb  Sb102  1  0.50215629  0.67412314  0.50090291  1
  Sb  Sb103  1  0.00451842  0.32163558  0.67024610  1
  Sb  Sb104  1  -0.00462589  0.48843192  0.49361025  1
  Sb  Sb105  1  0.16831740  0.67544804  0.50507396  1
  Sb  Sb106  1  0.50010167  0.16317195  -0.00610460  1
  Sb  Sb107  1  0.83503182  0.49384053  0.00295633  1
  Te  Te108  1  0.16847237  0.16981562  0.16654992  1
  Te  Te109  1  0.16651221  0.16191747  0.49733121  1
  Te  Te110  1  0.16523488  0.16535114  0.83741936  1
  Te  Te111  1  0.16104308  0.49489487  0.15997265  1
  Te  Te112  1  0.16633966  0.49993218  0.50018093  1
  Te  Te113  1  0.16661959  0.50258019  0.83736164  1
  Te  Te114  1  0.16525316  0.83290731  0.16850682  1
  Te  Te115  1  0.16806907  0.84109014  0.49850566  1
  Te  Te116  1  0.16584837  0.83321912  0.83208914  1
  Te  Te117  1  0.49539155  0.16239325  0.16818046  1
  Te  Te118  1  0.50234941  0.16138363  0.50309371  1
  Te  Te119  1  0.50167362  0.16290482  0.82875364  1
  Te  Te120  1  0.49686966  0.50034028  0.16552535  1
  Te  Te121  1  0.50605001  0.49971180  0.50061978  1
  Te  Te122  1  0.50065549  0.50285920  0.83370422  1
  Te  Te123  1  0.50602688  0.84100267  0.16999201  1
  Te  Te124  1  0.50019701  0.84129745  0.50045821  1
  Te  Te125  1  0.50494890  0.83936921  0.82967208  1
  Te  Te126  1  0.83176632  0.16562804  0.16483387  1
  Te  Te127  1  0.83278895  0.16582283  0.50047343  1
  Te  Te128  1  0.83544307  0.16117394  0.83902625  1
  Te  Te129  1  0.83720501  0.50192443  0.17030616  1
  Te  Te130  1  0.82774736  0.49931950  0.49301340  1
  Te  Te131  1  0.83012873  0.49774408  0.83400530  1
  Te  Te132  1  0.82732256  0.83619323  0.16506907  1
  Te  Te133  1  0.83484052  0.83316363  0.50916677  1
  Te  Te134  1  0.83159215  0.83795899  0.83268800  1
  Te  Te135  1  0.16934927  0.00538353  -0.00444229  1
  Te  Te136  1  0.16310209  -0.00447250  0.32983124  1
  Te  Te137  1  0.17329470  0.00508243  0.66756374  1
  Te  Te138  1  0.16950897  0.32567817  -0.00150128  1
  Te  Te139  1  0.16541828  0.33577312  0.33255076  1
  Te  Te140  1  0.17155855  0.32748585  0.67092060  1
  Te  Te141  1  0.16614196  0.67235854  -0.00588484  1
  Te  Te142  1  0.16730356  0.67150413  0.33433170  1
  Te  Te143  1  0.16666244  0.66616733  0.67094318  1
  Te  Te144  1  0.50267588  -0.00118410  0.00617707  1
  Te  Te145  1  0.49854510  -0.00360052  0.32583049  1
  Te  Te146  1  0.49509339  0.00130255  0.66908537  1
  Te  Te147  1  0.51038083  0.33265735  -0.00748725  1
  Te  Te148  1  0.50610860  0.33467006  0.33325877  1
  Te  Te149  1  0.49592025  0.33092759  0.67383878  1
  Te  Te150  1  0.49869824  0.66737801  0.00090789  1
  Te  Te151  1  0.50331907  0.67401638  0.33434563  1
  Te  Te152  1  0.50588858  0.67275302  0.66616850  1
  Te  Te153  1  0.83348468  0.00468218  -0.00316350  1
  Te  Te154  1  0.83856448  0.00338160  0.33625135  1
  Te  Te155  1  0.82907003  -0.00252802  0.67135474  1
  Te  Te156  1  0.83326331  0.32938573  0.00516068  1
  Te  Te157  1  0.83187606  0.32773867  0.32952211  1
  Te  Te158  1  0.83483290  0.33432237  0.66695056  1
  Te  Te159  1  0.83319355  0.66484597  -0.00723742  1
  Te  Te160  1  0.82792064  0.67066122  0.33328036  1
  Te  Te161  1  0.82827140  0.67278958  0.67257527  1
  Te  Te162  1  -0.00097942  0.16824050  0.00217409  1
  Te  Te163  1  -0.00182037  0.16700212  0.33102420  1
  Te  Te164  1  -0.00056141  0.16183398  0.66281001  1
  Te  Te165  1  0.00407416  0.49213637  0.00412863  1
  Te  Te166  1  -0.00632795  0.49840684  0.32852019  1
  Te  Te167  1  -0.00120039  0.49969370  0.66322745  1
  Te  Te168  1  -0.00948490  0.83012632  0.00042928  1
  Te  Te169  1  0.00331950  0.83567540  0.33338405  1
  Te  Te170  1  0.01136678  0.84263664  0.66669180  1
  Te  Te171  1  0.33447297  0.16176514  0.00127778  1
  Te  Te172  1  0.33434918  0.16924099  0.32853710  1
  Te  Te173  1  0.33503665  0.16111112  0.66846656  1
  Te  Te174  1  0.32689320  0.50297637  -0.00654367  1
  Te  Te175  1  0.33453155  0.50317716  0.33426493  1
  Te  Te176  1  0.33450990  0.50235909  0.67283177  1
  Te  Te177  1  0.33306396  0.84124878  0.00127326  1
  Te  Te178  1  0.33468106  0.83022167  0.33360925  1
  Te  Te179  1  0.33013824  0.83678869  0.66609533  1
  Te  Te180  1  0.66610204  0.16199227  0.00149132  1
  Te  Te181  1  0.66985022  0.16883156  0.33327566  1
  Te  Te182  1  0.66602722  0.16178453  0.66300531  1
  Te  Te183  1  0.66609386  0.50265841  -0.00486588  1
  Te  Te184  1  0.67056309  0.49952418  0.33215841  1
  Te  Te185  1  0.66793643  0.49683024  0.66786830  1
  Te  Te186  1  0.67101666  0.83665773  0.00049873  1
  Te  Te187  1  0.66535838  0.83061036  0.33535464  1
  Te  Te188  1  0.66370743  0.83895693  0.66642122  1
  Te  Te189  1  -0.00584066  0.00625822  0.16935267  1
  Te  Te190  1  0.00088914  0.00467703  0.50014232  1
  Te  Te191  1  0.00823775  0.00569427  0.83141038  1
  Te  Te192  1  -0.00099940  0.32777806  0.16421450  1
  Te  Te193  1  0.00000828  0.32412427  0.49771249  1
  Te  Te194  1  0.00387668  0.32677610  0.83721646  1
  Te  Te195  1  0.00003675  0.66583931  0.16606814  1
  Te  Te196  1  -0.00059732  0.66285457  0.50097337  1
  Te  Te197  1  -0.00018723  0.66296307  0.83218981  1
  Te  Te198  1  0.33031608  0.00465989  0.16617500  1
  Te  Te199  1  0.33409135  0.00563076  0.49988817  1
  Te  Te200  1  0.33479146  0.00201324  0.83242001  1
  Te  Te201  1  0.33457529  0.32850932  0.16616804  1
  Te  Te202  1  0.33421589  0.32667876  0.50737347  1
  Te  Te203  1  0.33275987  0.32961492  0.83382930  1
  Te  Te204  1  0.33435505  0.66590269  0.17157860  1
  Te  Te205  1  0.33419263  0.66252151  0.49447226  1
  Te  Te206  1  0.33068863  0.66698316  0.83314165  1
  Te  Te207  1  0.67128282  0.00373513  0.16957968  1
  Te  Te208  1  0.66218602  0.00561539  0.49852466  1
  Te  Te209  1  0.66392603  -0.00046744  0.83553284  1
  Te  Te210  1  0.66776355  0.32955409  0.16398788  1
  Te  Te211  1  0.66563481  0.33184169  0.50084328  1
  Te  Te212  1  0.66796629  0.33563455  0.83729229  1
  Te  Te213  1  0.66641956  0.66457496  0.17186436  1
  Te  Te214  1  0.66632695  0.66132729  0.50170109  1
  Te  Te215  1  0.66781971  0.66793368  0.83007731  1
