# generated using pymatgen
data_AgSbTe2
_symmetry_space_group_name_H-M   'P 1'
_cell_length_a   18.36676126
_cell_length_b   18.36407027
_cell_length_c   18.36641384
_cell_angle_alpha   90.00009604
_cell_angle_beta   89.99915471
_cell_angle_gamma   90.00145506
_symmetry_Int_Tables_number   1
_chemical_formula_structural   AgSbTe2
_chemical_formula_sum   'Ag54 Sb54 Te108'
_cell_volume   6194.78006654
_cell_formula_units_Z   54
loop_
 _symmetry_equiv_pos_site_id
 _symmetry_equiv_pos_as_xyz
  1  'x, y, z'
loop_
 _atom_site_type_symbol
 _atom_site_label
 _atom_site_symmetry_multiplicity
 _atom_site_fract_x
 _atom_site_fract_y
 _atom_site_fract_z
 _atom_site_occupancy
  Ag  Ag0  1  0.16796624  0.49389728  0.33540241  1
  Ag  Ag1  1  0.67690824  0.66620235  -0.01275400  1
  Ag  Ag2  1  -0.00552068  0.66078586  0.66948732  1
  Ag  Ag3  1  -0.00479176  0.66233697  -0.01130304  1
  Ag  Ag4  1  0.66800942  0.50168021  0.16668357  1
  Ag  Ag5  1  0.16351125  0.49693651  -0.01020654  1
  Ag  Ag6  1  0.00832758  0.33547165  0.34704995  1
  Ag  Ag7  1  0.00466413  0.34397615  -0.00424095  1
  Ag  Ag8  1  0.49251463  0.33779496  0.82947926  1
  Ag  Ag9  1  -0.00339703  0.00110451  0.66436757  1
  Ag  Ag10  1  0.31928563  0.33514640  -0.01022443  1
  Ag  Ag11  1  0.67296974  0.49595778  0.50809633  1
  Ag  Ag12  1  0.83083172  0.82462746  -0.01036996  1
  Ag  Ag13  1  0.15602162  0.33711491  0.52086182  1
  Ag  Ag14  1  0.15463853  0.18473834  0.66806642  1
  Ag  Ag15  1  -0.00443648  0.49535009  0.50882757  1
  Ag  Ag16  1  0.16650835  0.33911697  0.15026667  1
  Ag  Ag17  1  0.15611686  0.65160262  0.83344091  1
  Ag  Ag18  1  0.32272021  0.49583738  0.82917688  1
  Ag  Ag19  1  0.83463410  0.01208962  0.50284728  1
  Ag  Ag20  1  0.83700376  0.17758785  0.66288831  1
  Ag  Ag21  1  0.51592265  0.50036977  0.66491672  1
  Ag  Ag22  1  0.14347205  0.49786706  0.67855840  1
  Ag  Ag23  1  0.83038085  -0.00464939  0.17107598  1
  Ag  Ag24  1  0.49994712  0.49613085  0.34411371  1
  Ag  Ag25  1  0.32157915  0.33650491  0.33574261  1
  Ag  Ag26  1  0.15270721  0.82546064  0.66680805  1
  Ag  Ag27  1  0.66793314  0.50134483  0.82342634  1
  Ag  Ag28  1  0.82945503  0.49711199  0.66676203  1
  Ag  Ag29  1  -0.01283512  0.18186086  0.50469166  1
  Ag  Ag30  1  0.01000087  0.50075446  0.82163155  1
  Ag  Ag31  1  -0.00137737  0.83036901  0.50816713  1
  Ag  Ag32  1  0.16790900  0.33867970  0.83613247  1
  Ag  Ag33  1  0.83543407  0.66719181  0.15665034  1
  Ag  Ag34  1  0.67547687  0.17718550  0.50716006  1
  Ag  Ag35  1  0.83405324  0.66578203  0.83235151  1
  Ag  Ag36  1  0.15840683  0.65498907  0.15758798  1
  Ag  Ag37  1  0.66904466  0.17974571  0.82305301  1
  Ag  Ag38  1  0.33273710  0.83289454  0.16478439  1
  Ag  Ag39  1  0.67838730  0.65691964  0.67011320  1
  Ag  Ag40  1  0.83476136  0.82747198  0.66798019  1
  Ag  Ag41  1  0.00639360  0.34438542  0.65989480  1
  Ag  Ag42  1  0.50811619  0.17719234  0.33533075  1
  Ag  Ag43  1  0.50774971  0.82331985  0.66992322  1
  Ag  Ag44  1  0.32066441  0.33730284  0.66877870  1
  Ag  Ag45  1  0.16242546  0.18203249  -0.01247705  1
  Ag  Ag46  1  0.67168943  0.34217472  0.66608743  1
  Ag  Ag47  1  0.66908848  0.00484715  0.33278402  1
  Ag  Ag48  1  0.50990864  0.83058833  -0.00842499  1
  Ag  Ag49  1  0.66854365  0.82342245  0.83109207  1
  Ag  Ag50  1  0.84488599  0.32435427  0.50570726  1
  Ag  Ag51  1  0.50352348  0.66096197  0.50683664  1
  Ag  Ag52  1  0.50928004  -0.00267255  0.16822103  1
  Ag  Ag53  1  0.82856760  0.16690130  0.34966896  1
  Sb  Sb54  1  0.33275341  0.65945319  0.33220894  1
  Sb  Sb55  1  0.00056865  0.83063735  0.16767937  1
  Sb  Sb56  1  0.50403623  0.00185512  0.83447908  1
  Sb  Sb57  1  0.49886119  0.50301596  -0.00427008  1
  Sb  Sb58  1  0.33437295  0.00279809  0.00145666  1
  Sb  Sb59  1  0.33457994  0.17615866  0.83204479  1
  Sb  Sb60  1  0.50574462  0.65965210  0.82826739  1
  Sb  Sb61  1  0.00005577  0.49955785  0.16687193  1
  Sb  Sb62  1  0.67045594  0.83015850  0.50722002  1
  Sb  Sb63  1  0.51004227  -0.00196293  0.49689454  1
  Sb  Sb64  1  0.83688104  0.34122710  0.82382976  1
  Sb  Sb65  1  0.83308841  0.83702828  0.33697497  1
  Sb  Sb66  1  0.50017409  0.33723817  0.50519190  1
  Sb  Sb67  1  -0.00218778  -0.00317118  -0.00468334  1
  Sb  Sb68  1  0.33045782  0.83177406  0.50212995  1
  Sb  Sb69  1  0.00001337  0.16964096  0.17017471  1
  Sb  Sb70  1  0.66844308  0.66646247  0.33716460  1
  Sb  Sb71  1  0.33187015  0.49727374  0.50701655  1
  Sb  Sb72  1  0.83766275  0.33566442  0.17161044  1
  Sb  Sb73  1  -0.00623773  0.00726362  0.34109203  1
  Sb  Sb74  1  0.33132857  0.50099524  0.16433649  1
  Sb  Sb75  1  0.33112142  0.66131110  -0.00063880  1
  Sb  Sb76  1  0.83818858  0.50552043  -0.00711063  1
  Sb  Sb77  1  0.32836957  0.00444804  0.66614273  1
  Sb  Sb78  1  0.50166154  0.66830726  0.16705210  1
  Sb  Sb79  1  0.83327588  -0.00503002  0.82850512  1
  Sb  Sb80  1  0.33700119  0.82400172  0.83496546  1
  Sb  Sb81  1  0.33964985  0.00638050  0.33088651  1
  Sb  Sb82  1  0.66722871  0.16997307  0.16756069  1
  Sb  Sb83  1  0.83181796  0.66270912  0.50612271  1
  Sb  Sb84  1  0.66857533  -0.00457012  0.00329449  1
  Sb  Sb85  1  0.16692579  0.65742493  0.50623489  1
  Sb  Sb86  1  0.66541631  0.82949943  0.16307151  1
  Sb  Sb87  1  0.16493735  0.00441563  0.83095449  1
  Sb  Sb88  1  0.49613381  0.33284873  0.16558164  1
  Sb  Sb89  1  0.66842195  0.33220787  0.33980227  1
  Sb  Sb90  1  0.49866849  0.16567631  0.00095157  1
  Sb  Sb91  1  0.33151719  0.17113208  0.50046971  1
  Sb  Sb92  1  0.16405804  0.82628748  -0.00451886  1
  Sb  Sb93  1  0.67364781  0.00030695  0.66332757  1
  Sb  Sb94  1  -0.00033759  0.66086900  0.33784681  1
  Sb  Sb95  1  0.49994214  0.83051542  0.33518241  1
  Sb  Sb96  1  0.50454636  0.17126764  0.66338179  1
  Sb  Sb97  1  -0.00498329  0.82294491  0.82604233  1
  Sb  Sb98  1  0.16383602  0.17817240  0.33859967  1
  Sb  Sb99  1  0.67025478  0.34038794  -0.00765956  1
  Sb  Sb100  1  0.83325281  0.49621748  0.33822242  1
  Sb  Sb101  1  0.83728076  0.16490799  -0.00503626  1
  Sb  Sb102  1  0.33231159  0.16744870  0.16659160  1
  Sb  Sb103  1  0.16577578  0.82525660  0.33744741  1
  Sb  Sb104  1  0.15640548  0.00720325  0.50311024  1
  Sb  Sb105  1  0.33206221  0.65754978  0.66953524  1
  Sb  Sb106  1  0.16377526  0.00105373  0.16821104  1
  Sb  Sb107  1  -0.00312335  0.17631951  0.82314207  1
  Te  Te108  1  0.16674839  0.16943555  0.16638872  1
  Te  Te109  1  0.16378460  0.17458710  0.50665029  1
  Te  Te110  1  0.16679244  0.17049010  0.82880768  1
  Te  Te111  1  0.16681341  0.49816395  0.17362447  1
  Te  Te112  1  0.16642404  0.49588539  0.49596429  1
  Te  Te113  1  0.16574923  0.49815006  0.83232743  1
  Te  Te114  1  0.17001138  0.83235575  0.16596393  1
  Te  Te115  1  0.16330634  0.83133771  0.50518301  1
  Te  Te116  1  0.16929773  0.83626726  0.82757984  1
  Te  Te117  1  0.49987726  0.16088003  0.17054523  1
  Te  Te118  1  0.50345264  0.16547004  0.49470525  1
  Te  Te119  1  0.50753062  0.17164297  0.83367084  1
  Te  Te120  1  0.50270537  0.50000068  0.16596535  1
  Te  Te121  1  0.49965752  0.50015478  0.50335241  1
  Te  Te122  1  0.50929688  0.49688142  0.83061011  1
  Te  Te123  1  0.49799306  0.83591221  0.16692900  1
  Te  Te124  1  0.50032603  0.82952091  0.50573987  1
  Te  Te125  1  0.50334331  0.83461901  0.83293513  1
  Te  Te126  1  0.83275737  0.16313914  0.16351205  1
  Te  Te127  1  0.83089782  0.16790221  0.50413109  1
  Te  Te128  1  0.82728118  0.16317919  0.82902995  1
  Te  Te129  1  0.82954870  0.50317337  0.16834589  1
  Te  Te130  1  0.83400855  0.49762375  0.50106202  1
  Te  Te131  1  0.82725164  0.50503199  0.83078882  1
  Te  Te132  1  0.83307652  0.83180676  0.16856040  1
  Te  Te133  1  0.83722202  0.82959058  0.50438313  1
  Te  Te134  1  0.82981658  0.82978916  0.83205641  1
  Te  Te135  1  0.16608812  0.00266442  0.00117787  1
  Te  Te136  1  0.16886356  -0.00033707  0.33409703  1
  Te  Te137  1  0.16163688  -0.01054672  0.66498933  1
  Te  Te138  1  0.16495504  0.33655964  -0.00450393  1
  Te  Te139  1  0.16536480  0.33352820  0.32935680  1
  Te  Te140  1  0.16541129  0.33959183  0.67461781  1
  Te  Te141  1  0.16355627  0.66337963  -0.00134942  1
  Te  Te142  1  0.16674979  0.65822212  0.32809421  1
  Te  Te143  1  0.16620352  0.66335718  0.66977500  1
  Te  Te144  1  0.50020480  -0.00489094  0.00590243  1
  Te  Te145  1  0.50505233  -0.00089601  0.32934406  1
  Te  Te146  1  0.49828420  -0.00121449  0.66590112  1
  Te  Te147  1  0.50142439  0.33206636  -0.00563586  1
  Te  Te148  1  0.50155941  0.33572507  0.33265187  1
  Te  Te149  1  0.51094491  0.33500119  0.66971454  1
  Te  Te150  1  0.50042697  0.67232534  -0.00010626  1
  Te  Te151  1  0.50044159  0.65951769  0.33749260  1
  Te  Te152  1  0.49868537  0.66423276  0.66722776  1
  Te  Te153  1  0.83416627  -0.00589546  0.00504303  1
  Te  Te154  1  0.83137909  0.00323191  0.33408407  1
  Te  Te155  1  0.83665544  -0.00357154  0.66308784  1
  Te  Te156  1  0.83994830  0.33185550  0.00209551  1
  Te  Te157  1  0.83564394  0.32840506  0.33797259  1
  Te  Te158  1  0.83306385  0.33434759  0.66536731  1
  Te  Te159  1  0.83366266  0.66689120  -0.00173881  1
  Te  Te160  1  0.83404359  0.66798865  0.32365603  1
  Te  Te161  1  0.83417850  0.66811637  0.66590543  1
  Te  Te162  1  0.00504695  0.16423548  -0.00134244  1
  Te  Te163  1  -0.00437989  0.17284074  0.33925285  1
  Te  Te164  1  -0.00203379  0.16690505  0.66415288  1
  Te  Te165  1  0.00334310  0.50406207  0.00196014  1
  Te  Te166  1  0.00145140  0.49445750  0.33639923  1
  Te  Te167  1  -0.00943180  0.50116883  0.66647515  1
  Te  Te168  1  -0.00583179  0.82787969  0.00087395  1
  Te  Te169  1  0.00148571  0.83451007  0.34127632  1
  Te  Te170  1  -0.00399642  0.83287471  0.66803318  1
  Te  Te171  1  0.32783043  0.17287190  -0.00066088  1
  Te  Te172  1  0.33884128  0.17368702  0.33323758  1
  Te  Te173  1  0.33176493  0.17292768  0.66692758  1
  Te  Te174  1  0.33119261  0.49439724  -0.00361014  1
  Te  Te175  1  0.33643404  0.49479150  0.33206234  1
  Te  Te176  1  0.33705082  0.49460593  0.67050871  1
  Te  Te177  1  0.33434964  0.83407107  0.00221384  1
  Te  Te178  1  0.33280050  0.83377663  0.32919710  1
  Te  Te179  1  0.34139522  0.83576662  0.66745244  1
  Te  Te180  1  0.66720679  0.16839827  -0.00442627  1
  Te  Te181  1  0.66810444  0.16605886  0.33165421  1
  Te  Te182  1  0.66935198  0.16457970  0.66471653  1
  Te  Te183  1  0.66679420  0.50727520  0.00486043  1
  Te  Te184  1  0.66222073  0.50046541  0.33294765  1
  Te  Te185  1  0.66945773  0.50229499  0.66320207  1
  Te  Te186  1  0.66904801  0.82903323  -0.00164112  1
  Te  Te187  1  0.66534549  0.83939960  0.33491579  1
  Te  Te188  1  0.66658021  0.83370601  0.67006448  1
  Te  Te189  1  -0.00662425  -0.00051634  0.16812460  1
  Te  Te190  1  -0.00537600  -0.00609341  0.50405799  1
  Te  Te191  1  0.00013305  0.00183520  0.82679470  1
  Te  Te192  1  0.00466675  0.33296449  0.15681567  1
  Te  Te193  1  0.00069372  0.33657218  0.50214293  1
  Te  Te194  1  0.00170318  0.33800814  0.83489403  1
  Te  Te195  1  0.00017719  0.66732610  0.16955108  1
  Te  Te196  1  0.00170735  0.66569635  0.50487748  1
  Te  Te197  1  -0.00259957  0.66333641  0.83097305  1
  Te  Te198  1  0.33465311  -0.00494321  0.16684134  1
  Te  Te199  1  0.33423148  0.00025839  0.49832144  1
  Te  Te200  1  0.33414344  -0.00074934  0.83370674  1
  Te  Te201  1  0.32921987  0.33368649  0.16938363  1
  Te  Te202  1  0.33006075  0.33284452  0.49963518  1
  Te  Te203  1  0.33471826  0.33570089  0.83112180  1
  Te  Te204  1  0.33050868  0.67129968  0.16700079  1
  Te  Te205  1  0.34111201  0.66768603  0.49890784  1
  Te  Te206  1  0.32270581  0.65907988  0.83512062  1
  Te  Te207  1  0.66885113  0.00039724  0.16988596  1
  Te  Te208  1  0.67342007  0.00019073  0.49448558  1
  Te  Te209  1  0.66611827  -0.00078312  0.83509269  1
  Te  Te210  1  0.66723041  0.33938924  0.16327031  1
  Te  Te211  1  0.66547059  0.33458230  0.50286220  1
  Te  Te212  1  0.67028110  0.33687906  0.82947554  1
  Te  Te213  1  0.66897767  0.66335330  0.16904960  1
  Te  Te214  1  0.66385488  0.66219081  0.50487677  1
  Te  Te215  1  0.66567383  0.66628341  0.83105766  1
