# generated using pymatgen
data_AgSbTe2
_symmetry_space_group_name_H-M   'P 1'
_cell_length_a   18.32231362
_cell_length_b   18.32130056
_cell_length_c   18.32086851
_cell_angle_alpha   90.00000293
_cell_angle_beta   90.00022257
_cell_angle_gamma   90.00295056
_symmetry_Int_Tables_number   1
_chemical_formula_structural   AgSbTe2
_chemical_formula_sum   'Ag54 Sb54 Te108'
_cell_volume   6150.10696445
_cell_formula_units_Z   54
loop_
 _symmetry_equiv_pos_site_id
 _symmetry_equiv_pos_as_xyz
  1  'x, y, z'
loop_
 _atom_site_type_symbol
 _atom_site_label
 _atom_site_symmetry_multiplicity
 _atom_site_fract_x
 _atom_site_fract_y
 _atom_site_fract_z
 _atom_site_occupancy
  Ag  Ag0  1  0.66662035  0.50746769  0.49263093  1
  Ag  Ag1  1  0.32448574  0.83414693  0.83377331  1
  Ag  Ag2  1  0.50201753  0.33226562  0.49011375  1
  Ag  Ag3  1  0.50135716  0.82389142  0.33216729  1
  Ag  Ag4  1  0.00078541  0.82826393  0.17432858  1
  Ag  Ag5  1  0.16872257  0.50253434  0.33672941  1
  Ag  Ag6  1  0.83432740  0.49739021  -0.00188924  1
  Ag  Ag7  1  -0.00112067  0.83741951  0.50137839  1
  Ag  Ag8  1  -0.00161089  0.15904444  0.82629636  1
  Ag  Ag9  1  0.49659445  0.17056584  0.66150044  1
  Ag  Ag10  1  0.16361648  0.67340412  0.50364862  1
  Ag  Ag11  1  0.83251159  0.16684985  0.33232716  1
  Ag  Ag12  1  0.83649085  0.16774425  -0.00148607  1
  Ag  Ag13  1  0.00188268  0.67716351  0.66732967  1
  Ag  Ag14  1  0.34262662  0.33708356  0.33429935  1
  Ag  Ag15  1  0.16509481  0.15963185  0.66562908  1
  Ag  Ag16  1  0.84137835  0.00023423  0.82788115  1
  Ag  Ag17  1  -0.00493482  0.50393019  0.16691512  1
  Ag  Ag18  1  0.83588926  0.83520960  0.34387853  1
  Ag  Ag19  1  0.16931164  0.33532749  0.17325050  1
  Ag  Ag20  1  0.66997196  0.50283101  0.17627055  1
  Ag  Ag21  1  0.67488666  0.82884060  0.50431631  1
  Ag  Ag22  1  0.66593688  0.82906059  0.82227604  1
  Ag  Ag23  1  0.15937616  0.83396304  0.66527313  1
  Ag  Ag24  1  0.65583285  0.34458254  0.33485623  1
  Ag  Ag25  1  0.66099893  0.66238545  0.33736717  1
  Ag  Ag26  1  0.15965508  -0.00589573  0.82658574  1
  Ag  Ag27  1  0.16437463  0.67699023  0.82302777  1
  Ag  Ag28  1  0.15748907  -0.00872519  0.50879327  1
  Ag  Ag29  1  0.83243381  0.66477737  0.16915990  1
  Ag  Ag30  1  0.83913340  -0.00461245  0.50763587  1
  Ag  Ag31  1  0.50216149  0.18042987  0.33654693  1
  Ag  Ag32  1  0.34001617  0.66486524  0.33296743  1
  Ag  Ag33  1  0.67973223  -0.01044304  0.66617680  1
  Ag  Ag34  1  0.00023471  0.33466953  0.33292421  1
  Ag  Ag35  1  0.33319501  0.16975736  0.16908989  1
  Ag  Ag36  1  0.50510036  0.49616806  0.33157424  1
  Ag  Ag37  1  0.67124716  0.67219256  0.66118157  1
  Ag  Ag38  1  0.67375222  0.50339080  0.83061189  1
  Ag  Ag39  1  0.32452599  -0.00331032  -0.00157967  1
  Ag  Ag40  1  0.33397934  0.33128316  0.66287195  1
  Ag  Ag41  1  -0.00416995  0.49688237  0.83421866  1
  Ag  Ag42  1  0.16145899  0.82648079  0.34036324  1
  Ag  Ag43  1  0.49642912  0.33797237  0.17819464  1
  Ag  Ag44  1  0.49651927  0.83360016  0.00232410  1
  Ag  Ag45  1  0.00056921  0.15583498  0.50539388  1
  Ag  Ag46  1  0.83240759  0.33072881  0.83278434  1
  Ag  Ag47  1  0.84050916  0.83606935  0.66224411  1
  Ag  Ag48  1  0.16304627  0.50792332  0.66270294  1
  Ag  Ag49  1  0.16652220  0.83667394  -0.01264985  1
  Ag  Ag50  1  0.50394483  0.33418991  0.83088597  1
  Ag  Ag51  1  -0.00045496  -0.00514998  0.66761588  1
  Ag  Ag52  1  0.00226757  -0.00235905  -0.01285971  1
  Ag  Ag53  1  0.50491713  0.66309391  0.17543666  1
  Sb  Sb54  1  0.33117541  0.50273176  0.83067692  1
  Sb  Sb55  1  0.83115366  0.50121630  0.33052026  1
  Sb  Sb56  1  0.32955431  0.16854384  0.49789215  1
  Sb  Sb57  1  0.16484661  -0.00000263  0.16669140  1
  Sb  Sb58  1  0.66857906  -0.00424220  0.33911542  1
  Sb  Sb59  1  0.83434205  0.67334842  0.49649434  1
  Sb  Sb60  1  0.00195043  0.16685684  0.16792982  1
  Sb  Sb61  1  0.32940234  0.66464131  0.66199536  1
  Sb  Sb62  1  0.00085568  0.83545467  0.82747844  1
  Sb  Sb63  1  0.50107766  0.66471537  0.49477381  1
  Sb  Sb64  1  0.66999783  0.82584119  0.17196630  1
  Sb  Sb65  1  0.00101442  0.67216042  -0.00480301  1
  Sb  Sb66  1  0.16898850  0.33478168  0.49692522  1
  Sb  Sb67  1  -0.00018223  -0.00020942  0.33974133  1
  Sb  Sb68  1  0.83725277  0.15911874  0.66599466  1
  Sb  Sb69  1  0.66806080  0.66697324  0.00098760  1
  Sb  Sb70  1  0.33314245  0.49683584  0.17034062  1
  Sb  Sb71  1  0.83659931  0.66876728  0.83442074  1
  Sb  Sb72  1  0.83300842  0.33801601  0.16650798  1
  Sb  Sb73  1  0.66782030  0.33526604  0.00304177  1
  Sb  Sb74  1  -0.00098485  0.66686179  0.33621179  1
  Sb  Sb75  1  0.33271687  0.67235867  0.00477865  1
  Sb  Sb76  1  0.49932812  0.66559097  0.83531422  1
  Sb  Sb77  1  -0.00067936  0.33041092  0.00175878  1
  Sb  Sb78  1  0.50194548  0.00279647  0.50074244  1
  Sb  Sb79  1  0.16550978  0.66470888  0.17149511  1
  Sb  Sb80  1  0.66292033  0.33595667  0.66355048  1
  Sb  Sb81  1  0.32903378  0.83254934  0.50145639  1
  Sb  Sb82  1  0.32587767  0.00143509  0.67065654  1
  Sb  Sb83  1  0.50614022  0.50337943  0.00578475  1
  Sb  Sb84  1  0.32990984  0.83563397  0.16525820  1
  Sb  Sb85  1  0.83070808  0.32850719  0.50136954  1
  Sb  Sb86  1  0.33582350  0.49923243  0.49664557  1
  Sb  Sb87  1  0.49893148  0.49552206  0.66231454  1
  Sb  Sb88  1  0.83598366  0.50599071  0.67063044  1
  Sb  Sb89  1  0.16014611  0.50536074  0.00084790  1
  Sb  Sb90  1  0.16562170  0.16855508  0.33713329  1
  Sb  Sb91  1  0.50012994  0.00178034  0.83099255  1
  Sb  Sb92  1  0.32933859  0.16312531  0.83440237  1
  Sb  Sb93  1  0.00387192  0.33169727  0.66396133  1
  Sb  Sb94  1  0.67085936  0.16469480  0.50044270  1
  Sb  Sb95  1  0.16511865  0.33326991  0.83300002  1
  Sb  Sb96  1  0.50290154  0.16287363  0.00117008  1
  Sb  Sb97  1  0.50180311  0.83653059  0.66461334  1
  Sb  Sb98  1  0.33378851  0.32752807  0.00305500  1
  Sb  Sb99  1  0.67113709  -0.00310326  -0.00897059  1
  Sb  Sb100  1  0.16195962  0.16050862  -0.00374635  1
  Sb  Sb101  1  0.67263780  0.16795958  0.83050446  1
  Sb  Sb102  1  0.83655437  0.83435562  -0.00199200  1
  Sb  Sb103  1  -0.00270791  0.50198254  0.49970108  1
  Sb  Sb104  1  0.83562674  -0.00416222  0.16651872  1
  Sb  Sb105  1  0.33232673  -0.00039507  0.33106928  1
  Sb  Sb106  1  0.66427662  0.17421406  0.17109085  1
  Sb  Sb107  1  0.50036183  -0.00134453  0.16727004  1
  Te  Te108  1  0.17018890  0.17178141  0.16719527  1
  Te  Te109  1  0.16171959  0.16501007  0.50449540  1
  Te  Te110  1  0.16117079  0.16403287  0.82901095  1
  Te  Te111  1  0.16179255  0.49743057  0.16929839  1
  Te  Te112  1  0.16498244  0.50330987  0.49842210  1
  Te  Te113  1  0.16278877  0.50091578  0.83170300  1
  Te  Te114  1  0.16218266  0.83215468  0.17559183  1
  Te  Te115  1  0.16663164  0.83308840  0.50104686  1
  Te  Te116  1  0.16443573  0.83407408  0.83030860  1
  Te  Te117  1  0.49702354  0.17098395  0.16999547  1
  Te  Te118  1  0.49973204  0.16967086  0.49821351  1
  Te  Te119  1  0.49968664  0.17151229  0.83252710  1
  Te  Te120  1  0.50200059  0.50025750  0.16950394  1
  Te  Te121  1  0.50517978  0.49596823  0.49498138  1
  Te  Te122  1  0.50111682  0.49698917  0.83495977  1
  Te  Te123  1  0.50061468  0.83097125  0.16920520  1
  Te  Te124  1  0.50147921  0.83421044  0.49462788  1
  Te  Te125  1  0.50353240  0.83328574  0.83459494  1
  Te  Te126  1  0.83319287  0.16682718  0.17024536  1
  Te  Te127  1  0.83832982  0.16097027  0.49573402  1
  Te  Te128  1  0.83758398  0.16579277  0.83286536  1
  Te  Te129  1  0.83370315  0.50221045  0.16375189  1
  Te  Te130  1  0.82612383  0.49830392  0.50159437  1
  Te  Te131  1  0.83451420  0.50144560  0.83574509  1
  Te  Te132  1  0.83818462  0.82846010  0.16677580  1
  Te  Te133  1  0.83470329  0.83514909  0.50115971  1
  Te  Te134  1  0.82826005  0.83642086  0.83064163  1
  Te  Te135  1  0.16388086  -0.00369075  -0.00048889  1
  Te  Te136  1  0.16765787  -0.00504030  0.33672749  1
  Te  Te137  1  0.16465583  -0.00157360  0.66752649  1
  Te  Te138  1  0.16790853  0.33268191  0.00787475  1
  Te  Te139  1  0.16444488  0.33527023  0.33280667  1
  Te  Te140  1  0.17165538  0.33364084  0.66587881  1
  Te  Te141  1  0.16765855  0.67467753  -0.00444923  1
  Te  Te142  1  0.16531598  0.66545592  0.33516940  1
  Te  Te143  1  0.16836752  0.66739285  0.66509032  1
  Te  Te144  1  0.49896506  -0.00579653  -0.00064851  1
  Te  Te145  1  0.49999384  -0.00314577  0.33370770  1
  Te  Te146  1  0.49899098  0.00831321  0.66551206  1
  Te  Te147  1  0.49985796  0.33277990  -0.00512720  1
  Te  Te148  1  0.50003462  0.33626127  0.33380965  1
  Te  Te149  1  0.49640485  0.33090528  0.67082349  1
  Te  Te150  1  0.49957996  0.67310252  0.00599135  1
  Te  Te151  1  0.50036677  0.66535047  0.33319216  1
  Te  Te152  1  0.50293520  0.66516273  0.66571607  1
  Te  Te153  1  0.83827478  0.00307921  -0.00479150  1
  Te  Te154  1  0.83294098  -0.00075617  0.33531406  1
  Te  Te155  1  0.83647311  -0.00219043  0.66719581  1
  Te  Te156  1  0.83353212  0.33220260  -0.00557880  1
  Te  Te157  1  0.83731845  0.32988043  0.33392751  1
  Te  Te158  1  0.83288685  0.33271885  0.67277498  1
  Te  Te159  1  0.83477736  0.66267820  0.00678308  1
  Te  Te160  1  0.83030554  0.67089612  0.32981721  1
  Te  Te161  1  0.83363791  0.67353861  0.66644922  1
  Te  Te162  1  -0.00433527  0.16222864  -0.00249116  1
  Te  Te163  1  -0.00226497  0.16944968  0.33543298  1
  Te  Te164  1  0.00287899  0.16532379  0.66596287  1
  Te  Te165  1  -0.00462835  0.50053213  0.00086573  1
  Te  Te166  1  0.00076825  0.49856174  0.33157542  1
  Te  Te167  1  0.00352712  0.49959046  0.66823659  1
  Te  Te168  1  0.00289911  0.83734031  0.00454083  1
  Te  Te169  1  -0.00102089  0.83309803  0.33573292  1
  Te  Te170  1  -0.00000143  0.83351672  0.66511021  1
  Te  Te171  1  0.33397186  0.15931330  0.00411044  1
  Te  Te172  1  0.33601309  0.16951543  0.33093541  1
  Te  Te173  1  0.33309676  0.17062702  0.66711803  1
  Te  Te174  1  0.33280386  0.50012143  -0.00007425  1
  Te  Te175  1  0.33007329  0.49855465  0.33249624  1
  Te  Te176  1  0.32676315  0.49443117  0.66533952  1
  Te  Te177  1  0.33155254  0.83697554  -0.00183365  1
  Te  Te178  1  0.33480957  0.83139498  0.33344934  1
  Te  Te179  1  0.33160740  0.83285537  0.67247350  1
  Te  Te180  1  0.67496632  0.16584351  0.00080364  1
  Te  Te181  1  0.66647492  0.16694042  0.33461158  1
  Te  Te182  1  0.66017145  0.16501258  0.66575483  1
  Te  Te183  1  0.67337879  0.50048433  -0.00739841  1
  Te  Te184  1  0.66811013  0.50172608  0.33351919  1
  Te  Te185  1  0.66691640  0.50483035  0.67043635  1
  Te  Te186  1  0.66324322  0.83329976  -0.00295002  1
  Te  Te187  1  0.66836245  0.83012431  0.33645559  1
  Te  Te188  1  0.66316470  0.83191966  0.66501813  1
  Te  Te189  1  -0.00008584  -0.00285295  0.16248534  1
  Te  Te190  1  0.00008004  -0.00155952  0.50158330  1
  Te  Te191  1  0.00044126  -0.00096447  0.82950378  1
  Te  Te192  1  0.00115434  0.33525952  0.17014131  1
  Te  Te193  1  -0.00059594  0.33233952  0.49504684  1
  Te  Te194  1  -0.00317874  0.33641434  0.83359865  1
  Te  Te195  1  -0.00175331  0.66562009  0.16607836  1
  Te  Te196  1  0.00278514  0.66947848  0.50588246  1
  Te  Te197  1  0.00354868  0.66090572  0.82861544  1
  Te  Te198  1  0.33296324  0.00596129  0.16085548  1
  Te  Te199  1  0.32641761  0.00110276  0.50019460  1
  Te  Te200  1  0.33051826  -0.00455277  0.83784072  1
  Te  Te201  1  0.33514561  0.33136947  0.17002126  1
  Te  Te202  1  0.33924986  0.33341034  0.49838461  1
  Te  Te203  1  0.33515962  0.33253910  0.83171559  1
  Te  Te204  1  0.33739115  0.66726812  0.17368410  1
  Te  Te205  1  0.32573019  0.66578131  0.49290556  1
  Te  Te206  1  0.32945265  0.67188694  0.83325206  1
  Te  Te207  1  0.66755341  0.00009223  0.16434600  1
  Te  Te208  1  0.67022351  -0.00550650  0.50633757  1
  Te  Te209  1  0.66859558  -0.00276151  0.82599065  1
  Te  Te210  1  0.66286251  0.34122809  0.17190080  1
  Te  Te211  1  0.66362557  0.33471424  0.49583756  1
  Te  Te212  1  0.66876930  0.33643220  0.83241756  1
  Te  Te213  1  0.66599696  0.66163859  0.16845796  1
  Te  Te214  1  0.66675492  0.66772950  0.49959226  1
  Te  Te215  1  0.66661187  0.66650142  0.82989231  1
