# generated using pymatgen
data_AgSbTe2
_symmetry_space_group_name_H-M   'P 1'
_cell_length_a   18.32852141
_cell_length_b   18.31926193
_cell_length_c   18.32196686
_cell_angle_alpha   89.99590198
_cell_angle_beta   90.00199523
_cell_angle_gamma   89.99820072
_symmetry_Int_Tables_number   1
_chemical_formula_structural   AgSbTe2
_chemical_formula_sum   'Ag54 Sb54 Te108'
_cell_volume   6151.87489588
_cell_formula_units_Z   54
loop_
 _symmetry_equiv_pos_site_id
 _symmetry_equiv_pos_as_xyz
  1  'x, y, z'
loop_
 _atom_site_type_symbol
 _atom_site_label
 _atom_site_symmetry_multiplicity
 _atom_site_fract_x
 _atom_site_fract_y
 _atom_site_fract_z
 _atom_site_occupancy
  Ag  Ag0  1  0.49822268  -0.00481030  0.49172549  1
  Ag  Ag1  1  0.34381731  0.83060321  0.16954577  1
  Ag  Ag2  1  0.16688449  0.00548270  0.83589740  1
  Ag  Ag3  1  0.16694237  -0.00377273  0.49661048  1
  Ag  Ag4  1  0.66755391  0.33890364  0.00382661  1
  Ag  Ag5  1  0.17108624  0.67273980  0.49838676  1
  Ag  Ag6  1  0.67226209  0.33712649  0.32427925  1
  Ag  Ag7  1  -0.01481584  0.50444185  0.16298605  1
  Ag  Ag8  1  0.50108538  0.50148579  0.00389881  1
  Ag  Ag9  1  0.17381754  0.49622031  0.00517010  1
  Ag  Ag10  1  0.83201857  0.49325764  0.32031203  1
  Ag  Ag11  1  0.50289349  -0.01016497  0.16640788  1
  Ag  Ag12  1  0.67401295  0.16790608  0.83842718  1
  Ag  Ag13  1  0.66961583  0.82833099  0.16372716  1
  Ag  Ag14  1  0.83492537  -0.00277447  0.49112882  1
  Ag  Ag15  1  0.16187773  0.16496595  0.33289712  1
  Ag  Ag16  1  0.82664244  0.49744190  0.00870447  1
  Ag  Ag17  1  0.33257439  0.49797182  0.84335755  1
  Ag  Ag18  1  0.82982893  0.50197704  0.66775167  1
  Ag  Ag19  1  0.16570202  0.16639261  0.67099912  1
  Ag  Ag20  1  0.83582211  0.16891333  0.32602694  1
  Ag  Ag21  1  0.82962498  -0.00418944  0.16855527  1
  Ag  Ag22  1  0.00215624  0.49433700  0.84095449  1
  Ag  Ag23  1  0.00054600  0.17084702  0.83519259  1
  Ag  Ag24  1  0.67062742  0.50667691  0.16386002  1
  Ag  Ag25  1  0.33892845  0.50365557  0.16244204  1
  Ag  Ag26  1  0.33097547  0.34205276  0.67246834  1
  Ag  Ag27  1  0.82505298  0.65996999  0.16593453  1
  Ag  Ag28  1  0.83022866  0.34614001  0.16930812  1
  Ag  Ag29  1  0.33862430  0.34274623  -0.00173223  1
  Ag  Ag30  1  0.16379998  0.16898533  -0.00130564  1
  Ag  Ag31  1  0.33295751  0.66882858  0.33317593  1
  Ag  Ag32  1  0.33429234  0.83449320  0.49183879  1
  Ag  Ag33  1  0.33822319  0.66059713  0.65910052  1
  Ag  Ag34  1  0.82594696  0.83432912  0.01153040  1
  Ag  Ag35  1  0.66554696  0.66434216  0.66866623  1
  Ag  Ag36  1  0.49873425  0.33676015  0.83674424  1
  Ag  Ag37  1  -0.01317777  0.83138212  0.16906719  1
  Ag  Ag38  1  -0.00464640  0.83739791  0.49341070  1
  Ag  Ag39  1  0.83107598  0.82759244  0.66226590  1
  Ag  Ag40  1  0.83236935  0.33282839  0.49284059  1
  Ag  Ag41  1  0.50747197  0.82933598  0.00696762  1
  Ag  Ag42  1  0.50481485  0.66716823  0.16515001  1
  Ag  Ag43  1  -0.00011968  0.33498213  0.66816202  1
  Ag  Ag44  1  0.49989419  0.49988097  0.32041864  1
  Ag  Ag45  1  0.16799737  0.49740061  0.32560831  1
  Ag  Ag46  1  0.66660657  0.66443069  0.00612295  1
  Ag  Ag47  1  0.33065187  -0.00590717  0.32885752  1
  Ag  Ag48  1  0.83101025  0.16880473  0.00631715  1
  Ag  Ag49  1  0.50098207  0.50134804  0.67030409  1
  Ag  Ag50  1  0.00050016  0.00037635  0.33402403  1
  Ag  Ag51  1  0.66552802  -0.00516363  0.00499381  1
  Ag  Ag52  1  0.66988762  0.83458289  0.49344676  1
  Ag  Ag53  1  0.33759514  0.00109244  0.00849642  1
  Sb  Sb54  1  0.83205757  0.66373434  0.83878963  1
  Sb  Sb55  1  0.49980209  0.65976616  0.83878751  1
  Sb  Sb56  1  0.33266982  0.16577129  0.16453296  1
  Sb  Sb57  1  0.66809202  0.34003819  0.66933993  1
  Sb  Sb58  1  0.66817848  -0.00504927  0.66906394  1
  Sb  Sb59  1  0.16729189  0.83275894  0.00306933  1
  Sb  Sb60  1  0.66429413  0.66288577  0.32771091  1
  Sb  Sb61  1  -0.00029000  0.00291624  0.66198893  1
  Sb  Sb62  1  0.33083617  0.16017521  0.49949608  1
  Sb  Sb63  1  0.83671732  0.16899669  0.66750816  1
  Sb  Sb64  1  0.16990953  0.66345458  0.17089667  1
  Sb  Sb65  1  -0.00201917  0.66301322  0.66492090  1
  Sb  Sb66  1  0.83350720  0.83437531  0.32934870  1
  Sb  Sb67  1  0.66757448  0.83612447  0.84138519  1
  Sb  Sb68  1  0.16373367  0.83593853  0.66247430  1
  Sb  Sb69  1  -0.00117124  0.83450116  0.83530277  1
  Sb  Sb70  1  0.33638009  0.33628857  0.33072484  1
  Sb  Sb71  1  -0.00379029  0.16732421  0.16414529  1
  Sb  Sb72  1  0.33426000  0.82911391  0.83571128  1
  Sb  Sb73  1  0.32982885  0.17186640  0.83598150  1
  Sb  Sb74  1  0.66760022  0.00226209  0.32711931  1
  Sb  Sb75  1  0.33234080  -0.00199453  0.66527370  1
  Sb  Sb76  1  0.49834043  0.83039759  0.32541290  1
  Sb  Sb77  1  0.33306294  0.50589172  0.49786426  1
  Sb  Sb78  1  0.66986781  0.16775436  0.16150396  1
  Sb  Sb79  1  0.83646676  0.00169039  0.83778070  1
  Sb  Sb80  1  0.49710879  0.00457805  0.83833757  1
  Sb  Sb81  1  0.49605923  0.17166439  0.66813750  1
  Sb  Sb82  1  0.16210829  0.33661551  0.16527944  1
  Sb  Sb83  1  0.16658807  -0.00021992  0.16976829  1
  Sb  Sb84  1  -0.00342141  0.33544899  -0.00286049  1
  Sb  Sb85  1  0.50356483  0.16960884  0.00093024  1
  Sb  Sb86  1  0.16952032  0.33026608  0.83503602  1
  Sb  Sb87  1  0.50251791  0.16963150  0.33114439  1
  Sb  Sb88  1  0.49783858  0.67060168  0.49410996  1
  Sb  Sb89  1  0.16898083  0.66634849  0.82960416  1
  Sb  Sb90  1  0.33917988  0.66386897  0.00581482  1
  Sb  Sb91  1  0.16339280  0.33268429  0.49995932  1
  Sb  Sb92  1  0.83445150  0.66909890  0.49515167  1
  Sb  Sb93  1  0.50367145  0.33307655  0.50185377  1
  Sb  Sb94  1  0.83054807  0.33474462  0.83713035  1
  Sb  Sb95  1  0.16851761  0.83505121  0.33406297  1
  Sb  Sb96  1  -0.00049571  0.16213138  0.50116255  1
  Sb  Sb97  1  0.00348049  0.66814034  0.33217384  1
  Sb  Sb98  1  0.66813224  0.50508531  0.49507578  1
  Sb  Sb99  1  0.50583167  0.34070686  0.16168193  1
  Sb  Sb100  1  -0.00709196  0.33152541  0.33526299  1
  Sb  Sb101  1  0.66525152  0.49689405  0.84202711  1
  Sb  Sb102  1  -0.00168776  0.50299673  0.49692775  1
  Sb  Sb103  1  0.50407561  0.82666533  0.66766648  1
  Sb  Sb104  1  -0.00134145  0.00109237  0.00583462  1
  Sb  Sb105  1  0.67024794  0.16238568  0.50249218  1
  Sb  Sb106  1  -0.00605156  0.66327314  0.00384884  1
  Sb  Sb107  1  0.16790795  0.49632125  0.66779866  1
  Te  Te108  1  0.16405373  0.16847305  0.16526707  1
  Te  Te109  1  0.16487855  0.16276010  0.49517626  1
  Te  Te110  1  0.16393900  0.16449433  0.83660451  1
  Te  Te111  1  0.17482947  0.50011923  0.16592340  1
  Te  Te112  1  0.16492841  0.50189091  0.49407530  1
  Te  Te113  1  0.16680144  0.50025403  0.83734402  1
  Te  Te114  1  0.16491827  0.83116001  0.16609243  1
  Te  Te115  1  0.16825152  0.83465411  0.49987264  1
  Te  Te116  1  0.16528736  0.84186705  0.83296679  1
  Te  Te117  1  0.50045457  0.15301030  0.16811103  1
  Te  Te118  1  0.50116240  0.15751050  0.49997681  1
  Te  Te119  1  0.50258755  0.17326536  0.83277035  1
  Te  Te120  1  0.49938622  0.50101772  0.16444205  1
  Te  Te121  1  0.50123718  0.50003433  0.50594087  1
  Te  Te122  1  0.49791701  0.49667934  0.83366710  1
  Te  Te123  1  0.50034066  0.83245346  0.16408541  1
  Te  Te124  1  0.49893674  0.83714147  0.50102735  1
  Te  Te125  1  0.49941120  0.83454555  0.84338373  1
  Te  Te126  1  0.83377394  0.15764680  0.16591308  1
  Te  Te127  1  0.83361217  0.16476378  0.49677652  1
  Te  Te128  1  0.83695278  0.16779285  0.83718215  1
  Te  Te129  1  0.82910934  0.50277180  0.16481961  1
  Te  Te130  1  0.83395735  0.49956075  0.50690218  1
  Te  Te131  1  0.83726675  0.49933537  0.82814207  1
  Te  Te132  1  0.83047582  0.83593449  0.16755081  1
  Te  Te133  1  0.83362684  0.83443042  0.49746771  1
  Te  Te134  1  0.83497707  0.83297437  0.82859290  1
  Te  Te135  1  0.16913994  0.00111111  0.00007419  1
  Te  Te136  1  0.16915345  0.00253924  0.33577807  1
  Te  Te137  1  0.16709737  0.00498763  0.66198094  1
  Te  Te138  1  0.17163122  0.33483679  0.00109979  1
  Te  Te139  1  0.16662847  0.33184629  0.33342210  1
  Te  Te140  1  0.16773286  0.32814773  0.66535796  1
  Te  Te141  1  0.16685581  0.66039517  -0.00194424  1
  Te  Te142  1  0.17155224  0.66037657  0.33732660  1
  Te  Te143  1  0.17078277  0.66661004  0.66115873  1
  Te  Te144  1  0.49884582  0.00209948  0.00166558  1
  Te  Te145  1  0.49679376  0.00151157  0.33278820  1
  Te  Te146  1  0.49974264  -0.00046106  0.66468150  1
  Te  Te147  1  0.49959103  0.33614835  -0.00203005  1
  Te  Te148  1  0.50639818  0.33888395  0.33414591  1
  Te  Te149  1  0.49576613  0.33870153  0.66911562  1
  Te  Te150  1  0.50485570  0.66439217  0.00433284  1
  Te  Te151  1  0.49555239  0.65957062  0.32769472  1
  Te  Te152  1  0.49986807  0.66181521  0.66685416  1
  Te  Te153  1  0.83131857  0.00087507  0.00177169  1
  Te  Te154  1  0.83225128  0.00244335  0.33222160  1
  Te  Te155  1  0.83304667  -0.00220373  0.66210637  1
  Te  Te156  1  0.83036004  0.33328731  0.00290673  1
  Te  Te157  1  0.83231664  0.33273370  0.33310288  1
  Te  Te158  1  0.83587406  0.33560482  0.66458735  1
  Te  Te159  1  0.82776996  0.66562295  0.00407334  1
  Te  Te160  1  0.83339722  0.65686257  0.32811192  1
  Te  Te161  1  0.83102239  0.66576477  0.66501715  1
  Te  Te162  1  0.00186382  0.16805382  -0.00360558  1
  Te  Te163  1  -0.00072898  0.16248037  0.33254076  1
  Te  Te164  1  0.00456576  0.17076656  0.67153742  1
  Te  Te165  1  -0.00282609  0.49924445  0.00149990  1
  Te  Te166  1  0.00017862  0.49939046  0.32853679  1
  Te  Te167  1  -0.00065988  0.49624603  0.66766892  1
  Te  Te168  1  -0.00599673  0.83235662  0.00447648  1
  Te  Te169  1  0.00098609  0.83775151  0.33168067  1
  Te  Te170  1  -0.00744774  0.83214545  0.66579313  1
  Te  Te171  1  0.32872475  0.16374498  -0.00059961  1
  Te  Te172  1  0.32998702  0.16575721  0.33291481  1
  Te  Te173  1  0.32755993  0.17056691  0.66764577  1
  Te  Te174  1  0.33520234  0.50225999  0.00085515  1
  Te  Te175  1  0.33330727  0.49956812  0.33109385  1
  Te  Te176  1  0.33329931  0.49989228  0.66419770  1
  Te  Te177  1  0.33522773  0.83433955  0.00410519  1
  Te  Te178  1  0.33384519  0.83397004  0.33129241  1
  Te  Te179  1  0.33421215  0.82792599  0.66591820  1
  Te  Te180  1  0.66990848  0.16932066  -0.00249589  1
  Te  Te181  1  0.67205232  0.17392560  0.33449812  1
  Te  Te182  1  0.66620546  0.16730749  0.67458394  1
  Te  Te183  1  0.66711674  0.50041448  0.00171678  1
  Te  Te184  1  0.66753917  0.49801033  0.32962298  1
  Te  Te185  1  0.66636790  0.50364407  0.66710346  1
  Te  Te186  1  0.66757847  0.83387193  0.00317592  1
  Te  Te187  1  0.66536828  0.83377174  0.33379636  1
  Te  Te188  1  0.67096706  0.82851614  0.66774660  1
  Te  Te189  1  -0.00360349  -0.00304477  0.17272655  1
  Te  Te190  1  -0.00113455  -0.00355608  0.49597477  1
  Te  Te191  1  0.00499816  0.00358170  0.83352236  1
  Te  Te192  1  -0.00822463  0.34055710  0.16681353  1
  Te  Te193  1  -0.00527082  0.33382625  0.50600753  1
  Te  Te194  1  -0.00066635  0.33431599  0.82992081  1
  Te  Te195  1  -0.00356223  0.66773123  0.16795393  1
  Te  Te196  1  0.00605437  0.67518892  0.49954441  1
  Te  Te197  1  0.00196270  0.65870867  0.83241596  1
  Te  Te198  1  0.33302071  -0.00107080  0.16770949  1
  Te  Te199  1  0.33189521  -0.00550226  0.49805114  1
  Te  Te200  1  0.32885416  -0.00118988  0.83660545  1
  Te  Te201  1  0.33538048  0.33777761  0.16150792  1
  Te  Te202  1  0.33443543  0.33183837  0.50415743  1
  Te  Te203  1  0.33604741  0.33770613  0.83513411  1
  Te  Te204  1  0.33538596  0.66801506  0.17110354  1
  Te  Te205  1  0.33183473  0.67233632  0.49689717  1
  Te  Te206  1  0.33278774  0.66012628  0.82558496  1
  Te  Te207  1  0.66696969  -0.00170724  0.16362376  1
  Te  Te208  1  0.66892733  -0.00509515  0.50048844  1
  Te  Te209  1  0.66658342  0.00634304  0.84075619  1
  Te  Te210  1  0.67030295  0.33440941  0.16454082  1
  Te  Te211  1  0.67198425  0.33245232  0.49969872  1
  Te  Te212  1  0.66286319  0.32991813  0.83731515  1
  Te  Te213  1  0.66524985  0.66752087  0.16604179  1
  Te  Te214  1  0.66603809  0.67398481  0.50421297  1
  Te  Te215  1  0.66615919  0.66751543  0.83011467  1
