# generated using pymatgen
data_AgSbTe2
_symmetry_space_group_name_H-M   'P 1'
_cell_length_a   18.31377864
_cell_length_b   18.31271957
_cell_length_c   18.31243188
_cell_angle_alpha   89.99924127
_cell_angle_beta   90.00056782
_cell_angle_gamma   89.99937945
_symmetry_Int_Tables_number   1
_chemical_formula_structural   AgSbTe2
_chemical_formula_sum   'Ag54 Sb54 Te108'
_cell_volume   6141.53353683
_cell_formula_units_Z   54
loop_
 _symmetry_equiv_pos_site_id
 _symmetry_equiv_pos_as_xyz
  1  'x, y, z'
loop_
 _atom_site_type_symbol
 _atom_site_label
 _atom_site_symmetry_multiplicity
 _atom_site_fract_x
 _atom_site_fract_y
 _atom_site_fract_z
 _atom_site_occupancy
  Ag  Ag0  1  0.17674541  0.33557722  0.16908133  1
  Ag  Ag1  1  0.67174321  0.49704993  0.83513332  1
  Ag  Ag2  1  0.16458925  0.50304895  0.33518178  1
  Ag  Ag3  1  0.33191490  0.83237469  0.16374849  1
  Ag  Ag4  1  0.33119124  -0.00310506  0.66468980  1
  Ag  Ag5  1  0.32758692  0.33826378  0.32206083  1
  Ag  Ag6  1  0.83633171  0.66339690  0.83727305  1
  Ag  Ag7  1  0.16568858  0.83350719  0.66149955  1
  Ag  Ag8  1  0.84648315  0.49832925  0.33681882  1
  Ag  Ag9  1  0.48936515  0.33149770  0.15700791  1
  Ag  Ag10  1  0.32983295  0.49008313  0.17068418  1
  Ag  Ag11  1  0.66681449  -0.00298488  -0.00298889  1
  Ag  Ag12  1  0.33164915  0.66214645  -0.00030993  1
  Ag  Ag13  1  0.00176482  0.33752538  0.33442691  1
  Ag  Ag14  1  0.84027549  0.16567507  0.33432980  1
  Ag  Ag15  1  0.49379002  0.83722910  0.66840683  1
  Ag  Ag16  1  0.16235130  0.82727107  0.34021586  1
  Ag  Ag17  1  0.83240217  0.33043290  0.49828777  1
  Ag  Ag18  1  0.33456681  0.16612277  0.83608456  1
  Ag  Ag19  1  0.16805956  0.50215422  0.00024455  1
  Ag  Ag20  1  0.00113289  0.66515792  -0.00253202  1
  Ag  Ag21  1  0.00475314  0.66447459  0.33160095  1
  Ag  Ag22  1  0.49680084  0.00009942  0.82856452  1
  Ag  Ag23  1  0.00306307  0.16733477  0.16823561  1
  Ag  Ag24  1  0.15902714  -0.00379483  0.50130958  1
  Ag  Ag25  1  0.00393544  -0.00344703  0.65837264  1
  Ag  Ag26  1  0.00454616  0.50175921  0.49504856  1
  Ag  Ag27  1  -0.00289137  -0.00325753  0.34097989  1
  Ag  Ag28  1  0.84359990  0.83489067  0.34001300  1
  Ag  Ag29  1  0.67861382  0.83540583  0.50196707  1
  Ag  Ag30  1  0.49612188  0.66549866  0.83518497  1
  Ag  Ag31  1  0.16588464  0.50451469  0.66525169  1
  Ag  Ag32  1  0.33849124  0.33665055  0.00996489  1
  Ag  Ag33  1  0.33530311  0.83267621  0.83370733  1
  Ag  Ag34  1  0.49721835  0.17112970  -0.00296850  1
  Ag  Ag35  1  -0.00210646  0.83844424  0.49765427  1
  Ag  Ag36  1  0.49603180  0.00181156  0.50637645  1
  Ag  Ag37  1  0.82731047  0.33889397  0.83062318  1
  Ag  Ag38  1  0.65901086  0.33557598  -0.00619453  1
  Ag  Ag39  1  -0.00089660  0.50095893  0.83029233  1
  Ag  Ag40  1  0.66639171  0.33617179  0.67532645  1
  Ag  Ag41  1  0.32475026  0.65980597  0.32756238  1
  Ag  Ag42  1  0.33453019  0.17086181  0.49765765  1
  Ag  Ag43  1  0.00283066  0.17092328  0.83783967  1
  Ag  Ag44  1  0.50289476  0.33257152  0.83644231  1
  Ag  Ag45  1  0.83937681  -0.00424294  0.49604558  1
  Ag  Ag46  1  0.16619306  0.66390683  0.83643406  1
  Ag  Ag47  1  0.66661433  0.66586544  -0.00527473  1
  Ag  Ag48  1  0.49758979  0.32944229  0.50172941  1
  Ag  Ag49  1  0.83589612  -0.00111913  0.17750244  1
  Ag  Ag50  1  0.32962458  0.17605621  0.16643582  1
  Ag  Ag51  1  0.32304736  0.49294204  0.49201886  1
  Ag  Ag52  1  0.83621178  0.83475255  0.66073676  1
  Ag  Ag53  1  0.83260876  0.83082655  -0.00245519  1
  Sb  Sb54  1  0.66406957  0.17283236  0.83492025  1
  Sb  Sb55  1  0.33702579  0.00130005  -0.00435760  1
  Sb  Sb56  1  0.00221070  0.83056522  0.82814283  1
  Sb  Sb57  1  0.50052693  0.00447078  0.16594065  1
  Sb  Sb58  1  -0.00261121  0.33143160  0.66394404  1
  Sb  Sb59  1  0.49445674  0.50133639  0.66891116  1
  Sb  Sb60  1  0.83535628  0.67131051  0.16349628  1
  Sb  Sb61  1  0.66361400  0.82904461  0.83057038  1
  Sb  Sb62  1  0.16399300  0.00359384  0.17323809  1
  Sb  Sb63  1  0.66516752  0.83455920  0.16751775  1
  Sb  Sb64  1  0.00346746  0.83575842  0.17464773  1
  Sb  Sb65  1  0.32695262  0.00117080  0.33927867  1
  Sb  Sb66  1  0.83540732  0.16350208  0.66363405  1
  Sb  Sb67  1  0.66727689  0.33547620  0.33301415  1
  Sb  Sb68  1  0.83383667  0.32979351  0.16845536  1
  Sb  Sb69  1  0.16220473  0.16966871  0.33350016  1
  Sb  Sb70  1  0.49190199  0.49918762  0.33463835  1
  Sb  Sb71  1  0.49364995  0.49387786  -0.00248901  1
  Sb  Sb72  1  0.83925583  0.50277552  0.66598697  1
  Sb  Sb73  1  0.66614585  0.16721773  0.16473521  1
  Sb  Sb74  1  0.49719811  0.16315482  0.67144274  1
  Sb  Sb75  1  0.83805646  0.50354730  -0.00026455  1
  Sb  Sb76  1  0.49909601  0.16869173  0.33169540  1
  Sb  Sb77  1  0.49566523  0.83471290  0.33914120  1
  Sb  Sb78  1  0.49615155  0.66769244  0.50520105  1
  Sb  Sb79  1  0.16605804  0.66820318  0.49959983  1
  Sb  Sb80  1  0.32987239  0.50027048  0.83497637  1
  Sb  Sb81  1  0.33071295  0.67135174  0.67088364  1
  Sb  Sb82  1  0.00183506  0.33693002  0.00191712  1
  Sb  Sb83  1  0.66347610  0.49782600  0.16003445  1
  Sb  Sb84  1  0.83089176  -0.00062695  0.83055246  1
  Sb  Sb85  1  0.16437073  0.82681381  -0.00051274  1
  Sb  Sb86  1  0.83617989  0.66985138  0.50190027  1
  Sb  Sb87  1  0.66961755  0.50027751  0.50410126  1
  Sb  Sb88  1  0.67517005  -0.00121919  0.33358397  1
  Sb  Sb89  1  0.66740025  0.66488270  0.67327727  1
  Sb  Sb90  1  0.17183903  0.17230552  -0.00044274  1
  Sb  Sb91  1  0.00143251  0.67042471  0.66716102  1
  Sb  Sb92  1  0.66354821  0.16383761  0.50007470  1
  Sb  Sb93  1  0.16808722  0.33911124  0.83678198  1
  Sb  Sb94  1  0.00200327  0.16436568  0.49732582  1
  Sb  Sb95  1  -0.00446791  -0.00467238  0.00018471  1
  Sb  Sb96  1  0.49418164  0.66189218  0.15967126  1
  Sb  Sb97  1  0.16691579  0.16517657  0.66572154  1
  Sb  Sb98  1  0.00579084  0.49545985  0.17073850  1
  Sb  Sb99  1  0.67038105  0.66688593  0.32984166  1
  Sb  Sb100  1  0.33604082  0.33103393  0.66654819  1
  Sb  Sb101  1  0.16857320  0.66178496  0.16540302  1
  Sb  Sb102  1  0.17132300  -0.00514187  0.82664076  1
  Sb  Sb103  1  0.32853370  0.83489852  0.50229099  1
  Sb  Sb104  1  0.50109958  0.83475910  -0.00568736  1
  Sb  Sb105  1  0.16742466  0.33389485  0.49534291  1
  Sb  Sb106  1  0.83127138  0.16409204  0.00192498  1
  Sb  Sb107  1  0.66588084  -0.00078516  0.66864374  1
  Te  Te108  1  0.16776849  0.17167661  0.16646186  1
  Te  Te109  1  0.17423661  0.15965804  0.50001174  1
  Te  Te110  1  0.16816235  0.16678076  0.83337209  1
  Te  Te111  1  0.17063428  0.49560877  0.16893164  1
  Te  Te112  1  0.16493498  0.50008183  0.49759921  1
  Te  Te113  1  0.16278960  0.50379463  0.83342707  1
  Te  Te114  1  0.17236421  0.83556499  0.17021828  1
  Te  Te115  1  0.16227967  0.83457524  0.50125001  1
  Te  Te116  1  0.17125392  0.82769060  0.83090866  1
  Te  Te117  1  0.49473458  0.17107197  0.16373365  1
  Te  Te118  1  0.49607573  0.16674551  0.49965058  1
  Te  Te119  1  0.49722018  0.16864884  0.83632245  1
  Te  Te120  1  0.49311483  0.49250347  0.16754639  1
  Te  Te121  1  0.50007730  0.49506944  0.50216373  1
  Te  Te122  1  0.50296274  0.49921333  0.83176803  1
  Te  Te123  1  0.49343954  0.83476131  0.16876104  1
  Te  Te124  1  0.49895947  0.83606535  0.50651972  1
  Te  Te125  1  0.49676652  0.83541237  0.82959149  1
  Te  Te126  1  0.83703627  0.16180040  0.16980039  1
  Te  Te127  1  0.83287388  0.16903658  0.49607981  1
  Te  Te128  1  0.83827322  0.17042376  0.83291044  1
  Te  Te129  1  0.83247509  0.50029240  0.17393635  1
  Te  Te130  1  0.83695290  0.49797057  0.49805215  1
  Te  Te131  1  0.83770450  0.49940231  0.83318577  1
  Te  Te132  1  0.83239549  0.83888022  0.16651627  1
  Te  Te133  1  0.83717656  0.83329423  0.50037671  1
  Te  Te134  1  0.83301885  0.83129168  0.83482633  1
  Te  Te135  1  0.16579171  -0.00177225  0.00053874  1
  Te  Te136  1  0.15906430  -0.00398143  0.33882036  1
  Te  Te137  1  0.16650656  -0.00287975  0.66228124  1
  Te  Te138  1  0.17033857  0.33950324  0.00490568  1
  Te  Te139  1  0.16623238  0.33604722  0.33139229  1
  Te  Te140  1  0.16622634  0.34025906  0.66648810  1
  Te  Te141  1  0.16805035  0.66314016  -0.00219778  1
  Te  Te142  1  0.16629471  0.66622305  0.33273914  1
  Te  Te143  1  0.16643324  0.66784639  0.67357967  1
  Te  Te144  1  0.50452112  0.00380610  -0.00257808  1
  Te  Te145  1  0.50207675  0.00094853  0.33990534  1
  Te  Te146  1  0.49982750  -0.00258088  0.66719018  1
  Te  Te147  1  0.49796392  0.33304331  -0.00308935  1
  Te  Te148  1  0.49791731  0.33279649  0.34014880  1
  Te  Te149  1  0.50361274  0.33350774  0.66660633  1
  Te  Te150  1  0.49777791  0.66729296  -0.00617114  1
  Te  Te151  1  0.49624358  0.66749138  0.33235633  1
  Te  Te152  1  0.49945275  0.67352362  0.67430410  1
  Te  Te153  1  0.82846588  -0.00416816  -0.00078103  1
  Te  Te154  1  0.83619181  -0.00323503  0.33557579  1
  Te  Te155  1  0.83425990  -0.00450668  0.66221247  1
  Te  Te156  1  0.83099220  0.33368638  -0.00324201  1
  Te  Te157  1  0.83404854  0.33456147  0.33460255  1
  Te  Te158  1  0.83041601  0.33425278  0.66653858  1
  Te  Te159  1  0.83527519  0.66906079  -0.00258866  1
  Te  Te160  1  0.83787685  0.66915825  0.33186301  1
  Te  Te161  1  0.83389791  0.67282215  0.67435273  1
  Te  Te162  1  0.00039223  0.16604581  -0.00098845  1
  Te  Te163  1  -0.00147734  0.16813074  0.33106810  1
  Te  Te164  1  0.00108332  0.16009081  0.67368640  1
  Te  Te165  1  0.00541010  0.50420537  -0.00169280  1
  Te  Te166  1  0.00320030  0.49930505  0.33303199  1
  Te  Te167  1  0.00568584  0.50010936  0.66520547  1
  Te  Te168  1  -0.00473749  0.82722522  0.00116467  1
  Te  Te169  1  0.00208676  0.83316598  0.33507126  1
  Te  Te170  1  0.00244320  0.83620398  0.66191826  1
  Te  Te171  1  0.33632531  0.16815298  -0.00155981  1
  Te  Te172  1  0.33248877  0.17062496  0.33241581  1
  Te  Te173  1  0.33280961  0.15991229  0.66818229  1
  Te  Te174  1  0.32887622  0.50106074  0.00118114  1
  Te  Te175  1  0.33061422  0.49906399  0.33296013  1
  Te  Te176  1  0.32671530  0.50173348  0.66120991  1
  Te  Te177  1  0.33319824  0.83120531  -0.00247486  1
  Te  Te178  1  0.32821261  0.83231839  0.33252659  1
  Te  Te179  1  0.33066558  0.83669348  0.66940751  1
  Te  Te180  1  0.66235875  0.16942504  0.00067770  1
  Te  Te181  1  0.67725767  0.16724663  0.33217793  1
  Te  Te182  1  0.66757621  0.17643133  0.66673006  1
  Te  Te183  1  0.66806810  0.50037125  -0.00506091  1
  Te  Te184  1  0.67286872  0.50211568  0.33301911  1
  Te  Te185  1  0.66700626  0.49570028  0.67245998  1
  Te  Te186  1  0.66988944  0.83170653  0.00007004  1
  Te  Te187  1  0.67033212  0.83128017  0.33827509  1
  Te  Te188  1  0.67080935  0.83289058  0.66225661  1
  Te  Te189  1  -0.00369990  0.00539893  0.16788232  1
  Te  Te190  1  -0.00098044  0.00198605  0.50003235  1
  Te  Te191  1  0.00087174  0.00292159  0.83148859  1
  Te  Te192  1  0.00015508  0.32757160  0.17030647  1
  Te  Te193  1  -0.00339724  0.33314139  0.49647771  1
  Te  Te194  1  -0.00124657  0.33441382  0.83312290  1
  Te  Te195  1  0.00096206  0.66689840  0.16670488  1
  Te  Te196  1  -0.00036923  0.66279090  0.49469424  1
  Te  Te197  1  -0.00058954  0.66458057  0.83404233  1
  Te  Te198  1  0.33351553  -0.00133348  0.16813381  1
  Te  Te199  1  0.33714901  0.00176018  0.50262225  1
  Te  Te200  1  0.33680933  0.00070430  0.82981442  1
  Te  Te201  1  0.33340601  0.33278942  0.16679656  1
  Te  Te202  1  0.33472471  0.33264613  0.50176358  1
  Te  Te203  1  0.33627436  0.33065424  0.83426162  1
  Te  Te204  1  0.33401620  0.67046151  0.16555683  1
  Te  Te205  1  0.33366506  0.65958059  0.49344314  1
  Te  Te206  1  0.33430983  0.66727232  0.83702656  1
  Te  Te207  1  0.67129804  -0.00018847  0.16002441  1
  Te  Te208  1  0.66638447  -0.00359117  0.50110135  1
  Te  Te209  1  0.66112492  0.00037567  0.83677402  1
  Te  Te210  1  0.66080016  0.33364284  0.16018646  1
  Te  Te211  1  0.66760523  0.33378618  0.50091110  1
  Te  Te212  1  0.66691823  0.33523136  0.83510184  1
  Te  Te213  1  0.66343817  0.66626794  0.15563818  1
  Te  Te214  1  0.66508038  0.67278348  0.49935279  1
  Te  Te215  1  0.66800085  0.66218256  0.83739410  1
