# generated using pymatgen
data_AgSbTe2
_symmetry_space_group_name_H-M   'P 1'
_cell_length_a   18.32137075
_cell_length_b   18.32653160
_cell_length_c   18.32028682
_cell_angle_alpha   90.00279164
_cell_angle_beta   89.99399777
_cell_angle_gamma   90.00018616
_symmetry_Int_Tables_number   1
_chemical_formula_structural   AgSbTe2
_chemical_formula_sum   'Ag54 Sb54 Te108'
_cell_volume   6151.35100135
_cell_formula_units_Z   54
loop_
 _symmetry_equiv_pos_site_id
 _symmetry_equiv_pos_as_xyz
  1  'x, y, z'
loop_
 _atom_site_type_symbol
 _atom_site_label
 _atom_site_symmetry_multiplicity
 _atom_site_fract_x
 _atom_site_fract_y
 _atom_site_fract_z
 _atom_site_occupancy
  Ag  Ag0  1  0.33463323  0.16234547  0.49373015  1
  Ag  Ag1  1  0.66971535  0.66332597  0.67009583  1
  Ag  Ag2  1  0.50172603  0.33176799  0.49789697  1
  Ag  Ag3  1  0.66060533  0.00514365  0.32808763  1
  Ag  Ag4  1  0.82992915  0.32968643  0.15606872  1
  Ag  Ag5  1  0.33219113  0.00440718  -0.00339827  1
  Ag  Ag6  1  -0.00420352  0.00755140  -0.00480824  1
  Ag  Ag7  1  0.82967599  0.32831489  0.83442791  1
  Ag  Ag8  1  0.66836282  0.49064095  0.83222660  1
  Ag  Ag9  1  0.66341224  0.66148686  0.32978366  1
  Ag  Ag10  1  -0.01223478  0.32808917  -0.00908810  1
  Ag  Ag11  1  0.83038260  0.17294059  0.67425069  1
  Ag  Ag12  1  0.50254449  0.49911859  0.32711291  1
  Ag  Ag13  1  0.51025857  0.33119512  0.83245777  1
  Ag  Ag14  1  0.50053330  0.83075489  0.33071964  1
  Ag  Ag15  1  0.82105846  0.49510086  0.32994734  1
  Ag  Ag16  1  0.67100148  0.17238666  0.83276716  1
  Ag  Ag17  1  0.17561589  0.49389251  0.33586222  1
  Ag  Ag18  1  0.66699196  0.83636200  0.83267296  1
  Ag  Ag19  1  -0.00350073  0.66999550  0.66761403  1
  Ag  Ag20  1  0.00359160  0.83975424  0.51043027  1
  Ag  Ag21  1  0.33212885  -0.00546250  0.67559433  1
  Ag  Ag22  1  0.82638077  0.48964531  -0.00412131  1
  Ag  Ag23  1  -0.00552627  0.16454897  0.50177299  1
  Ag  Ag24  1  0.50242039  0.66606788  0.16858912  1
  Ag  Ag25  1  0.17124735  0.00263969  0.83299593  1
  Ag  Ag26  1  -0.00386176  0.83897936  0.82764555  1
  Ag  Ag27  1  0.17630760  0.17038742  0.33449288  1
  Ag  Ag28  1  0.83816617  0.83377680  0.67111145  1
  Ag  Ag29  1  0.66275631  0.83576923  0.16720636  1
  Ag  Ag30  1  0.33949796  0.16709553  0.17241787  1
  Ag  Ag31  1  0.50169884  0.00144604  0.83362839  1
  Ag  Ag32  1  0.66676423  0.16933880  0.49962375  1
  Ag  Ag33  1  0.33702876  0.49152275  0.16945082  1
  Ag  Ag34  1  0.82728540  0.00710850  0.15958616  1
  Ag  Ag35  1  0.16307594  0.50212315  0.66728425  1
  Ag  Ag36  1  0.16390684  0.82942631  0.66969544  1
  Ag  Ag37  1  0.66725551  0.16502668  0.16839017  1
  Ag  Ag38  1  0.16434076  0.32830312  0.83176129  1
  Ag  Ag39  1  0.33968215  0.32741526  0.32788610  1
  Ag  Ag40  1  0.83150196  0.49313920  0.67303535  1
  Ag  Ag41  1  0.66578938  0.66432748  -0.00288566  1
  Ag  Ag42  1  0.50557018  0.49757525  0.00315456  1
  Ag  Ag43  1  0.33345588  0.32770213  0.00303800  1
  Ag  Ag44  1  0.83212256  0.17129369  -0.00662638  1
  Ag  Ag45  1  0.33503219  0.84131146  0.82640597  1
  Ag  Ag46  1  -0.01097036  0.33552172  0.67295902  1
  Ag  Ag47  1  0.33872105  0.00873927  0.33053396  1
  Ag  Ag48  1  0.33102238  0.67561442  0.66722269  1
  Ag  Ag49  1  0.67126559  0.33418305  0.67480877  1
  Ag  Ag50  1  0.82927398  0.00684416  0.83610941  1
  Ag  Ag51  1  0.33321770  0.84165178  0.50894057  1
  Ag  Ag52  1  0.34155898  0.83824126  0.16852537  1
  Ag  Ag53  1  0.66186919  0.33333175  0.33598223  1
  Sb  Sb54  1  0.49833539  0.16929645  0.33289948  1
  Sb  Sb55  1  0.33951709  0.66722025  -0.00261937  1
  Sb  Sb56  1  0.66617023  0.49334739  0.50145809  1
  Sb  Sb57  1  0.33504554  0.49736981  0.49658103  1
  Sb  Sb58  1  0.50076146  0.66366495  0.49678587  1
  Sb  Sb59  1  0.33824037  0.16269170  0.83343802  1
  Sb  Sb60  1  0.16788663  0.49569159  -0.00359112  1
  Sb  Sb61  1  0.50301611  0.33706688  0.16561909  1
  Sb  Sb62  1  -0.00999814  0.66517945  -0.00780063  1
  Sb  Sb63  1  0.83150920  0.66682226  0.50460980  1
  Sb  Sb64  1  0.17709948  0.66610067  0.16902659  1
  Sb  Sb65  1  0.16429920  0.16700399  0.00155437  1
  Sb  Sb66  1  -0.00608502  0.49734378  0.83065001  1
  Sb  Sb67  1  0.00138044  -0.00211792  0.67321280  1
  Sb  Sb68  1  -0.00708164  0.16440499  0.82902001  1
  Sb  Sb69  1  0.82889647  0.66563696  0.83045954  1
  Sb  Sb70  1  0.16932342  0.00075321  0.16298177  1
  Sb  Sb71  1  0.50348499  0.66657082  0.83649248  1
  Sb  Sb72  1  0.82997119  0.17017113  0.33276908  1
  Sb  Sb73  1  -0.00120937  0.33256927  0.33611617  1
  Sb  Sb74  1  -0.00621060  0.66572156  0.34041322  1
  Sb  Sb75  1  0.50143948  -0.00376864  0.16472048  1
  Sb  Sb76  1  -0.00332106  0.16745440  0.16900313  1
  Sb  Sb77  1  0.16304226  0.16673770  0.66492996  1
  Sb  Sb78  1  0.82431810  0.66483149  0.16565587  1
  Sb  Sb79  1  0.16740031  0.33188077  0.16445966  1
  Sb  Sb80  1  0.82634697  0.83192298  0.33612582  1
  Sb  Sb81  1  0.66606994  -0.00086581  0.00107418  1
  Sb  Sb82  1  0.66505795  0.00204037  0.66913480  1
  Sb  Sb83  1  0.16749317  0.66750269  0.82956377  1
  Sb  Sb84  1  0.49769311  0.00455787  0.50124980  1
  Sb  Sb85  1  0.66345355  0.49819234  0.16521862  1
  Sb  Sb86  1  0.33485265  0.33149088  0.66757241  1
  Sb  Sb87  1  0.00106613  0.49908498  0.16614612  1
  Sb  Sb88  1  0.49831180  0.83292988  0.66564811  1
  Sb  Sb89  1  0.33767880  0.49933781  0.83558531  1
  Sb  Sb90  1  0.16822265  0.66709860  0.50204149  1
  Sb  Sb91  1  0.17623540  0.83482494  0.33906899  1
  Sb  Sb92  1  0.16953829  0.00064948  0.50588803  1
  Sb  Sb93  1  0.83068943  0.83797703  -0.00681383  1
  Sb  Sb94  1  0.66771459  0.33636005  -0.00213229  1
  Sb  Sb95  1  0.50361200  0.17118309  -0.00115971  1
  Sb  Sb96  1  -0.00370055  0.83557060  0.16433397  1
  Sb  Sb97  1  -0.00063628  0.49667142  0.50457476  1
  Sb  Sb98  1  0.50263629  0.49909025  0.66891289  1
  Sb  Sb99  1  0.82778894  0.33177968  0.50560001  1
  Sb  Sb100  1  0.33990372  0.66584936  0.33689476  1
  Sb  Sb101  1  0.83261443  0.00154942  0.50346396  1
  Sb  Sb102  1  0.16883542  0.83532769  -0.00776527  1
  Sb  Sb103  1  0.50096060  0.83151260  0.00227372  1
  Sb  Sb104  1  0.00022997  0.00130445  0.33019285  1
  Sb  Sb105  1  0.66370320  0.83858073  0.50149435  1
  Sb  Sb106  1  0.50474130  0.16759850  0.66725536  1
  Sb  Sb107  1  0.17046869  0.33119477  0.50349645  1
  Te  Te108  1  0.17234803  0.16653632  0.17279810  1
  Te  Te109  1  0.17139604  0.16639219  0.49622986  1
  Te  Te110  1  0.16707769  0.16661696  0.83322349  1
  Te  Te111  1  0.17366885  0.49968219  0.17001835  1
  Te  Te112  1  0.16683542  0.49903190  0.50151193  1
  Te  Te113  1  0.16738677  0.49474238  0.82819855  1
  Te  Te114  1  0.17097992  0.83294773  0.16818481  1
  Te  Te115  1  0.16855532  0.83403192  0.50683117  1
  Te  Te116  1  0.17137342  0.83543004  0.82826204  1
  Te  Te117  1  0.50147476  0.16619841  0.16461117  1
  Te  Te118  1  0.50114713  0.17189052  0.50096602  1
  Te  Te119  1  0.50839695  0.16809909  0.83373986  1
  Te  Te120  1  0.49740436  0.50260474  0.16590150  1
  Te  Te121  1  0.49971849  0.49246635  0.49219579  1
  Te  Te122  1  0.50594355  0.49661238  0.83700607  1
  Te  Te123  1  0.50302463  0.83050204  0.16823437  1
  Te  Te124  1  0.49510082  0.83407877  0.49354999  1
  Te  Te125  1  0.50071024  0.83657286  0.83426660  1
  Te  Te126  1  0.83115780  0.16733282  0.16646832  1
  Te  Te127  1  0.83221868  0.16588412  0.50293751  1
  Te  Te128  1  0.83135426  0.16665994  0.83352078  1
  Te  Te129  1  0.83371597  0.49618003  0.16750353  1
  Te  Te130  1  0.83400483  0.49953260  0.49728425  1
  Te  Te131  1  0.82918472  0.49682883  0.83228894  1
  Te  Te132  1  0.82757568  0.83704273  0.16660621  1
  Te  Te133  1  0.83677764  0.83462064  0.50569260  1
  Te  Te134  1  0.83054600  0.83533430  0.83076783  1
  Te  Te135  1  0.16744952  0.00088852  -0.00634196  1
  Te  Te136  1  0.17046830  0.00346133  0.33186645  1
  Te  Te137  1  0.17075320  -0.00273377  0.67267812  1
  Te  Te138  1  0.17020960  0.33341577  -0.00601276  1
  Te  Te139  1  0.16726822  0.33405327  0.33306158  1
  Te  Te140  1  0.16641552  0.33574891  0.67116069  1
  Te  Te141  1  0.16322856  0.66481456  -0.00001967  1
  Te  Te142  1  0.16385251  0.65938966  0.33432607  1
  Te  Te143  1  0.16676068  0.66562563  0.66714147  1
  Te  Te144  1  0.49392870  0.00066458  -0.00639372  1
  Te  Te145  1  0.49960990  -0.00523839  0.33356360  1
  Te  Te146  1  0.49336067  0.00009380  0.67309643  1
  Te  Te147  1  0.49460748  0.33726263  -0.00349973  1
  Te  Te148  1  0.49950471  0.33622948  0.33134153  1
  Te  Te149  1  0.50552502  0.33445611  0.67052580  1
  Te  Te150  1  0.50530611  0.66032451  0.00465908  1
  Te  Te151  1  0.50462420  0.66502955  0.33079913  1
  Te  Te152  1  0.50478182  0.66530126  0.66564534  1
  Te  Te153  1  0.83286039  0.00334515  -0.00173952  1
  Te  Te154  1  0.83034865  0.00028202  0.32850316  1
  Te  Te155  1  0.83325331  -0.00072906  0.67129506  1
  Te  Te156  1  0.83151984  0.33248489  -0.00186387  1
  Te  Te157  1  0.83186529  0.33635990  0.33332890  1
  Te  Te158  1  0.83160499  0.33350190  0.66827951  1
  Te  Te159  1  0.82604514  0.65734538  -0.00010562  1
  Te  Te160  1  0.82574705  0.66017670  0.33376921  1
  Te  Te161  1  0.83125540  0.66597484  0.66718382  1
  Te  Te162  1  -0.00357699  0.16802953  0.00208945  1
  Te  Te163  1  0.00516759  0.16614738  0.33963319  1
  Te  Te164  1  -0.00392708  0.16904613  0.66160693  1
  Te  Te165  1  -0.00484828  0.49551349  -0.00138999  1
  Te  Te166  1  0.00267855  0.50091112  0.33523814  1
  Te  Te167  1  -0.00116301  0.49991651  0.66692450  1
  Te  Te168  1  -0.00030964  0.83515384  -0.00516856  1
  Te  Te169  1  0.00109970  0.83284108  0.33755867  1
  Te  Te170  1  -0.00050264  0.83538523  0.66787624  1
  Te  Te171  1  0.33252471  0.16697246  0.00256063  1
  Te  Te172  1  0.33498262  0.16774242  0.33244302  1
  Te  Te173  1  0.33243804  0.16232847  0.66126502  1
  Te  Te174  1  0.33580260  0.49862721  0.00449360  1
  Te  Te175  1  0.33458073  0.49952476  0.33097544  1
  Te  Te176  1  0.33081499  0.50208684  0.66574346  1
  Te  Te177  1  0.33418607  0.83613250  0.00237383  1
  Te  Te178  1  0.33683978  0.83274756  0.32951080  1
  Te  Te179  1  0.33492317  0.83459396  0.66718230  1
  Te  Te180  1  0.67111612  0.16612217  0.00183429  1
  Te  Te181  1  0.66609940  0.16717132  0.33101280  1
  Te  Te182  1  0.67070567  0.16843736  0.66815452  1
  Te  Te183  1  0.66645888  0.50207267  -0.00087223  1
  Te  Te184  1  0.66411873  0.49793184  0.33357700  1
  Te  Te185  1  0.66916620  0.49870485  0.66851953  1
  Te  Te186  1  0.66685772  0.82743570  -0.00013335  1
  Te  Te187  1  0.66365426  0.83414136  0.33330930  1
  Te  Te188  1  0.66901828  0.83330054  0.66810363  1
  Te  Te189  1  -0.00543079  -0.00045111  0.15828483  1
  Te  Te190  1  0.00035763  0.00118366  0.49847746  1
  Te  Te191  1  -0.00259822  -0.00166492  0.83684902  1
  Te  Te192  1  -0.00598336  0.33376148  0.16274092  1
  Te  Te193  1  0.00133392  0.32738121  0.50520359  1
  Te  Te194  1  -0.00170409  0.33198857  0.83218369  1
  Te  Te195  1  0.00002997  0.66861295  0.16563672  1
  Te  Te196  1  -0.00008266  0.67400898  0.50812693  1
  Te  Te197  1  0.00072795  0.67533275  0.82717551  1
  Te  Te198  1  0.33437877  0.00052278  0.16747233  1
  Te  Te199  1  0.33390833  0.00114492  0.49354516  1
  Te  Te200  1  0.33387923  0.00118687  0.83535438  1
  Te  Te201  1  0.33352936  0.33186792  0.16686891  1
  Te  Te202  1  0.33821874  0.32924454  0.49683215  1
  Te  Te203  1  0.33365523  0.33236533  0.83641105  1
  Te  Te204  1  0.34106483  0.67216058  0.16606798  1
  Te  Te205  1  0.33482772  0.67352625  0.50720009  1
  Te  Te206  1  0.33563395  0.67185785  0.82819629  1
  Te  Te207  1  0.66716236  -0.00026861  0.16718975  1
  Te  Te208  1  0.66513590  0.00746747  0.49357886  1
  Te  Te209  1  0.66729596  -0.00240055  0.83419857  1
  Te  Te210  1  0.66942498  0.32984370  0.17073789  1
  Te  Te211  1  0.66230649  0.32823179  0.49583326  1
  Te  Te212  1  0.66794084  0.33289508  0.83372977  1
  Te  Te213  1  0.66295815  0.66968443  0.17008947  1
  Te  Te214  1  0.66559450  0.66909654  0.50283066  1
  Te  Te215  1  0.66520459  0.67216191  0.83085677  1
