# generated using pymatgen
data_AgSbTe2
_symmetry_space_group_name_H-M   'P 1'
_cell_length_a   18.33290650
_cell_length_b   18.33415261
_cell_length_c   18.33583118
_cell_angle_alpha   89.99780524
_cell_angle_beta   89.99828543
_cell_angle_gamma   90.00071079
_symmetry_Int_Tables_number   1
_chemical_formula_structural   AgSbTe2
_chemical_formula_sum   'Ag54 Sb54 Te108'
_cell_volume   6163.00849591
_cell_formula_units_Z   54
loop_
 _symmetry_equiv_pos_site_id
 _symmetry_equiv_pos_as_xyz
  1  'x, y, z'
loop_
 _atom_site_type_symbol
 _atom_site_label
 _atom_site_symmetry_multiplicity
 _atom_site_fract_x
 _atom_site_fract_y
 _atom_site_fract_z
 _atom_site_occupancy
  Ag  Ag0  1  0.50654930  0.66817854  0.50760918  1
  Ag  Ag1  1  0.67229770  -0.00390458  0.33480773  1
  Ag  Ag2  1  0.83303658  0.16927315  -0.00025213  1
  Ag  Ag3  1  0.32271640  0.83863295  0.16099708  1
  Ag  Ag4  1  0.82319952  0.33505712  0.83455465  1
  Ag  Ag5  1  0.66810668  0.17487324  0.50034304  1
  Ag  Ag6  1  0.82249615  0.67138988  0.83693695  1
  Ag  Ag7  1  0.16905378  -0.00565576  0.84056164  1
  Ag  Ag8  1  0.66467405  0.66667156  -0.00987054  1
  Ag  Ag9  1  0.16979487  0.17017067  0.67147030  1
  Ag  Ag10  1  -0.00685924  0.83402871  0.48730813  1
  Ag  Ag11  1  -0.00176264  -0.00792920  0.32520953  1
  Ag  Ag12  1  0.16527689  0.32622793  0.15398451  1
  Ag  Ag13  1  0.00856734  0.32467912  -0.00077335  1
  Ag  Ag14  1  0.83196871  0.66990368  0.15999387  1
  Ag  Ag15  1  0.50071750  0.17028961  0.67043300  1
  Ag  Ag16  1  0.00495355  0.83911908  0.17316309  1
  Ag  Ag17  1  0.00656061  -0.00132367  0.00468037  1
  Ag  Ag18  1  0.83107121  -0.00649390  0.49700657  1
  Ag  Ag19  1  0.66840506  0.49725994  0.16081168  1
  Ag  Ag20  1  0.00532441  0.15752038  0.16251697  1
  Ag  Ag21  1  0.50489472  0.83362671  0.32941489  1
  Ag  Ag22  1  0.51081507  0.33421657  0.50802702  1
  Ag  Ag23  1  0.33639531  0.68024751  -0.00243916  1
  Ag  Ag24  1  0.83931256  0.83466484  0.33953872  1
  Ag  Ag25  1  0.16256518  -0.00194508  0.15913754  1
  Ag  Ag26  1  0.16523981  0.49109667  0.66851706  1
  Ag  Ag27  1  0.66712026  0.49795998  0.50519440  1
  Ag  Ag28  1  0.32456617  -0.00230783  -0.00106837  1
  Ag  Ag29  1  0.16531343  0.33447630  0.50561211  1
  Ag  Ag30  1  0.15290178  0.83204809  0.32867477  1
  Ag  Ag31  1  0.16030950  0.83451241  0.68091000  1
  Ag  Ag32  1  0.66586703  0.33709282  0.67279079  1
  Ag  Ag33  1  0.16712792  0.67802708  0.83311355  1
  Ag  Ag34  1  0.32695115  0.32476945  -0.00278799  1
  Ag  Ag35  1  0.66658778  0.66467971  0.67640542  1
  Ag  Ag36  1  0.16436835  0.50297340  0.33430077  1
  Ag  Ag37  1  0.66628144  0.33532927  -0.01042576  1
  Ag  Ag38  1  0.66683634  0.51101220  0.83158796  1
  Ag  Ag39  1  0.51101575  0.67284418  0.83405145  1
  Ag  Ag40  1  0.49770139  -0.00416410  0.83587105  1
  Ag  Ag41  1  0.83366079  0.83255747  0.66328331  1
  Ag  Ag42  1  0.67059678  0.82442666  0.83107598  1
  Ag  Ag43  1  0.49457760  0.83220288  -0.00179151  1
  Ag  Ag44  1  0.32287106  0.16091713  0.15745182  1
  Ag  Ag45  1  0.66875863  0.16940821  0.16504859  1
  Ag  Ag46  1  0.00495266  0.83294513  0.83623462  1
  Ag  Ag47  1  0.50746046  0.33159613  0.83167034  1
  Ag  Ag48  1  0.16657009  0.33183772  0.83605839  1
  Ag  Ag49  1  0.16847646  0.83636605  -0.00016531  1
  Ag  Ag50  1  0.33115397  0.16804176  0.83925755  1
  Ag  Ag51  1  0.82438687  0.32897307  0.50662701  1
  Ag  Ag52  1  0.00028550  0.68006881  0.33224253  1
  Ag  Ag53  1  0.67187239  0.83194744  0.50360150  1
  Sb  Sb54  1  0.33251665  -0.00027317  0.67556974  1
  Sb  Sb55  1  -0.00372736  0.16305091  0.49509212  1
  Sb  Sb56  1  -0.00153870  0.67194006  0.00086827  1
  Sb  Sb57  1  0.16554572  0.16028646  -0.00330838  1
  Sb  Sb58  1  0.50292360  0.50445294  -0.00209994  1
  Sb  Sb59  1  0.33493988  0.50048955  0.16382120  1
  Sb  Sb60  1  0.33540180  0.33202470  0.67404489  1
  Sb  Sb61  1  0.50258417  0.83516628  0.67106102  1
  Sb  Sb62  1  0.16989020  0.66579506  0.50416848  1
  Sb  Sb63  1  -0.00347483  0.50273021  0.49901548  1
  Sb  Sb64  1  0.83164941  0.16106431  0.32951631  1
  Sb  Sb65  1  -0.00177712  0.50165337  0.16598048  1
  Sb  Sb66  1  -0.00307675  0.67155468  0.66513135  1
  Sb  Sb67  1  0.49848079  0.33081368  0.16138379  1
  Sb  Sb68  1  0.16279239  0.67178421  0.16290573  1
  Sb  Sb69  1  0.33611364  0.49630057  0.83472714  1
  Sb  Sb70  1  0.83390084  -0.00271425  0.83162723  1
  Sb  Sb71  1  0.00150650  0.33096239  0.32990263  1
  Sb  Sb72  1  0.82977040  0.49655184  -0.00134079  1
  Sb  Sb73  1  0.82829938  0.67185867  0.50278421  1
  Sb  Sb74  1  0.83237465  0.16520631  0.66922468  1
  Sb  Sb75  1  0.33379380  0.83332148  0.49399368  1
  Sb  Sb76  1  0.66695680  0.33140861  0.33555163  1
  Sb  Sb77  1  0.33080074  0.33255175  0.32790801  1
  Sb  Sb78  1  0.33609082  0.16864148  0.50224180  1
  Sb  Sb79  1  0.66768777  -0.00050968  0.00287446  1
  Sb  Sb80  1  0.49642918  -0.00084280  0.16189643  1
  Sb  Sb81  1  0.32960241  0.67007630  0.32672943  1
  Sb  Sb82  1  0.83975816  -0.00347974  0.16984767  1
  Sb  Sb83  1  0.00126887  -0.00261031  0.66860123  1
  Sb  Sb84  1  0.16592065  0.16347099  0.33192181  1
  Sb  Sb85  1  0.16710002  0.50138999  -0.00188531  1
  Sb  Sb86  1  0.50470030  0.66970523  0.16256578  1
  Sb  Sb87  1  0.83485696  0.83583902  -0.00101151  1
  Sb  Sb88  1  0.00531281  0.16311326  0.83975560  1
  Sb  Sb89  1  0.33559697  0.49863561  0.50116087  1
  Sb  Sb90  1  0.50110749  0.49720490  0.66818292  1
  Sb  Sb91  1  0.50728432  -0.00108479  0.50398289  1
  Sb  Sb92  1  0.83205883  0.50404688  0.66711453  1
  Sb  Sb93  1  0.33266492  0.83774744  0.84066422  1
  Sb  Sb94  1  -0.00082012  0.33253385  0.67238070  1
  Sb  Sb95  1  0.66683219  -0.00093513  0.66423996  1
  Sb  Sb96  1  0.33025773  -0.00275992  0.32442729  1
  Sb  Sb97  1  0.83538904  0.33411757  0.16274802  1
  Sb  Sb98  1  0.66255046  0.16715825  0.83264271  1
  Sb  Sb99  1  0.16144069  0.00005046  0.50034031  1
  Sb  Sb100  1  0.50078863  0.16380591  -0.00585818  1
  Sb  Sb101  1  0.50249853  0.16214367  0.33715550  1
  Sb  Sb102  1  -0.00223178  0.50280038  0.83417584  1
  Sb  Sb103  1  0.67075519  0.67328393  0.33353840  1
  Sb  Sb104  1  0.33688406  0.66929295  0.67569141  1
  Sb  Sb105  1  0.83523602  0.50566248  0.33476158  1
  Sb  Sb106  1  0.66985617  0.83408495  0.16614745  1
  Sb  Sb107  1  0.49929021  0.50480145  0.33633157  1
  Te  Te108  1  0.16550690  0.16677360  0.16785939  1
  Te  Te109  1  0.16653318  0.16934459  0.50390564  1
  Te  Te110  1  0.16906763  0.16949463  0.83139435  1
  Te  Te111  1  0.16661928  0.49606363  0.17035056  1
  Te  Te112  1  0.16561082  0.49815406  0.50107926  1
  Te  Te113  1  0.16604549  0.49339104  0.83072441  1
  Te  Te114  1  0.16459706  0.83297585  0.16530591  1
  Te  Te115  1  0.16488312  0.83291668  0.49199709  1
  Te  Te116  1  0.16944685  0.83590940  0.83785592  1
  Te  Te117  1  0.50617626  0.16657442  0.16817431  1
  Te  Te118  1  0.50378283  0.17021161  0.50509061  1
  Te  Te119  1  0.49625932  0.17031113  0.83038039  1
  Te  Te120  1  0.50888782  0.49988343  0.16968609  1
  Te  Te121  1  0.50530754  0.49896630  0.50114492  1
  Te  Te122  1  0.50589777  0.49708243  0.83202423  1
  Te  Te123  1  0.49956503  0.83363830  0.16402474  1
  Te  Te124  1  0.50191664  0.83109817  0.50220923  1
  Te  Te125  1  0.49975577  0.83246339  0.83482411  1
  Te  Te126  1  0.83101251  0.16758636  0.16301353  1
  Te  Te127  1  0.82935241  0.16835116  0.50079668  1
  Te  Te128  1  0.83537225  0.16963140  0.83651609  1
  Te  Te129  1  0.82773707  0.50595024  0.16859806  1
  Te  Te130  1  0.82858137  0.49270681  0.50058193  1
  Te  Te131  1  0.82848281  0.49844677  0.83209050  1
  Te  Te132  1  0.83799468  0.83029796  0.16806029  1
  Te  Te133  1  0.83313698  0.83241622  0.50111000  1
  Te  Te134  1  0.82989354  0.83268932  0.83189704  1
  Te  Te135  1  0.16515071  -0.00122314  0.00069913  1
  Te  Te136  1  0.16327677  -0.00479218  0.33115764  1
  Te  Te137  1  0.16662685  -0.00211339  0.67068353  1
  Te  Te138  1  0.16777691  0.33580157  -0.00184298  1
  Te  Te139  1  0.16592962  0.33478205  0.33818229  1
  Te  Te140  1  0.16635243  0.33150550  0.66949064  1
  Te  Te141  1  0.16734973  0.66903556  -0.00445858  1
  Te  Te142  1  0.16362780  0.66910569  0.33397957  1
  Te  Te143  1  0.16759991  0.67371856  0.67084748  1
  Te  Te144  1  0.50024949  -0.00540513  -0.00537321  1
  Te  Te145  1  0.50162913  -0.00583430  0.33476561  1
  Te  Te146  1  0.49939722  0.00679170  0.67452478  1
  Te  Te147  1  0.50471644  0.33368719  -0.00466569  1
  Te  Te148  1  0.49776562  0.33465577  0.34110760  1
  Te  Te149  1  0.50141119  0.33164771  0.66745862  1
  Te  Te150  1  0.50234095  0.67007433  -0.00430970  1
  Te  Te151  1  0.49862260  0.67210167  0.33507578  1
  Te  Te152  1  0.50384467  0.66655295  0.67018841  1
  Te  Te153  1  0.83603466  0.00669744  -0.00013816  1
  Te  Te154  1  0.83321925  -0.00441346  0.33566152  1
  Te  Te155  1  0.83420160  -0.00487861  0.66062510  1
  Te  Te156  1  0.82603209  0.33071924  -0.00180437  1
  Te  Te157  1  0.83577901  0.33421007  0.33945082  1
  Te  Te158  1  0.83082306  0.33332991  0.66880920  1
  Te  Te159  1  0.83083620  0.66708503  -0.00273231  1
  Te  Te160  1  0.83836252  0.67220612  0.33328315  1
  Te  Te161  1  0.82871992  0.67100309  0.67254729  1
  Te  Te162  1  -0.00241712  0.16581728  0.00379974  1
  Te  Te163  1  -0.00087545  0.15988010  0.32541632  1
  Te  Te164  1  0.00636923  0.16534240  0.66496312  1
  Te  Te165  1  -0.00073219  0.48898145  0.00079337  1
  Te  Te166  1  0.00487228  0.50251941  0.33305039  1
  Te  Te167  1  0.00753899  0.50192878  0.66587109  1
  Te  Te168  1  0.00195947  0.83508775  -0.00335678  1
  Te  Te169  1  -0.00294658  0.83598467  0.33152723  1
  Te  Te170  1  -0.00066083  0.83344812  0.67544801  1
  Te  Te171  1  0.33588728  0.16590120  0.00031109  1
  Te  Te172  1  0.33466889  0.16518449  0.32209319  1
  Te  Te173  1  0.33239770  0.16615115  0.67004646  1
  Te  Te174  1  0.33521672  0.49498617  0.00096209  1
  Te  Te175  1  0.32448718  0.50137396  0.33272572  1
  Te  Te176  1  0.32254769  0.50158802  0.66688253  1
  Te  Te177  1  0.33302969  0.83665766  0.00205147  1
  Te  Te178  1  0.34022121  0.83303430  0.32517093  1
  Te  Te179  1  0.32343322  0.83350082  0.66276601  1
  Te  Te180  1  0.66805695  0.16828917  0.00259267  1
  Te  Te181  1  0.66649659  0.16020790  0.33567573  1
  Te  Te182  1  0.66612070  0.17062666  0.66196561  1
  Te  Te183  1  0.66659188  0.50009609  -0.00158533  1
  Te  Te184  1  0.66659566  0.50110368  0.33572108  1
  Te  Te185  1  0.66712124  0.49859751  0.66652259  1
  Te  Te186  1  0.66614970  0.83094442  -0.00220588  1
  Te  Te187  1  0.66497731  0.83614232  0.33372942  1
  Te  Te188  1  0.66678258  0.83163605  0.66674662  1
  Te  Te189  1  0.00172092  -0.00086029  0.16520581  1
  Te  Te190  1  -0.00526819  -0.00474899  0.49647680  1
  Te  Te191  1  0.00268296  -0.00441518  0.83832185  1
  Te  Te192  1  0.00351030  0.33200275  0.16195022  1
  Te  Te193  1  0.00430082  0.33272217  0.49973745  1
  Te  Te194  1  0.00201234  0.33418849  0.83882119  1
  Te  Te195  1  -0.00500506  0.66923631  0.16866915  1
  Te  Te196  1  0.00001824  0.67203996  0.49559830  1
  Te  Te197  1  0.00619815  0.66984362  0.83383711  1
  Te  Te198  1  0.32913119  0.00022375  0.15999788  1
  Te  Te199  1  0.33440686  0.00191433  0.49863524  1
  Te  Te200  1  0.33217032  0.00554672  0.83904434  1
  Te  Te201  1  0.32992738  0.33172682  0.16023138  1
  Te  Te202  1  0.32688800  0.33282029  0.49887964  1
  Te  Te203  1  0.33127056  0.33009324  0.83796214  1
  Te  Te204  1  0.33429775  0.66937467  0.15800873  1
  Te  Te205  1  0.34371709  0.66565005  0.50047393  1
  Te  Te206  1  0.32782537  0.66326508  0.83995091  1
  Te  Te207  1  0.66659929  0.00450646  0.17112869  1
  Te  Te208  1  0.66998714  -0.00574516  0.49741576  1
  Te  Te209  1  0.66372433  -0.00318815  0.83342535  1
  Te  Te210  1  0.66716006  0.33267624  0.16702692  1
  Te  Te211  1  0.66706666  0.33254983  0.49780481  1
  Te  Te212  1  0.66669611  0.32779719  0.83103108  1
  Te  Te213  1  0.67149404  0.66524648  0.16476098  1
  Te  Te214  1  0.66516128  0.66871324  0.49996448  1
  Te  Te215  1  0.66656009  0.66664634  0.83263922  1
