# generated using pymatgen
data_AgSbTe2
_symmetry_space_group_name_H-M   'P 1'
_cell_length_a   18.31965013
_cell_length_b   18.32028663
_cell_length_c   18.32345447
_cell_angle_alpha   90.00045931
_cell_angle_beta   89.99937413
_cell_angle_gamma   89.99453303
_symmetry_Int_Tables_number   1
_chemical_formula_structural   AgSbTe2
_chemical_formula_sum   'Ag54 Sb54 Te108'
_cell_volume   6149.74050737
_cell_formula_units_Z   54
loop_
 _symmetry_equiv_pos_site_id
 _symmetry_equiv_pos_as_xyz
  1  'x, y, z'
loop_
 _atom_site_type_symbol
 _atom_site_label
 _atom_site_symmetry_multiplicity
 _atom_site_fract_x
 _atom_site_fract_y
 _atom_site_fract_z
 _atom_site_occupancy
  Ag  Ag0  1  0.32684036  0.67085323  0.33112509  1
  Ag  Ag1  1  0.49642633  -0.00523417  0.16615053  1
  Ag  Ag2  1  0.83909573  0.16646456  0.00196698  1
  Ag  Ag3  1  0.83667819  0.00173013  0.16763160  1
  Ag  Ag4  1  0.49566243  0.15259872  0.67423285  1
  Ag  Ag5  1  0.84525749  0.49311033  0.00248643  1
  Ag  Ag6  1  0.17261216  0.16898250  0.00241478  1
  Ag  Ag7  1  0.01255406  0.67019534  0.66073752  1
  Ag  Ag8  1  0.17239731  0.82803569  0.67147473  1
  Ag  Ag9  1  0.16886289  0.66809107  0.16905511  1
  Ag  Ag10  1  0.33340931  0.83662199  0.83669452  1
  Ag  Ag11  1  0.17248596  0.83296667  -0.00101481  1
  Ag  Ag12  1  0.16610188  0.66255929  0.50437160  1
  Ag  Ag13  1  0.32805874  0.49865338  0.50124297  1
  Ag  Ag14  1  0.33610810  0.16068422  0.83988502  1
  Ag  Ag15  1  0.00363483  -0.00302356  0.33047921  1
  Ag  Ag16  1  0.49292750  0.66812821  0.82958704  1
  Ag  Ag17  1  0.49349674  0.83625451  0.67017437  1
  Ag  Ag18  1  0.66303264  0.49930386  0.82878316  1
  Ag  Ag19  1  0.83204359  -0.00070359  0.49535623  1
  Ag  Ag20  1  0.65585850  -0.00610218  0.66660723  1
  Ag  Ag21  1  0.33938899  -0.00057964  0.66005949  1
  Ag  Ag22  1  0.33100260  0.83722128  0.16277959  1
  Ag  Ag23  1  0.65511532  0.16708606  0.83572970  1
  Ag  Ag24  1  0.16743534  0.34327841  0.50213115  1
  Ag  Ag25  1  0.49692000  0.50331504  0.34278847  1
  Ag  Ag26  1  -0.00160237  0.00335950  0.00970347  1
  Ag  Ag27  1  0.00247705  -0.00654672  0.66319475  1
  Ag  Ag28  1  0.49590641  0.50659094  0.66280769  1
  Ag  Ag29  1  0.16426975  0.49442925  -0.00500023  1
  Ag  Ag30  1  0.83883852  0.83695700  0.33307684  1
  Ag  Ag31  1  0.49179409  0.83974920  -0.00109391  1
  Ag  Ag32  1  0.83994679  0.32528928  0.16325039  1
  Ag  Ag33  1  0.17017072  0.50733084  0.66278225  1
  Ag  Ag34  1  0.33147018  0.16390125  0.50051700  1
  Ag  Ag35  1  0.66239782  0.00175720  -0.00377165  1
  Ag  Ag36  1  0.00804321  0.83295902  0.16826933  1
  Ag  Ag37  1  0.66460806  0.83220050  0.50347255  1
  Ag  Ag38  1  0.49150726  0.67373581  0.16435173  1
  Ag  Ag39  1  0.16919923  0.33904136  0.84209078  1
  Ag  Ag40  1  0.32321933  0.32631600  0.00001756  1
  Ag  Ag41  1  0.33267858  0.15936591  0.15856217  1
  Ag  Ag42  1  0.00967876  0.50341681  0.49624281  1
  Ag  Ag43  1  0.66036418  0.50551135  0.50862448  1
  Ag  Ag44  1  0.00504759  0.33173092  0.00604093  1
  Ag  Ag45  1  0.00309681  0.34021570  0.32422043  1
  Ag  Ag46  1  0.00232434  0.50357985  0.16940969  1
  Ag  Ag47  1  0.66014385  0.67075158  0.66624697  1
  Ag  Ag48  1  0.17218376  0.66405493  0.82944382  1
  Ag  Ag49  1  0.49917071  -0.00148856  0.50798925  1
  Ag  Ag50  1  0.33092218  -0.00223655  0.33466641  1
  Ag  Ag51  1  0.16904729  0.16556030  0.32618048  1
  Ag  Ag52  1  0.49338719  0.15968581  -0.00611364  1
  Ag  Ag53  1  0.00823219  0.66502874  0.33440417  1
  Sb  Sb54  1  0.00735163  0.16473327  0.16492166  1
  Sb  Sb55  1  0.16283018  0.33848060  0.16397113  1
  Sb  Sb56  1  0.33142600  0.32941409  0.66999809  1
  Sb  Sb57  1  0.83441599  0.50124197  0.66899317  1
  Sb  Sb58  1  0.66419182  0.66747803  0.33884764  1
  Sb  Sb59  1  0.49462649  0.66768770  0.50175219  1
  Sb  Sb60  1  0.16914175  -0.00283312  0.50064489  1
  Sb  Sb61  1  0.66920178  0.50237345  0.16365932  1
  Sb  Sb62  1  0.16995416  -0.00224318  0.83458414  1
  Sb  Sb63  1  0.49374888  0.33311122  0.50020467  1
  Sb  Sb64  1  0.66201567  0.16248749  0.16041573  1
  Sb  Sb65  1  0.00539319  0.66654769  0.00336346  1
  Sb  Sb66  1  0.00264318  0.50140877  0.83460156  1
  Sb  Sb67  1  0.49485682  0.50159465  -0.00279362  1
  Sb  Sb68  1  0.66354443  0.67116317  -0.00582764  1
  Sb  Sb69  1  0.49760419  -0.00350515  0.83302096  1
  Sb  Sb70  1  0.66875868  0.32816234  -0.00166601  1
  Sb  Sb71  1  0.83586090  0.83712792  0.00638466  1
  Sb  Sb72  1  0.49101472  0.16656511  0.33284737  1
  Sb  Sb73  1  0.33398985  0.00195055  0.00318205  1
  Sb  Sb74  1  0.83574263  0.50390494  0.33019107  1
  Sb  Sb75  1  0.00921287  0.83234021  0.83735235  1
  Sb  Sb76  1  0.50002638  0.33214093  0.16499544  1
  Sb  Sb77  1  0.16515858  0.83330194  0.33139222  1
  Sb  Sb78  1  0.67172698  0.33551769  0.33387555  1
  Sb  Sb79  1  0.83735133  0.66990104  0.49944835  1
  Sb  Sb80  1  0.00630671  0.16718903  0.49836151  1
  Sb  Sb81  1  0.32811821  0.50223515  0.16923425  1
  Sb  Sb82  1  0.66564314  -0.00088987  0.33587238  1
  Sb  Sb83  1  0.33044921  0.66835769  0.00382038  1
  Sb  Sb84  1  0.65753221  0.83387311  0.82793023  1
  Sb  Sb85  1  0.83908706  0.33306920  0.84022973  1
  Sb  Sb86  1  0.83206885  0.00093819  0.83707483  1
  Sb  Sb87  1  0.16756188  -0.00487166  0.16557149  1
  Sb  Sb88  1  0.65951336  0.16322822  0.50720022  1
  Sb  Sb89  1  0.16748466  0.50027595  0.33673918  1
  Sb  Sb90  1  0.49929657  0.83155507  0.33322400  1
  Sb  Sb91  1  0.00566794  0.16536668  0.83648704  1
  Sb  Sb92  1  0.84121363  0.16070493  0.32680603  1
  Sb  Sb93  1  -0.00071209  0.83107555  0.49635630  1
  Sb  Sb94  1  0.84049531  0.32997918  0.49381655  1
  Sb  Sb95  1  0.82754983  0.16143831  0.67245997  1
  Sb  Sb96  1  0.66352910  0.83443027  0.16829187  1
  Sb  Sb97  1  0.33224396  0.67136221  0.66280001  1
  Sb  Sb98  1  0.32651108  0.33162155  0.33053319  1
  Sb  Sb99  1  0.66463143  0.33517045  0.66764770  1
  Sb  Sb100  1  0.83820029  0.66993074  0.16735543  1
  Sb  Sb101  1  0.17253227  0.16322279  0.66993794  1
  Sb  Sb102  1  0.49419732  0.33419962  0.83432480  1
  Sb  Sb103  1  0.83298634  0.83536701  0.66285112  1
  Sb  Sb104  1  0.83512724  0.66526290  0.83303044  1
  Sb  Sb105  1  0.33476529  0.83427311  0.50000363  1
  Sb  Sb106  1  0.00605362  0.33500818  0.66682997  1
  Sb  Sb107  1  0.33321500  0.50297029  0.82895423  1
  Te  Te108  1  0.17354860  0.16845290  0.16446860  1
  Te  Te109  1  0.17203465  0.16742425  0.50246165  1
  Te  Te110  1  0.17283283  0.17113632  0.83726822  1
  Te  Te111  1  0.16192637  0.50638521  0.16208783  1
  Te  Te112  1  0.16747881  0.50184985  0.49994743  1
  Te  Te113  1  0.16772822  0.50205576  0.83448519  1
  Te  Te114  1  0.16819845  0.82880053  0.16522532  1
  Te  Te115  1  0.16703364  0.82610715  0.50742826  1
  Te  Te116  1  0.17328530  0.82989444  0.83411887  1
  Te  Te117  1  0.49444191  0.16354977  0.16440057  1
  Te  Te118  1  0.49322926  0.16424414  0.50270213  1
  Te  Te119  1  0.49677963  0.16940110  0.83309521  1
  Te  Te120  1  0.49985544  0.50325773  0.16731017  1
  Te  Te121  1  0.49878712  0.50027685  0.50241101  1
  Te  Te122  1  0.50137006  0.50443820  0.82947793  1
  Te  Te123  1  0.49716038  0.83352151  0.16588887  1
  Te  Te124  1  0.50293469  0.83646862  0.50283497  1
  Te  Te125  1  0.49409500  0.82879708  0.83301523  1
  Te  Te126  1  0.83136432  0.16264077  0.16120355  1
  Te  Te127  1  0.83246189  0.16096459  0.49931933  1
  Te  Te128  1  0.82824411  0.16820151  0.84182264  1
  Te  Te129  1  0.83771082  0.50155820  0.16244955  1
  Te  Te130  1  0.83299488  0.49770867  0.49910689  1
  Te  Te131  1  0.82756658  0.49884432  0.84017207  1
  Te  Te132  1  0.83612245  0.83794807  0.17121527  1
  Te  Te133  1  0.82988186  0.83908777  0.49600939  1
  Te  Te134  1  0.83266654  0.83229313  0.83612968  1
  Te  Te135  1  0.16092011  0.00040751  -0.00085689  1
  Te  Te136  1  0.16791815  0.00287155  0.33417462  1
  Te  Te137  1  0.16285700  -0.00492375  0.66714333  1
  Te  Te138  1  0.16522333  0.33255687  0.00189407  1
  Te  Te139  1  0.16159453  0.32984917  0.33555042  1
  Te  Te140  1  0.16666153  0.33948443  0.66389352  1
  Te  Te141  1  0.16640258  0.67096911  -0.00222698  1
  Te  Te142  1  0.16687549  0.66738149  0.33077478  1
  Te  Te143  1  0.17011299  0.66738281  0.66692284  1
  Te  Te144  1  0.49972619  -0.00071892  0.00205477  1
  Te  Te145  1  0.49689058  0.00061920  0.32975756  1
  Te  Te146  1  0.49941935  -0.00285417  0.66780762  1
  Te  Te147  1  0.49756702  0.32747977  0.00052023  1
  Te  Te148  1  0.50110136  0.34148011  0.33236520  1
  Te  Te149  1  0.49912822  0.34111355  0.66638003  1
  Te  Te150  1  0.49882743  0.67102408  -0.00020993  1
  Te  Te151  1  0.49667808  0.66371052  0.33175702  1
  Te  Te152  1  0.49887493  0.66728197  0.66768537  1
  Te  Te153  1  0.83747261  0.00234767  0.00360333  1
  Te  Te154  1  0.83360605  -0.00196254  0.33199648  1
  Te  Te155  1  0.83838193  0.00027674  0.66194947  1
  Te  Te156  1  0.83644707  0.33257953  0.00416995  1
  Te  Te157  1  0.84281387  0.33197717  0.32584758  1
  Te  Te158  1  0.83550444  0.33088786  0.66609025  1
  Te  Te159  1  0.83302570  0.66023105  0.00014048  1
  Te  Te160  1  0.83975520  0.67300669  0.33319151  1
  Te  Te161  1  0.83083633  0.66713157  0.66666807  1
  Te  Te162  1  0.00081801  0.16473922  -0.00045343  1
  Te  Te163  1  0.00812809  0.16138927  0.33257716  1
  Te  Te164  1  -0.00070320  0.16054915  0.66773378  1
  Te  Te165  1  0.00315513  0.49988684  0.00143726  1
  Te  Te166  1  0.00029145  0.50211874  0.33229247  1
  Te  Te167  1  0.00296409  0.50350992  0.66298783  1
  Te  Te168  1  0.00395735  0.83686781  0.00531631  1
  Te  Te169  1  0.00038755  0.83580357  0.32982213  1
  Te  Te170  1  0.00145595  0.83188004  0.66751729  1
  Te  Te171  1  0.33236054  0.16338893  -0.00070220  1
  Te  Te172  1  0.32821580  0.16444670  0.33631975  1
  Te  Te173  1  0.33636499  0.16281235  0.66504646  1
  Te  Te174  1  0.32731054  0.49307912  -0.00026429  1
  Te  Te175  1  0.33528184  0.50069912  0.33628997  1
  Te  Te176  1  0.33250688  0.49849572  0.66262698  1
  Te  Te177  1  0.33306094  0.83481277  0.00144777  1
  Te  Te178  1  0.33251781  0.83522070  0.32899127  1
  Te  Te179  1  0.33378984  0.83759801  0.66615317  1
  Te  Te180  1  0.66138338  0.16165295  -0.00424560  1
  Te  Te181  1  0.66571002  0.16869343  0.33546486  1
  Te  Te182  1  0.65953797  0.16289508  0.67356531  1
  Te  Te183  1  0.66466631  0.50107215  -0.00530569  1
  Te  Te184  1  0.66314920  0.50147550  0.33753337  1
  Te  Te185  1  0.66717039  0.50180801  0.66724893  1
  Te  Te186  1  0.66389688  0.83996730  -0.00103100  1
  Te  Te187  1  0.67206452  0.83262084  0.34020507  1
  Te  Te188  1  0.66592790  0.83374809  0.66366799  1
  Te  Te189  1  0.00006005  -0.00113231  0.16878325  1
  Te  Te190  1  -0.00187565  -0.00047711  0.49692621  1
  Te  Te191  1  -0.00052146  -0.00077297  0.82848209  1
  Te  Te192  1  -0.00190191  0.33300914  0.16528554  1
  Te  Te193  1  0.00509943  0.33741217  0.49761550  1
  Te  Te194  1  0.00793319  0.33316563  0.83933091  1
  Te  Te195  1  0.00246127  0.66772980  0.17006318  1
  Te  Te196  1  0.00305243  0.66450224  0.49913221  1
  Te  Te197  1  0.00540184  0.66686487  0.82429284  1
  Te  Te198  1  0.33435812  -0.00135154  0.16952481  1
  Te  Te199  1  0.33591241  0.00099065  0.49806982  1
  Te  Te200  1  0.33229096  -0.00049112  0.82467330  1
  Te  Te201  1  0.33348894  0.32907825  0.16221426  1
  Te  Te202  1  0.32741528  0.33463329  0.49880767  1
  Te  Te203  1  0.32769908  0.32987136  0.83814318  1
  Te  Te204  1  0.33258759  0.66809918  0.17017135  1
  Te  Te205  1  0.32846348  0.66357404  0.49279722  1
  Te  Te206  1  0.33309350  0.67087033  0.83493385  1
  Te  Te207  1  0.66554241  -0.00113763  0.16371197  1
  Te  Te208  1  0.66314844  -0.00067015  0.50341047  1
  Te  Te209  1  0.66677975  0.00263166  0.83169099  1
  Te  Te210  1  0.67593842  0.33356330  0.16664309  1
  Te  Te211  1  0.66917811  0.33985269  0.49991589  1
  Te  Te212  1  0.66772215  0.33450257  0.83322920  1
  Te  Te213  1  0.65863088  0.66758642  0.16783729  1
  Te  Te214  1  0.66721688  0.66622267  0.50528346  1
  Te  Te215  1  0.66410942  0.66460607  0.82706509  1
