# generated using pymatgen
data_AgSbTe2
_symmetry_space_group_name_H-M   'P 1'
_cell_length_a   18.34242370
_cell_length_b   18.33543107
_cell_length_c   18.33532783
_cell_angle_alpha   90.00252365
_cell_angle_beta   90.00099711
_cell_angle_gamma   89.99425055
_symmetry_Int_Tables_number   1
_chemical_formula_structural   AgSbTe2
_chemical_formula_sum   'Ag54 Sb54 Te108'
_cell_volume   6166.46857637
_cell_formula_units_Z   54
loop_
 _symmetry_equiv_pos_site_id
 _symmetry_equiv_pos_as_xyz
  1  'x, y, z'
loop_
 _atom_site_type_symbol
 _atom_site_label
 _atom_site_symmetry_multiplicity
 _atom_site_fract_x
 _atom_site_fract_y
 _atom_site_fract_z
 _atom_site_occupancy
  Ag  Ag0  1  0.83468323  0.15476737  -0.00500554  1
  Ag  Ag1  1  0.00237202  0.83672562  0.50137243  1
  Ag  Ag2  1  0.17048540  0.67584293  0.83044884  1
  Ag  Ag3  1  0.49601753  0.50062834  0.67217089  1
  Ag  Ag4  1  0.50793441  0.33931645  0.83155558  1
  Ag  Ag5  1  0.50059176  -0.00607231  0.49929191  1
  Ag  Ag6  1  0.16467845  0.32643737  0.16452641  1
  Ag  Ag7  1  0.83510415  -0.00471854  0.16152315  1
  Ag  Ag8  1  0.00024960  0.50051424  0.83402479  1
  Ag  Ag9  1  0.00085270  -0.00161736  0.67243991  1
  Ag  Ag10  1  0.66803645  0.32249039  0.33919967  1
  Ag  Ag11  1  0.83689401  0.67400604  0.49900779  1
  Ag  Ag12  1  0.65625826  0.49610609  0.83295246  1
  Ag  Ag13  1  0.32667047  0.82878915  0.83400541  1
  Ag  Ag14  1  0.17074666  0.67894494  0.50833052  1
  Ag  Ag15  1  0.67484131  -0.00420967  0.00159180  1
  Ag  Ag16  1  0.83623601  0.83643614  0.00091052  1
  Ag  Ag17  1  0.83210779  0.16434470  0.34158434  1
  Ag  Ag18  1  -0.00382755  0.15189239  0.15956357  1
  Ag  Ag19  1  0.51039899  -0.00587784  0.16262442  1
  Ag  Ag20  1  0.15479331  -0.00242822  0.15902736  1
  Ag  Ag21  1  0.83651575  0.83698528  0.66875557  1
  Ag  Ag22  1  0.67634270  0.83773282  0.15605589  1
  Ag  Ag23  1  0.83391138  0.67752598  0.16671446  1
  Ag  Ag24  1  0.49217281  0.67598054  0.49867744  1
  Ag  Ag25  1  -0.00239040  0.66973515  0.33029670  1
  Ag  Ag26  1  0.66430874  0.32958899  0.67105122  1
  Ag  Ag27  1  0.16625060  0.83534426  -0.00773465  1
  Ag  Ag28  1  0.50292888  0.67717884  0.16281727  1
  Ag  Ag29  1  0.49963955  0.51164758  -0.00982229  1
  Ag  Ag30  1  -0.00781673  0.15479723  0.50261983  1
  Ag  Ag31  1  0.33533269  0.51492475  0.51088097  1
  Ag  Ag32  1  0.33894600  0.51016141  0.82909320  1
  Ag  Ag33  1  -0.00258563  -0.00370589  0.00268281  1
  Ag  Ag34  1  0.66817375  0.00044608  0.33148988  1
  Ag  Ag35  1  0.32437409  0.83225474  0.50963907  1
  Ag  Ag36  1  0.16401891  0.83462779  0.67205372  1
  Ag  Ag37  1  0.67092838  0.15800184  0.50453594  1
  Ag  Ag38  1  0.82588393  0.32627530  0.83245336  1
  Ag  Ag39  1  0.49916703  0.83277699  -0.00058367  1
  Ag  Ag40  1  0.16524241  -0.00759452  0.83959495  1
  Ag  Ag41  1  -0.00739020  0.16379282  0.83451574  1
  Ag  Ag42  1  0.83400761  0.15839286  0.67083305  1
  Ag  Ag43  1  0.67506860  0.16539497  0.82870041  1
  Ag  Ag44  1  0.00274407  0.68049310  0.00073648  1
  Ag  Ag45  1  0.33376933  0.66676096  0.67137096  1
  Ag  Ag46  1  0.33483153  0.15516753  0.50392920  1
  Ag  Ag47  1  0.66754034  0.83856132  0.50282698  1
  Ag  Ag48  1  0.66569660  0.83690532  0.83993848  1
  Ag  Ag49  1  -0.00759422  0.83595425  0.15500699  1
  Ag  Ag50  1  0.33896211  0.34437181  0.66724588  1
  Ag  Ag51  1  0.32761064  -0.00637231  -0.00092215  1
  Ag  Ag52  1  0.16552865  -0.00432473  0.50218932  1
  Ag  Ag53  1  0.33153718  0.67646836  -0.01078337  1
  Sb  Sb54  1  0.66492041  0.50619928  0.16005525  1
  Sb  Sb55  1  0.49933703  0.33157434  0.16008127  1
  Sb  Sb56  1  0.16598200  0.50142481  0.33410661  1
  Sb  Sb57  1  0.50168170  0.83375777  0.33063894  1
  Sb  Sb58  1  0.32720916  0.16284699  0.16921648  1
  Sb  Sb59  1  0.82966505  0.50234766  0.66966285  1
  Sb  Sb60  1  0.83862563  0.66985524  0.83402145  1
  Sb  Sb61  1  0.66214416  0.66639647  0.66735564  1
  Sb  Sb62  1  0.16359224  0.83433101  0.33716075  1
  Sb  Sb63  1  0.16059756  0.15524926  -0.00020813  1
  Sb  Sb64  1  0.50550769  0.16924792  0.66694173  1
  Sb  Sb65  1  0.33722339  -0.00122866  0.33292339  1
  Sb  Sb66  1  0.66484982  0.67646970  -0.00167960  1
  Sb  Sb67  1  0.32968073  0.66814630  0.33718562  1
  Sb  Sb68  1  -0.00019826  0.50649453  0.15984826  1
  Sb  Sb69  1  0.33322513  0.16401782  0.82865878  1
  Sb  Sb70  1  0.17040653  0.50900375  -0.00293798  1
  Sb  Sb71  1  0.50147063  0.50173694  0.33656693  1
  Sb  Sb72  1  0.33799625  0.33123625  0.34045710  1
  Sb  Sb73  1  0.83502360  0.32737146  0.16203096  1
  Sb  Sb74  1  0.82936381  0.50514388  -0.00395586  1
  Sb  Sb75  1  -0.00604487  -0.00486878  0.33011479  1
  Sb  Sb76  1  0.83373649  -0.00457285  0.49699984  1
  Sb  Sb77  1  0.83180207  0.49826293  0.33403671  1
  Sb  Sb78  1  0.16131973  0.15916039  0.66617167  1
  Sb  Sb79  1  0.49376346  0.66454434  0.83525565  1
  Sb  Sb80  1  0.83080164  0.33071442  0.50560000  1
  Sb  Sb81  1  0.15895751  0.16404674  0.33387477  1
  Sb  Sb82  1  0.33465769  0.50290347  0.16159991  1
  Sb  Sb83  1  0.66688658  0.32688332  -0.00585501  1
  Sb  Sb84  1  0.67306761  0.00152110  0.66873759  1
  Sb  Sb85  1  -0.00528672  0.33240566  0.33282721  1
  Sb  Sb86  1  0.50572970  0.15750679  -0.00116529  1
  Sb  Sb87  1  0.49936332  0.82974518  0.66744001  1
  Sb  Sb88  1  0.17376811  0.50781272  0.66850204  1
  Sb  Sb89  1  0.83954146  0.00303700  0.84030221  1
  Sb  Sb90  1  0.50028350  0.33236940  0.50675646  1
  Sb  Sb91  1  0.67094653  0.67110693  0.33472014  1
  Sb  Sb92  1  0.49782927  -0.00099216  0.83284181  1
  Sb  Sb93  1  0.00016219  0.32859190  -0.00090243  1
  Sb  Sb94  1  0.50751867  0.16446396  0.33521431  1
  Sb  Sb95  1  0.16548341  0.67411033  0.16423397  1
  Sb  Sb96  1  0.67431239  0.15613703  0.16702643  1
  Sb  Sb97  1  0.00445883  0.50770314  0.50796390  1
  Sb  Sb98  1  -0.00218040  0.32571638  0.66888467  1
  Sb  Sb99  1  0.00235689  0.83800601  0.83598943  1
  Sb  Sb100  1  0.83295760  0.83855692  0.33141180  1
  Sb  Sb101  1  0.16630650  0.33231777  0.83551701  1
  Sb  Sb102  1  0.33332184  0.83505854  0.15962743  1
  Sb  Sb103  1  0.33389325  0.33505640  -0.00719724  1
  Sb  Sb104  1  0.00459040  0.67534939  0.67058044  1
  Sb  Sb105  1  0.16886408  0.32962109  0.50023392  1
  Sb  Sb106  1  0.32772567  -0.00487430  0.66735293  1
  Sb  Sb107  1  0.66223947  0.50119550  0.50612757  1
  Te  Te108  1  0.15961250  0.16205484  0.16685194  1
  Te  Te109  1  0.16546031  0.16139041  0.50007248  1
  Te  Te110  1  0.16294988  0.16315208  0.83230532  1
  Te  Te111  1  0.16705345  0.49553416  0.16598138  1
  Te  Te112  1  0.17286237  0.50169409  0.50042786  1
  Te  Te113  1  0.16534554  0.50070179  0.83391946  1
  Te  Te114  1  0.16498741  0.83807275  0.16412243  1
  Te  Te115  1  0.16443411  0.83493356  0.50011183  1
  Te  Te116  1  0.16591243  0.83449665  0.83266823  1
  Te  Te117  1  0.49811990  0.16066707  0.16677464  1
  Te  Te118  1  0.50329875  0.16250130  0.50032128  1
  Te  Te119  1  0.50356361  0.17240115  0.83404049  1
  Te  Te120  1  0.49956148  0.50313678  0.16232906  1
  Te  Te121  1  0.49551855  0.50204611  0.50397647  1
  Te  Te122  1  0.49887752  0.50171451  0.83247316  1
  Te  Te123  1  0.49857460  0.83506090  0.16440492  1
  Te  Te124  1  0.50532624  0.83386327  0.50053060  1
  Te  Te125  1  0.50326799  0.83309201  0.83596251  1
  Te  Te126  1  0.83885132  0.16643104  0.15907595  1
  Te  Te127  1  0.83204323  0.16722894  0.50325396  1
  Te  Te128  1  0.83310427  0.16531630  0.83202905  1
  Te  Te129  1  0.83291935  0.50541382  0.16541891  1
  Te  Te130  1  0.83444910  0.50818442  0.50108593  1
  Te  Te131  1  0.83518597  0.49649365  0.83302372  1
  Te  Te132  1  0.83367625  0.83439375  0.16700150  1
  Te  Te133  1  0.83317111  0.83240504  0.49854652  1
  Te  Te134  1  0.82821884  0.83320387  0.83180306  1
  Te  Te135  1  0.16478035  -0.00478019  -0.00030220  1
  Te  Te136  1  0.16853991  0.00047821  0.33401349  1
  Te  Te137  1  0.16161817  -0.00576676  0.66223413  1
  Te  Te138  1  0.16828168  0.33331796  0.00507800  1
  Te  Te139  1  0.16766877  0.33340702  0.32677230  1
  Te  Te140  1  0.17154003  0.33331912  0.66711369  1
  Te  Te141  1  0.16766846  0.67340281  -0.00112556  1
  Te  Te142  1  0.15952276  0.66615227  0.33547194  1
  Te  Te143  1  0.17073176  0.67310543  0.66768036  1
  Te  Te144  1  0.49986509  -0.00567075  0.00064783  1
  Te  Te145  1  0.50680324  -0.00004965  0.33379124  1
  Te  Te146  1  0.49880203  0.00023942  0.65967369  1
  Te  Te147  1  0.49922168  0.33625405  -0.00552190  1
  Te  Te148  1  0.50734711  0.33343048  0.33041422  1
  Te  Te149  1  0.50070192  0.33609971  0.67087430  1
  Te  Te150  1  0.49902693  0.67066168  0.00161935  1
  Te  Te151  1  0.50118566  0.66560718  0.33258652  1
  Te  Te152  1  0.49556422  0.66294411  0.65928657  1
  Te  Te153  1  0.83579125  -0.00331400  0.00179943  1
  Te  Te154  1  0.82816961  0.00695008  0.32465536  1
  Te  Te155  1  0.83966628  -0.00202384  0.66467969  1
  Te  Te156  1  0.83356706  0.33324670  -0.00630267  1
  Te  Te157  1  0.82739481  0.32787334  0.33252681  1
  Te  Te158  1  0.82944117  0.33233806  0.67178909  1
  Te  Te159  1  0.83733929  0.67186521  0.00260293  1
  Te  Te160  1  0.83709826  0.66457711  0.33282483  1
  Te  Te161  1  0.83394799  0.67200904  0.66246798  1
  Te  Te162  1  -0.00426977  0.16247006  -0.00004033  1
  Te  Te163  1  -0.00726089  0.16772149  0.33744439  1
  Te  Te164  1  -0.00484581  0.16131959  0.66418007  1
  Te  Te165  1  -0.00022913  0.50034870  -0.00659207  1
  Te  Te166  1  -0.00135907  0.50698195  0.33440765  1
  Te  Te167  1  -0.00028145  0.49771696  0.67374353  1
  Te  Te168  1  -0.00236625  0.83628842  -0.00166915  1
  Te  Te169  1  -0.00138094  0.82807245  0.33980665  1
  Te  Te170  1  -0.00125599  0.83766074  0.66479949  1
  Te  Te171  1  0.33447164  0.16087549  -0.00058593  1
  Te  Te172  1  0.33311155  0.16707389  0.34344658  1
  Te  Te173  1  0.33312157  0.16617061  0.66193358  1
  Te  Te174  1  0.33825946  0.50296397  -0.00599100  1
  Te  Te175  1  0.33418248  0.49829002  0.34104897  1
  Te  Te176  1  0.33529209  0.50317164  0.66840606  1
  Te  Te177  1  0.33309455  0.83370203  -0.00164195  1
  Te  Te178  1  0.33311071  0.83355811  0.34718607  1
  Te  Te179  1  0.33249482  0.83033020  0.66985888  1
  Te  Te180  1  0.67204886  0.15979677  -0.00334942  1
  Te  Te181  1  0.67214778  0.16302758  0.33424576  1
  Te  Te182  1  0.67131949  0.16786392  0.66706659  1
  Te  Te183  1  0.66127298  0.49928459  -0.00711869  1
  Te  Te184  1  0.66667033  0.49400484  0.33305637  1
  Te  Te185  1  0.66239405  0.49490073  0.67284945  1
  Te  Te186  1  0.66787825  0.83612711  -0.00045387  1
  Te  Te187  1  0.66695425  0.83823688  0.34122678  1
  Te  Te188  1  0.67051162  0.83392107  0.66415899  1
  Te  Te189  1  -0.00219866  -0.00366923  0.16777568  1
  Te  Te190  1  0.00038141  -0.00156611  0.49496325  1
  Te  Te191  1  0.00508427  0.00395442  0.83365110  1
  Te  Te192  1  0.00385877  0.33492901  0.16739364  1
  Te  Te193  1  0.00031022  0.33123816  0.49962347  1
  Te  Te194  1  -0.00166558  0.32822691  0.83260992  1
  Te  Te195  1  -0.00129026  0.67107231  0.16285714  1
  Te  Te196  1  0.00139027  0.66903450  0.50271946  1
  Te  Te197  1  0.00540777  0.66396669  0.83765856  1
  Te  Te198  1  0.33349731  0.00156316  0.16332606  1
  Te  Te199  1  0.33369706  -0.00343773  0.50003146  1
  Te  Te200  1  0.32930030  -0.00359331  0.83651764  1
  Te  Te201  1  0.32941704  0.33234343  0.16773195  1
  Te  Te202  1  0.33361329  0.33016178  0.50669110  1
  Te  Te203  1  0.33415525  0.33278816  0.82702961  1
  Te  Te204  1  0.33723182  0.66664913  0.16665608  1
  Te  Te205  1  0.33233414  0.67126211  0.49881180  1
  Te  Te206  1  0.33110072  0.66835360  0.83310425  1
  Te  Te207  1  0.66753210  -0.00416734  0.16425221  1
  Te  Te208  1  0.66691254  0.00048061  0.50262392  1
  Te  Te209  1  0.66347130  -0.00112060  0.83600558  1
  Te  Te210  1  0.66597383  0.33418137  0.16904557  1
  Te  Te211  1  0.66618769  0.33168862  0.50306403  1
  Te  Te212  1  0.66653293  0.33080747  0.83232254  1
  Te  Te213  1  0.66671980  0.67401151  0.16786990  1
  Te  Te214  1  0.66780277  0.66949060  0.49920725  1
  Te  Te215  1  0.66930295  0.66942387  0.83220834  1
