# generated using pymatgen
data_AgSbTe2
_symmetry_space_group_name_H-M   'P 1'
_cell_length_a   18.34510552
_cell_length_b   18.33980449
_cell_length_c   18.34998177
_cell_angle_alpha   90.00244482
_cell_angle_beta   90.00390711
_cell_angle_gamma   89.99635829
_symmetry_Int_Tables_number   1
_chemical_formula_structural   AgSbTe2
_chemical_formula_sum   'Ag54 Sb54 Te108'
_cell_volume   6173.77148774
_cell_formula_units_Z   54
loop_
 _symmetry_equiv_pos_site_id
 _symmetry_equiv_pos_as_xyz
  1  'x, y, z'
loop_
 _atom_site_type_symbol
 _atom_site_label
 _atom_site_symmetry_multiplicity
 _atom_site_fract_x
 _atom_site_fract_y
 _atom_site_fract_z
 _atom_site_occupancy
  Ag  Ag0  1  0.17009969  0.66885877  0.16474616  1
  Ag  Ag1  1  0.33306800  0.49268703  0.49977128  1
  Ag  Ag2  1  0.65850472  0.32377439  0.33381846  1
  Ag  Ag3  1  0.16720895  0.00483673  0.84188343  1
  Ag  Ag4  1  0.82950171  0.32962612  0.82428430  1
  Ag  Ag5  1  0.33582011  0.32828519  0.00634571  1
  Ag  Ag6  1  0.67013310  0.83958197  0.49736634  1
  Ag  Ag7  1  0.83313740  0.84613906  0.00518442  1
  Ag  Ag8  1  0.33597879  0.49635352  0.82914695  1
  Ag  Ag9  1  0.00212997  0.66913375  0.00116068  1
  Ag  Ag10  1  0.50714063  0.17033412  0.66920266  1
  Ag  Ag11  1  0.82836561  0.00799133  0.50801870  1
  Ag  Ag12  1  0.67272521  0.00218981  0.66714893  1
  Ag  Ag13  1  0.82982597  0.83615853  0.32573971  1
  Ag  Ag14  1  0.65743368  0.15755347  0.16139541  1
  Ag  Ag15  1  0.83440424  0.32801506  0.50509388  1
  Ag  Ag16  1  0.83538203  0.49257947  0.33813101  1
  Ag  Ag17  1  0.33684523  0.01045218  0.00408158  1
  Ag  Ag18  1  0.49455571  0.32282894  0.17314132  1
  Ag  Ag19  1  0.67144308  0.84593356  0.17032079  1
  Ag  Ag20  1  0.17800092  0.49397751  0.66246961  1
  Ag  Ag21  1  -0.00454055  0.17285015  0.51063458  1
  Ag  Ag22  1  0.83169986  0.48357555  0.66359431  1
  Ag  Ag23  1  0.33220406  0.66278782  0.00403178  1
  Ag  Ag24  1  0.82840320  0.16426612  -0.00641375  1
  Ag  Ag25  1  0.67011963  0.16740929  0.83740964  1
  Ag  Ag26  1  0.50063695  0.33105872  0.82527768  1
  Ag  Ag27  1  0.17617338  0.49481429  0.33514443  1
  Ag  Ag28  1  0.83241528  0.16570727  0.67146806  1
  Ag  Ag29  1  -0.01015787  0.32959561  0.66157583  1
  Ag  Ag30  1  -0.00965390  0.83683907  0.16544271  1
  Ag  Ag31  1  0.66992522  0.00660311  0.32101832  1
  Ag  Ag32  1  0.51494736  0.01211977  0.16470735  1
  Ag  Ag33  1  0.49409644  0.48788588  0.66902894  1
  Ag  Ag34  1  0.34051992  0.33558156  0.66449472  1
  Ag  Ag35  1  0.16711641  0.00021968  0.16263917  1
  Ag  Ag36  1  0.49962950  0.16649685  0.00769550  1
  Ag  Ag37  1  0.50938702  0.84007872  0.66759647  1
  Ag  Ag38  1  0.33263630  0.65295267  0.32329765  1
  Ag  Ag39  1  -0.00998857  0.16715876  0.82974332  1
  Ag  Ag40  1  -0.01040526  0.01286942  0.66844475  1
  Ag  Ag41  1  0.82966030  0.84932010  0.66635467  1
  Ag  Ag42  1  0.49524695  0.33128642  0.50354211  1
  Ag  Ag43  1  0.66757845  0.00508447  0.00950844  1
  Ag  Ag44  1  -0.00571396  0.33269937  0.34241308  1
  Ag  Ag45  1  0.50220099  0.65835023  0.83205037  1
  Ag  Ag46  1  0.16998343  0.33398074  0.50159240  1
  Ag  Ag47  1  0.17691339  0.16409817  0.00030433  1
  Ag  Ag48  1  0.82874572  0.66222450  0.83273412  1
  Ag  Ag49  1  0.50283314  0.17243638  0.32006478  1
  Ag  Ag50  1  0.82592112  -0.00118840  0.16826965  1
  Ag  Ag51  1  0.33318816  0.48831802  0.17072177  1
  Ag  Ag52  1  0.33703409  0.33574423  0.33564511  1
  Ag  Ag53  1  0.34478243  0.17132289  0.16213089  1
  Sb  Sb54  1  0.82843343  0.16663301  0.33431000  1
  Sb  Sb55  1  0.16959953  0.33010682  0.82793158  1
  Sb  Sb56  1  0.50367116  0.83947909  -0.00269750  1
  Sb  Sb57  1  0.16919965  0.65723582  0.49558725  1
  Sb  Sb58  1  0.66667470  0.67639196  -0.00122821  1
  Sb  Sb59  1  0.33681498  0.82993509  0.83404595  1
  Sb  Sb60  1  0.16380250  0.17316207  0.67177319  1
  Sb  Sb61  1  0.33261976  0.17314644  0.49695495  1
  Sb  Sb62  1  0.50632539  0.83835350  0.33554727  1
  Sb  Sb63  1  0.66120475  0.49417663  0.16970043  1
  Sb  Sb64  1  0.82726018  0.32616871  0.16851433  1
  Sb  Sb65  1  0.16260090  0.83809050  0.00150662  1
  Sb  Sb66  1  0.83396493  0.66493032  0.50403889  1
  Sb  Sb67  1  -0.00959457  0.84200392  0.49685914  1
  Sb  Sb68  1  0.66472033  0.49831011  0.50139631  1
  Sb  Sb69  1  0.33703431  0.17505987  0.84006790  1
  Sb  Sb70  1  0.16350098  0.83062266  0.66637912  1
  Sb  Sb71  1  0.66644010  0.32579763  0.66095743  1
  Sb  Sb72  1  0.00269790  0.49424626  0.83097517  1
  Sb  Sb73  1  0.33884664  0.00526630  0.32549595  1
  Sb  Sb74  1  0.17065962  0.17289701  0.32778420  1
  Sb  Sb75  1  0.16723797  0.66716323  0.83868971  1
  Sb  Sb76  1  0.16048285  0.00904605  0.49899754  1
  Sb  Sb77  1  -0.00747594  0.00537297  0.33436178  1
  Sb  Sb78  1  0.49798339  0.00727606  0.83767676  1
  Sb  Sb79  1  0.00356529  0.33197061  -0.00120423  1
  Sb  Sb80  1  0.00205364  0.66204309  0.32960072  1
  Sb  Sb81  1  0.66994885  0.16424624  0.49934320  1
  Sb  Sb82  1  0.17136775  0.49534686  0.00094924  1
  Sb  Sb83  1  0.66407651  0.66735676  0.33146106  1
  Sb  Sb84  1  0.49558024  0.49060853  -0.00495969  1
  Sb  Sb85  1  0.49954374  0.66123268  0.50404744  1
  Sb  Sb86  1  0.83334877  0.49646694  -0.00053439  1
  Sb  Sb87  1  0.33492388  0.65705121  0.67058270  1
  Sb  Sb88  1  0.66696548  0.67325956  0.66869055  1
  Sb  Sb89  1  0.50673430  0.00733535  0.49749047  1
  Sb  Sb90  1  0.33966399  0.82743191  0.50015966  1
  Sb  Sb91  1  -0.00265085  0.16316442  0.16475465  1
  Sb  Sb92  1  -0.00353836  0.66292790  0.67282577  1
  Sb  Sb93  1  0.16166843  0.82949712  0.33065550  1
  Sb  Sb94  1  -0.00610488  0.83842221  0.83599286  1
  Sb  Sb95  1  0.49576091  0.49148475  0.33807158  1
  Sb  Sb96  1  0.33556928  0.00930705  0.67202160  1
  Sb  Sb97  1  0.49469019  0.66706623  0.16156927  1
  Sb  Sb98  1  0.83437511  0.00708440  0.83255733  1
  Sb  Sb99  1  0.17314116  0.33204036  0.17095849  1
  Sb  Sb100  1  0.33578617  0.83707444  0.16557119  1
  Sb  Sb101  1  0.66353219  0.49157427  0.83035700  1
  Sb  Sb102  1  -0.00240463  0.00028998  -0.00272186  1
  Sb  Sb103  1  0.66938094  0.84240560  0.83330437  1
  Sb  Sb104  1  0.00307286  0.49179113  0.50081534  1
  Sb  Sb105  1  0.65991268  0.32386348  0.00276470  1
  Sb  Sb106  1  0.00475469  0.50219985  0.16887013  1
  Sb  Sb107  1  0.83775272  0.67360899  0.16224869  1
  Te  Te108  1  0.16471369  0.16294318  0.16107572  1
  Te  Te109  1  0.16096552  0.17328166  0.49827602  1
  Te  Te110  1  0.16813063  0.16389489  0.83891822  1
  Te  Te111  1  0.17197498  0.50305219  0.16935866  1
  Te  Te112  1  0.17054435  0.49367201  0.49922233  1
  Te  Te113  1  0.17202184  0.50012293  0.82856794  1
  Te  Te114  1  0.16480132  0.83354650  0.16706293  1
  Te  Te115  1  0.16603703  0.83352394  0.49945568  1
  Te  Te116  1  0.16614162  0.84013675  0.83255404  1
  Te  Te117  1  0.50023815  0.16698904  0.16431032  1
  Te  Te118  1  0.49891905  0.17190638  0.50957438  1
  Te  Te119  1  0.50209572  0.17071378  0.82808010  1
  Te  Te120  1  0.49347624  0.49841403  0.16588841  1
  Te  Te121  1  0.49747340  0.49448659  0.50730366  1
  Te  Te122  1  0.49770056  0.49635662  0.82923985  1
  Te  Te123  1  0.50653922  0.83635319  0.16655437  1
  Te  Te124  1  0.50607751  0.83354751  0.50513336  1
  Te  Te125  1  0.50195824  0.82969413  0.82830358  1
  Te  Te126  1  0.83028882  0.15980110  0.16452439  1
  Te  Te127  1  0.83580076  0.16688568  0.49959227  1
  Te  Te128  1  0.83116214  0.16805790  0.83265081  1
  Te  Te129  1  0.83222440  0.50056510  0.17029266  1
  Te  Te130  1  0.83266445  0.49749130  0.50010564  1
  Te  Te131  1  0.83357053  0.49508021  0.83144295  1
  Te  Te132  1  0.83201565  0.83534679  0.16464095  1
  Te  Te133  1  0.82940596  0.83276245  0.50575348  1
  Te  Te134  1  0.83203015  0.82687376  0.83083919  1
  Te  Te135  1  0.16519775  0.00301915  0.00153923  1
  Te  Te136  1  0.16588097  -0.00056894  0.32969605  1
  Te  Te137  1  0.16642651  -0.00115740  0.66619743  1
  Te  Te138  1  0.17242285  0.32714329  -0.00099282  1
  Te  Te139  1  0.17012328  0.33669830  0.33677727  1
  Te  Te140  1  0.16751620  0.33705865  0.66324822  1
  Te  Te141  1  0.16857776  0.66694817  0.00291446  1
  Te  Te142  1  0.17067874  0.66052719  0.32832465  1
  Te  Te143  1  0.16569432  0.65867117  0.66676308  1
  Te  Te144  1  0.49878413  0.00384575  0.00354883  1
  Te  Te145  1  0.50660729  0.00601185  0.32931044  1
  Te  Te146  1  0.49999920  -0.00054387  0.66631820  1
  Te  Te147  1  0.49535654  0.32714349  -0.00047762  1
  Te  Te148  1  0.49869700  0.33212664  0.33432722  1
  Te  Te149  1  0.50339427  0.33189751  0.66537123  1
  Te  Te150  1  0.49713306  0.66823648  -0.00617766  1
  Te  Te151  1  0.49445947  0.66689777  0.33372869  1
  Te  Te152  1  0.49979206  0.66978723  0.67163342  1
  Te  Te153  1  0.83239356  0.00233578  -0.00104263  1
  Te  Te154  1  0.82983646  -0.00206697  0.33171854  1
  Te  Te155  1  0.83349815  0.00556822  0.66858907  1
  Te  Te156  1  0.83387335  0.32808597  -0.00068877  1
  Te  Te157  1  0.83512247  0.33302115  0.33189786  1
  Te  Te158  1  0.83033030  0.32647996  0.66640200  1
  Te  Te159  1  0.83448312  0.66467531  -0.00539217  1
  Te  Te160  1  0.83332131  0.66756680  0.33431323  1
  Te  Te161  1  0.83372158  0.66597264  0.67272613  1
  Te  Te162  1  -0.00779388  0.16796965  -0.00415605  1
  Te  Te163  1  0.00156229  0.17278608  0.33311437  1
  Te  Te164  1  0.00206119  0.16979351  0.66941178  1
  Te  Te165  1  0.00236736  0.50609880  0.00015031  1
  Te  Te166  1  -0.00289881  0.49467432  0.33381676  1
  Te  Te167  1  -0.00907862  0.49453478  0.66685119  1
  Te  Te168  1  -0.00576226  0.83093027  0.00333761  1
  Te  Te169  1  -0.00721362  0.83297118  0.32861786  1
  Te  Te170  1  -0.00463060  0.83521248  0.66584124  1
  Te  Te171  1  0.33612588  0.16746696  0.00110860  1
  Te  Te172  1  0.33920444  0.17161734  0.32831536  1
  Te  Te173  1  0.33495928  0.17370812  0.66633318  1
  Te  Te174  1  0.33282968  0.50076729  0.00331040  1
  Te  Te175  1  0.33502880  0.49572574  0.33253356  1
  Te  Te176  1  0.33570656  0.49619803  0.66600549  1
  Te  Te177  1  0.33357361  0.82988297  -0.00044600  1
  Te  Te178  1  0.33391894  0.83134769  0.33473206  1
  Te  Te179  1  0.33482900  0.83286429  0.66540389  1
  Te  Te180  1  0.66569777  0.16468091  0.00076355  1
  Te  Te181  1  0.66368723  0.16524719  0.33321766  1
  Te  Te182  1  0.66806532  0.16314468  0.66654915  1
  Te  Te183  1  0.66529315  0.50151213  0.00117408  1
  Te  Te184  1  0.67344912  0.49945099  0.33396461  1
  Te  Te185  1  0.67275954  0.50275061  0.66616205  1
  Te  Te186  1  0.67176403  0.84296030  0.00291278  1
  Te  Te187  1  0.67043081  0.83436936  0.33270854  1
  Te  Te188  1  0.66904623  0.83875573  0.66758842  1
  Te  Te189  1  0.00305204  -0.00336149  0.16710249  1
  Te  Te190  1  -0.00711590  0.00828227  0.50399955  1
  Te  Te191  1  0.00498515  0.00512585  0.82904567  1
  Te  Te192  1  0.00033379  0.33400274  0.16890052  1
  Te  Te193  1  -0.00535038  0.33196507  0.50139874  1
  Te  Te194  1  -0.00320282  0.32822689  0.83120322  1
  Te  Te195  1  0.00520282  0.67077306  0.16273966  1
  Te  Te196  1  0.00219919  0.66998407  0.49984656  1
  Te  Te197  1  -0.00192992  0.66644041  0.83963094  1
  Te  Te198  1  0.32745369  0.00300241  0.16288898  1
  Te  Te199  1  0.33165420  -0.00107597  0.49819359  1
  Te  Te200  1  0.32948773  -0.00149003  0.84007362  1
  Te  Te201  1  0.33378858  0.33141819  0.16599783  1
  Te  Te202  1  0.33441731  0.33379994  0.50082432  1
  Te  Te203  1  0.33633638  0.33756417  0.82916358  1
  Te  Te204  1  0.33098744  0.67058103  0.16492114  1
  Te  Te205  1  0.33411281  0.65844043  0.49478905  1
  Te  Te206  1  0.33569417  0.66157366  0.83788528  1
  Te  Te207  1  0.66997409  0.00113457  0.16520386  1
  Te  Te208  1  0.67045390  -0.00224695  0.50696986  1
  Te  Te209  1  0.66441011  0.00777426  0.82811873  1
  Te  Te210  1  0.65932556  0.32887217  0.17268144  1
  Te  Te211  1  0.67035574  0.33405760  0.49187686  1
  Te  Te212  1  0.66623082  0.32694238  0.83581014  1
  Te  Te213  1  0.66547131  0.66827959  0.16520094  1
  Te  Te214  1  0.66595381  0.67659867  0.49919273  1
  Te  Te215  1  0.66602242  0.66417085  0.83523919  1
