# generated using pymatgen
data_AgSbTe2
_symmetry_space_group_name_H-M   'P 1'
_cell_length_a   18.35873286
_cell_length_b   18.35207060
_cell_length_c   18.36248379
_cell_angle_alpha   90.00226326
_cell_angle_beta   90.00161378
_cell_angle_gamma   90.00307543
_symmetry_Int_Tables_number   1
_chemical_formula_structural   AgSbTe2
_chemical_formula_sum   'Ag54 Sb54 Te108'
_cell_volume   6186.70200367
_cell_formula_units_Z   54
loop_
 _symmetry_equiv_pos_site_id
 _symmetry_equiv_pos_as_xyz
  1  'x, y, z'
loop_
 _atom_site_type_symbol
 _atom_site_label
 _atom_site_symmetry_multiplicity
 _atom_site_fract_x
 _atom_site_fract_y
 _atom_site_fract_z
 _atom_site_occupancy
  Ag  Ag0  1  0.00370496  0.50258988  0.15079764  1
  Ag  Ag1  1  0.16913721  0.84187041  0.32273754  1
  Ag  Ag2  1  0.67535981  0.48981201  0.83363486  1
  Ag  Ag3  1  0.67282772  0.49835376  0.51388170  1
  Ag  Ag4  1  0.32099796  0.00082153  0.00269733  1
  Ag  Ag5  1  0.84195812  0.66246078  0.15446506  1
  Ag  Ag6  1  0.00818337  0.34116822  -0.00168301  1
  Ag  Ag7  1  0.15874484  0.00175695  0.84594183  1
  Ag  Ag8  1  0.50241259  0.33698999  0.51513334  1
  Ag  Ag9  1  -0.00582321  0.50190278  0.50481481  1
  Ag  Ag10  1  0.15963407  0.66842419  0.15871860  1
  Ag  Ag11  1  0.32374083  0.84480941  0.16312818  1
  Ag  Ag12  1  0.16657687  0.00682271  0.16284366  1
  Ag  Ag13  1  0.32091896  -0.00043997  0.32036943  1
  Ag  Ag14  1  0.32003384  0.16248219  0.15899580  1
  Ag  Ag15  1  -0.00341953  0.50550232  0.83462572  1
  Ag  Ag16  1  0.16000596  0.00082799  0.48926469  1
  Ag  Ag17  1  0.66806783  -0.00053373  0.32528211  1
  Ag  Ag18  1  0.50603309  0.49411828  0.67740538  1
  Ag  Ag19  1  0.00848037  0.83057712  0.16230900  1
  Ag  Ag20  1  0.83755281  0.00023572  0.83196145  1
  Ag  Ag21  1  0.83184650  0.16055356  0.67297768  1
  Ag  Ag22  1  0.00821625  0.16154866  0.16219086  1
  Ag  Ag23  1  0.66985350  0.49802271  0.15758838  1
  Ag  Ag24  1  0.67099866  0.00601085  -0.00637803  1
  Ag  Ag25  1  0.83968713  0.65997336  0.83270490  1
  Ag  Ag26  1  0.32879880  0.16829938  0.83946471  1
  Ag  Ag27  1  0.49830021  0.49490562  -0.00084997  1
  Ag  Ag28  1  0.83554127  0.66365551  0.50580813  1
  Ag  Ag29  1  0.00078162  0.65784440  -0.00201608  1
  Ag  Ag30  1  0.34516293  0.33362406  0.67519468  1
  Ag  Ag31  1  0.15726360  0.66126462  0.84123244  1
  Ag  Ag32  1  0.49177672  0.83688476  0.33024749  1
  Ag  Ag33  1  0.49184765  0.33771156  0.15666536  1
  Ag  Ag34  1  0.00503690  0.00117132  -0.00229186  1
  Ag  Ag35  1  0.67616665  0.65478003  0.66905513  1
  Ag  Ag36  1  0.16578757  0.33093205  0.84247499  1
  Ag  Ag37  1  0.16742010  0.16030725  0.31434236  1
  Ag  Ag38  1  0.16507800  0.16950363  0.00162992  1
  Ag  Ag39  1  -0.00344879  -0.00189144  0.67732984  1
  Ag  Ag40  1  0.82301192  0.34066480  0.83407116  1
  Ag  Ag41  1  0.66852214  0.33429171  -0.00855281  1
  Ag  Ag42  1  0.16856797  0.32094514  0.15846818  1
  Ag  Ag43  1  0.83294129  0.50078101  0.33031124  1
  Ag  Ag44  1  0.66407318  0.33825947  0.68055289  1
  Ag  Ag45  1  0.16357851  0.49208439  0.00228346  1
  Ag  Ag46  1  -0.00521371  0.66586877  0.68014601  1
  Ag  Ag47  1  0.32864810  0.84537673  0.84287861  1
  Ag  Ag48  1  0.31958972  0.49710909  0.16361743  1
  Ag  Ag49  1  0.67007792  0.17838434  0.83300370  1
  Ag  Ag50  1  0.51216171  0.33626561  0.83604587  1
  Ag  Ag51  1  0.83634435  -0.00309069  0.51264145  1
  Ag  Ag52  1  0.83593094  0.83499510  -0.00016229  1
  Ag  Ag53  1  0.67662578  0.00343498  0.67251394  1
  Sb  Sb54  1  0.16773524  0.49830417  0.67418865  1
  Sb  Sb55  1  0.33332596  0.32780533  0.32834314  1
  Sb  Sb56  1  0.00415224  0.83212742  0.84195244  1
  Sb  Sb57  1  0.66865588  0.83161056  0.49984804  1
  Sb  Sb58  1  0.66801331  0.17012277  0.15904756  1
  Sb  Sb59  1  0.66570248  0.83336618  0.83463287  1
  Sb  Sb60  1  0.50185721  0.00606874  0.83422517  1
  Sb  Sb61  1  0.33085391  0.67276094  0.32958471  1
  Sb  Sb62  1  0.16135857  0.16555956  0.67411206  1
  Sb  Sb63  1  0.82835815  0.50079967  0.66865950  1
  Sb  Sb64  1  0.83861734  0.16423025  -0.00469809  1
  Sb  Sb65  1  0.83598545  0.83077032  0.32793275  1
  Sb  Sb66  1  0.00057077  0.33593808  0.32249815  1
  Sb  Sb67  1  0.33404716  0.49848148  0.49503478  1
  Sb  Sb68  1  0.16017511  0.83735995  0.00601877  1
  Sb  Sb69  1  0.83657414  0.33943508  0.15656739  1
  Sb  Sb70  1  0.49591077  0.16376282  0.33023610  1
  Sb  Sb71  1  0.32279636  0.67048318  0.00072962  1
  Sb  Sb72  1  -0.00171256  0.66513072  0.32344628  1
  Sb  Sb73  1  0.00054018  0.16862915  0.49817331  1
  Sb  Sb74  1  0.83788125  0.50242535  -0.00011927  1
  Sb  Sb75  1  -0.00055529  0.16744960  0.84000246  1
  Sb  Sb76  1  0.33098234  0.83663812  0.49559517  1
  Sb  Sb77  1  0.50488257  0.17318816  0.66984283  1
  Sb  Sb78  1  0.50122041  0.83069739  0.00267146  1
  Sb  Sb79  1  0.49934935  0.66086674  0.16535797  1
  Sb  Sb80  1  0.49492862  0.17332213  -0.00095668  1
  Sb  Sb81  1  0.66863707  0.16997160  0.50710489  1
  Sb  Sb82  1  0.50236270  0.65922972  0.83431111  1
  Sb  Sb83  1  0.16129712  0.50050791  0.32323586  1
  Sb  Sb84  1  0.50472747  0.50150796  0.32890341  1
  Sb  Sb85  1  0.50056240  0.82868890  0.66545935  1
  Sb  Sb86  1  0.83954239  -0.00416829  0.16186265  1
  Sb  Sb87  1  0.00229882  -0.00006820  0.32936130  1
  Sb  Sb88  1  0.50363336  0.00394485  0.49936084  1
  Sb  Sb89  1  0.16815370  0.33040567  0.50014700  1
  Sb  Sb90  1  0.66984983  0.66754600  0.33488022  1
  Sb  Sb91  1  0.15695472  0.67005272  0.49984997  1
  Sb  Sb92  1  0.33089479  0.66093397  0.67198520  1
  Sb  Sb93  1  0.83670188  0.16760961  0.33575211  1
  Sb  Sb94  1  0.33142384  0.49482037  0.84092232  1
  Sb  Sb95  1  0.66621491  0.33108069  0.33155193  1
  Sb  Sb96  1  0.66661896  0.82977154  0.16519004  1
  Sb  Sb97  1  0.83001186  0.33653542  0.50897346  1
  Sb  Sb98  1  0.16548930  0.83478678  0.66829183  1
  Sb  Sb99  1  0.33023883  0.00609656  0.67320439  1
  Sb  Sb100  1  0.67502721  0.66006494  -0.00478292  1
  Sb  Sb101  1  0.50832993  0.65952470  0.50146975  1
  Sb  Sb102  1  0.49379755  0.00385417  0.16530509  1
  Sb  Sb103  1  0.83472202  0.83400047  0.67391625  1
  Sb  Sb104  1  0.33183488  0.16629697  0.50138642  1
  Sb  Sb105  1  0.33005677  0.32848888  -0.00227273  1
  Sb  Sb106  1  -0.00109410  0.83135491  0.49572776  1
  Sb  Sb107  1  -0.00492153  0.33466783  0.67651928  1
  Te  Te108  1  0.16478692  0.16559753  0.15975051  1
  Te  Te109  1  0.16597699  0.16092108  0.50015657  1
  Te  Te110  1  0.16674659  0.16315309  0.83736964  1
  Te  Te111  1  0.16261977  0.50630113  0.16406665  1
  Te  Te112  1  0.16278701  0.50030811  0.49778717  1
  Te  Te113  1  0.16498183  0.50256310  0.83778477  1
  Te  Te114  1  0.16810310  0.82815319  0.16590738  1
  Te  Te115  1  0.16625439  0.84000573  0.49368894  1
  Te  Te116  1  0.17048461  0.83906885  0.83367795  1
  Te  Te117  1  0.49835348  0.17607273  0.16631199  1
  Te  Te118  1  0.50007546  0.17667019  0.49858339  1
  Te  Te119  1  0.49995836  0.17377155  0.83387008  1
  Te  Te120  1  0.50894538  0.49653611  0.16399164  1
  Te  Te121  1  0.50315089  0.49535110  0.49749371  1
  Te  Te122  1  0.49809509  0.49610418  0.83634885  1
  Te  Te123  1  0.49644526  0.83118201  0.17026787  1
  Te  Te124  1  0.49950782  0.83280046  0.49377459  1
  Te  Te125  1  0.49107683  0.83135513  0.83394305  1
  Te  Te126  1  0.83835723  0.16836516  0.16876785  1
  Te  Te127  1  0.83483036  0.15960498  0.50408737  1
  Te  Te128  1  0.83186741  0.16010953  0.83228323  1
  Te  Te129  1  0.83509495  0.50256467  0.16785690  1
  Te  Te130  1  0.83200877  0.50034745  0.50157288  1
  Te  Te131  1  0.83499294  0.50022339  0.83338396  1
  Te  Te132  1  0.83444089  0.82557896  0.16276384  1
  Te  Te133  1  0.83357870  0.83547972  0.49661151  1
  Te  Te134  1  0.83297742  0.83813396  0.83960229  1
  Te  Te135  1  0.16551230  -0.00085860  0.00214438  1
  Te  Te136  1  0.16498937  0.00068159  0.32930316  1
  Te  Te137  1  0.16265070  -0.00003806  0.66871691  1
  Te  Te138  1  0.16682928  0.33318094  0.00239685  1
  Te  Te139  1  0.16761497  0.32827375  0.33069700  1
  Te  Te140  1  0.16631629  0.33268108  0.66857518  1
  Te  Te141  1  0.16131672  0.66523383  -0.00120358  1
  Te  Te142  1  0.16589602  0.66996803  0.33092159  1
  Te  Te143  1  0.16054427  0.66667325  0.67015131  1
  Te  Te144  1  0.51044594  -0.00055240  0.00032906  1
  Te  Te145  1  0.50541090  -0.00315317  0.33399563  1
  Te  Te146  1  0.50310331  -0.00111709  0.66479009  1
  Te  Te147  1  0.50100285  0.33629661  -0.00255062  1
  Te  Te148  1  0.49966491  0.33247414  0.32763484  1
  Te  Te149  1  0.50414495  0.33528469  0.67275539  1
  Te  Te150  1  0.50193239  0.65852991  -0.00014320  1
  Te  Te151  1  0.50047368  0.67472041  0.33416380  1
  Te  Te152  1  0.50441865  0.65941496  0.66646034  1
  Te  Te153  1  0.83095849  -0.00158018  -0.00137218  1
  Te  Te154  1  0.82881144  -0.00010735  0.33268201  1
  Te  Te155  1  0.83541868  -0.00261798  0.66981550  1
  Te  Te156  1  0.83057453  0.33057351  -0.00753562  1
  Te  Te157  1  0.83318323  0.33770747  0.33686294  1
  Te  Te158  1  0.82860681  0.32548509  0.67388206  1
  Te  Te159  1  0.83835311  0.66992995  -0.00413233  1
  Te  Te160  1  0.83284826  0.66301102  0.34191791  1
  Te  Te161  1  0.83514521  0.66809589  0.66984206  1
  Te  Te162  1  0.00395882  0.16219201  0.00427578  1
  Te  Te163  1  0.00505347  0.16832703  0.32674308  1
  Te  Te164  1  -0.00600787  0.16170997  0.66538739  1
  Te  Te165  1  0.00140303  0.49979123  -0.00513351  1
  Te  Te166  1  -0.00530573  0.49986317  0.34410064  1
  Te  Te167  1  0.00059620  0.50240244  0.67097382  1
  Te  Te168  1  -0.00508971  0.84083831  0.00537887  1
  Te  Te169  1  0.00475304  0.83242314  0.32398359  1
  Te  Te170  1  0.00020538  0.83552507  0.66363300  1
  Te  Te171  1  0.33037944  0.16162695  -0.00039201  1
  Te  Te172  1  0.32854767  0.15995612  0.33115600  1
  Te  Te173  1  0.33357426  0.17279598  0.67163248  1
  Te  Te174  1  0.33315001  0.50307748  0.00521321  1
  Te  Te175  1  0.33396929  0.50035821  0.32538867  1
  Te  Te176  1  0.33932151  0.49458646  0.66444102  1
  Te  Te177  1  0.33706456  0.83835491  0.00282490  1
  Te  Te178  1  0.33034661  0.83894219  0.32890579  1
  Te  Te179  1  0.33456094  0.83269831  0.67031087  1
  Te  Te180  1  0.66626521  0.16854599  -0.00513632  1
  Te  Te181  1  0.66768886  0.16045592  0.33304795  1
  Te  Te182  1  0.67013334  0.16447876  0.67192927  1
  Te  Te183  1  0.66690044  0.49824757  -0.00371206  1
  Te  Te184  1  0.67117012  0.49955823  0.32918690  1
  Te  Te185  1  0.66550441  0.49817975  0.67074591  1
  Te  Te186  1  0.66986285  0.83658116  0.00039901  1
  Te  Te187  1  0.66625928  0.83894377  0.33268339  1
  Te  Te188  1  0.66460019  0.83828738  0.66652838  1
  Te  Te189  1  0.00353816  -0.00097779  0.16308701  1
  Te  Te190  1  -0.00081714  0.00009725  0.49869201  1
  Te  Te191  1  0.00004312  -0.00031240  0.83585048  1
  Te  Te192  1  0.00297038  0.34041462  0.15921492  1
  Te  Te193  1  -0.00039884  0.33823858  0.50317060  1
  Te  Te194  1  0.00716545  0.33395900  0.83826376  1
  Te  Te195  1  -0.00085195  0.66365231  0.16277487  1
  Te  Te196  1  -0.00526423  0.66419115  0.50349782  1
  Te  Te197  1  -0.00037149  0.66921466  0.83648718  1
  Te  Te198  1  0.33247081  0.00237870  0.16405261  1
  Te  Te199  1  0.33029533  0.00159080  0.50070205  1
  Te  Te200  1  0.33475853  0.00496672  0.83660177  1
  Te  Te201  1  0.33133933  0.33462284  0.16580015  1
  Te  Te202  1  0.33781891  0.33382917  0.50429200  1
  Te  Te203  1  0.32276881  0.33100264  0.83185551  1
  Te  Te204  1  0.33102572  0.66121488  0.16646510  1
  Te  Te205  1  0.33262826  0.66719744  0.50172260  1
  Te  Te206  1  0.32925907  0.66873623  0.83330692  1
  Te  Te207  1  0.66636765  0.00056987  0.16502333  1
  Te  Te208  1  0.67076629  0.00109222  0.50749584  1
  Te  Te209  1  0.66695530  -0.00196962  0.83356197  1
  Te  Te210  1  0.66764402  0.33710839  0.16347044  1
  Te  Te211  1  0.66341779  0.33800960  0.49905771  1
  Te  Te212  1  0.66788064  0.33393614  0.83570885  1
  Te  Te213  1  0.67152081  0.66115961  0.16611994  1
  Te  Te214  1  0.67372411  0.66127272  0.50507337  1
  Te  Te215  1  0.67013669  0.66567705  0.82829130  1
