# generated using pymatgen
data_AgSbTe2
_symmetry_space_group_name_H-M   'P 1'
_cell_length_a   18.32867087
_cell_length_b   18.32141371
_cell_length_c   18.32849090
_cell_angle_alpha   89.99937949
_cell_angle_beta   89.99987437
_cell_angle_gamma   89.99995648
_symmetry_Int_Tables_number   1
_chemical_formula_structural   AgSbTe2
_chemical_formula_sum   'Ag54 Sb54 Te108'
_cell_volume   6154.83851000
_cell_formula_units_Z   54
loop_
 _symmetry_equiv_pos_site_id
 _symmetry_equiv_pos_as_xyz
  1  'x, y, z'
loop_
 _atom_site_type_symbol
 _atom_site_label
 _atom_site_symmetry_multiplicity
 _atom_site_fract_x
 _atom_site_fract_y
 _atom_site_fract_z
 _atom_site_occupancy
  Ag  Ag0  1  0.33304597  0.83613399  0.83861444  1
  Ag  Ag1  1  0.67011763  0.48995847  0.82942689  1
  Ag  Ag2  1  0.83511603  0.66379955  0.82929271  1
  Ag  Ag3  1  0.66336309  0.17128518  0.17384480  1
  Ag  Ag4  1  0.82758036  0.66505202  0.16730347  1
  Ag  Ag5  1  0.66819242  0.49022579  0.50289894  1
  Ag  Ag6  1  0.00050877  0.84051882  0.83367815  1
  Ag  Ag7  1  0.66849565  0.32373509  0.32231806  1
  Ag  Ag8  1  0.50699117  0.66506808  0.16689785  1
  Ag  Ag9  1  0.83162972  0.33027871  0.49688569  1
  Ag  Ag10  1  0.50618526  0.16736169  0.00588976  1
  Ag  Ag11  1  0.83595247  0.65796828  0.50540043  1
  Ag  Ag12  1  0.50882979  0.49574032  0.66643876  1
  Ag  Ag13  1  0.15948464  0.66640922  0.50084987  1
  Ag  Ag14  1  0.16994286  0.84581606  0.33376699  1
  Ag  Ag15  1  0.16158003  0.16464353  0.33160174  1
  Ag  Ag16  1  0.50431181  0.00748395  0.83375954  1
  Ag  Ag17  1  0.50859080  0.32709550  0.16295950  1
  Ag  Ag18  1  0.82768843  0.83453718  0.00133919  1
  Ag  Ag19  1  0.33296331  0.33588972  0.66441878  1
  Ag  Ag20  1  0.82205192  0.32898166  0.17239517  1
  Ag  Ag21  1  0.50259804  0.84266618  0.00446280  1
  Ag  Ag22  1  0.66652048  0.01134126  0.33135403  1
  Ag  Ag23  1  0.34037857  0.84054922  0.16479800  1
  Ag  Ag24  1  0.33814145  0.49590804  0.50382727  1
  Ag  Ag25  1  0.66825342  0.17056608  0.83635769  1
  Ag  Ag26  1  -0.00672422  0.16977454  0.83084192  1
  Ag  Ag27  1  0.16871339  0.00252578  0.49760632  1
  Ag  Ag28  1  0.34280593  0.16791602  0.16803224  1
  Ag  Ag29  1  0.49645756  0.84401039  0.32368700  1
  Ag  Ag30  1  0.66708590  0.48603366  0.16780566  1
  Ag  Ag31  1  -0.00768226  0.49253301  0.82620119  1
  Ag  Ag32  1  0.33857785  0.32846308  0.33209819  1
  Ag  Ag33  1  0.82790246  0.16878782  0.33633381  1
  Ag  Ag34  1  -0.00161938  0.33481258  0.67003831  1
  Ag  Ag35  1  0.16663708  0.00196744  0.82998878  1
  Ag  Ag36  1  0.50416959  0.00257268  0.49835094  1
  Ag  Ag37  1  0.15616197  0.49805590  0.66545586  1
  Ag  Ag38  1  0.66589620  0.32740370  0.00992466  1
  Ag  Ag39  1  -0.00223260  0.00996780  0.33573705  1
  Ag  Ag40  1  0.50420917  0.32559858  0.83967687  1
  Ag  Ag41  1  -0.01014613  0.32642647  0.33750520  1
  Ag  Ag42  1  0.51309808  0.16548439  0.32590280  1
  Ag  Ag43  1  0.83156786  0.17361746  0.66050772  1
  Ag  Ag44  1  0.83356264  0.49261073  0.66662172  1
  Ag  Ag45  1  0.66613276  0.00649545  0.66731651  1
  Ag  Ag46  1  0.66456170  0.01045868  0.00136471  1
  Ag  Ag47  1  0.82922785  0.01092671  0.16872215  1
  Ag  Ag48  1  0.34697901  0.32847255  0.00179492  1
  Ag  Ag49  1  -0.00357678  0.65477352  0.66750182  1
  Ag  Ag50  1  0.16996744  0.16794695  0.00283025  1
  Ag  Ag51  1  -0.00822396  0.16881057  0.49198240  1
  Ag  Ag52  1  -0.00677424  0.32866535  -0.00327070  1
  Ag  Ag53  1  0.67257825  0.17107668  0.48822846  1
  Sb  Sb54  1  -0.00290275  0.66542862  0.33989647  1
  Sb  Sb55  1  0.16507608  0.49137370  -0.00607114  1
  Sb  Sb56  1  0.16900024  0.84193631  0.00197442  1
  Sb  Sb57  1  0.33612432  0.00649942  0.33259747  1
  Sb  Sb58  1  0.16710315  0.49530200  0.34036181  1
  Sb  Sb59  1  0.16561894  0.83126121  0.66379539  1
  Sb  Sb60  1  -0.00404424  0.49233051  0.50651764  1
  Sb  Sb61  1  0.33614026  0.16602263  0.83849899  1
  Sb  Sb62  1  0.50555358  0.66625618  0.83744642  1
  Sb  Sb63  1  0.33532015  0.49883375  0.82776383  1
  Sb  Sb64  1  0.16672176  0.66965128  0.17271549  1
  Sb  Sb65  1  0.67226237  0.66439587  0.66676412  1
  Sb  Sb66  1  0.33653955  0.00760034  0.66838760  1
  Sb  Sb67  1  0.66757185  0.83723369  0.83643350  1
  Sb  Sb68  1  0.50189628  0.49229407  -0.00261044  1
  Sb  Sb69  1  0.16081831  0.17036493  0.66554152  1
  Sb  Sb70  1  0.83070742  0.00712562  0.49634922  1
  Sb  Sb71  1  0.50289315  0.66711951  0.49580500  1
  Sb  Sb72  1  0.34096012  0.00608531  -0.00044577  1
  Sb  Sb73  1  0.34123082  0.49305472  0.17097530  1
  Sb  Sb74  1  0.66822695  0.66539079  0.33216123  1
  Sb  Sb75  1  0.32924700  0.65988145  0.66616762  1
  Sb  Sb76  1  0.83038454  0.33461387  0.83225734  1
  Sb  Sb77  1  0.16228279  0.33080635  0.49959826  1
  Sb  Sb78  1  0.16586937  0.32791857  0.83292866  1
  Sb  Sb79  1  0.33510342  0.17193154  0.49413912  1
  Sb  Sb80  1  0.50722657  0.17158166  0.66759890  1
  Sb  Sb81  1  -0.00425061  0.00600364  0.66434582  1
  Sb  Sb82  1  0.33224464  0.83079367  0.49822225  1
  Sb  Sb83  1  0.50591648  0.32912909  0.49942913  1
  Sb  Sb84  1  0.67015160  0.32993612  0.66626491  1
  Sb  Sb85  1  0.33568345  0.66435110  0.00072299  1
  Sb  Sb86  1  0.66703164  0.66476328  0.00155308  1
  Sb  Sb87  1  0.66257123  0.83810324  0.16567849  1
  Sb  Sb88  1  0.33444820  0.66443861  0.33356052  1
  Sb  Sb89  1  0.15924406  0.67065385  0.82819020  1
  Sb  Sb90  1  -0.00057032  0.83425308  0.16355206  1
  Sb  Sb91  1  -0.00635868  0.16875173  0.16983691  1
  Sb  Sb92  1  -0.00934737  0.49566155  0.16232262  1
  Sb  Sb93  1  0.16221925  0.00438259  0.16941678  1
  Sb  Sb94  1  0.83187643  0.49003536  0.33840932  1
  Sb  Sb95  1  -0.00038184  0.83834806  0.50270937  1
  Sb  Sb96  1  0.83266163  0.84103470  0.32915737  1
  Sb  Sb97  1  0.50224375  0.49288628  0.33559698  1
  Sb  Sb98  1  -0.00389166  0.66387082  -0.00645997  1
  Sb  Sb99  1  0.50680108  0.00573367  0.16715329  1
  Sb  Sb100  1  0.83473016  0.83344776  0.67102915  1
  Sb  Sb101  1  0.16871039  0.33074143  0.16742003  1
  Sb  Sb102  1  0.83036366  0.49968303  -0.00476688  1
  Sb  Sb103  1  0.82659834  0.16695524  0.00273295  1
  Sb  Sb104  1  0.66761493  0.83919107  0.49812211  1
  Sb  Sb105  1  0.49912017  0.83263735  0.66929245  1
  Sb  Sb106  1  0.83031776  0.00023639  0.83706601  1
  Sb  Sb107  1  -0.00455728  0.00634032  0.00126974  1
  Te  Te108  1  0.17118955  0.16653778  0.16613238  1
  Te  Te109  1  0.16550636  0.16259054  0.49724462  1
  Te  Te110  1  0.16624875  0.16133768  0.83417246  1
  Te  Te111  1  0.16744206  0.50287660  0.16608543  1
  Te  Te112  1  0.16746722  0.50220510  0.50479251  1
  Te  Te113  1  0.16386979  0.50163574  0.82616581  1
  Te  Te114  1  0.17149325  0.83413387  0.17246107  1
  Te  Te115  1  0.16724688  0.83599599  0.49443646  1
  Te  Te116  1  0.16558916  0.83862400  0.83401778  1
  Te  Te117  1  0.50186807  0.16719548  0.16655366  1
  Te  Te118  1  0.50371949  0.16190406  0.49922987  1
  Te  Te119  1  0.50182597  0.16683414  0.83379794  1
  Te  Te120  1  0.50615287  0.50170302  0.16706263  1
  Te  Te121  1  0.50298331  0.50174592  0.50333813  1
  Te  Te122  1  0.50380977  0.49860227  0.82922480  1
  Te  Te123  1  0.49820432  0.83570345  0.16574061  1
  Te  Te124  1  0.49900588  0.83832424  0.49662105  1
  Te  Te125  1  0.49833873  0.83452850  0.83763403  1
  Te  Te126  1  0.82824888  0.16916848  0.16879273  1
  Te  Te127  1  0.83249244  0.16770431  0.49914046  1
  Te  Te128  1  0.83348766  0.16645824  0.83035798  1
  Te  Te129  1  0.82669416  0.50019409  0.16614755  1
  Te  Te130  1  0.83047935  0.49803345  0.50357957  1
  Te  Te131  1  0.83249823  0.50129851  0.82957863  1
  Te  Te132  1  0.83347182  0.82702116  0.16177266  1
  Te  Te133  1  0.83397581  0.82292485  0.49856929  1
  Te  Te134  1  0.83685160  0.82949344  0.83791324  1
  Te  Te135  1  0.16575922  0.00762618  -0.00410794  1
  Te  Te136  1  0.16633529  0.00240873  0.33466713  1
  Te  Te137  1  0.16681363  0.00042076  0.66621207  1
  Te  Te138  1  0.16018722  0.32637308  -0.00006290  1
  Te  Te139  1  0.16926034  0.32803089  0.33398756  1
  Te  Te140  1  0.16533717  0.33818546  0.66654180  1
  Te  Te141  1  0.16617501  0.66691373  0.00126255  1
  Te  Te142  1  0.16568119  0.66754515  0.34121234  1
  Te  Te143  1  0.16143232  0.66280757  0.66112169  1
  Te  Te144  1  0.50427225  0.00287010  -0.00328681  1
  Te  Te145  1  0.50154667  0.00357310  0.33466976  1
  Te  Te146  1  0.50390045  -0.00030321  0.66802704  1
  Te  Te147  1  0.50431161  0.33071958  0.00038717  1
  Te  Te148  1  0.50167572  0.32843198  0.33210084  1
  Te  Te149  1  0.49596810  0.33742692  0.66707701  1
  Te  Te150  1  0.49997721  0.67326817  0.00599390  1
  Te  Te151  1  0.50103096  0.67287022  0.32736307  1
  Te  Te152  1  0.49947434  0.66016880  0.66666280  1
  Te  Te153  1  0.82848309  -0.00422462  0.00455359  1
  Te  Te154  1  0.83273410  0.00433121  0.33014066  1
  Te  Te155  1  0.82725582  0.00219293  0.66555765  1
  Te  Te156  1  0.83186601  0.33380341  0.00556894  1
  Te  Te157  1  0.83092805  0.33023051  0.33387781  1
  Te  Te158  1  0.83675814  0.33288771  0.66520924  1
  Te  Te159  1  0.83322574  0.67115321  0.00239913  1
  Te  Te160  1  0.83430875  0.66863428  0.33051858  1
  Te  Te161  1  0.83700939  0.66729151  0.66724010  1
  Te  Te162  1  0.00061460  0.16948115  -0.00130663  1
  Te  Te163  1  0.00118555  0.16829227  0.33149982  1
  Te  Te164  1  -0.00510885  0.17039437  0.66943758  1
  Te  Te165  1  -0.00002961  0.49281515  -0.00919785  1
  Te  Te166  1  0.00124213  0.49162829  0.33215717  1
  Te  Te167  1  -0.00375841  0.49702972  0.66749256  1
  Te  Te168  1  -0.00050176  0.83365512  -0.00557854  1
  Te  Te169  1  0.00411802  0.83652846  0.33314248  1
  Te  Te170  1  0.00031396  0.83283859  0.67410830  1
  Te  Te171  1  0.33511887  0.17075234  0.00404654  1
  Te  Te172  1  0.32830599  0.17077572  0.32965914  1
  Te  Te173  1  0.33322017  0.17542604  0.66613365  1
  Te  Te174  1  0.33201018  0.49032945  0.00038368  1
  Te  Te175  1  0.33417136  0.49272989  0.33982201  1
  Te  Te176  1  0.33438820  0.49523794  0.66377057  1
  Te  Te177  1  0.33632764  0.83286336  0.00114743  1
  Te  Te178  1  0.33446954  0.83238076  0.33044026  1
  Te  Te179  1  0.33281543  0.83390951  0.67278453  1
  Te  Te180  1  0.66702795  0.16726641  -0.00387233  1
  Te  Te181  1  0.66810750  0.16737697  0.33317037  1
  Te  Te182  1  0.67046677  0.16412073  0.67434767  1
  Te  Te183  1  0.66560586  0.49432667  -0.00174579  1
  Te  Te184  1  0.66625892  0.49663742  0.33505639  1
  Te  Te185  1  0.66990802  0.50067022  0.66622771  1
  Te  Te186  1  0.66573204  0.83473226  -0.00005812  1
  Te  Te187  1  0.66197672  0.83850225  0.33310833  1
  Te  Te188  1  0.66625619  0.84186083  0.66703218  1
  Te  Te189  1  -0.00861972  -0.00101024  0.17327767  1
  Te  Te190  1  0.00295250  0.00543208  0.49661972  1
  Te  Te191  1  0.00106187  0.00280118  0.83283667  1
  Te  Te192  1  -0.00254513  0.33420939  0.16492726  1
  Te  Te193  1  -0.00406796  0.32762345  0.49889785  1
  Te  Te194  1  0.00011244  0.33075826  0.83238058  1
  Te  Te195  1  -0.00494077  0.66480996  0.16739926  1
  Te  Te196  1  -0.00119591  0.66760005  0.50461417  1
  Te  Te197  1  -0.00438108  0.66385162  0.82885114  1
  Te  Te198  1  0.33035920  -0.00030465  0.16561788  1
  Te  Te199  1  0.33213599  -0.00041233  0.50155288  1
  Te  Te200  1  0.33442611  -0.00381302  0.83279119  1
  Te  Te201  1  0.33598833  0.32978980  0.16705196  1
  Te  Te202  1  0.33387552  0.33723223  0.49973814  1
  Te  Te203  1  0.33743678  0.33406826  0.83606067  1
  Te  Te204  1  0.33692087  0.66681913  0.16667367  1
  Te  Te205  1  0.33100688  0.66045956  0.50069094  1
  Te  Te206  1  0.33306369  0.67350474  0.83364281  1
  Te  Te207  1  0.67117459  0.00368164  0.16678715  1
  Te  Te208  1  0.66474158  0.00399265  0.49683217  1
  Te  Te209  1  0.66386265  0.00254443  0.83605650  1
  Te  Te210  1  0.66528373  0.33161110  0.16662288  1
  Te  Te211  1  0.67060209  0.33122765  0.50053938  1
  Te  Te212  1  0.66448117  0.33242370  0.83173569  1
  Te  Te213  1  0.66692684  0.66508426  0.16654580  1
  Te  Te214  1  0.67200510  0.66254865  0.49991961  1
  Te  Te215  1  0.67327016  0.66063327  0.83372627  1
