# generated using pymatgen
data_AgSbTe2
_symmetry_space_group_name_H-M   'P 1'
_cell_length_a   18.34279741
_cell_length_b   18.34992292
_cell_length_c   18.34057392
_cell_angle_alpha   89.99703960
_cell_angle_beta   90.00292713
_cell_angle_gamma   90.00345466
_symmetry_Int_Tables_number   1
_chemical_formula_structural   AgSbTe2
_chemical_formula_sum   'Ag54 Sb54 Te108'
_cell_volume   6173.23391408
_cell_formula_units_Z   54
loop_
 _symmetry_equiv_pos_site_id
 _symmetry_equiv_pos_as_xyz
  1  'x, y, z'
loop_
 _atom_site_type_symbol
 _atom_site_label
 _atom_site_symmetry_multiplicity
 _atom_site_fract_x
 _atom_site_fract_y
 _atom_site_fract_z
 _atom_site_occupancy
  Ag  Ag0  1  0.16679846  0.00494772  0.17049730  1
  Ag  Ag1  1  0.66240440  0.16123656  0.49911149  1
  Ag  Ag2  1  0.16788774  0.16421280  0.32926979  1
  Ag  Ag3  1  0.33168085  0.32918570  0.00210781  1
  Ag  Ag4  1  0.67089905  0.67747565  0.66136394  1
  Ag  Ag5  1  -0.00618006  0.00164093  0.33397038  1
  Ag  Ag6  1  0.50935285  0.16077570  0.33291976  1
  Ag  Ag7  1  0.83692039  0.66499035  0.82574615  1
  Ag  Ag8  1  0.67330326  0.49344296  0.82902601  1
  Ag  Ag9  1  0.51110524  0.84021842  0.65603651  1
  Ag  Ag10  1  0.67068140  0.16800710  0.83050386  1
  Ag  Ag11  1  0.16726683  0.49637956  0.00461804  1
  Ag  Ag12  1  0.66597050  0.00210733  0.33323124  1
  Ag  Ag13  1  0.50996982  0.00224050  0.17643160  1
  Ag  Ag14  1  0.50837065  0.84230855  0.33804802  1
  Ag  Ag15  1  0.00415323  0.16227870  0.16399364  1
  Ag  Ag16  1  0.82147705  0.00165415  0.16990925  1
  Ag  Ag17  1  -0.00740522  0.16641315  0.83516205  1
  Ag  Ag18  1  0.33356958  0.66645775  0.33199719  1
  Ag  Ag19  1  0.16878197  0.32492815  0.49851269  1
  Ag  Ag20  1  0.82448523  0.83440950  0.33875462  1
  Ag  Ag21  1  0.66501608  0.83859002  0.49626297  1
  Ag  Ag22  1  0.50948029  0.32234953  0.49937973  1
  Ag  Ag23  1  0.66652165  0.00497291  0.01751024  1
  Ag  Ag24  1  0.50769726  0.16046461  0.65357249  1
  Ag  Ag25  1  0.66834151  0.00123865  0.66026866  1
  Ag  Ag26  1  0.33529615  0.49950778  0.16818471  1
  Ag  Ag27  1  -0.00655490  0.50558145  0.83054878  1
  Ag  Ag28  1  0.66935773  0.32739814  0.65946847  1
  Ag  Ag29  1  0.16468447  0.49362944  0.33017834  1
  Ag  Ag30  1  0.82588633  0.66928208  0.50613021  1
  Ag  Ag31  1  0.16676064  0.00399979  0.49052851  1
  Ag  Ag32  1  -0.01242289  0.32867265  0.66885657  1
  Ag  Ag33  1  0.66655132  0.50204666  0.49863799  1
  Ag  Ag34  1  0.82569536  0.16519501  -0.00043333  1
  Ag  Ag35  1  0.15674829  0.66838868  0.83371230  1
  Ag  Ag36  1  0.51019010  0.67736971  0.49843234  1
  Ag  Ag37  1  0.50777549  0.00172936  0.49450944  1
  Ag  Ag38  1  0.16803595  0.83949822  -0.00109514  1
  Ag  Ag39  1  0.16544174  0.16545416  0.00926278  1
  Ag  Ag40  1  0.82769588  0.83044863  0.66356376  1
  Ag  Ag41  1  0.66646415  0.32128365  0.34114017  1
  Ag  Ag42  1  0.50994847  0.16436429  0.00941462  1
  Ag  Ag43  1  0.66334325  0.49940359  0.17501865  1
  Ag  Ag44  1  0.66326313  0.15773908  0.16904589  1
  Ag  Ag45  1  0.66239454  0.84622984  0.17936025  1
  Ag  Ag46  1  0.33532485  0.16027851  0.16568532  1
  Ag  Ag47  1  0.83258887  0.33459899  0.83123617  1
  Ag  Ag48  1  -0.01171495  0.67581695  0.67134765  1
  Ag  Ag49  1  0.33857750  0.84341330  0.16650278  1
  Ag  Ag50  1  0.00049817  0.82891959  0.82999730  1
  Ag  Ag51  1  0.82545447  0.50385673  0.33218508  1
  Ag  Ag52  1  0.32803831  0.83183831  0.83893054  1
  Ag  Ag53  1  -0.00648541  -0.00011568  0.66419833  1
  Sb  Sb54  1  0.16298877  -0.00241823  0.83641144  1
  Sb  Sb55  1  -0.00255044  0.00390969  0.00184944  1
  Sb  Sb56  1  0.66336229  0.32560516  0.00100557  1
  Sb  Sb57  1  0.33633642  -0.00126155  0.66538136  1
  Sb  Sb58  1  0.33951508  -0.00148134  0.32985301  1
  Sb  Sb59  1  0.16230670  0.49967006  0.66564902  1
  Sb  Sb60  1  0.33735419  0.66993947  0.66340932  1
  Sb  Sb61  1  0.00135232  0.49291030  0.16439031  1
  Sb  Sb62  1  0.66769948  0.67060606  -0.00628617  1
  Sb  Sb63  1  0.33798988  0.33116625  0.66971300  1
  Sb  Sb64  1  0.50444066  0.66903966  0.82497288  1
  Sb  Sb65  1  -0.00367129  0.32799197  0.33873238  1
  Sb  Sb66  1  0.33251590  0.66680411  0.00461805  1
  Sb  Sb67  1  0.82717638  -0.00356594  0.49670272  1
  Sb  Sb68  1  0.50446667  0.49898404  0.33306900  1
  Sb  Sb69  1  0.49802951  0.84023940  0.00333315  1
  Sb  Sb70  1  0.82949434  0.16232969  0.32870169  1
  Sb  Sb71  1  -0.00523172  0.49881665  0.50370182  1
  Sb  Sb72  1  0.82912571  0.32603503  0.16504046  1
  Sb  Sb73  1  0.34174666  0.83458125  0.49450923  1
  Sb  Sb74  1  0.16666626  0.66926117  0.16353552  1
  Sb  Sb75  1  0.16710542  0.16514150  0.66552309  1
  Sb  Sb76  1  0.33081410  0.50478854  0.83982398  1
  Sb  Sb77  1  0.33812554  0.49920879  0.49343863  1
  Sb  Sb78  1  0.50680478  0.49945583  0.66331401  1
  Sb  Sb79  1  -0.00434374  0.16461456  0.50145506  1
  Sb  Sb80  1  0.00130801  0.66743801  -0.00804847  1
  Sb  Sb81  1  0.83291380  0.00054128  0.83432097  1
  Sb  Sb82  1  0.83034134  0.50690131  0.66559614  1
  Sb  Sb83  1  0.50367893  0.00085076  0.83175911  1
  Sb  Sb84  1  -0.00644164  0.83607019  0.50541889  1
  Sb  Sb85  1  0.50048560  0.67474787  0.17382601  1
  Sb  Sb86  1  0.82682303  0.16169065  0.67038314  1
  Sb  Sb87  1  0.16436571  0.83479407  0.67094335  1
  Sb  Sb88  1  0.16008514  0.33638200  0.83137318  1
  Sb  Sb89  1  0.66371679  0.67132958  0.34247025  1
  Sb  Sb90  1  0.33482042  0.16362943  0.84094882  1
  Sb  Sb91  1  0.33650063  0.00385524  0.00372770  1
  Sb  Sb92  1  0.00279341  0.32916106  -0.00561762  1
  Sb  Sb93  1  0.66974582  0.83648929  0.82888983  1
  Sb  Sb94  1  0.50846876  0.33041801  0.82820117  1
  Sb  Sb95  1  0.16585522  0.66884976  0.50293723  1
  Sb  Sb96  1  0.33956859  0.16650070  0.49200315  1
  Sb  Sb97  1  0.16874905  0.32637016  0.17010162  1
  Sb  Sb98  1  0.16809035  0.83919190  0.32910914  1
  Sb  Sb99  1  0.83468677  0.49496254  0.00049591  1
  Sb  Sb100  1  0.00118877  0.67133898  0.33926689  1
  Sb  Sb101  1  0.82856144  0.67255386  0.16925389  1
  Sb  Sb102  1  0.49842422  0.49066980  0.00270841  1
  Sb  Sb103  1  0.33706843  0.33373661  0.32941417  1
  Sb  Sb104  1  0.50129898  0.32271813  0.17253880  1
  Sb  Sb105  1  -0.00125425  0.84134482  0.16411075  1
  Sb  Sb106  1  0.83549797  0.83894493  -0.00096880  1
  Sb  Sb107  1  0.82704525  0.33727629  0.50460827  1
  Te  Te108  1  0.16697958  0.16615596  0.16836557  1
  Te  Te109  1  0.16768485  0.16493185  0.49815211  1
  Te  Te110  1  0.16574302  0.16706869  0.83430056  1
  Te  Te111  1  0.16737170  0.50023825  0.16679382  1
  Te  Te112  1  0.16760884  0.50062755  0.49514064  1
  Te  Te113  1  0.16403927  0.50432631  0.83666635  1
  Te  Te114  1  0.16818436  0.83666806  0.16110425  1
  Te  Te115  1  0.16802046  0.83787771  0.49945359  1
  Te  Te116  1  0.16430282  0.83097397  0.83706482  1
  Te  Te117  1  0.50112961  0.16282344  0.16995809  1
  Te  Te118  1  0.50202917  0.16317510  0.49514338  1
  Te  Te119  1  0.50333410  0.16686546  0.83829535  1
  Te  Te120  1  0.49903883  0.50249411  0.16613756  1
  Te  Te121  1  0.50540615  0.49837257  0.49935888  1
  Te  Te122  1  0.50566316  0.49976760  0.83380586  1
  Te  Te123  1  0.50064803  0.83939447  0.16920645  1
  Te  Te124  1  0.50333485  0.83742777  0.49835821  1
  Te  Te125  1  0.49619955  0.83283895  0.83403545  1
  Te  Te126  1  0.82920280  0.16230678  0.16260507  1
  Te  Te127  1  0.82511897  0.16853282  0.49915925  1
  Te  Te128  1  0.83275321  0.16624450  0.83606218  1
  Te  Te129  1  0.83223109  0.50037881  0.16907755  1
  Te  Te130  1  0.82871722  0.50495517  0.49357236  1
  Te  Te131  1  0.83398341  0.49965789  0.83524055  1
  Te  Te132  1  0.82947581  0.83918381  0.16803654  1
  Te  Te133  1  0.82811339  0.83066611  0.50024823  1
  Te  Te134  1  0.83741795  0.83042671  0.83127912  1
  Te  Te135  1  0.16669446  0.00156970  0.00321068  1
  Te  Te136  1  0.16748286  0.00184228  0.33192919  1
  Te  Te137  1  0.16335732  0.00060185  0.66331603  1
  Te  Te138  1  0.16927479  0.33284880  -0.00076063  1
  Te  Te139  1  0.16484441  0.33245831  0.33689138  1
  Te  Te140  1  0.16891658  0.33285188  0.66045301  1
  Te  Te141  1  0.16729452  0.66594388  -0.00486719  1
  Te  Te142  1  0.16880620  0.66550171  0.33421343  1
  Te  Te143  1  0.16485058  0.66655418  0.67131206  1
  Te  Te144  1  0.50549282  0.00583047  0.00144773  1
  Te  Te145  1  0.50170779  0.00053006  0.33406989  1
  Te  Te146  1  0.50210164  0.00001416  0.66454408  1
  Te  Te147  1  0.49447497  0.32448512  0.00014660  1
  Te  Te148  1  0.50477151  0.32967165  0.33909486  1
  Te  Te149  1  0.50487598  0.32842526  0.66072855  1
  Te  Te150  1  0.49987807  0.66520862  -0.00152741  1
  Te  Te151  1  0.49466727  0.66841383  0.33911950  1
  Te  Te152  1  0.50485918  0.67153350  0.65902514  1
  Te  Te153  1  0.82864049  0.00468229  0.00489603  1
  Te  Te154  1  0.83325951  -0.00255452  0.33060914  1
  Te  Te155  1  0.83425884  -0.00588713  0.66520371  1
  Te  Te156  1  0.83393179  0.32698240  -0.00607552  1
  Te  Te157  1  0.82869653  0.34005696  0.33371675  1
  Te  Te158  1  0.83057925  0.33219769  0.67046859  1
  Te  Te159  1  0.83404257  0.66655295  -0.00566131  1
  Te  Te160  1  0.83626419  0.66861650  0.33655887  1
  Te  Te161  1  0.83183783  0.66842845  0.66631763  1
  Te  Te162  1  0.00544431  0.16576823  -0.00119058  1
  Te  Te163  1  0.00194136  0.16206995  0.33247712  1
  Te  Te164  1  -0.00053607  0.16507296  0.66918445  1
  Te  Te165  1  0.00586819  0.49819804  -0.00500635  1
  Te  Te166  1  0.00423833  0.49959732  0.33384232  1
  Te  Te167  1  -0.00127948  0.49334660  0.67172756  1
  Te  Te168  1  0.00507710  0.83514138  -0.00597004  1
  Te  Te169  1  -0.00277169  0.84004987  0.33334711  1
  Te  Te170  1  -0.00226982  0.83535745  0.67054927  1
  Te  Te171  1  0.32620968  0.16887099  0.00460702  1
  Te  Te172  1  0.32831996  0.16815179  0.32609614  1
  Te  Te173  1  0.34361834  0.16622148  0.66971617  1
  Te  Te174  1  0.32905662  0.49649981  0.00492462  1
  Te  Te175  1  0.32967248  0.50115753  0.32827996  1
  Te  Te176  1  0.33429469  0.50034309  0.66873120  1
  Te  Te177  1  0.33016463  0.83354441  0.00379115  1
  Te  Te178  1  0.33531770  0.82914024  0.32701353  1
  Te  Te179  1  0.33754543  0.83298018  0.66924202  1
  Te  Te180  1  0.66656261  0.16472188  0.00167936  1
  Te  Te181  1  0.66858149  0.16439897  0.33101216  1
  Te  Te182  1  0.66604671  0.16626961  0.66752955  1
  Te  Te183  1  0.66647608  0.49934701  -0.00444174  1
  Te  Te184  1  0.66722887  0.50507853  0.33533243  1
  Te  Te185  1  0.66697516  0.49189881  0.66705076  1
  Te  Te186  1  0.66695298  0.83960271  0.00097883  1
  Te  Te187  1  0.66723046  0.83291079  0.33517771  1
  Te  Te188  1  0.66748327  0.83453478  0.66835106  1
  Te  Te189  1  0.00691389  0.00441827  0.16896352  1
  Te  Te190  1  0.00322472  0.00077346  0.50007981  1
  Te  Te191  1  -0.00109751  0.00424888  0.82929458  1
  Te  Te192  1  -0.00208898  0.32328406  0.16835502  1
  Te  Te193  1  0.00473463  0.33256442  0.50738024  1
  Te  Te194  1  -0.00374533  0.32846807  0.82837503  1
  Te  Te195  1  -0.00161669  0.66588423  0.16744861  1
  Te  Te196  1  -0.00296865  0.66692763  0.50919248  1
  Te  Te197  1  -0.00185887  0.66600568  0.82934119  1
  Te  Te198  1  0.32768008  0.00105540  0.16547601  1
  Te  Te199  1  0.32766664  0.00019405  0.49934019  1
  Te  Te200  1  0.33213694  -0.00872872  0.83350418  1
  Te  Te201  1  0.33500842  0.33661936  0.16269010  1
  Te  Te202  1  0.33072780  0.33391602  0.50109250  1
  Te  Te203  1  0.33294045  0.33461350  0.83855416  1
  Te  Te204  1  0.33347867  0.66323144  0.17147931  1
  Te  Te205  1  0.33523695  0.66655612  0.49486653  1
  Te  Te206  1  0.33276322  0.67114487  0.83262710  1
  Te  Te207  1  0.66520367  0.00154831  0.17304015  1
  Te  Te208  1  0.66634304  -0.00011865  0.49923536  1
  Te  Te209  1  0.66829969  0.00528720  0.82038369  1
  Te  Te210  1  0.66546662  0.34110735  0.17076178  1
  Te  Te211  1  0.66643808  0.33307206  0.49964809  1
  Te  Te212  1  0.67121346  0.33110845  0.83421249  1
  Te  Te213  1  0.66574506  0.65801284  0.16198120  1
  Te  Te214  1  0.66633941  0.66613075  0.50316906  1
  Te  Te215  1  0.67137766  0.66477398  0.82609843  1
