# generated using pymatgen
data_AgSbTe2
_symmetry_space_group_name_H-M   'P 1'
_cell_length_a   18.30945058
_cell_length_b   18.31299221
_cell_length_c   18.30801713
_cell_angle_alpha   89.99843084
_cell_angle_beta   89.99900009
_cell_angle_gamma   89.99761959
_symmetry_Int_Tables_number   1
_chemical_formula_structural   AgSbTe2
_chemical_formula_sum   'Ag54 Sb54 Te108'
_cell_volume   6138.69325756
_cell_formula_units_Z   54
loop_
 _symmetry_equiv_pos_site_id
 _symmetry_equiv_pos_as_xyz
  1  'x, y, z'
loop_
 _atom_site_type_symbol
 _atom_site_label
 _atom_site_symmetry_multiplicity
 _atom_site_fract_x
 _atom_site_fract_y
 _atom_site_fract_z
 _atom_site_occupancy
  Ag  Ag0  1  0.16911141  0.16910847  0.32800004  1
  Ag  Ag1  1  0.83266044  0.50758951  0.66677376  1
  Ag  Ag2  1  0.17339651  0.49418312  -0.00071576  1
  Ag  Ag3  1  0.17243596  0.32976455  0.49489474  1
  Ag  Ag4  1  0.49330197  0.50028688  0.00215479  1
  Ag  Ag5  1  -0.00351942  0.67181153  0.66829951  1
  Ag  Ag6  1  0.33327903  0.83085685  0.84136784  1
  Ag  Ag7  1  0.16194254  0.83008300  0.66850264  1
  Ag  Ag8  1  0.00920946  -0.00435750  0.00170597  1
  Ag  Ag9  1  0.01372224  0.33215614  0.33213396  1
  Ag  Ag10  1  0.16713854  0.16822260  0.00769207  1
  Ag  Ag11  1  0.49432411  0.00171632  0.49964380  1
  Ag  Ag12  1  0.83862831  0.83055505  0.66911921  1
  Ag  Ag13  1  0.32877153  -0.00029259  0.00659538  1
  Ag  Ag14  1  0.66479582  0.83079926  0.16021044  1
  Ag  Ag15  1  0.17339530  0.67063793  0.16386387  1
  Ag  Ag16  1  0.01128458  0.83466089  0.16293207  1
  Ag  Ag17  1  0.66143257  0.33813217  0.00041761  1
  Ag  Ag18  1  0.16991768  0.83789121  0.32235512  1
  Ag  Ag19  1  0.67053015  0.00202081  0.66585552  1
  Ag  Ag20  1  0.83073192  0.00151557  0.16294266  1
  Ag  Ag21  1  0.49827319  0.50118483  0.66202393  1
  Ag  Ag22  1  0.32881137  0.83770544  0.16363327  1
  Ag  Ag23  1  0.49415279  0.34056687  0.49991532  1
  Ag  Ag24  1  0.00008866  0.16571800  0.50086351  1
  Ag  Ag25  1  0.66948545  0.16730785  0.50353581  1
  Ag  Ag26  1  0.49545749  0.50188085  0.33560752  1
  Ag  Ag27  1  0.49755515  -0.00368087  0.83658616  1
  Ag  Ag28  1  0.83794233  0.16616865  0.00148236  1
  Ag  Ag29  1  0.66328884  0.50293856  0.16137675  1
  Ag  Ag30  1  0.83241992  0.16425454  0.66781280  1
  Ag  Ag31  1  0.33654752  0.49798812  0.50124567  1
  Ag  Ag32  1  0.16784486  0.83406435  0.00555292  1
  Ag  Ag33  1  0.16922826  0.33540644  0.16674000  1
  Ag  Ag34  1  0.00124771  0.67259808  -0.00069783  1
  Ag  Ag35  1  0.33307940  0.66353183  0.33019031  1
  Ag  Ag36  1  -0.00420141  -0.00609665  0.66883017  1
  Ag  Ag37  1  0.32936574  0.33428880  0.32761628  1
  Ag  Ag38  1  0.33277786  0.50350146  0.83365802  1
  Ag  Ag39  1  0.83653698  0.32870627  0.16451161  1
  Ag  Ag40  1  0.49447681  0.66766812  0.16815588  1
  Ag  Ag41  1  0.32766647  0.33516147  0.00619205  1
  Ag  Ag42  1  0.83291525  0.66720819  0.82896083  1
  Ag  Ag43  1  0.83129691  0.66554440  0.50912672  1
  Ag  Ag44  1  0.17011117  0.50118968  0.67016544  1
  Ag  Ag45  1  0.17053206  0.00463959  0.49931899  1
  Ag  Ag46  1  0.33098993  -0.00051315  0.32499515  1
  Ag  Ag47  1  0.33021163  0.16139118  0.16676529  1
  Ag  Ag48  1  0.66851458  0.33209734  0.66876866  1
  Ag  Ag49  1  0.66959929  0.66459110  0.00318152  1
  Ag  Ag50  1  0.66353868  0.83274567  0.83742829  1
  Ag  Ag51  1  0.49405116  -0.00740952  0.16616640  1
  Ag  Ag52  1  0.17091910  0.33687323  0.84162335  1
  Ag  Ag53  1  0.50026488  0.65730505  0.49605266  1
  Sb  Sb54  1  0.50497769  0.16897631  0.66280195  1
  Sb  Sb55  1  0.67209351  0.66690406  0.67025126  1
  Sb  Sb56  1  0.17099976  0.00057512  0.83371120  1
  Sb  Sb57  1  0.65834073  -0.00019199  0.33556069  1
  Sb  Sb58  1  0.00596273  0.33232724  0.00512834  1
  Sb  Sb59  1  0.82769553  0.49994468  0.33637318  1
  Sb  Sb60  1  0.66176426  0.33345699  0.33271686  1
  Sb  Sb61  1  0.00296680  0.83188286  0.83545073  1
  Sb  Sb62  1  0.33412502  0.33657534  0.66506046  1
  Sb  Sb63  1  0.00281979  0.83693492  0.50072847  1
  Sb  Sb64  1  0.33307117  -0.00209285  0.66670856  1
  Sb  Sb65  1  0.33682606  0.50129152  0.16640157  1
  Sb  Sb66  1  -0.00023680  0.50221192  0.16531064  1
  Sb  Sb67  1  0.00894976  0.00265036  0.33098178  1
  Sb  Sb68  1  0.83724933  0.83610645  -0.00270872  1
  Sb  Sb69  1  0.00672887  0.16220174  0.16796468  1
  Sb  Sb70  1  0.49512210  0.82992349  0.00278202  1
  Sb  Sb71  1  0.66731020  0.16294072  0.83094797  1
  Sb  Sb72  1  0.50183344  0.66816909  0.83597851  1
  Sb  Sb73  1  0.83254126  0.66785316  0.16494399  1
  Sb  Sb74  1  0.82984541  -0.00480417  0.83384498  1
  Sb  Sb75  1  0.49972760  0.83034792  0.66723665  1
  Sb  Sb76  1  0.83965258  0.83344081  0.33327939  1
  Sb  Sb77  1  0.17444291  0.49599039  0.33185257  1
  Sb  Sb78  1  0.32962864  0.66504959  0.66318644  1
  Sb  Sb79  1  0.00612115  0.50168185  0.83273786  1
  Sb  Sb80  1  0.66413331  -0.00117842  -0.00191959  1
  Sb  Sb81  1  0.00670000  0.66383823  0.33244057  1
  Sb  Sb82  1  0.49780760  0.16955297  0.00190591  1
  Sb  Sb83  1  0.00592481  0.49689760  0.50189478  1
  Sb  Sb84  1  0.49240317  0.16965418  0.33321463  1
  Sb  Sb85  1  0.83383632  0.49781000  -0.00278379  1
  Sb  Sb86  1  0.33061780  0.66598266  0.00587142  1
  Sb  Sb87  1  0.66451945  0.16637886  0.16885339  1
  Sb  Sb88  1  0.49615002  0.33276757  0.83092657  1
  Sb  Sb89  1  0.17141379  -0.00239020  0.16706107  1
  Sb  Sb90  1  0.83543753  0.33754451  0.83553196  1
  Sb  Sb91  1  -0.00212656  0.33313747  0.66250266  1
  Sb  Sb92  1  0.00079271  0.16542368  0.83209678  1
  Sb  Sb93  1  0.16930781  0.66534215  0.49757196  1
  Sb  Sb94  1  0.65978113  0.66646686  0.32781327  1
  Sb  Sb95  1  0.49161336  0.82939128  0.32964209  1
  Sb  Sb96  1  0.66142514  0.50397953  0.83640333  1
  Sb  Sb97  1  0.33089948  0.16977736  0.49387147  1
  Sb  Sb98  1  0.83503221  -0.00146427  0.50057736  1
  Sb  Sb99  1  0.16506312  0.66398886  0.83880241  1
  Sb  Sb100  1  0.65924984  0.49693500  0.50057236  1
  Sb  Sb101  1  0.33143974  0.16697563  0.84200347  1
  Sb  Sb102  1  0.84008296  0.16709534  0.33246361  1
  Sb  Sb103  1  0.66622730  0.83556548  0.50120871  1
  Sb  Sb104  1  0.16174298  0.16739619  0.66416417  1
  Sb  Sb105  1  0.33187913  0.83152861  0.49700539  1
  Sb  Sb106  1  0.49616134  0.33786128  0.16851253  1
  Sb  Sb107  1  0.83291462  0.33589991  0.49883124  1
  Te  Te108  1  0.16954109  0.16996713  0.16634516  1
  Te  Te109  1  0.16507810  0.16745015  0.49894466  1
  Te  Te110  1  0.16663834  0.17402965  0.83872610  1
  Te  Te111  1  0.16628505  0.49996282  0.16288944  1
  Te  Te112  1  0.17285466  0.49692110  0.50333326  1
  Te  Te113  1  0.17199627  0.49808028  0.83268560  1
  Te  Te114  1  0.16829570  0.83286711  0.16508184  1
  Te  Te115  1  0.16687529  0.83627125  0.50711917  1
  Te  Te116  1  0.17209401  0.83289788  0.83107095  1
  Te  Te117  1  0.49513437  0.15931065  0.16729045  1
  Te  Te118  1  0.50265481  0.16349691  0.49916193  1
  Te  Te119  1  0.49916271  0.15777725  0.83233349  1
  Te  Te120  1  0.50244702  0.50322379  0.16279204  1
  Te  Te121  1  0.49792256  0.50005152  0.50134395  1
  Te  Te122  1  0.49337713  0.49983795  0.83410206  1
  Te  Te123  1  0.50080986  0.83126251  0.16684422  1
  Te  Te124  1  0.50033547  0.83728624  0.49841327  1
  Te  Te125  1  0.49848865  0.83622281  0.83404765  1
  Te  Te126  1  0.83325019  0.16673745  0.16482164  1
  Te  Te127  1  0.83444411  0.16709171  0.50137188  1
  Te  Te128  1  0.83358182  0.16781180  0.83339310  1
  Te  Te129  1  0.82713344  0.49637952  0.16683049  1
  Te  Te130  1  0.83200631  0.50399573  0.50511791  1
  Te  Te131  1  0.83285026  0.50466376  0.82707920  1
  Te  Te132  1  0.82885802  0.83660068  0.16629774  1
  Te  Te133  1  0.83388360  0.82847235  0.50571988  1
  Te  Te134  1  0.82974243  0.82892103  0.82923005  1
  Te  Te135  1  0.16774511  -0.00008113  -0.00086256  1
  Te  Te136  1  0.17103388  0.00049260  0.33729575  1
  Te  Te137  1  0.16365083  -0.00091752  0.66423866  1
  Te  Te138  1  0.16723279  0.33416986  0.00424045  1
  Te  Te139  1  0.17067615  0.33447239  0.33292062  1
  Te  Te140  1  0.16551704  0.33672167  0.66071761  1
  Te  Te141  1  0.16378025  0.66945140  0.00351019  1
  Te  Te142  1  0.17162671  0.66905878  0.32873716  1
  Te  Te143  1  0.16161437  0.66519356  0.66636216  1
  Te  Te144  1  0.49509857  0.00089034  0.00230479  1
  Te  Te145  1  0.49207897  -0.00031936  0.33317704  1
  Te  Te146  1  0.50296433  -0.00096643  0.66191094  1
  Te  Te147  1  0.49987992  0.33762516  -0.00058466  1
  Te  Te148  1  0.49419823  0.33742589  0.33815785  1
  Te  Te149  1  0.50443136  0.33725069  0.66352600  1
  Te  Te150  1  0.50484091  0.66127278  0.00325565  1
  Te  Te151  1  0.49467049  0.66329841  0.33226470  1
  Te  Te152  1  0.50084985  0.66165345  0.66272497  1
  Te  Te153  1  0.83364571  0.00446090  0.00174862  1
  Te  Te154  1  0.83347603  -0.00006187  0.32620231  1
  Te  Te155  1  0.83363122  0.00027548  0.66590956  1
  Te  Te156  1  0.83526436  0.33006045  0.00321377  1
  Te  Te157  1  0.83315445  0.33413603  0.32625487  1
  Te  Te158  1  0.82919458  0.33098441  0.66714429  1
  Te  Te159  1  0.83505614  0.66664164  -0.00254806  1
  Te  Te160  1  0.83530691  0.66640573  0.34091200  1
  Te  Te161  1  0.83407933  0.66726147  0.66746240  1
  Te  Te162  1  0.00093821  0.16211642  0.00028670  1
  Te  Te163  1  0.00716268  0.17018673  0.33756070  1
  Te  Te164  1  -0.00581961  0.16285955  0.66254634  1
  Te  Te165  1  0.00610925  0.50634933  -0.00049124  1
  Te  Te166  1  -0.00209713  0.49307682  0.33367870  1
  Te  Te167  1  0.00030612  0.50365847  0.66652359  1
  Te  Te168  1  0.00377550  0.83430595  0.00143588  1
  Te  Te169  1  0.00813643  0.83255817  0.32727470  1
  Te  Te170  1  0.00018910  0.83349920  0.66736645  1
  Te  Te171  1  0.33008925  0.16762797  0.00589409  1
  Te  Te172  1  0.32728792  0.16754725  0.32819798  1
  Te  Te173  1  0.33264949  0.16724446  0.66837786  1
  Te  Te174  1  0.33226435  0.49987317  -0.00082339  1
  Te  Te175  1  0.33746366  0.49882961  0.33499848  1
  Te  Te176  1  0.33195039  0.49990150  0.66725429  1
  Te  Te177  1  0.32953836  0.83325250  0.00121101  1
  Te  Te178  1  0.32764815  0.83542920  0.33027668  1
  Te  Te179  1  0.32840460  0.83253633  0.67150877  1
  Te  Te180  1  0.67055149  0.17169932  0.00051922  1
  Te  Te181  1  0.66770350  0.16649192  0.34162849  1
  Te  Te182  1  0.67115613  0.16610224  0.66489231  1
  Te  Te183  1  0.66762583  0.49885208  0.00140896  1
  Te  Te184  1  0.65841573  0.49934494  0.32581150  1
  Te  Te185  1  0.66564666  0.49721523  0.66825149  1
  Te  Te186  1  0.66700333  0.83150325  -0.00052183  1
  Te  Te187  1  0.66927877  0.83399284  0.32610980  1
  Te  Te188  1  0.66798487  0.83614888  0.66901413  1
  Te  Te189  1  -0.00402734  -0.00380633  0.16367296  1
  Te  Te190  1  0.00318704  0.00389256  0.50180890  1
  Te  Te191  1  -0.00024809  -0.00117432  0.83293389  1
  Te  Te192  1  0.00111077  0.33276600  0.17139799  1
  Te  Te193  1  0.00248956  0.32933629  0.49492051  1
  Te  Te194  1  0.00875623  0.33394942  0.83287180  1
  Te  Te195  1  0.00135474  0.67141172  0.16435711  1
  Te  Te196  1  -0.00214924  0.66573698  0.50312052  1
  Te  Te197  1  -0.00500100  0.66733474  0.83289558  1
  Te  Te198  1  0.33326290  -0.00206125  0.16529258  1
  Te  Te199  1  0.33233325  0.00035673  0.49817095  1
  Te  Te200  1  0.33787717  -0.00314686  0.83733234  1
  Te  Te201  1  0.33174574  0.33323693  0.16587382  1
  Te  Te202  1  0.33414083  0.33527114  0.49877123  1
  Te  Te203  1  0.32973131  0.33626000  0.83812630  1
  Te  Te204  1  0.33446548  0.66938780  0.16995711  1
  Te  Te205  1  0.33821851  0.66300699  0.49448540  1
  Te  Te206  1  0.33371029  0.66787033  0.83306271  1
  Te  Te207  1  0.66537743  -0.00315464  0.16701745  1
  Te  Te208  1  0.66465175  0.00279092  0.50365827  1
  Te  Te209  1  0.66184597  -0.00526241  0.82923291  1
  Te  Te210  1  0.66598338  0.33371066  0.16337082  1
  Te  Te211  1  0.66361847  0.32966722  0.50197155  1
  Te  Te212  1  0.66573574  0.33361024  0.83442383  1
  Te  Te213  1  0.66562014  0.66765751  0.16268827  1
  Te  Te214  1  0.66275147  0.66679717  0.49792701  1
  Te  Te215  1  0.66918444  0.67152995  0.83947951  1
