# generated using pymatgen
data_AgSbTe2
_symmetry_space_group_name_H-M   'P 1'
_cell_length_a   18.35468334
_cell_length_b   18.35655121
_cell_length_c   18.35682475
_cell_angle_alpha   89.99817905
_cell_angle_beta   90.00036828
_cell_angle_gamma   90.00101544
_symmetry_Int_Tables_number   1
_chemical_formula_structural   AgSbTe2
_chemical_formula_sum   'Ag54 Sb54 Te108'
_cell_volume   6184.94081401
_cell_formula_units_Z   54
loop_
 _symmetry_equiv_pos_site_id
 _symmetry_equiv_pos_as_xyz
  1  'x, y, z'
loop_
 _atom_site_type_symbol
 _atom_site_label
 _atom_site_symmetry_multiplicity
 _atom_site_fract_x
 _atom_site_fract_y
 _atom_site_fract_z
 _atom_site_occupancy
  Ag  Ag0  1  0.66458400  0.00189802  -0.00101116  1
  Ag  Ag1  1  0.66476469  -0.00912750  0.31853679  1
  Ag  Ag2  1  0.66597734  0.33848415  0.67722586  1
  Ag  Ag3  1  0.50646103  0.49349721  0.66771884  1
  Ag  Ag4  1  0.82336378  0.34160307  0.15652551  1
  Ag  Ag5  1  0.83077083  0.66146024  0.49698648  1
  Ag  Ag6  1  0.17047035  0.49322958  0.00457576  1
  Ag  Ag7  1  0.82179083  0.00087229  0.16112291  1
  Ag  Ag8  1  0.50354612  -0.00110271  0.16437251  1
  Ag  Ag9  1  0.82576577  0.01346389  0.84294254  1
  Ag  Ag10  1  0.82509173  0.34282800  0.50283185  1
  Ag  Ag11  1  0.66406960  0.83386943  0.83518460  1
  Ag  Ag12  1  0.66353358  0.17695268  0.83458533  1
  Ag  Ag13  1  0.50342409  0.49998002  0.33190694  1
  Ag  Ag14  1  0.34374490  0.01029898  0.00061659  1
  Ag  Ag15  1  0.82560070  0.83303803  0.66859094  1
  Ag  Ag16  1  0.82472427  0.49279776  0.66652178  1
  Ag  Ag17  1  0.66620361  0.66360893  0.32426292  1
  Ag  Ag18  1  0.17267813  0.50538165  0.32499690  1
  Ag  Ag19  1  0.16696909  0.83622230  0.66410015  1
  Ag  Ag20  1  0.17202722  -0.00119353  0.16377101  1
  Ag  Ag21  1  0.50087380  0.83304340  0.00045124  1
  Ag  Ag22  1  -0.01689175  0.33345614  0.00135626  1
  Ag  Ag23  1  0.33982789  0.33589143  0.32256911  1
  Ag  Ag24  1  0.17104996  0.16627503  0.67516439  1
  Ag  Ag25  1  0.82232242  0.49252999  0.00293066  1
  Ag  Ag26  1  0.66817281  0.49916422  0.49747065  1
  Ag  Ag27  1  0.50446817  0.33465095  0.83892094  1
  Ag  Ag28  1  0.34288475  0.16959587  0.83654752  1
  Ag  Ag29  1  0.81888351  0.33004011  0.84312905  1
  Ag  Ag30  1  0.66478305  0.49099504  0.83820573  1
  Ag  Ag31  1  0.50437141  0.33467574  0.16084845  1
  Ag  Ag32  1  0.50423587  0.83284707  0.67770487  1
  Ag  Ag33  1  0.34459038  0.83568980  0.83704267  1
  Ag  Ag34  1  0.17737032  0.17319555  -0.00291666  1
  Ag  Ag35  1  0.50454332  0.66292346  0.16492500  1
  Ag  Ag36  1  0.16232480  0.66686412  0.49585889  1
  Ag  Ag37  1  0.34499870  0.65968905  -0.00083806  1
  Ag  Ag38  1  0.50092556  0.82722273  0.32438968  1
  Ag  Ag39  1  0.17315307  0.82697845  0.33613485  1
  Ag  Ag40  1  0.33633776  0.16757333  0.15470868  1
  Ag  Ag41  1  -0.00281024  0.83429252  0.16823033  1
  Ag  Ag42  1  0.33993800  0.33038261  0.00128436  1
  Ag  Ag43  1  0.66467072  0.65488933  0.00401051  1
  Ag  Ag44  1  0.50545097  0.17653454  0.67089985  1
  Ag  Ag45  1  0.66597913  0.33809873  -0.00825608  1
  Ag  Ag46  1  -0.00073462  0.83011945  0.49436940  1
  Ag  Ag47  1  0.82052385  0.50032323  0.32832294  1
  Ag  Ag48  1  0.34465115  0.48984858  0.83783254  1
  Ag  Ag49  1  0.50577294  0.33738444  0.50863783  1
  Ag  Ag50  1  0.82698736  0.17730306  -0.00307990  1
  Ag  Ag51  1  0.82229414  0.17491610  0.67750237  1
  Ag  Ag52  1  0.66620787  0.50147533  0.16427924  1
  Ag  Ag53  1  0.82339881  0.65855478  0.16845082  1
  Sb  Sb54  1  0.82885806  0.17168879  0.32784640  1
  Sb  Sb55  1  -0.00275729  0.16450181  0.50348836  1
  Sb  Sb56  1  0.50509134  0.00102416  0.83981510  1
  Sb  Sb57  1  0.17165717  0.66706190  0.83191026  1
  Sb  Sb58  1  -0.00389863  0.00322662  0.00178425  1
  Sb  Sb59  1  0.66263488  0.16945981  0.16029519  1
  Sb  Sb60  1  0.66217270  0.33983927  0.33008897  1
  Sb  Sb61  1  0.00111552  0.16519165  0.16299313  1
  Sb  Sb62  1  0.33560123  0.66714276  0.67156265  1
  Sb  Sb63  1  0.50303523  0.50077863  -0.00058380  1
  Sb  Sb64  1  -0.00376944  0.83416263  0.83479268  1
  Sb  Sb65  1  -0.00577223  0.66706459  0.33302783  1
  Sb  Sb66  1  0.33789558  0.66410879  0.32842873  1
  Sb  Sb67  1  0.17058892  0.16650718  0.32929471  1
  Sb  Sb68  1  0.66631160  0.65952448  0.66944458  1
  Sb  Sb69  1  -0.01153569  0.33242237  0.67101860  1
  Sb  Sb70  1  0.33552529  0.00021045  0.67489013  1
  Sb  Sb71  1  0.16880603  0.33229437  0.16221269  1
  Sb  Sb72  1  0.34272899  0.33313018  0.67118526  1
  Sb  Sb73  1  0.16529836  0.00228489  0.83735140  1
  Sb  Sb74  1  -0.00418742  0.66257600  0.00320503  1
  Sb  Sb75  1  -0.00991165  0.50292955  0.49835483  1
  Sb  Sb76  1  0.82854491  0.82866292  0.33266053  1
  Sb  Sb77  1  0.66662248  0.82845054  0.16103259  1
  Sb  Sb78  1  -0.00750239  0.49646456  0.83664778  1
  Sb  Sb79  1  0.17040945  0.33194560  0.83500758  1
  Sb  Sb80  1  0.16985599  0.50005761  0.66918640  1
  Sb  Sb81  1  0.50378318  0.66236629  0.49495233  1
  Sb  Sb82  1  0.50099689  0.16668116  -0.00380541  1
  Sb  Sb83  1  -0.00851373  0.50268655  0.16578307  1
  Sb  Sb84  1  0.33201857  0.83173005  0.50463035  1
  Sb  Sb85  1  0.50216846  0.17250713  0.33460025  1
  Sb  Sb86  1  -0.00602282  0.16846966  0.83587423  1
  Sb  Sb87  1  0.83038253  -0.00149066  0.49913231  1
  Sb  Sb88  1  -0.00102304  -0.00118333  0.66666882  1
  Sb  Sb89  1  0.34152392  0.49557475  0.16197293  1
  Sb  Sb90  1  0.16678780  -0.00491036  0.49600252  1
  Sb  Sb91  1  0.33645938  0.83632866  0.16151956  1
  Sb  Sb92  1  -0.00510896  -0.00473181  0.32998489  1
  Sb  Sb93  1  0.66699724  0.17324649  0.50543828  1
  Sb  Sb94  1  0.16818821  0.66845113  0.16834828  1
  Sb  Sb95  1  0.50191533  0.00146996  0.49511530  1
  Sb  Sb96  1  0.66966501  0.82705981  0.50316290  1
  Sb  Sb97  1  0.17395627  0.83357199  0.00079144  1
  Sb  Sb98  1  0.82808340  0.66159982  0.83434271  1
  Sb  Sb99  1  0.82605392  0.83216489  -0.00124820  1
  Sb  Sb100  1  0.50130572  0.66380288  0.83923123  1
  Sb  Sb101  1  0.16817018  0.33832942  0.49999154  1
  Sb  Sb102  1  0.33514415  0.17000895  0.50448579  1
  Sb  Sb103  1  0.33815842  0.00216225  0.32349640  1
  Sb  Sb104  1  -0.00340184  0.66805987  0.66447166  1
  Sb  Sb105  1  0.66679747  0.00228917  0.67097638  1
  Sb  Sb106  1  -0.00065167  0.33646086  0.32777033  1
  Sb  Sb107  1  0.33849457  0.49967226  0.50101885  1
  Te  Te108  1  0.17058608  0.16412446  0.16274239  1
  Te  Te109  1  0.16591748  0.16624653  0.50343618  1
  Te  Te110  1  0.16867408  0.16570083  0.83583774  1
  Te  Te111  1  0.16509650  0.50012631  0.16596929  1
  Te  Te112  1  0.16710845  0.50576103  0.50213003  1
  Te  Te113  1  0.16967358  0.49969533  0.83585714  1
  Te  Te114  1  0.16647301  0.83424903  0.16908552  1
  Te  Te115  1  0.16616737  0.83068118  0.49975331  1
  Te  Te116  1  0.16478678  0.83491815  0.82737903  1
  Te  Te117  1  0.49492840  0.16770146  0.17088321  1
  Te  Te118  1  0.50003006  0.17337083  0.50824722  1
  Te  Te119  1  0.50172175  0.16516280  0.82950708  1
  Te  Te120  1  0.50424821  0.49862370  0.17070076  1
  Te  Te121  1  0.50418476  0.49704745  0.50082543  1
  Te  Te122  1  0.50251840  0.49926171  0.83017575  1
  Te  Te123  1  0.50058773  0.83549578  0.16544866  1
  Te  Te124  1  0.49992531  0.83318355  0.49840242  1
  Te  Te125  1  0.50090529  0.83455646  0.83613559  1
  Te  Te126  1  0.83328838  0.16300254  0.16091459  1
  Te  Te127  1  0.83435587  0.16750150  0.50503041  1
  Te  Te128  1  0.83078791  0.16921272  0.83458257  1
  Te  Te129  1  0.83081589  0.49914317  0.16597714  1
  Te  Te130  1  0.83073521  0.50219871  0.50095670  1
  Te  Te131  1  0.82761638  0.49578354  0.83510787  1
  Te  Te132  1  0.83562955  0.83984875  0.16801119  1
  Te  Te133  1  0.83711804  0.83150052  0.50205780  1
  Te  Te134  1  0.83291955  0.82912875  0.82830092  1
  Te  Te135  1  0.16299591  0.00179187  0.00440781  1
  Te  Te136  1  0.16819038  -0.00297001  0.32708975  1
  Te  Te137  1  0.16756404  -0.00045935  0.66622066  1
  Te  Te138  1  0.17911578  0.33272336  -0.00065673  1
  Te  Te139  1  0.17006339  0.33630414  0.33333724  1
  Te  Te140  1  0.16421639  0.33015514  0.66602570  1
  Te  Te141  1  0.16527679  0.66341337  0.00059578  1
  Te  Te142  1  0.16943024  0.66791149  0.33456112  1
  Te  Te143  1  0.16726948  0.66981419  0.66231937  1
  Te  Te144  1  0.50150849  -0.00239985  0.00262340  1
  Te  Te145  1  0.50414132  -0.00292957  0.32825187  1
  Te  Te146  1  0.49889425  -0.00845536  0.66306749  1
  Te  Te147  1  0.50252049  0.33328478  -0.00117160  1
  Te  Te148  1  0.49746183  0.33669295  0.32686533  1
  Te  Te149  1  0.50360451  0.33461278  0.66853371  1
  Te  Te150  1  0.50255461  0.66994025  0.00400608  1
  Te  Te151  1  0.50327061  0.66510172  0.32931747  1
  Te  Te152  1  0.50015244  0.67406747  0.66331143  1
  Te  Te153  1  0.83076450  -0.00265523  0.00086592  1
  Te  Te154  1  0.82615246  0.00118398  0.32859163  1
  Te  Te155  1  0.83385920  -0.00335950  0.66674061  1
  Te  Te156  1  0.82710788  0.33419942  0.00087017  1
  Te  Te157  1  0.83540384  0.33963495  0.33932309  1
  Te  Te158  1  0.82883009  0.33282709  0.66279417  1
  Te  Te159  1  0.82909875  0.66291206  0.00557475  1
  Te  Te160  1  0.82808107  0.66264280  0.33145515  1
  Te  Te161  1  0.83277681  0.67087699  0.66364332  1
  Te  Te162  1  0.00317575  0.17294348  0.00125611  1
  Te  Te163  1  0.00052987  0.16552971  0.33472046  1
  Te  Te164  1  0.00900982  0.16639652  0.66748452  1
  Te  Te165  1  0.00931356  0.49485573  0.00057411  1
  Te  Te166  1  0.01393600  0.50044407  0.33284087  1
  Te  Te167  1  -0.00528049  0.49962591  0.66751469  1
  Te  Te168  1  0.00237648  0.83251492  0.00568386  1
  Te  Te169  1  0.00554342  0.83273433  0.33307041  1
  Te  Te170  1  0.00486837  0.83304505  0.66505035  1
  Te  Te171  1  0.33713057  0.16688713  -0.00215975  1
  Te  Te172  1  0.33371903  0.17266760  0.33466478  1
  Te  Te173  1  0.33231898  0.16616575  0.67243590  1
  Te  Te174  1  0.33272112  0.50079039  -0.00188807  1
  Te  Te175  1  0.33370609  0.49677819  0.33403860  1
  Te  Te176  1  0.33906105  0.50067033  0.67478274  1
  Te  Te177  1  0.33740328  0.83181273  -0.00313534  1
  Te  Te178  1  0.33555625  0.83303841  0.33453858  1
  Te  Te179  1  0.33291033  0.83359962  0.67229103  1
  Te  Te180  1  0.66904239  0.16550474  -0.00411084  1
  Te  Te181  1  0.66740955  0.15644467  0.33713012  1
  Te  Te182  1  0.66582779  0.16810833  0.67118753  1
  Te  Te183  1  0.66484853  0.49879928  0.00041546  1
  Te  Te184  1  0.66448905  0.49976987  0.32817361  1
  Te  Te185  1  0.66682530  0.50024809  0.67158359  1
  Te  Te186  1  0.66295249  0.84096225  -0.00349893  1
  Te  Te187  1  0.66164169  0.82970876  0.33569952  1
  Te  Te188  1  0.66652537  0.83302733  0.66937338  1
  Te  Te189  1  0.00318930  -0.00399842  0.16794861  1
  Te  Te190  1  -0.00005393  -0.00883176  0.49786886  1
  Te  Te191  1  -0.01272346  -0.00052661  0.83352128  1
  Te  Te192  1  -0.00726891  0.33358088  0.16144041  1
  Te  Te193  1  -0.00488891  0.33244962  0.49978208  1
  Te  Te194  1  -0.00417127  0.33344558  0.84033256  1
  Te  Te195  1  -0.00518380  0.67382915  0.16711842  1
  Te  Te196  1  -0.00102311  0.67156582  0.49902924  1
  Te  Te197  1  0.00162958  0.66562806  0.83370392  1
  Te  Te198  1  0.33405745  0.00362298  0.16113994  1
  Te  Te199  1  0.33303995  0.00156785  0.49882309  1
  Te  Te200  1  0.33098601  -0.00073547  0.84197395  1
  Te  Te201  1  0.33443129  0.33013952  0.16458016  1
  Te  Te202  1  0.33661351  0.33401320  0.49824148  1
  Te  Te203  1  0.33668820  0.33157572  0.83661102  1
  Te  Te204  1  0.33774088  0.66569277  0.16015345  1
  Te  Te205  1  0.32781127  0.66577374  0.49953249  1
  Te  Te206  1  0.33471763  0.67296805  0.83996503  1
  Te  Te207  1  0.66383413  0.00348039  0.16261967  1
  Te  Te208  1  0.66588121  -0.00032851  0.49773252  1
  Te  Te209  1  0.67001845  -0.00679062  0.83549707  1
  Te  Te210  1  0.66596420  0.33356612  0.16422299  1
  Te  Te211  1  0.66482615  0.33897962  0.49531695  1
  Te  Te212  1  0.66397007  0.33324224  0.83152179  1
  Te  Te213  1  0.66553170  0.66792755  0.16435533  1
  Te  Te214  1  0.67035053  0.66013731  0.49941186  1
  Te  Te215  1  0.66649958  0.67428671  0.84071408  1
