# generated using pymatgen
data_AgSbTe2
_symmetry_space_group_name_H-M   'P 1'
_cell_length_a   18.32745548
_cell_length_b   18.32795636
_cell_length_c   18.32923988
_cell_angle_alpha   89.99960093
_cell_angle_beta   89.99931556
_cell_angle_gamma   90.00139742
_symmetry_Int_Tables_number   1
_chemical_formula_structural   AgSbTe2
_chemical_formula_sum   'Ag54 Sb54 Te108'
_cell_volume   6156.87973159
_cell_formula_units_Z   54
loop_
 _symmetry_equiv_pos_site_id
 _symmetry_equiv_pos_as_xyz
  1  'x, y, z'
loop_
 _atom_site_type_symbol
 _atom_site_label
 _atom_site_symmetry_multiplicity
 _atom_site_fract_x
 _atom_site_fract_y
 _atom_site_fract_z
 _atom_site_occupancy
  Ag  Ag0  1  0.50031245  -0.00092872  0.16268525  1
  Ag  Ag1  1  0.67486743  0.16502722  0.83769309  1
  Ag  Ag2  1  0.66014681  0.49959131  0.49700894  1
  Ag  Ag3  1  0.66754394  0.33511627  0.67599745  1
  Ag  Ag4  1  -0.00043822  0.00351916  0.66756190  1
  Ag  Ag5  1  0.33480757  0.50431428  0.49500190  1
  Ag  Ag6  1  0.83035875  0.67410920  0.16817624  1
  Ag  Ag7  1  0.49616486  0.33899764  0.49490230  1
  Ag  Ag8  1  0.49398247  0.66273854  0.49123691  1
  Ag  Ag9  1  0.32030597  0.00338378  0.00184508  1
  Ag  Ag10  1  0.16162965  -0.00259269  0.49647083  1
  Ag  Ag11  1  0.16131583  0.83103869  0.33381456  1
  Ag  Ag12  1  0.50067938  0.84010686  0.00279050  1
  Ag  Ag13  1  0.50283905  0.66538021  0.83966262  1
  Ag  Ag14  1  0.50307791  0.66551406  0.16894406  1
  Ag  Ag15  1  0.33751307  0.49925204  0.16795321  1
  Ag  Ag16  1  0.83993703  0.00324689  0.84252340  1
  Ag  Ag17  1  0.15621411  0.00546272  0.84724021  1
  Ag  Ag18  1  -0.00059615  -0.00237003  0.32238554  1
  Ag  Ag19  1  0.16632942  0.84477573  0.00625204  1
  Ag  Ag20  1  0.17184497  0.67429200  0.49371756  1
  Ag  Ag21  1  0.33731611  0.50022892  0.83557044  1
  Ag  Ag22  1  0.32787744  0.66537540  0.33540134  1
  Ag  Ag23  1  0.15799457  0.16546856  0.67670887  1
  Ag  Ag24  1  0.16030100  0.15828248  -0.00330975  1
  Ag  Ag25  1  0.17048739  0.33160673  0.49804842  1
  Ag  Ag26  1  0.50023254  0.16233992  0.00160263  1
  Ag  Ag27  1  0.67895999  -0.00475636  0.33125256  1
  Ag  Ag28  1  0.66016302  0.32974565  -0.00299223  1
  Ag  Ag29  1  0.49635995  0.33476432  0.16454496  1
  Ag  Ag30  1  0.16952201  0.32209493  0.83953767  1
  Ag  Ag31  1  0.00257312  0.15764743  0.50113909  1
  Ag  Ag32  1  0.83637478  0.16024382  0.32466205  1
  Ag  Ag33  1  0.00887026  0.67822858  0.33309123  1
  Ag  Ag34  1  0.83317552  0.84437831  -0.00042899  1
  Ag  Ag35  1  0.66109978  0.50174638  0.16894579  1
  Ag  Ag36  1  0.15482274  0.00236639  0.15836695  1
  Ag  Ag37  1  0.33529239  0.32822928  0.00291696  1
  Ag  Ag38  1  0.32237632  0.82479777  0.49768447  1
  Ag  Ag39  1  -0.00074820  0.15610156  0.16285060  1
  Ag  Ag40  1  0.84400963  -0.00198169  0.15872815  1
  Ag  Ag41  1  0.17112060  0.32690493  0.16352426  1
  Ag  Ag42  1  0.83451964  0.84177519  0.67261879  1
  Ag  Ag43  1  0.00568685  0.00202705  0.00832112  1
  Ag  Ag44  1  0.16736707  0.50862070  0.33570704  1
  Ag  Ag45  1  0.66960565  0.83919369  0.83689235  1
  Ag  Ag46  1  0.83937967  0.16086509  -0.00316974  1
  Ag  Ag47  1  -0.00227537  0.16039185  0.83531422  1
  Ag  Ag48  1  0.00599597  0.84208066  0.49035730  1
  Ag  Ag49  1  0.66401069  0.49732195  0.83209964  1
  Ag  Ag50  1  0.82906493  0.49685811  0.66722050  1
  Ag  Ag51  1  0.00254132  0.84342706  0.17156555  1
  Ag  Ag52  1  0.66536748  0.66860191  0.33066433  1
  Ag  Ag53  1  0.83966499  0.16211536  0.67255440  1
  Sb  Sb54  1  0.49915622  0.33630585  0.83870083  1
  Sb  Sb55  1  0.17079437  0.66895257  0.83009549  1
  Sb  Sb56  1  0.50565011  0.83297084  0.67002719  1
  Sb  Sb57  1  0.66838291  0.66095380  0.66421989  1
  Sb  Sb58  1  0.50722181  0.16474926  0.32597363  1
  Sb  Sb59  1  0.66835668  0.82993944  0.50155242  1
  Sb  Sb60  1  0.84000404  0.83702161  0.32908917  1
  Sb  Sb61  1  -0.00099213  0.49226273  0.83192532  1
  Sb  Sb62  1  0.16760052  0.66932509  0.17354368  1
  Sb  Sb63  1  0.49971856  0.49805239  0.00287349  1
  Sb  Sb64  1  0.00265746  0.32761546  0.33289871  1
  Sb  Sb65  1  0.50337323  0.16876915  0.67219619  1
  Sb  Sb66  1  0.33341599  0.66587111  0.65872612  1
  Sb  Sb67  1  0.83183710  0.32403849  0.83331487  1
  Sb  Sb68  1  0.16894904  0.49664131  0.00403064  1
  Sb  Sb69  1  0.49513632  0.50329802  0.33298721  1
  Sb  Sb70  1  0.32470576  0.16922898  0.49954739  1
  Sb  Sb71  1  0.50420632  0.49928771  0.66472232  1
  Sb  Sb72  1  -0.00214705  0.32316703  0.66662889  1
  Sb  Sb73  1  0.67135931  0.16735548  0.16052595  1
  Sb  Sb74  1  0.33484187  0.66709551  0.00564349  1
  Sb  Sb75  1  0.67067545  0.83198267  0.16262409  1
  Sb  Sb76  1  0.82931408  0.49798031  -0.00243927  1
  Sb  Sb77  1  0.49647070  0.83076691  0.32792302  1
  Sb  Sb78  1  0.32351898  -0.00002252  0.67149454  1
  Sb  Sb79  1  0.82866737  0.67290382  0.83830224  1
  Sb  Sb80  1  0.83405657  0.66790064  0.49437473  1
  Sb  Sb81  1  0.84278190  0.00047264  0.49697116  1
  Sb  Sb82  1  0.32783563  0.16944094  0.16397820  1
  Sb  Sb83  1  0.33549836  0.33461535  0.66945325  1
  Sb  Sb84  1  0.49361916  -0.00137163  0.49360132  1
  Sb  Sb85  1  0.33043469  0.33971350  0.32891792  1
  Sb  Sb86  1  0.67130515  0.00434732  0.00430919  1
  Sb  Sb87  1  0.33660075  0.83004735  0.83376229  1
  Sb  Sb88  1  0.16279728  0.49292602  0.66181324  1
  Sb  Sb89  1  0.66541685  0.33575031  0.33094854  1
  Sb  Sb90  1  0.00422488  0.32198603  0.00052994  1
  Sb  Sb91  1  -0.00396021  0.84264007  0.83559450  1
  Sb  Sb92  1  0.67590656  0.00411616  0.66480234  1
  Sb  Sb93  1  0.50154331  -0.00168111  0.84131634  1
  Sb  Sb94  1  0.32873034  0.16949926  0.83860600  1
  Sb  Sb95  1  0.32907783  0.83081754  0.16842532  1
  Sb  Sb96  1  0.00197555  0.50125801  0.16807237  1
  Sb  Sb97  1  0.15974556  0.16197105  0.32959731  1
  Sb  Sb98  1  0.16012456  0.84073977  0.66298805  1
  Sb  Sb99  1  0.66470772  0.66473348  0.00358047  1
  Sb  Sb100  1  0.83279390  0.32966347  0.16418483  1
  Sb  Sb101  1  0.83390561  0.33233916  0.50216544  1
  Sb  Sb102  1  0.67093282  0.17111925  0.50284887  1
  Sb  Sb103  1  0.32501833  -0.00629714  0.32654987  1
  Sb  Sb104  1  -0.00047112  0.67944914  0.00709979  1
  Sb  Sb105  1  -0.00159447  0.67421287  0.66106635  1
  Sb  Sb106  1  0.83576463  0.49967331  0.33513957  1
  Sb  Sb107  1  0.00280924  0.50058335  0.49871633  1
  Te  Te108  1  0.16250099  0.16535096  0.16407267  1
  Te  Te109  1  0.16267973  0.16857587  0.49653167  1
  Te  Te110  1  0.16710304  0.16468736  0.83625957  1
  Te  Te111  1  0.17017116  0.49805096  0.17139228  1
  Te  Te112  1  0.16947955  0.49601894  0.49785058  1
  Te  Te113  1  0.16892288  0.49914097  0.83241850  1
  Te  Te114  1  0.16469982  0.83574080  0.16626389  1
  Te  Te115  1  0.16472447  0.83357752  0.50196607  1
  Te  Te116  1  0.16765291  0.83682078  0.83445959  1
  Te  Te117  1  0.50108157  0.16979609  0.16108341  1
  Te  Te118  1  0.49945284  0.17020035  0.50078753  1
  Te  Te119  1  0.50593819  0.16729150  0.83960089  1
  Te  Te120  1  0.50043405  0.49991884  0.16733243  1
  Te  Te121  1  0.49884162  0.50042498  0.49953226  1
  Te  Te122  1  0.50043153  0.50357458  0.83288589  1
  Te  Te123  1  0.49953831  0.83165751  0.16167022  1
  Te  Te124  1  0.49826363  0.82905186  0.50090248  1
  Te  Te125  1  0.50434820  0.82878831  0.83783182  1
  Te  Te126  1  0.83794961  0.16415409  0.16401518  1
  Te  Te127  1  0.83833217  0.16764803  0.50786111  1
  Te  Te128  1  0.83466179  0.16416373  0.83475794  1
  Te  Te129  1  0.82914384  0.50131784  0.16637711  1
  Te  Te130  1  0.82853858  0.50021362  0.50434914  1
  Te  Te131  1  0.82965700  0.50131521  0.82938812  1
  Te  Te132  1  0.83613998  0.83605155  0.16382449  1
  Te  Te133  1  0.83664973  0.83258831  0.50640503  1
  Te  Te134  1  0.83038606  0.83708246  0.83679502  1
  Te  Te135  1  0.16506520  0.00023878  0.00223834  1
  Te  Te136  1  0.16198595  -0.00474864  0.33471284  1
  Te  Te137  1  0.16149674  0.00618242  0.66023890  1
  Te  Te138  1  0.17000962  0.33182585  0.00181223  1
  Te  Te139  1  0.16680706  0.33469860  0.33224789  1
  Te  Te140  1  0.16736756  0.32689384  0.66529036  1
  Te  Te141  1  0.16673497  0.67211581  -0.00147665  1
  Te  Te142  1  0.16679641  0.66921068  0.33499578  1
  Te  Te143  1  0.16515152  0.66553389  0.65929712  1
  Te  Te144  1  0.50464814  0.00052310  0.00384669  1
  Te  Te145  1  0.50014637  -0.00108081  0.32569292  1
  Te  Te146  1  0.49923664  0.00111520  0.66551902  1
  Te  Te147  1  0.49832309  0.33145501  0.00339055  1
  Te  Te148  1  0.49946098  0.33169507  0.33212054  1
  Te  Te149  1  0.50591852  0.33205215  0.65948218  1
  Te  Te150  1  0.49895529  0.67192390  0.00231152  1
  Te  Te151  1  0.50382528  0.66757538  0.33190883  1
  Te  Te152  1  0.50067855  0.66750058  0.66685126  1
  Te  Te153  1  0.83131021  0.00082220  0.00068454  1
  Te  Te154  1  0.83583516  0.00174521  0.33126562  1
  Te  Te155  1  0.83723262  0.00180847  0.66792311  1
  Te  Te156  1  0.82968160  0.32851985  -0.00021630  1
  Te  Te157  1  0.83419472  0.32498910  0.33344437  1
  Te  Te158  1  0.82801738  0.33330546  0.66751589  1
  Te  Te159  1  0.83324012  0.66969514  0.00751025  1
  Te  Te160  1  0.82830659  0.66628875  0.32750038  1
  Te  Te161  1  0.83389147  0.66772468  0.66745682  1
  Te  Te162  1  0.00042782  0.16243059  -0.00056772  1
  Te  Te163  1  -0.00429580  0.16186787  0.33442887  1
  Te  Te164  1  0.00050769  0.16387243  0.66692703  1
  Te  Te165  1  -0.00109085  0.50144868  -0.00056797  1
  Te  Te166  1  0.00480282  0.50477474  0.33350666  1
  Te  Te167  1  -0.00881380  0.50025476  0.66619080  1
  Te  Te168  1  -0.00031829  0.84049310  0.00316735  1
  Te  Te169  1  0.00079793  0.83529371  0.33250214  1
  Te  Te170  1  -0.00651538  0.83947969  0.66431917  1
  Te  Te171  1  0.33515623  0.16648118  0.00068358  1
  Te  Te172  1  0.33669016  0.16450692  0.33271898  1
  Te  Te173  1  0.32868637  0.16636946  0.66853184  1
  Te  Te174  1  0.33309119  0.49655152  0.00123026  1
  Te  Te175  1  0.32828671  0.50441432  0.33425996  1
  Te  Te176  1  0.33185557  0.49996310  0.66867393  1
  Te  Te177  1  0.33301249  0.83642804  -0.00057683  1
  Te  Te178  1  0.32813946  0.82751131  0.33788342  1
  Te  Te179  1  0.33459838  0.83407339  0.66002207  1
  Te  Te180  1  0.66642409  0.17013987  -0.00289380  1
  Te  Te181  1  0.67467901  0.16314724  0.33400306  1
  Te  Te182  1  0.67125860  0.17132364  0.67130012  1
  Te  Te183  1  0.66639811  0.49430044  -0.00057742  1
  Te  Te184  1  0.66933883  0.50317609  0.33236146  1
  Te  Te185  1  0.66959769  0.49558108  0.66745881  1
  Te  Te186  1  0.66686078  0.83165772  -0.00423734  1
  Te  Te187  1  0.66763326  0.83281580  0.33420454  1
  Te  Te188  1  0.67322608  0.83375557  0.67245728  1
  Te  Te189  1  -0.00049250  0.00016011  0.16656360  1
  Te  Te190  1  0.00241021  0.00047443  0.50240924  1
  Te  Te191  1  -0.00057081  0.00194588  0.83170085  1
  Te  Te192  1  0.00613473  0.33193650  0.16640716  1
  Te  Te193  1  0.00714680  0.33135479  0.49966657  1
  Te  Te194  1  0.00905362  0.32523060  0.83364280  1
  Te  Te195  1  -0.00392831  0.66853517  0.17295742  1
  Te  Te196  1  0.00297552  0.66904786  0.49394109  1
  Te  Te197  1  0.00016713  0.66457972  0.83310754  1
  Te  Te198  1  0.33896471  -0.00050988  0.16086871  1
  Te  Te199  1  0.32676485  -0.00195426  0.49924382  1
  Te  Te200  1  0.33087846  -0.00108643  0.83974283  1
  Te  Te201  1  0.33374328  0.33665621  0.16369922  1
  Te  Te202  1  0.33362024  0.33726542  0.49989484  1
  Te  Te203  1  0.33079205  0.33851658  0.83685472  1
  Te  Te204  1  0.33749615  0.66149385  0.17212948  1
  Te  Te205  1  0.33369702  0.66478357  0.49651692  1
  Te  Te206  1  0.33879898  0.66153802  0.83334614  1
  Te  Te207  1  0.66182175  -0.00025711  0.17313602  1
  Te  Te208  1  0.66255512  0.00014781  0.49260158  1
  Te  Te209  1  0.66923437  0.00054261  0.83075434  1
  Te  Te210  1  0.66392670  0.33812992  0.16316852  1
  Te  Te211  1  0.66320063  0.33846660  0.49879561  1
  Te  Te212  1  0.66583264  0.33483989  0.83540868  1
  Te  Te213  1  0.66444493  0.66496313  0.16838834  1
  Te  Te214  1  0.66377628  0.66244199  0.49602379  1
  Te  Te215  1  0.66267665  0.66158584  0.83304437  1
