# generated using pymatgen
data_AgSbTe2
_symmetry_space_group_name_H-M   'P 1'
_cell_length_a   18.31316543
_cell_length_b   18.31303207
_cell_length_c   18.30897910
_cell_angle_alpha   90.00007266
_cell_angle_beta   89.99969854
_cell_angle_gamma   89.99860928
_symmetry_Int_Tables_number   1
_chemical_formula_structural   AgSbTe2
_chemical_formula_sum   'Ag54 Sb54 Te108'
_cell_volume   6140.27473119
_cell_formula_units_Z   54
loop_
 _symmetry_equiv_pos_site_id
 _symmetry_equiv_pos_as_xyz
  1  'x, y, z'
loop_
 _atom_site_type_symbol
 _atom_site_label
 _atom_site_symmetry_multiplicity
 _atom_site_fract_x
 _atom_site_fract_y
 _atom_site_fract_z
 _atom_site_occupancy
  Ag  Ag0  1  0.67012149  0.83511281  0.50506708  1
  Ag  Ag1  1  0.83014077  -0.00157576  0.15957304  1
  Ag  Ag2  1  0.16535964  0.83684404  -0.00026769  1
  Ag  Ag3  1  -0.00812240  0.49132680  0.83876587  1
  Ag  Ag4  1  0.83124838  0.00548831  0.83805993  1
  Ag  Ag5  1  0.32872225  0.33057600  0.67042581  1
  Ag  Ag6  1  0.32704631  0.49385250  0.16770153  1
  Ag  Ag7  1  0.16254685  0.49010462  0.66639069  1
  Ag  Ag8  1  0.16906112  0.00653155  0.16197989  1
  Ag  Ag9  1  0.50214731  0.00208764  0.50210906  1
  Ag  Ag10  1  0.67221301  0.16130233  0.82780020  1
  Ag  Ag11  1  0.66475346  0.66843740  0.33353705  1
  Ag  Ag12  1  0.33930635  0.84007400  0.83585454  1
  Ag  Ag13  1  0.16119091  0.17120913  0.66750841  1
  Ag  Ag14  1  0.33698846  0.16279228  0.83661934  1
  Ag  Ag15  1  0.16740013  0.17143709  0.32929936  1
  Ag  Ag16  1  -0.00115932  0.33341146  -0.00674584  1
  Ag  Ag17  1  0.83801413  0.49954884  -0.00701141  1
  Ag  Ag18  1  0.33762908  0.16886516  0.16257080  1
  Ag  Ag19  1  0.83398978  0.32978170  0.83142543  1
  Ag  Ag20  1  0.50815277  0.84130313  0.67068457  1
  Ag  Ag21  1  -0.00300087  0.32881800  0.67340386  1
  Ag  Ag22  1  0.49546532  0.32256686  0.16662752  1
  Ag  Ag23  1  0.33507827  0.00052397  0.00036583  1
  Ag  Ag24  1  0.50278868  0.67017729  0.83406732  1
  Ag  Ag25  1  -0.00087286  0.16303992  0.51013681  1
  Ag  Ag26  1  0.33807929  0.66337060  0.32507581  1
  Ag  Ag27  1  0.67016056  0.32719833  0.67020902  1
  Ag  Ag28  1  0.50722490  0.16337108  0.67089213  1
  Ag  Ag29  1  -0.00941052  0.17202983  0.83020696  1
  Ag  Ag30  1  0.66932040  0.83744558  0.16551293  1
  Ag  Ag31  1  0.33183475  0.49948249  0.49552612  1
  Ag  Ag32  1  -0.00634451  0.83929904  0.50774456  1
  Ag  Ag33  1  0.66881360  0.00004134  -0.00522216  1
  Ag  Ag34  1  0.50064342  0.16629342  0.32516310  1
  Ag  Ag35  1  0.83017244  0.16344038  0.33393026  1
  Ag  Ag36  1  0.50183499  0.00513320  0.16430030  1
  Ag  Ag37  1  -0.00666918  0.83654661  0.83506088  1
  Ag  Ag38  1  0.83113436  0.17063415  0.67586479  1
  Ag  Ag39  1  0.00097682  0.66390313  -0.00162821  1
  Ag  Ag40  1  0.49767251  0.16360463  0.00039087  1
  Ag  Ag41  1  0.33060413  0.67087250  0.00189601  1
  Ag  Ag42  1  0.66743116  0.83850597  0.83050514  1
  Ag  Ag43  1  0.66520081  0.00131209  0.67487221  1
  Ag  Ag44  1  0.83160926  0.67132408  0.16557198  1
  Ag  Ag45  1  0.16907993  0.49459790  0.33023795  1
  Ag  Ag46  1  0.66623069  0.67337234  0.67300077  1
  Ag  Ag47  1  0.66753582  0.32935426  0.33472478  1
  Ag  Ag48  1  0.82959271  0.83795491  0.32960410  1
  Ag  Ag49  1  -0.00309419  0.00031742  -0.00211052  1
  Ag  Ag50  1  0.17124742  0.32964788  0.16765358  1
  Ag  Ag51  1  0.83435705  0.48965121  0.67718218  1
  Ag  Ag52  1  0.67634394  0.49683304  0.83021504  1
  Ag  Ag53  1  0.00268199  0.49777935  0.15585970  1
  Sb  Sb54  1  0.66816552  0.50213217  0.16334252  1
  Sb  Sb55  1  0.83018258  0.00126772  0.50284846  1
  Sb  Sb56  1  0.33737225  0.83568937  0.16014191  1
  Sb  Sb57  1  0.16717408  0.33249903  0.50043367  1
  Sb  Sb58  1  0.33199333  0.16927470  0.50142616  1
  Sb  Sb59  1  -0.00585890  0.66284661  0.67423197  1
  Sb  Sb60  1  0.34028599  0.00769717  0.67643926  1
  Sb  Sb61  1  -0.00536163  0.83213128  0.16023940  1
  Sb  Sb62  1  0.50534435  0.33041956  0.83458690  1
  Sb  Sb63  1  0.83322552  0.33119344  0.16255885  1
  Sb  Sb64  1  0.16461513  0.66419627  0.16437497  1
  Sb  Sb65  1  0.50925498  0.00063304  0.83680151  1
  Sb  Sb66  1  0.82739193  0.83540599  0.66691300  1
  Sb  Sb67  1  0.33517810  0.33482866  0.33211172  1
  Sb  Sb68  1  0.16847491  0.00293097  0.49617156  1
  Sb  Sb69  1  0.33590308  0.83104410  0.50520842  1
  Sb  Sb70  1  -0.00613382  0.00712044  0.67435552  1
  Sb  Sb71  1  0.16687359  0.66625885  0.49958386  1
  Sb  Sb72  1  0.33841410  0.66258529  0.67049209  1
  Sb  Sb73  1  0.16702182  0.83688896  0.67253319  1
  Sb  Sb74  1  0.00283255  0.16883323  0.16191789  1
  Sb  Sb75  1  0.16006032  0.50128299  0.00061679  1
  Sb  Sb76  1  0.66323802  0.50386755  0.50595821  1
  Sb  Sb77  1  0.50602645  0.83751144  0.33610114  1
  Sb  Sb78  1  0.83609965  0.49867686  0.33131693  1
  Sb  Sb79  1  0.32916148  0.33088223  -0.00154114  1
  Sb  Sb80  1  0.49691695  0.49572640  0.33165944  1
  Sb  Sb81  1  -0.00186529  0.00158691  0.32782407  1
  Sb  Sb82  1  0.50232551  0.49602539  0.66892148  1
  Sb  Sb83  1  0.16145777  0.00239905  0.83856785  1
  Sb  Sb84  1  0.66745523  0.00067503  0.33094293  1
  Sb  Sb85  1  0.50182093  0.67202806  0.50390368  1
  Sb  Sb86  1  0.67044787  0.32776660  -0.00328431  1
  Sb  Sb87  1  0.50281427  0.49567899  -0.00039232  1
  Sb  Sb88  1  0.16802579  0.66660504  0.83463008  1
  Sb  Sb89  1  0.83217000  0.66821588  0.49735240  1
  Sb  Sb90  1  0.50255630  0.66962166  0.16308569  1
  Sb  Sb91  1  0.83307375  0.33027505  0.50907615  1
  Sb  Sb92  1  0.82941416  0.66526318  0.83774537  1
  Sb  Sb93  1  0.66204237  0.16181061  0.16323514  1
  Sb  Sb94  1  0.83168287  0.16570507  -0.00364698  1
  Sb  Sb95  1  0.66751919  0.67220779  -0.00314034  1
  Sb  Sb96  1  -0.00232751  0.66690316  0.32782867  1
  Sb  Sb97  1  0.50043681  0.32676140  0.49878514  1
  Sb  Sb98  1  0.33440343  -0.00102553  0.32591398  1
  Sb  Sb99  1  0.00333728  0.49783340  0.50452792  1
  Sb  Sb100  1  0.49834003  0.84040503  -0.00589818  1
  Sb  Sb101  1  0.83616015  0.83343966  0.00159880  1
  Sb  Sb102  1  0.16919163  0.16243460  0.00017424  1
  Sb  Sb103  1  0.33136811  0.49785421  0.83515996  1
  Sb  Sb104  1  0.16275072  0.83387802  0.32722754  1
  Sb  Sb105  1  0.15887392  0.33097995  0.83405111  1
  Sb  Sb106  1  0.66939967  0.16106740  0.50588287  1
  Sb  Sb107  1  -0.00288858  0.33080669  0.33250329  1
  Te  Te108  1  0.16839034  0.16708479  0.16751589  1
  Te  Te109  1  0.16160443  0.16570391  0.49817031  1
  Te  Te110  1  0.17153395  0.16737429  0.82880915  1
  Te  Te111  1  0.16625679  0.49845474  0.16729381  1
  Te  Te112  1  0.17143622  0.49942538  0.49898386  1
  Te  Te113  1  0.16165305  0.49907955  0.82756012  1
  Te  Te114  1  0.16665178  0.83969598  0.16185180  1
  Te  Te115  1  0.16107246  0.83492188  0.49946261  1
  Te  Te116  1  0.16656912  0.83418536  0.83716335  1
  Te  Te117  1  0.49964553  0.16557821  0.16671526  1
  Te  Te118  1  0.49982696  0.16051390  0.50266512  1
  Te  Te119  1  0.49773884  0.16695467  0.83098965  1
  Te  Te120  1  0.49589674  0.49817791  0.16561738  1
  Te  Te121  1  0.49241398  0.49998942  0.50021016  1
  Te  Te122  1  0.50418342  0.50397014  0.83392721  1
  Te  Te123  1  0.50678254  0.83859843  0.16688001  1
  Te  Te124  1  0.50388167  0.83954868  0.50608532  1
  Te  Te125  1  0.50156691  0.83257083  0.83039570  1
  Te  Te126  1  0.83386062  0.16200100  0.17050406  1
  Te  Te127  1  0.83892731  0.16532764  0.49401011  1
  Te  Te128  1  0.83199515  0.16626202  0.83474201  1
  Te  Te129  1  0.83686555  0.49973112  0.16471393  1
  Te  Te130  1  0.83367808  0.50003893  0.50477114  1
  Te  Te131  1  0.83379477  0.50261926  0.83294280  1
  Te  Te132  1  0.83020475  0.83509685  0.16837622  1
  Te  Te133  1  0.83306996  0.83476114  0.49528934  1
  Te  Te134  1  0.83253977  0.83595651  0.83360680  1
  Te  Te135  1  0.16670841  -0.00264286  0.00385446  1
  Te  Te136  1  0.16676961  0.00453268  0.32495828  1
  Te  Te137  1  0.16807694  0.00699561  0.66499207  1
  Te  Te138  1  0.16034635  0.33314536  0.00674203  1
  Te  Te139  1  0.16620359  0.33246317  0.32870282  1
  Te  Te140  1  0.16527855  0.33144766  0.66685777  1
  Te  Te141  1  0.16695889  0.67239261  0.00012304  1
  Te  Te142  1  0.17072848  0.66396841  0.33188610  1
  Te  Te143  1  0.16707783  0.66227072  0.66667921  1
  Te  Te144  1  0.49990489  0.00424145  0.00338603  1
  Te  Te145  1  0.50016686  0.00537923  0.32912403  1
  Te  Te146  1  0.50348391  0.00178252  0.66663636  1
  Te  Te147  1  0.50006893  0.32634739  0.00575629  1
  Te  Te148  1  0.50384392  0.32806281  0.32978753  1
  Te  Te149  1  0.50572067  0.32754638  0.66647388  1
  Te  Te150  1  0.49582547  0.66570534  -0.00424366  1
  Te  Te151  1  0.50172547  0.66797637  0.33237013  1
  Te  Te152  1  0.50518023  0.66811019  0.67115400  1
  Te  Te153  1  0.83297308  -0.00001944  -0.00061805  1
  Te  Te154  1  0.83335315  0.00143326  0.32935267  1
  Te  Te155  1  0.82706519  0.00556500  0.67047032  1
  Te  Te156  1  0.83794629  0.33694381  -0.00461731  1
  Te  Te157  1  0.82829537  0.32911888  0.33206608  1
  Te  Te158  1  0.83219951  0.33121926  0.67055634  1
  Te  Te159  1  0.83506604  0.66226351  0.00498118  1
  Te  Te160  1  0.82952792  0.66761648  0.32758698  1
  Te  Te161  1  0.82603704  0.66304375  0.66576205  1
  Te  Te162  1  0.00071806  0.16582876  -0.00655661  1
  Te  Te163  1  0.00108660  0.16742750  0.33444513  1
  Te  Te164  1  -0.00185037  0.16722553  0.66986274  1
  Te  Te165  1  -0.00096034  0.50088058  -0.00146840  1
  Te  Te166  1  0.00653059  0.49940819  0.33376225  1
  Te  Te167  1  -0.00015880  0.49745848  0.66860011  1
  Te  Te168  1  0.00220942  0.83504711  -0.00358354  1
  Te  Te169  1  -0.00635770  0.83281254  0.33673406  1
  Te  Te170  1  0.00056002  0.83241591  0.66956478  1
  Te  Te171  1  0.33556236  0.16526455  0.00019269  1
  Te  Te172  1  0.33351151  0.16702363  0.33083597  1
  Te  Te173  1  0.33363670  0.17062005  0.66750225  1
  Te  Te174  1  0.33300653  0.50263432  0.00513038  1
  Te  Te175  1  0.33066540  0.50128404  0.32916118  1
  Te  Te176  1  0.33042329  0.49487540  0.66786439  1
  Te  Te177  1  0.33213986  0.83335099  -0.00425971  1
  Te  Te178  1  0.33250193  0.82571112  0.33500532  1
  Te  Te179  1  0.33629206  0.83283637  0.67433406  1
  Te  Te180  1  0.66227728  0.16144314  -0.00633148  1
  Te  Te181  1  0.66622826  0.16831404  0.33592998  1
  Te  Te182  1  0.66849234  0.16646278  0.66702942  1
  Te  Te183  1  0.67202006  0.49998557  -0.00589641  1
  Te  Te184  1  0.66673328  0.50244181  0.33392328  1
  Te  Te185  1  0.66910227  0.49723030  0.66967567  1
  Te  Te186  1  0.66560672  0.83894997  -0.00251578  1
  Te  Te187  1  0.66992863  0.83266323  0.33255587  1
  Te  Te188  1  0.66729549  0.83339370  0.66908594  1
  Te  Te189  1  -0.00311631  0.00006080  0.15975072  1
  Te  Te190  1  0.00020368  -0.00015594  0.50118899  1
  Te  Te191  1  -0.00460826  -0.00167529  0.83782570  1
  Te  Te192  1  0.00178897  0.33726862  0.16427530  1
  Te  Te193  1  -0.00016822  0.32812032  0.50763271  1
  Te  Te194  1  -0.00303137  0.33236970  0.83319549  1
  Te  Te195  1  -0.00417468  0.66274007  0.16093586  1
  Te  Te196  1  -0.00080175  0.67330299  0.50115587  1
  Te  Te197  1  -0.00046090  0.67193434  0.83922223  1
  Te  Te198  1  0.33474977  0.00287083  0.16107702  1
  Te  Te199  1  0.33947272  -0.00155928  0.49982381  1
  Te  Te200  1  0.33017429  0.00074916  0.84044070  1
  Te  Te201  1  0.33313359  0.33101847  0.16620720  1
  Te  Te202  1  0.33454158  0.33832366  0.50697996  1
  Te  Te203  1  0.33471687  0.32907744  0.82983350  1
  Te  Te204  1  0.33435369  0.66625784  0.16447793  1
  Te  Te205  1  0.33458726  0.66203789  0.49705884  1
  Te  Te206  1  0.33774883  0.66693641  0.83826093  1
  Te  Te207  1  0.66807118  -0.00254846  0.16442924  1
  Te  Te208  1  0.66353138  -0.00564933  0.50372823  1
  Te  Te209  1  0.66972295  0.00091150  0.83381513  1
  Te  Te210  1  0.66280661  0.33392860  0.16906140  1
  Te  Te211  1  0.66578016  0.33525403  0.49858981  1
  Te  Te212  1  0.67141425  0.33302282  0.83112747  1
  Te  Te213  1  0.66980304  0.67024513  0.16847427  1
  Te  Te214  1  0.66571094  0.67292164  0.49699813  1
  Te  Te215  1  0.66396270  0.67073394  0.83222657  1
