# generated using pymatgen
data_AgSbTe2
_symmetry_space_group_name_H-M   'P 1'
_cell_length_a   18.33371007
_cell_length_b   18.34104552
_cell_length_c   18.33778316
_cell_angle_alpha   90.00169542
_cell_angle_beta   89.99685996
_cell_angle_gamma   89.99735857
_symmetry_Int_Tables_number   1
_chemical_formula_structural   AgSbTe2
_chemical_formula_sum   'Ag54 Sb54 Te108'
_cell_volume   6166.25214525
_cell_formula_units_Z   54
loop_
 _symmetry_equiv_pos_site_id
 _symmetry_equiv_pos_as_xyz
  1  'x, y, z'
loop_
 _atom_site_type_symbol
 _atom_site_label
 _atom_site_symmetry_multiplicity
 _atom_site_fract_x
 _atom_site_fract_y
 _atom_site_fract_z
 _atom_site_occupancy
  Ag  Ag0  1  0.00116436  0.50367612  0.16787188  1
  Ag  Ag1  1  0.49880543  0.66866280  0.83318630  1
  Ag  Ag2  1  0.16019067  0.33643943  0.16709177  1
  Ag  Ag3  1  0.49063343  0.67180048  0.16006079  1
  Ag  Ag4  1  0.16619552  0.67215800  0.16608339  1
  Ag  Ag5  1  -0.00861927  0.00176262  0.65597042  1
  Ag  Ag6  1  0.33063971  0.66937226  0.32273748  1
  Ag  Ag7  1  0.84609476  -0.00159594  0.16035597  1
  Ag  Ag8  1  0.66972082  0.66560127  0.66814434  1
  Ag  Ag9  1  0.32128720  0.83101206  0.16644455  1
  Ag  Ag10  1  0.67515219  0.49727077  0.82947742  1
  Ag  Ag11  1  -0.00562881  0.49620328  0.83585404  1
  Ag  Ag12  1  0.00240152  0.00265789  0.34163593  1
  Ag  Ag13  1  0.50649571  0.83843814  0.66687360  1
  Ag  Ag14  1  0.50411464  0.50256637  0.67059358  1
  Ag  Ag15  1  0.83858347  0.84408127  -0.00483563  1
  Ag  Ag16  1  0.00131305  0.33485565  0.33104365  1
  Ag  Ag17  1  0.49616816  -0.00687169  0.16317260  1
  Ag  Ag18  1  -0.00480959  0.66698099  0.67289050  1
  Ag  Ag19  1  0.15995489  0.66573173  0.84198559  1
  Ag  Ag20  1  0.16302134  0.83299010  0.32827619  1
  Ag  Ag21  1  0.67721650  0.83422381  0.50384230  1
  Ag  Ag22  1  0.84367214  0.50106884  0.32928438  1
  Ag  Ag23  1  0.67588086  0.33487473  0.67135203  1
  Ag  Ag24  1  0.00314622  0.83801701  0.16978071  1
  Ag  Ag25  1  0.16092513  0.15566206  0.33133430  1
  Ag  Ag26  1  0.50185030  -0.00200451  0.51456876  1
  Ag  Ag27  1  0.15912243  0.50453831  0.33081377  1
  Ag  Ag28  1  0.50705312  0.15625196  0.67376701  1
  Ag  Ag29  1  0.67800174  0.16799176  0.82949339  1
  Ag  Ag30  1  0.83740691  0.00643729  0.82980679  1
  Ag  Ag31  1  0.00262500  0.66243304  -0.00335189  1
  Ag  Ag32  1  0.66472165  0.66771534  0.33626863  1
  Ag  Ag33  1  0.15440906  -0.00027077  0.49472014  1
  Ag  Ag34  1  0.50403263  0.00600585  0.83221347  1
  Ag  Ag35  1  -0.00136061  0.50051208  0.49452870  1
  Ag  Ag36  1  0.83453999  0.15850650  0.67722716  1
  Ag  Ag37  1  0.83927841  0.49938909  -0.00294313  1
  Ag  Ag38  1  0.32541365  0.66548049  0.00312316  1
  Ag  Ag39  1  0.83440873  0.83871636  0.66825477  1
  Ag  Ag40  1  0.83934474  0.16157440  -0.01122659  1
  Ag  Ag41  1  0.84402483  -0.00196838  0.51300375  1
  Ag  Ag42  1  0.32516963  0.33471026  -0.00106426  1
  Ag  Ag43  1  -0.00376349  -0.00016558  0.00219559  1
  Ag  Ag44  1  -0.00837361  0.16694020  0.83019146  1
  Ag  Ag45  1  -0.00055216  0.15480942  0.50775481  1
  Ag  Ag46  1  -0.00434238  0.32808029  0.67456609  1
  Ag  Ag47  1  0.16111202  -0.00732704  0.17285873  1
  Ag  Ag48  1  -0.00323619  0.84265020  0.49857726  1
  Ag  Ag49  1  -0.00021915  0.33642093  -0.00211077  1
  Ag  Ag50  1  0.50061903  0.16290956  -0.01082867  1
  Ag  Ag51  1  0.83674813  0.31981832  0.83313360  1
  Ag  Ag52  1  0.33658575  0.16429267  0.83459971  1
  Ag  Ag53  1  0.33998757  0.00058285  0.66855473  1
  Sb  Sb54  1  0.50182196  0.67149864  0.50420786  1
  Sb  Sb55  1  0.83463994  0.50006816  0.66929736  1
  Sb  Sb56  1  0.32494450  0.50917960  0.16466889  1
  Sb  Sb57  1  0.83703855  0.67172832  0.50030687  1
  Sb  Sb58  1  0.49359323  0.16223888  0.33514957  1
  Sb  Sb59  1  0.16031466  0.83586395  0.66220642  1
  Sb  Sb60  1  0.16209276  0.67185058  0.49572145  1
  Sb  Sb61  1  -0.00198138  0.83467463  0.83367415  1
  Sb  Sb62  1  0.66974715  0.66679818  -0.00339534  1
  Sb  Sb63  1  0.16023193  0.32734708  0.49321212  1
  Sb  Sb64  1  0.84169736  0.16757338  0.33364912  1
  Sb  Sb65  1  0.66809341  0.83404275  0.82667980  1
  Sb  Sb66  1  0.16146218  0.16685269  0.00220197  1
  Sb  Sb67  1  0.33428727  0.67176868  0.67043308  1
  Sb  Sb68  1  0.67067025  0.83221915  0.17156536  1
  Sb  Sb69  1  0.67365519  -0.00302750  0.33541041  1
  Sb  Sb70  1  0.67317209  0.15943992  0.51038604  1
  Sb  Sb71  1  0.33040232  0.16006052  0.16146775  1
  Sb  Sb72  1  0.32749873  0.16221667  0.50673787  1
  Sb  Sb73  1  0.67451537  0.50335825  0.16187856  1
  Sb  Sb74  1  0.83959998  0.67093338  0.16542198  1
  Sb  Sb75  1  0.32208467  0.33779386  0.32473393  1
  Sb  Sb76  1  0.16261475  0.50157739  0.66349047  1
  Sb  Sb77  1  0.67334829  0.33129344  -0.00681092  1
  Sb  Sb78  1  0.84187690  0.32910308  0.15914780  1
  Sb  Sb79  1  0.15850851  0.83158994  0.00588441  1
  Sb  Sb80  1  0.83899364  0.32770992  0.50889171  1
  Sb  Sb81  1  0.50128698  0.32714271  0.50439766  1
  Sb  Sb82  1  0.15734995  0.16396168  0.66573630  1
  Sb  Sb83  1  0.33133629  0.49774911  0.83461972  1
  Sb  Sb84  1  0.32416704  -0.00400690  0.33481386  1
  Sb  Sb85  1  0.49194190  0.33426282  0.16348927  1
  Sb  Sb86  1  0.33151156  0.32560706  0.67519048  1
  Sb  Sb87  1  0.67739929  0.33920388  0.34002234  1
  Sb  Sb88  1  0.83980441  0.83176970  0.33512157  1
  Sb  Sb89  1  0.50691539  0.32757884  0.83312551  1
  Sb  Sb90  1  0.32963311  0.83558717  0.49798291  1
  Sb  Sb91  1  0.00178641  0.66576083  0.32981949  1
  Sb  Sb92  1  0.16147397  -0.00200452  0.83260699  1
  Sb  Sb93  1  0.66935513  -0.00306863  0.66822483  1
  Sb  Sb94  1  0.50036672  0.50364394  0.33606368  1
  Sb  Sb95  1  0.32960393  -0.00172940  -0.00180120  1
  Sb  Sb96  1  0.50466008  0.83707455  -0.00227201  1
  Sb  Sb97  1  0.66737594  0.16546894  0.16010859  1
  Sb  Sb98  1  0.67335321  0.50642964  0.50662574  1
  Sb  Sb99  1  0.15738255  0.33612769  0.83821342  1
  Sb  Sb100  1  0.33457546  0.83536620  0.83699798  1
  Sb  Sb101  1  0.83463941  0.66825187  0.83272620  1
  Sb  Sb102  1  0.32816074  0.50097929  0.49997096  1
  Sb  Sb103  1  0.49678648  0.83387797  0.33618788  1
  Sb  Sb104  1  0.00100800  0.16131804  0.16434065  1
  Sb  Sb105  1  0.50441487  0.49876431  -0.00515476  1
  Sb  Sb106  1  0.67459914  0.00093432  -0.00175962  1
  Sb  Sb107  1  0.15774548  0.50223706  0.00567574  1
  Te  Te108  1  0.16775714  0.16422275  0.17105173  1
  Te  Te109  1  0.16075608  0.16054869  0.49573851  1
  Te  Te110  1  0.16994469  0.16716745  0.83364930  1
  Te  Te111  1  0.16120168  0.50215686  0.17080281  1
  Te  Te112  1  0.16118731  0.49948029  0.49386068  1
  Te  Te113  1  0.16234085  0.50613958  0.83165009  1
  Te  Te114  1  0.16373740  0.83272774  0.16780896  1
  Te  Te115  1  0.16141442  0.83908020  0.49434184  1
  Te  Te116  1  0.16808205  0.82526446  0.83239193  1
  Te  Te117  1  0.49879811  0.16489599  0.16471194  1
  Te  Te118  1  0.50051771  0.16000310  0.50407262  1
  Te  Te119  1  0.49889374  0.16663183  0.83216338  1
  Te  Te120  1  0.50145084  0.50541635  0.16566079  1
  Te  Te121  1  0.50073084  0.49908091  0.50592420  1
  Te  Te122  1  0.50091540  0.50084257  0.83058849  1
  Te  Te123  1  0.50334554  0.83076131  0.16609106  1
  Te  Te124  1  0.49868957  0.83731898  0.50424405  1
  Te  Te125  1  0.50180312  0.83406966  0.82962527  1
  Te  Te126  1  0.83062394  0.15884081  0.16289260  1
  Te  Te127  1  0.83952100  0.15984644  0.50121651  1
  Te  Te128  1  0.83509734  0.16424593  0.83277378  1
  Te  Te129  1  0.83969688  0.49902337  0.16427286  1
  Te  Te130  1  0.83884766  0.49870150  0.49655684  1
  Te  Te131  1  0.83456934  0.50325253  0.83438458  1
  Te  Te132  1  0.83785121  0.83810654  0.16447755  1
  Te  Te133  1  0.83650875  0.83741773  0.50146062  1
  Te  Te134  1  0.83183998  0.84049710  0.83187441  1
  Te  Te135  1  0.16078957  -0.00093920  0.00395816  1
  Te  Te136  1  0.16357986  -0.00237184  0.33318201  1
  Te  Te137  1  0.16606185  -0.00010107  0.66356560  1
  Te  Te138  1  0.16346752  0.33407341  0.00516096  1
  Te  Te139  1  0.16029167  0.33935397  0.32759618  1
  Te  Te140  1  0.15996448  0.33292753  0.66518393  1
  Te  Te141  1  0.16544787  0.66675522  0.00172969  1
  Te  Te142  1  0.16759359  0.66804530  0.33002545  1
  Te  Te143  1  0.16485365  0.66808135  0.66871220  1
  Te  Te144  1  0.49801702  0.00233671  -0.00181124  1
  Te  Te145  1  0.49948803  0.00035539  0.32411422  1
  Te  Te146  1  0.50500116  -0.00059955  0.67178712  1
  Te  Te147  1  0.49797303  0.32783765  0.00113512  1
  Te  Te148  1  0.49952890  0.33332521  0.33382796  1
  Te  Te149  1  0.49992909  0.33715352  0.66686210  1
  Te  Te150  1  0.50186874  0.66722511  -0.00233631  1
  Te  Te151  1  0.49907190  0.66685801  0.33250027  1
  Te  Te152  1  0.49904867  0.66667865  0.67032039  1
  Te  Te153  1  0.83552340  0.00209125  -0.00032514  1
  Te  Te154  1  0.84020388  0.00017585  0.32740720  1
  Te  Te155  1  0.83314097  -0.00068469  0.66836536  1
  Te  Te156  1  0.83859931  0.33250252  -0.00507630  1
  Te  Te157  1  0.84016882  0.33885680  0.33124951  1
  Te  Te158  1  0.83615445  0.33384774  0.67262772  1
  Te  Te159  1  0.83747543  0.66299213  -0.00013729  1
  Te  Te160  1  0.82740957  0.66188299  0.33264413  1
  Te  Te161  1  0.83396492  0.67205662  0.66691862  1
  Te  Te162  1  -0.00196780  0.16805793  -0.00273919  1
  Te  Te163  1  0.00341150  0.16665527  0.33356310  1
  Te  Te164  1  -0.00333094  0.16550763  0.66796969  1
  Te  Te165  1  -0.00168112  0.50056426  -0.00164126  1
  Te  Te166  1  0.00053580  0.50435418  0.33020322  1
  Te  Te167  1  -0.00016526  0.50357412  0.67170676  1
  Te  Te168  1  -0.00432084  0.83203581  0.00122080  1
  Te  Te169  1  0.00232695  0.83293539  0.33313458  1
  Te  Te170  1  -0.00349261  0.83456191  0.66505237  1
  Te  Te171  1  0.33504714  0.16695634  -0.00417313  1
  Te  Te172  1  0.32438516  0.16911638  0.33437008  1
  Te  Te173  1  0.33890334  0.16234772  0.67215091  1
  Te  Te174  1  0.33574922  0.50155481  -0.00041752  1
  Te  Te175  1  0.33036613  0.50601336  0.33321629  1
  Te  Te176  1  0.33799547  0.49859295  0.66595035  1
  Te  Te177  1  0.33677297  0.82736831  0.00524533  1
  Te  Te178  1  0.32868983  0.82913303  0.32873851  1
  Te  Te179  1  0.33811501  0.83943900  0.66639141  1
  Te  Te180  1  0.66434244  0.16736836  -0.00703146  1
  Te  Te181  1  0.66568704  0.17073783  0.33600548  1
  Te  Te182  1  0.66820303  0.17171806  0.66965315  1
  Te  Te183  1  0.67479123  0.49875612  -0.00766834  1
  Te  Te184  1  0.66907671  0.50546589  0.33481506  1
  Te  Te185  1  0.66671479  0.50298971  0.66960046  1
  Te  Te186  1  0.67794938  0.83252407  0.00140374  1
  Te  Te187  1  0.66732191  0.82855198  0.34003041  1
  Te  Te188  1  0.66743025  0.82827986  0.66361426  1
  Te  Te189  1  0.00245665  -0.00087583  0.16256609  1
  Te  Te190  1  -0.00126608  -0.00109640  0.49928413  1
  Te  Te191  1  -0.00073054  0.00229557  0.83796989  1
  Te  Te192  1  0.00198885  0.33422852  0.16628181  1
  Te  Te193  1  -0.00049714  0.34088379  0.49763822  1
  Te  Te194  1  -0.00200972  0.33305814  0.83393618  1
  Te  Te195  1  0.00300381  0.66745594  0.16317157  1
  Te  Te196  1  0.00047640  0.66194557  0.50822878  1
  Te  Te197  1  -0.00026221  0.66778869  0.83451904  1
  Te  Te198  1  0.33393570  -0.00658508  0.16661318  1
  Te  Te199  1  0.34167711  0.00005627  0.50465329  1
  Te  Te200  1  0.33143262  0.00268454  0.83032438  1
  Te  Te201  1  0.32498099  0.33307219  0.15883150  1
  Te  Te202  1  0.33191206  0.33217226  0.49921880  1
  Te  Te203  1  0.32971780  0.32896722  0.83967217  1
  Te  Te204  1  0.33160343  0.66986827  0.16386539  1
  Te  Te205  1  0.33247200  0.66666600  0.49548584  1
  Te  Te206  1  0.33718763  0.66595844  0.83772287  1
  Te  Te207  1  0.65608507  -0.00030911  0.16823467  1
  Te  Te208  1  0.66137281  -0.00633301  0.49738673  1
  Te  Te209  1  0.66430168  0.00457213  0.83453113  1
  Te  Te210  1  0.66533309  0.33455223  0.16970645  1
  Te  Te211  1  0.66922164  0.33355274  0.50877359  1
  Te  Te212  1  0.67240770  0.33424361  0.82916747  1
  Te  Te213  1  0.66150865  0.66606667  0.16964710  1
  Te  Te214  1  0.66760036  0.67292896  0.50265545  1
  Te  Te215  1  0.66260754  0.66385152  0.82957707  1
