# generated using pymatgen
data_AgSbTe2
_symmetry_space_group_name_H-M   'P 1'
_cell_length_a   18.35166078
_cell_length_b   18.36177986
_cell_length_c   18.35678184
_cell_angle_alpha   90.00006700
_cell_angle_beta   89.99465829
_cell_angle_gamma   90.00342629
_symmetry_Int_Tables_number   1
_chemical_formula_structural   AgSbTe2
_chemical_formula_sum   'Ag54 Sb54 Te108'
_cell_volume   6185.66923076
_cell_formula_units_Z   54
loop_
 _symmetry_equiv_pos_site_id
 _symmetry_equiv_pos_as_xyz
  1  'x, y, z'
loop_
 _atom_site_type_symbol
 _atom_site_label
 _atom_site_symmetry_multiplicity
 _atom_site_fract_x
 _atom_site_fract_y
 _atom_site_fract_z
 _atom_site_occupancy
  Ag  Ag0  1  0.32291950  0.33572945  0.66729341  1
  Ag  Ag1  1  0.16134562  0.01571587  0.50555957  1
  Ag  Ag2  1  0.83571061  0.48905867  0.68232472  1
  Ag  Ag3  1  0.00031774  -0.00142852  -0.00249088  1
  Ag  Ag4  1  0.15951517  0.49492270  0.00096059  1
  Ag  Ag5  1  0.67886010  0.48964016  0.84219344  1
  Ag  Ag6  1  0.84178641  0.16593251  -0.00185818  1
  Ag  Ag7  1  0.67656524  0.49251617  0.16262353  1
  Ag  Ag8  1  0.16111621  0.33150381  0.83198802  1
  Ag  Ag9  1  0.49221873  0.33180462  0.49574465  1
  Ag  Ag10  1  0.49879778  0.33169528  0.16725033  1
  Ag  Ag11  1  0.49731560  0.32927140  0.83365707  1
  Ag  Ag12  1  0.83880045  0.65664692  0.16088010  1
  Ag  Ag13  1  0.83960751  0.49515178  -0.00020747  1
  Ag  Ag14  1  0.15870755  0.01257673  0.16380060  1
  Ag  Ag15  1  0.50302694  0.01051452  0.83487358  1
  Ag  Ag16  1  0.84422574  0.16844385  0.67642222  1
  Ag  Ag17  1  0.66994088  0.84082894  0.16604319  1
  Ag  Ag18  1  0.31893194  0.66826388  -0.00535523  1
  Ag  Ag19  1  0.16193637  0.17276585  -0.00764234  1
  Ag  Ag20  1  0.15578940  0.01053568  0.83296426  1
  Ag  Ag21  1  0.00372656  0.16679862  0.50406098  1
  Ag  Ag22  1  0.16594447  0.16932301  0.33218937  1
  Ag  Ag23  1  0.32076330  0.33138032  0.33718598  1
  Ag  Ag24  1  0.50111044  0.84654411  0.32569358  1
  Ag  Ag25  1  -0.00144001  0.49685601  0.15932705  1
  Ag  Ag26  1  0.83822669  0.33341257  0.15600993  1
  Ag  Ag27  1  0.83902409  0.33105897  0.83822023  1
  Ag  Ag28  1  0.16737294  0.33291260  0.49094868  1
  Ag  Ag29  1  0.50555947  0.83394579  0.00225973  1
  Ag  Ag30  1  0.00421187  0.32788492  0.66621518  1
  Ag  Ag31  1  0.16786021  0.66194242  0.50593593  1
  Ag  Ag32  1  0.16414251  0.48419484  0.32145735  1
  Ag  Ag33  1  -0.00139075  0.49818380  0.84010431  1
  Ag  Ag34  1  0.15801806  0.33344772  0.17717402  1
  Ag  Ag35  1  0.00072969  0.65648440  0.00145615  1
  Ag  Ag36  1  0.00629623  0.32767521  0.33107260  1
  Ag  Ag37  1  0.83357942  0.84114213  -0.00032766  1
  Ag  Ag38  1  0.00142710  0.00613170  0.32223916  1
  Ag  Ag39  1  0.67618077  0.16975793  0.83832389  1
  Ag  Ag40  1  0.16316320  0.84446604  0.66858388  1
  Ag  Ag41  1  0.00134288  0.00976261  0.67561608  1
  Ag  Ag42  1  0.67601850  0.00289318  0.32864780  1
  Ag  Ag43  1  0.16319284  0.17047736  0.67236968  1
  Ag  Ag44  1  0.16114516  0.65764113  0.15503614  1
  Ag  Ag45  1  0.49147136  0.65988976  0.49951054  1
  Ag  Ag46  1  0.31912049  0.16869657  0.83336985  1
  Ag  Ag47  1  0.49407714  0.16872413  0.33117377  1
  Ag  Ag48  1  0.84013432  0.01345599  0.83999775  1
  Ag  Ag49  1  0.32434541  0.66091463  0.67133891  1
  Ag  Ag50  1  0.84271309  0.83671259  0.67707657  1
  Ag  Ag51  1  0.83934860  0.00477346  0.15818825  1
  Ag  Ag52  1  0.16693784  0.66125067  0.83839354  1
  Ag  Ag53  1  0.67031099  0.16795472  0.16259527  1
  Sb  Sb54  1  0.49663903  0.16861711  0.66799645  1
  Sb  Sb55  1  0.00421097  0.66433221  0.32775431  1
  Sb  Sb56  1  0.32397047  0.17023790  0.50380690  1
  Sb  Sb57  1  0.83856532  0.33218027  0.50352604  1
  Sb  Sb58  1  0.66508412  0.66974185  0.32979095  1
  Sb  Sb59  1  0.00337613  0.49489418  0.50029626  1
  Sb  Sb60  1  0.67483702  0.00083305  0.00388662  1
  Sb  Sb61  1  -0.00037126  0.17052933  0.16785673  1
  Sb  Sb62  1  0.66619842  0.66551994  0.66872143  1
  Sb  Sb63  1  0.67067995  0.33226836  0.67063326  1
  Sb  Sb64  1  0.32801380  0.49347979  0.83470529  1
  Sb  Sb65  1  0.16889196  0.83927585  0.33577179  1
  Sb  Sb66  1  -0.00015898  0.33353620  -0.00147092  1
  Sb  Sb67  1  0.32667418  -0.00219317  -0.00225497  1
  Sb  Sb68  1  0.00379800  0.83981973  0.50220235  1
  Sb  Sb69  1  0.83876420  0.66318057  0.83950334  1
  Sb  Sb70  1  0.33052706  0.66273488  0.33325964  1
  Sb  Sb71  1  0.83693897  0.66663712  0.49981819  1
  Sb  Sb72  1  0.67239458  0.66680654  0.00163093  1
  Sb  Sb73  1  0.32336083  0.00358044  0.66959547  1
  Sb  Sb74  1  0.67483581  0.00201644  0.66706493  1
  Sb  Sb75  1  0.33155224  0.16907235  0.16358349  1
  Sb  Sb76  1  0.50009749  0.66390824  0.16847092  1
  Sb  Sb77  1  0.50049070  0.16385860  -0.00081987  1
  Sb  Sb78  1  -0.00300519  0.83332793  0.16424707  1
  Sb  Sb79  1  0.84152745  0.00189585  0.50136744  1
  Sb  Sb80  1  0.32756225  0.00684378  0.33260129  1
  Sb  Sb81  1  0.50062765  0.50123734  0.00089059  1
  Sb  Sb82  1  0.66808625  0.32826610  0.32835536  1
  Sb  Sb83  1  0.49383613  0.66288071  0.83180252  1
  Sb  Sb84  1  0.83741311  0.16671613  0.32830444  1
  Sb  Sb85  1  0.33066951  0.83705058  0.83430078  1
  Sb  Sb86  1  0.83914757  0.49762183  0.32565674  1
  Sb  Sb87  1  0.66689413  0.83525533  0.49548218  1
  Sb  Sb88  1  0.83097149  0.83681966  0.32609612  1
  Sb  Sb89  1  0.33460197  0.83259194  0.16499048  1
  Sb  Sb90  1  0.67011469  0.16783173  0.49922885  1
  Sb  Sb91  1  0.32575697  0.49776144  0.16511824  1
  Sb  Sb92  1  0.50217748  0.00285370  0.16288025  1
  Sb  Sb93  1  0.00518370  0.66500481  0.67153914  1
  Sb  Sb94  1  0.16090059  0.49269865  0.67123848  1
  Sb  Sb95  1  0.16234200  0.83263312  -0.00309172  1
  Sb  Sb96  1  0.33175415  0.83126890  0.50072966  1
  Sb  Sb97  1  0.32924510  0.49736495  0.50093246  1
  Sb  Sb98  1  0.49619093  0.83310502  0.66871954  1
  Sb  Sb99  1  0.66613971  0.49713135  0.49891623  1
  Sb  Sb100  1  0.66866279  0.83591994  0.83801788  1
  Sb  Sb101  1  0.32875665  0.33434290  -0.00163690  1
  Sb  Sb102  1  0.50330062  0.49736667  0.66794297  1
  Sb  Sb103  1  -0.00076112  0.17257043  0.82948388  1
  Sb  Sb104  1  0.49492208  0.00441984  0.50151171  1
  Sb  Sb105  1  0.49644052  0.49318008  0.33057165  1
  Sb  Sb106  1  0.00115636  0.83303646  0.83453916  1
  Sb  Sb107  1  0.66912298  0.33280379  -0.00080904  1
  Te  Te108  1  0.16716256  0.17111457  0.16959463  1
  Te  Te109  1  0.16543980  0.17096455  0.49816759  1
  Te  Te110  1  0.16362221  0.16681718  0.83381620  1
  Te  Te111  1  0.16427616  0.49700760  0.16330778  1
  Te  Te112  1  0.16627184  0.49799737  0.49706906  1
  Te  Te113  1  0.16441712  0.49964974  0.83783926  1
  Te  Te114  1  0.16743747  0.83041856  0.16723997  1
  Te  Te115  1  0.16744865  0.82381056  0.50569603  1
  Te  Te116  1  0.16819023  0.82916781  0.82807664  1
  Te  Te117  1  0.50187153  0.16958392  0.16680260  1
  Te  Te118  1  0.50122449  0.17107766  0.49559777  1
  Te  Te119  1  0.50868164  0.16871244  0.83403156  1
  Te  Te120  1  0.50747632  0.49438710  0.16679648  1
  Te  Te121  1  0.50054980  0.49857184  0.49852849  1
  Te  Te122  1  0.50487938  0.49314837  0.83449022  1
  Te  Te123  1  0.50348439  0.83262215  0.16664385  1
  Te  Te124  1  0.50027525  0.83378414  0.49738416  1
  Te  Te125  1  0.50033652  0.83334291  0.83815541  1
  Te  Te126  1  0.83122296  0.16760161  0.16344461  1
  Te  Te127  1  0.83873393  0.16729741  0.50756857  1
  Te  Te128  1  0.83400980  0.16908917  0.83454203  1
  Te  Te129  1  0.83633816  0.49760341  0.16382154  1
  Te  Te130  1  0.83271155  0.50221023  0.50305984  1
  Te  Te131  1  0.83556827  0.50169998  0.83807938  1
  Te  Te132  1  0.82910742  0.84074238  0.16397542  1
  Te  Te133  1  0.83361983  0.83224369  0.50534884  1
  Te  Te134  1  0.83159495  0.83065283  0.83623439  1
  Te  Te135  1  0.16231347  -0.00024493  -0.00283944  1
  Te  Te136  1  0.16215795  0.00406699  0.33045913  1
  Te  Te137  1  0.16314527  0.00200136  0.67010099  1
  Te  Te138  1  0.16717405  0.33271735  -0.00697484  1
  Te  Te139  1  0.16403136  0.32973043  0.33303806  1
  Te  Te140  1  0.16536650  0.33410757  0.67311697  1
  Te  Te141  1  0.16175135  0.67051148  -0.00079590  1
  Te  Te142  1  0.16778009  0.67100443  0.33485577  1
  Te  Te143  1  0.16817944  0.65840084  0.66615665  1
  Te  Te144  1  0.49698559  -0.00410431  -0.00496482  1
  Te  Te145  1  0.49691206  0.00468546  0.33344223  1
  Te  Te146  1  0.50020244  -0.00113737  0.67129771  1
  Te  Te147  1  0.49703145  0.33254882  -0.00029412  1
  Te  Te148  1  0.50213495  0.32892697  0.33181674  1
  Te  Te149  1  0.49696428  0.33346775  0.66922330  1
  Te  Te150  1  0.50013635  0.67090709  0.00038304  1
  Te  Te151  1  0.49870187  0.66332225  0.33913918  1
  Te  Te152  1  0.49704800  0.66690020  0.66054085  1
  Te  Te153  1  0.83544377  0.00233987  -0.00084707  1
  Te  Te154  1  0.83587224  0.00012749  0.33248381  1
  Te  Te155  1  0.83888062  -0.00061189  0.66793559  1
  Te  Te156  1  0.83367055  0.33093969  -0.00165501  1
  Te  Te157  1  0.83936819  0.33337531  0.33501200  1
  Te  Te158  1  0.83721013  0.33196539  0.66784231  1
  Te  Te159  1  0.83791964  0.66499442  0.00419224  1
  Te  Te160  1  0.83454324  0.66747149  0.32755000  1
  Te  Te161  1  0.83339864  0.67467155  0.66508990  1
  Te  Te162  1  0.00156499  0.16066898  0.00150876  1
  Te  Te163  1  0.00181570  0.16647555  0.33702808  1
  Te  Te164  1  0.00246099  0.16728513  0.66685143  1
  Te  Te165  1  0.00133559  0.49732107  0.00051648  1
  Te  Te166  1  0.00614549  0.49645713  0.33163046  1
  Te  Te167  1  -0.00681187  0.49830730  0.66694509  1
  Te  Te168  1  -0.00724413  0.83639867  0.00003088  1
  Te  Te169  1  -0.00012185  0.84215898  0.33436661  1
  Te  Te170  1  0.00208730  0.83242386  0.66712263  1
  Te  Te171  1  0.32660894  0.16568327  -0.00612553  1
  Te  Te172  1  0.33380981  0.17315365  0.33243756  1
  Te  Te173  1  0.32909629  0.17129633  0.67218803  1
  Te  Te174  1  0.33111180  0.50933520  -0.00068117  1
  Te  Te175  1  0.32626320  0.49233499  0.33240197  1
  Te  Te176  1  0.33657121  0.49903771  0.66818410  1
  Te  Te177  1  0.33909784  0.82723473  -0.00033715  1
  Te  Te178  1  0.34249502  0.83307083  0.33265142  1
  Te  Te179  1  0.32754830  0.82699353  0.66715464  1
  Te  Te180  1  0.66780558  0.16602613  0.00097269  1
  Te  Te181  1  0.66861861  0.16182749  0.33133164  1
  Te  Te182  1  0.66906328  0.16572373  0.66949142  1
  Te  Te183  1  0.66946271  0.50066016  0.00103765  1
  Te  Te184  1  0.66918569  0.50058210  0.32674014  1
  Te  Te185  1  0.67622707  0.50027741  0.66809422  1
  Te  Te186  1  0.66816412  0.83329895  0.00454065  1
  Te  Te187  1  0.66147189  0.83820904  0.32862852  1
  Te  Te188  1  0.67009533  0.83391906  0.66678764  1
  Te  Te189  1  -0.00041549  -0.00052119  0.16419236  1
  Te  Te190  1  0.00553776  0.00430357  0.50327805  1
  Te  Te191  1  -0.00257689  -0.00343671  0.83359598  1
  Te  Te192  1  -0.00037247  0.33599614  0.16820184  1
  Te  Te193  1  0.00397729  0.32971814  0.50206510  1
  Te  Te194  1  -0.00155866  0.33808960  0.83090324  1
  Te  Te195  1  -0.00038682  0.66595227  0.16347276  1
  Te  Te196  1  0.00605432  0.66730782  0.49739834  1
  Te  Te197  1  0.00560151  0.66158964  0.83856502  1
  Te  Te198  1  0.32130163  0.00018989  0.16665498  1
  Te  Te199  1  0.32300793  -0.00080309  0.50056391  1
  Te  Te200  1  0.33723222  0.00645890  0.83241286  1
  Te  Te201  1  0.33770638  0.33327388  0.16896151  1
  Te  Te202  1  0.33189195  0.33201701  0.50221564  1
  Te  Te203  1  0.33455468  0.33021505  0.83220861  1
  Te  Te204  1  0.32868239  0.66536505  0.16294768  1
  Te  Te205  1  0.33282447  0.66459286  0.50220298  1
  Te  Te206  1  0.32935385  0.66574299  0.83230979  1
  Te  Te207  1  0.66538501  0.00239462  0.16933352  1
  Te  Te208  1  0.66403299  0.00039761  0.49141241  1
  Te  Te209  1  0.66763203  0.00411021  0.83300232  1
  Te  Te210  1  0.67123279  0.33033030  0.16639526  1
  Te  Te211  1  0.65751810  0.33331434  0.50009598  1
  Te  Te212  1  0.66852699  0.33287148  0.83208994  1
  Te  Te213  1  0.67003090  0.66561845  0.16703524  1
  Te  Te214  1  0.66366252  0.66624345  0.49919130  1
  Te  Te215  1  0.66414810  0.66265293  0.83345021  1
