# generated using pymatgen
data_AgSbTe2
_symmetry_space_group_name_H-M   'P 1'
_cell_length_a   18.31194976
_cell_length_b   18.31453267
_cell_length_c   18.30835095
_cell_angle_alpha   89.99846623
_cell_angle_beta   90.00105684
_cell_angle_gamma   89.99908970
_symmetry_Int_Tables_number   1
_chemical_formula_structural   AgSbTe2
_chemical_formula_sum   'Ag54 Sb54 Te108'
_cell_volume   6140.15957357
_cell_formula_units_Z   54
loop_
 _symmetry_equiv_pos_site_id
 _symmetry_equiv_pos_as_xyz
  1  'x, y, z'
loop_
 _atom_site_type_symbol
 _atom_site_label
 _atom_site_symmetry_multiplicity
 _atom_site_fract_x
 _atom_site_fract_y
 _atom_site_fract_z
 _atom_site_occupancy
  Ag  Ag0  1  0.00058999  0.83054567  0.83010100  1
  Ag  Ag1  1  0.66810367  0.49409053  0.82965677  1
  Ag  Ag2  1  0.50050720  0.66214961  0.83633159  1
  Ag  Ag3  1  0.33400664  0.66551410  0.32797075  1
  Ag  Ag4  1  0.66616843  0.83324817  0.50126880  1
  Ag  Ag5  1  0.33234769  -0.00049848  0.66533760  1
  Ag  Ag6  1  0.50154987  0.34193225  0.50499332  1
  Ag  Ag7  1  0.32632131  0.82875144  0.83428639  1
  Ag  Ag8  1  -0.00014647  0.17077975  0.16225056  1
  Ag  Ag9  1  0.49412233  -0.00102077  0.16672632  1
  Ag  Ag10  1  0.00404687  0.49038017  0.16253470  1
  Ag  Ag11  1  -0.00590964  0.17292066  0.83927390  1
  Ag  Ag12  1  0.67508062  0.17479603  0.83437259  1
  Ag  Ag13  1  0.49759210  0.50175026  0.33792363  1
  Ag  Ag14  1  0.16817666  0.16208868  0.32962974  1
  Ag  Ag15  1  0.84136219  0.32418962  0.15917391  1
  Ag  Ag16  1  0.49624648  0.66105806  0.49876410  1
  Ag  Ag17  1  0.16704593  0.00611471  0.16904959  1
  Ag  Ag18  1  0.67054947  -0.00132145  0.00177083  1
  Ag  Ag19  1  0.16867733  0.83209017  0.00444021  1
  Ag  Ag20  1  0.66868860  0.33355207  0.67152728  1
  Ag  Ag21  1  0.83308172  0.16545581  0.00008983  1
  Ag  Ag22  1  0.66406795  0.67101176  -0.00219861  1
  Ag  Ag23  1  0.83442927  0.32852939  0.83669928  1
  Ag  Ag24  1  0.16096681  0.32635871  0.16733752  1
  Ag  Ag25  1  0.83373820  0.66617147  0.83902607  1
  Ag  Ag26  1  0.83451483  0.83550213  0.66887645  1
  Ag  Ag27  1  0.83192770  -0.00133054  0.50222679  1
  Ag  Ag28  1  -0.00555547  0.49467091  0.83534288  1
  Ag  Ag29  1  0.33688396  0.66994337  0.00508268  1
  Ag  Ag30  1  -0.00149872  0.33114757  -0.00308423  1
  Ag  Ag31  1  0.66335932  0.16735912  0.50163655  1
  Ag  Ag32  1  0.83336719  0.00521532  0.83511654  1
  Ag  Ag33  1  0.82996473  0.66788312  0.15947356  1
  Ag  Ag34  1  0.33350681  0.33567016  0.33014147  1
  Ag  Ag35  1  0.00158967  0.00011534  0.32951194  1
  Ag  Ag36  1  0.00253788  0.83383569  0.50478732  1
  Ag  Ag37  1  0.83480262  0.00509793  0.16257978  1
  Ag  Ag38  1  0.50908666  0.34226556  0.82698590  1
  Ag  Ag39  1  0.17680688  0.67002394  0.50294122  1
  Ag  Ag40  1  0.32360764  0.16480042  0.17124337  1
  Ag  Ag41  1  0.66056470  0.49949744  0.50838281  1
  Ag  Ag42  1  0.67426687  0.16513854  0.16170642  1
  Ag  Ag43  1  0.17039847  0.49684545  0.66772990  1
  Ag  Ag44  1  -0.00287252  0.33284191  0.67511825  1
  Ag  Ag45  1  0.16867547  0.83626010  0.33004461  1
  Ag  Ag46  1  0.49805541  0.49851603  0.66337563  1
  Ag  Ag47  1  0.16662579  0.17049793  0.66301034  1
  Ag  Ag48  1  0.33290388  0.16334805  0.49351079  1
  Ag  Ag49  1  0.49422671  0.66660087  0.16493343  1
  Ag  Ag50  1  0.33028380  0.83259509  0.49793989  1
  Ag  Ag51  1  0.33163231  0.50723284  0.17021831  1
  Ag  Ag52  1  0.16740728  0.66957403  0.83111352  1
  Ag  Ag53  1  0.32948068  0.83026471  0.16829534  1
  Sb  Sb54  1  0.49848439  0.17219796  0.66560647  1
  Sb  Sb55  1  0.83772183  0.16588206  0.32602798  1
  Sb  Sb56  1  0.49235747  0.82809369  0.33315311  1
  Sb  Sb57  1  0.00487631  0.83586780  0.16450870  1
  Sb  Sb58  1  0.16234366  0.33646370  0.83508860  1
  Sb  Sb59  1  0.16486967  0.83319624  0.66540631  1
  Sb  Sb60  1  0.17228057  0.50124786  0.33410403  1
  Sb  Sb61  1  0.50180721  0.82795583  0.66584099  1
  Sb  Sb62  1  0.83005386  0.67262535  0.50158253  1
  Sb  Sb63  1  -0.00033589  0.66393684  -0.00187241  1
  Sb  Sb64  1  0.49499451  0.83025378  0.00038846  1
  Sb  Sb65  1  0.34001031  0.50232860  0.49586951  1
  Sb  Sb66  1  0.49900708  0.33457910  0.16676064  1
  Sb  Sb67  1  0.33259343  0.16450557  0.83437849  1
  Sb  Sb68  1  0.66387224  0.83658367  0.16907162  1
  Sb  Sb69  1  0.16143740  -0.00427871  0.83643862  1
  Sb  Sb70  1  0.16173482  0.16332472  0.00392017  1
  Sb  Sb71  1  0.33567198  -0.00489072  0.00180785  1
  Sb  Sb72  1  0.82711007  0.32730712  0.50298919  1
  Sb  Sb73  1  0.50193502  -0.00142794  0.49513507  1
  Sb  Sb74  1  0.00622035  0.32957968  0.32931631  1
  Sb  Sb75  1  0.33418470  0.33041949  0.66275443  1
  Sb  Sb76  1  0.33316281  0.67034024  0.66589836  1
  Sb  Sb77  1  0.32896632  0.33694088  0.00543381  1
  Sb  Sb78  1  0.66027475  0.66676046  0.33042427  1
  Sb  Sb79  1  -0.00201290  0.50394913  0.50249552  1
  Sb  Sb80  1  0.67053584  0.83086753  0.83058340  1
  Sb  Sb81  1  0.17154986  0.66728920  0.16475952  1
  Sb  Sb82  1  0.16464414  -0.00356321  0.49637727  1
  Sb  Sb83  1  0.50445244  -0.00244832  0.83679241  1
  Sb  Sb84  1  0.66594373  0.49842870  0.16324546  1
  Sb  Sb85  1  0.83379338  0.49539927  -0.00168211  1
  Sb  Sb86  1  0.67159611  0.33210547  -0.00566170  1
  Sb  Sb87  1  0.82879181  0.50048959  0.33104666  1
  Sb  Sb88  1  -0.00466808  0.00433923  0.00318893  1
  Sb  Sb89  1  0.67172380  0.00144939  0.32908923  1
  Sb  Sb90  1  0.00251795  0.00276183  0.66576075  1
  Sb  Sb91  1  0.00029876  0.66354503  0.67063516  1
  Sb  Sb92  1  0.16561183  0.50496229  -0.00232345  1
  Sb  Sb93  1  0.66518088  0.00460943  0.66904837  1
  Sb  Sb94  1  0.50632324  0.16625545  0.00206807  1
  Sb  Sb95  1  0.66601967  0.66082661  0.67111205  1
  Sb  Sb96  1  0.50040617  0.50183401  -0.00228538  1
  Sb  Sb97  1  0.00665267  0.67018281  0.33107253  1
  Sb  Sb98  1  0.83825642  0.83713142  -0.00432686  1
  Sb  Sb99  1  0.49313350  0.17107992  0.33269565  1
  Sb  Sb100  1  0.17120750  0.33517247  0.49761081  1
  Sb  Sb101  1  0.83153483  0.50103872  0.67116107  1
  Sb  Sb102  1  0.00046832  0.16349660  0.49928225  1
  Sb  Sb103  1  0.83668619  0.16422361  0.67391109  1
  Sb  Sb104  1  0.66180301  0.33222554  0.33598885  1
  Sb  Sb105  1  0.33421200  0.50566472  0.83608923  1
  Sb  Sb106  1  0.32873626  -0.00112502  0.33277026  1
  Sb  Sb107  1  0.83954478  0.83462679  0.33568881  1
  Te  Te108  1  0.16478275  0.16598445  0.16602978  1
  Te  Te109  1  0.16941781  0.16659641  0.49911321  1
  Te  Te110  1  0.16229234  0.16545951  0.83146435  1
  Te  Te111  1  0.16578870  0.49807266  0.16662967  1
  Te  Te112  1  0.16480093  0.50524889  0.50496647  1
  Te  Te113  1  0.16425042  0.50412178  0.82994915  1
  Te  Te114  1  0.16942921  0.83366479  0.16818872  1
  Te  Te115  1  0.16821391  0.83048583  0.49969153  1
  Te  Te116  1  0.16581280  0.83069549  0.83202963  1
  Te  Te117  1  0.50216662  0.16438704  0.16772609  1
  Te  Te118  1  0.50021535  0.16714039  0.49922668  1
  Te  Te119  1  0.50380152  0.16754230  0.83359957  1
  Te  Te120  1  0.49775106  0.50343912  0.16967371  1
  Te  Te121  1  0.50115713  0.50074993  0.50172074  1
  Te  Te122  1  0.50105266  0.50185203  0.83076079  1
  Te  Te123  1  0.49540595  0.83106550  0.16743218  1
  Te  Te124  1  0.49761241  0.83006571  0.49969022  1
  Te  Te125  1  0.49601175  0.82804371  0.83228112  1
  Te  Te126  1  0.83496834  0.16557815  0.16510741  1
  Te  Te127  1  0.83028914  0.16017826  0.49824653  1
  Te  Te128  1  0.83423763  0.16726277  0.83441162  1
  Te  Te129  1  0.83527991  0.50314113  0.16591942  1
  Te  Te130  1  0.82527874  0.50046545  0.50041922  1
  Te  Te131  1  0.83486958  0.50256732  0.83255054  1
  Te  Te132  1  0.83349478  0.83324089  0.16650870  1
  Te  Te133  1  0.83489738  0.83689518  0.50209786  1
  Te  Te134  1  0.83607338  0.83147661  0.83118963  1
  Te  Te135  1  0.16702508  -0.00684129  0.00655460  1
  Te  Te136  1  0.16358208  -0.00011863  0.32974033  1
  Te  Te137  1  0.17087293  0.00623532  0.66757970  1
  Te  Te138  1  0.16064839  0.33385156  0.00624228  1
  Te  Te139  1  0.17276376  0.33127990  0.32933933  1
  Te  Te140  1  0.16489791  0.33311036  0.66638326  1
  Te  Te141  1  0.17001860  0.67146275  -0.00579529  1
  Te  Te142  1  0.17300624  0.66954281  0.33813463  1
  Te  Te143  1  0.16650706  0.66251549  0.66758446  1
  Te  Te144  1  0.50800779  -0.00121759  0.00657018  1
  Te  Te145  1  0.50197671  -0.00052744  0.32541776  1
  Te  Te146  1  0.49367014  0.00008496  0.66689569  1
  Te  Te147  1  0.49911527  0.33419798  -0.00857466  1
  Te  Te148  1  0.49446030  0.33868943  0.33708259  1
  Te  Te149  1  0.50126531  0.33784146  0.66701997  1
  Te  Te150  1  0.49901948  0.66637625  0.00048464  1
  Te  Te151  1  0.49445339  0.66254677  0.33316158  1
  Te  Te152  1  0.50037490  0.66010595  0.66605801  1
  Te  Te153  1  0.83020997  0.00318393  -0.00053388  1
  Te  Te154  1  0.83973624  -0.00046049  0.33201747  1
  Te  Te155  1  0.83273156  -0.00354781  0.66792111  1
  Te  Te156  1  0.83748568  0.32870560  -0.00089773  1
  Te  Te157  1  0.83409974  0.33384905  0.32789032  1
  Te  Te158  1  0.83326800  0.33253914  0.67121732  1
  Te  Te159  1  0.83111868  0.66908552  -0.00034538  1
  Te  Te160  1  0.83353247  0.66745092  0.32601964  1
  Te  Te161  1  0.83298280  0.67318240  0.67185466  1
  Te  Te162  1  -0.00416229  0.16992486  0.00018112  1
  Te  Te163  1  0.00680856  0.16279800  0.33040346  1
  Te  Te164  1  0.00506363  0.17108273  0.66726387  1
  Te  Te165  1  0.00046837  0.49431496  0.00043803  1
  Te  Te166  1  -0.00021402  0.50035578  0.32870891  1
  Te  Te167  1  0.00280751  0.49447350  0.66981139  1
  Te  Te168  1  0.00701897  0.83395316  -0.00663096  1
  Te  Te169  1  0.00700758  0.83701849  0.33641317  1
  Te  Te170  1  -0.00247704  0.83385757  0.66801908  1
  Te  Te171  1  0.33378216  0.16675562  0.00585679  1
  Te  Te172  1  0.32854422  0.16636258  0.33240346  1
  Te  Te173  1  0.32838435  0.16318408  0.66629994  1
  Te  Te174  1  0.33272745  0.50634217  0.00875715  1
  Te  Te175  1  0.33637656  0.50067335  0.32966303  1
  Te  Te176  1  0.33196467  0.49914211  0.66681485  1
  Te  Te177  1  0.32944508  0.83000212  -0.00003363  1
  Te  Te178  1  0.32858422  0.83164244  0.33459569  1
  Te  Te179  1  0.33351703  0.83792819  0.66473018  1
  Te  Te180  1  0.67191084  0.16557985  -0.00007323  1
  Te  Te181  1  0.66565131  0.16712540  0.33558783  1
  Te  Te182  1  0.66671714  0.17214894  0.66660671  1
  Te  Te183  1  0.66712330  0.50793243  -0.00653198  1
  Te  Te184  1  0.65956393  0.49946622  0.33674957  1
  Te  Te185  1  0.66470504  0.49526799  0.66898043  1
  Te  Te186  1  0.66754661  0.83245771  0.00000939  1
  Te  Te187  1  0.66633833  0.83364247  0.34200911  1
  Te  Te188  1  0.67076691  0.83500015  0.66100985  1
  Te  Te189  1  -0.00091606  0.00126545  0.16863853  1
  Te  Te190  1  -0.00432446  -0.00464367  0.49754958  1
  Te  Te191  1  -0.00633462  0.00039980  0.83417659  1
  Te  Te192  1  -0.00007595  0.33214354  0.16851395  1
  Te  Te193  1  -0.00213880  0.33492949  0.50354049  1
  Te  Te194  1  0.00000327  0.33404334  0.83351276  1
  Te  Te195  1  -0.00431367  0.66360939  0.16587944  1
  Te  Te196  1  0.00005571  0.67294374  0.49979419  1
  Te  Te197  1  -0.00111419  0.66713609  0.83422984  1
  Te  Te198  1  0.33304973  -0.00052656  0.16667475  1
  Te  Te199  1  0.33343070  0.00115195  0.50171467  1
  Te  Te200  1  0.33465685  -0.00532915  0.83178266  1
  Te  Te201  1  0.33312465  0.32983810  0.16934054  1
  Te  Te202  1  0.33771196  0.32839267  0.49524482  1
  Te  Te203  1  0.33726506  0.33316462  0.83534047  1
  Te  Te204  1  0.33302568  0.66843268  0.16659642  1
  Te  Te205  1  0.33486374  0.66848418  0.49938682  1
  Te  Te206  1  0.33358302  0.66977836  0.83406865  1
  Te  Te207  1  0.67144564  0.00254450  0.16370884  1
  Te  Te208  1  0.66986505  0.00156002  0.50059897  1
  Te  Te209  1  0.67076359  0.00189365  0.83705775  1
  Te  Te210  1  0.66982357  0.32809907  0.16560901  1
  Te  Te211  1  0.66261232  0.33172092  0.50310291  1
  Te  Te212  1  0.66871606  0.33394843  0.83334377  1
  Te  Te213  1  0.66594458  0.66690547  0.16263215  1
  Te  Te214  1  0.66310842  0.66658514  0.49945802  1
  Te  Te215  1  0.66547433  0.66588742  0.83600705  1
