# generated using pymatgen
data_AgSbTe2
_symmetry_space_group_name_H-M   'P 1'
_cell_length_a   18.33001987
_cell_length_b   18.33213875
_cell_length_c   18.33497059
_cell_angle_alpha   89.99621755
_cell_angle_beta   90.00459080
_cell_angle_gamma   90.00557813
_symmetry_Int_Tables_number   1
_chemical_formula_structural   AgSbTe2
_chemical_formula_sum   'Ag54 Sb54 Te108'
_cell_volume   6161.07200417
_cell_formula_units_Z   54
loop_
 _symmetry_equiv_pos_site_id
 _symmetry_equiv_pos_as_xyz
  1  'x, y, z'
loop_
 _atom_site_type_symbol
 _atom_site_label
 _atom_site_symmetry_multiplicity
 _atom_site_fract_x
 _atom_site_fract_y
 _atom_site_fract_z
 _atom_site_occupancy
  Ag  Ag0  1  0.00111499  0.83756495  0.50107450  1
  Ag  Ag1  1  0.34498700  0.83562014  0.16898136  1
  Ag  Ag2  1  0.50958328  -0.01060592  0.17369484  1
  Ag  Ag3  1  0.17405862  0.83572008  0.33331679  1
  Ag  Ag4  1  0.83224257  0.49519187  0.00310784  1
  Ag  Ag5  1  -0.01060638  0.16993028  0.49777026  1
  Ag  Ag6  1  0.67062743  0.32519007  0.33402789  1
  Ag  Ag7  1  0.16450172  0.49777811  0.00222015  1
  Ag  Ag8  1  0.82831713  0.17057662  0.33718506  1
  Ag  Ag9  1  0.16598740  0.33139992  0.17657140  1
  Ag  Ag10  1  0.83393766  0.33466976  0.83217360  1
  Ag  Ag11  1  0.65950354  0.00228537  0.66033477  1
  Ag  Ag12  1  0.50214992  0.50460005  0.00109318  1
  Ag  Ag13  1  0.49624902  0.84082696  0.32472012  1
  Ag  Ag14  1  0.66263828  0.00461283  0.32816041  1
  Ag  Ag15  1  0.82761927  0.65712305  0.83821388  1
  Ag  Ag16  1  0.33236604  0.33054000  0.33681293  1
  Ag  Ag17  1  0.50263239  0.67698490  0.16095072  1
  Ag  Ag18  1  0.50061671  0.82891686  0.01301387  1
  Ag  Ag19  1  -0.00294551  0.33360533  -0.00245444  1
  Ag  Ag20  1  0.50179808  0.66461666  0.84295818  1
  Ag  Ag21  1  0.82932862  0.17161347  0.00536722  1
  Ag  Ag22  1  0.84089901  0.32385786  0.50129007  1
  Ag  Ag23  1  0.50666444  0.00017607  0.49086882  1
  Ag  Ag24  1  0.49406529  0.50400386  0.66496945  1
  Ag  Ag25  1  -0.00218887  0.83104265  0.82828808  1
  Ag  Ag26  1  0.66710337  0.50002070  0.83483298  1
  Ag  Ag27  1  0.16650581  0.65248618  0.49971996  1
  Ag  Ag28  1  0.16015299  0.33556024  0.49939642  1
  Ag  Ag29  1  0.83575648  0.16845302  0.65232045  1
  Ag  Ag30  1  0.34073586  0.00246558  0.33293676  1
  Ag  Ag31  1  0.67424159  0.16013502  0.17299730  1
  Ag  Ag32  1  0.67617550  0.16316528  0.49067627  1
  Ag  Ag33  1  0.49761236  0.83463722  0.66500525  1
  Ag  Ag34  1  0.00570816  0.33164526  0.66091138  1
  Ag  Ag35  1  0.33495678  0.16732821  0.82975800  1
  Ag  Ag36  1  0.82920566  0.49209257  0.32967088  1
  Ag  Ag37  1  0.34030096  0.66426507  -0.00215646  1
  Ag  Ag38  1  0.82639870  0.01208760  0.49283738  1
  Ag  Ag39  1  0.82062418  0.00666324  0.17205582  1
  Ag  Ag40  1  0.33615973  0.66228626  0.67049068  1
  Ag  Ag41  1  0.16991650  0.00429938  0.17035664  1
  Ag  Ag42  1  0.50733313  0.15942189  0.00182934  1
  Ag  Ag43  1  0.65590675  0.84854867  0.16696652  1
  Ag  Ag44  1  0.00329754  0.48740441  0.49980867  1
  Ag  Ag45  1  0.82718596  0.66831171  0.16216303  1
  Ag  Ag46  1  0.32625737  0.33182626  0.66174846  1
  Ag  Ag47  1  0.33908864  0.00192255  0.65975053  1
  Ag  Ag48  1  -0.00917863  0.16787809  0.17111812  1
  Ag  Ag49  1  0.16774430  0.49599026  0.33906240  1
  Ag  Ag50  1  0.17201948  0.49336870  0.65594462  1
  Ag  Ag51  1  0.50058376  0.50199975  0.33137325  1
  Ag  Ag52  1  0.66457297  0.00411180  0.01301858  1
  Ag  Ag53  1  0.16503339  0.17465754  0.66324528  1
  Sb  Sb54  1  0.16533100  0.17163218  -0.00021516  1
  Sb  Sb55  1  0.67104016  0.49328029  0.50090443  1
  Sb  Sb56  1  -0.00129986  0.83879349  0.16873835  1
  Sb  Sb57  1  0.33833674  0.49720206  0.83092745  1
  Sb  Sb58  1  0.32877421  0.49897539  0.50044929  1
  Sb  Sb59  1  0.49436200  0.66978560  0.49904537  1
  Sb  Sb60  1  0.50562276  0.16303060  0.32897122  1
  Sb  Sb61  1  0.83102255  0.00409341  0.83405639  1
  Sb  Sb62  1  0.16861988  0.00077390  0.83532223  1
  Sb  Sb63  1  0.33413237  0.50378126  0.16652677  1
  Sb  Sb64  1  0.00046402  0.00547785  0.66370315  1
  Sb  Sb65  1  0.49633225  0.33218862  0.16853398  1
  Sb  Sb66  1  0.33367070  0.83512153  0.83479524  1
  Sb  Sb67  1  0.66024382  0.66959390  0.66822305  1
  Sb  Sb68  1  0.66524848  0.66850906  0.33127987  1
  Sb  Sb69  1  0.66753291  0.84291526  0.49487647  1
  Sb  Sb70  1  -0.00314041  0.00179803  0.33359806  1
  Sb  Sb71  1  0.16275213  0.16891350  0.33625467  1
  Sb  Sb72  1  0.00415329  0.66161337  0.66556586  1
  Sb  Sb73  1  0.17179713  0.82930897  0.00677459  1
  Sb  Sb74  1  0.33407030  0.66738304  0.33276499  1
  Sb  Sb75  1  0.83414267  0.49340614  0.66653445  1
  Sb  Sb76  1  0.16303633  0.33477701  0.82845779  1
  Sb  Sb77  1  0.66752036  0.49725096  0.16532004  1
  Sb  Sb78  1  0.50025385  0.32945812  0.49794201  1
  Sb  Sb79  1  0.33296363  0.16646732  0.50270637  1
  Sb  Sb80  1  -0.00103257  0.49326689  0.17083196  1
  Sb  Sb81  1  0.17040825  0.83249324  0.66016497  1
  Sb  Sb82  1  -0.00014825  0.16675296  0.83128011  1
  Sb  Sb83  1  0.16974838  0.66441740  0.83046066  1
  Sb  Sb84  1  0.67073318  0.32986371  0.00583804  1
  Sb  Sb85  1  0.49952108  0.16523709  0.66973297  1
  Sb  Sb86  1  0.82968281  0.83828334  0.66592279  1
  Sb  Sb87  1  -0.00047793  0.33292738  0.33721417  1
  Sb  Sb88  1  0.00091154  0.66201741  -0.00052746  1
  Sb  Sb89  1  0.82815547  0.83272069  0.00131101  1
  Sb  Sb90  1  0.83068225  0.83644821  0.33248553  1
  Sb  Sb91  1  0.33505832  0.16205383  0.16543757  1
  Sb  Sb92  1  0.83768223  0.32736620  0.16960163  1
  Sb  Sb93  1  0.66127717  0.66791715  0.00158372  1
  Sb  Sb94  1  0.50448664  0.33855712  0.83287612  1
  Sb  Sb95  1  0.16799056  0.66543377  0.17085711  1
  Sb  Sb96  1  0.00061492  0.66608466  0.33359082  1
  Sb  Sb97  1  0.33172360  0.83532302  0.49500955  1
  Sb  Sb98  1  -0.00459913  0.50061784  0.83037841  1
  Sb  Sb99  1  0.66574773  0.16971980  0.83476788  1
  Sb  Sb100  1  0.32995678  0.33639298  -0.00002226  1
  Sb  Sb101  1  0.34021023  -0.00263654  0.00509266  1
  Sb  Sb102  1  0.50086272  -0.00431428  0.83507025  1
  Sb  Sb103  1  -0.00586601  0.00521880  0.00263985  1
  Sb  Sb104  1  0.66671258  0.83065587  0.83771905  1
  Sb  Sb105  1  0.66711442  0.32922397  0.66228189  1
  Sb  Sb106  1  0.16616545  0.00401745  0.49613974  1
  Sb  Sb107  1  0.83922302  0.66326852  0.49947992  1
  Te  Te108  1  0.16602533  0.16810394  0.16679911  1
  Te  Te109  1  0.16344041  0.17120123  0.50385559  1
  Te  Te110  1  0.17019602  0.16640059  0.82748541  1
  Te  Te111  1  0.16643738  0.49684121  0.16680394  1
  Te  Te112  1  0.16476387  0.49611355  0.49959642  1
  Te  Te113  1  0.16608498  0.50107331  0.84027432  1
  Te  Te114  1  0.16616324  0.83441976  0.17314149  1
  Te  Te115  1  0.16243236  0.83771759  0.49326819  1
  Te  Te116  1  0.16132464  0.83243282  0.83448068  1
  Te  Te117  1  0.50183841  0.16452748  0.16086491  1
  Te  Te118  1  0.50485911  0.16131364  0.50124923  1
  Te  Te119  1  0.49740958  0.16819944  0.84038834  1
  Te  Te120  1  0.50054939  0.50084889  0.16735900  1
  Te  Te121  1  0.50259790  0.50073400  0.49784902  1
  Te  Te122  1  0.50371266  0.50420869  0.83453112  1
  Te  Te123  1  0.50049724  0.83288099  0.16918680  1
  Te  Te124  1  0.50018404  0.83767014  0.50353465  1
  Te  Te125  1  0.49957709  0.82523040  0.82582941  1
  Te  Te126  1  0.83404558  0.16571255  0.16517810  1
  Te  Te127  1  0.83277765  0.16764525  0.49693429  1
  Te  Te128  1  0.83336600  0.17130163  0.84460440  1
  Te  Te129  1  0.83373957  0.50267817  0.16776309  1
  Te  Te130  1  0.83915615  0.49787814  0.49627363  1
  Te  Te131  1  0.83043120  0.49804901  0.83404894  1
  Te  Te132  1  0.83082845  0.83355640  0.16676440  1
  Te  Te133  1  0.83936817  0.83250349  0.49984658  1
  Te  Te134  1  0.83559940  0.83000642  0.83338567  1
  Te  Te135  1  0.16764568  -0.00035205  0.00672651  1
  Te  Te136  1  0.17177084  -0.00004485  0.33119873  1
  Te  Te137  1  0.17282473  0.00240359  0.66626929  1
  Te  Te138  1  0.16273540  0.33803704  -0.00062890  1
  Te  Te139  1  0.16831528  0.33416380  0.33564041  1
  Te  Te140  1  0.16627643  0.33437333  0.66638228  1
  Te  Te141  1  0.17181821  0.66017580  0.00090644  1
  Te  Te142  1  0.16793045  0.66127372  0.33766932  1
  Te  Te143  1  0.17263522  0.66367244  0.66311026  1
  Te  Te144  1  0.50333345  -0.00054089  0.00134561  1
  Te  Te145  1  0.50061458  0.00100954  0.33231926  1
  Te  Te146  1  0.49845163  0.00042398  0.66897468  1
  Te  Te147  1  0.49952721  0.34148386  0.00041812  1
  Te  Te148  1  0.49379390  0.33935908  0.33439433  1
  Te  Te149  1  0.49572493  0.33844490  0.66574532  1
  Te  Te150  1  0.49977857  0.66608076  0.00200230  1
  Te  Te151  1  0.49880346  0.66273037  0.33079839  1
  Te  Te152  1  0.49548581  0.66412505  0.66416598  1
  Te  Te153  1  0.82722832  0.00202454  0.00350891  1
  Te  Te154  1  0.83053459  0.00104300  0.33238573  1
  Te  Te155  1  0.83247168  0.00618804  0.66526942  1
  Te  Te156  1  0.83455604  0.33519113  0.00240359  1
  Te  Te157  1  0.83223459  0.33279094  0.33474919  1
  Te  Te158  1  0.83317042  0.32928533  0.66457212  1
  Te  Te159  1  0.83350015  0.66319474  -0.00070201  1
  Te  Te160  1  0.83265318  0.66223455  0.32959939  1
  Te  Te161  1  0.83267412  0.66646791  0.67219820  1
  Te  Te162  1  -0.00292958  0.17154856  0.00049805  1
  Te  Te163  1  -0.00643937  0.16647891  0.33313896  1
  Te  Te164  1  -0.00145284  0.17068825  0.66547100  1
  Te  Te165  1  -0.00266853  0.49543625  0.00017801  1
  Te  Te166  1  0.00246765  0.50005904  0.33809526  1
  Te  Te167  1  0.00374047  0.49420101  0.66231752  1
  Te  Te168  1  0.00201304  0.83312298  -0.00222688  1
  Te  Te169  1  0.00482008  0.83416910  0.33802229  1
  Te  Te170  1  0.00062870  0.83353066  0.66435773  1
  Te  Te171  1  0.33512150  0.16689995  -0.00519836  1
  Te  Te172  1  0.33420686  0.16727747  0.33415138  1
  Te  Te173  1  0.33278029  0.16821950  0.66767833  1
  Te  Te174  1  0.33620501  0.50357305  -0.00090020  1
  Te  Te175  1  0.33349938  0.49706408  0.33321130  1
  Te  Te176  1  0.33269786  0.49830021  0.66687000  1
  Te  Te177  1  0.33914670  0.82900701  0.00252900  1
  Te  Te178  1  0.33509837  0.83442868  0.32995757  1
  Te  Te179  1  0.33607241  0.83660597  0.66698949  1
  Te  Te180  1  0.66619816  0.16508198  0.00073449  1
  Te  Te181  1  0.66694965  0.16571667  0.33238426  1
  Te  Te182  1  0.66969286  0.16389446  0.66730324  1
  Te  Te183  1  0.66872400  0.49831223  -0.00196868  1
  Te  Te184  1  0.66763418  0.49700114  0.33346872  1
  Te  Te185  1  0.66155175  0.50027378  0.66909086  1
  Te  Te186  1  0.66074703  0.84019794  0.00409472  1
  Te  Te187  1  0.66162269  0.83759083  0.32835458  1
  Te  Te188  1  0.66165752  0.83889960  0.66660127  1
  Te  Te189  1  0.00635387  0.00633053  0.16651073  1
  Te  Te190  1  -0.00535009  0.00316615  0.49989139  1
  Te  Te191  1  0.00014307  -0.00710068  0.83388015  1
  Te  Te192  1  0.00552774  0.32841868  0.16192305  1
  Te  Te193  1  0.00018769  0.33074562  0.50119056  1
  Te  Te194  1  -0.00640793  0.33321230  0.83362533  1
  Te  Te195  1  -0.00743217  0.66843956  0.16522892  1
  Te  Te196  1  0.00621004  0.67152346  0.50056821  1
  Te  Te197  1  -0.00406026  0.67043613  0.83279412  1
  Te  Te198  1  0.33210471  -0.00313447  0.17010788  1
  Te  Te199  1  0.33733813  0.00067093  0.49798699  1
  Te  Te200  1  0.33300931  0.00375240  0.82771937  1
  Te  Te201  1  0.32635516  0.33269690  0.16921458  1
  Te  Te202  1  0.33007157  0.33238382  0.49970376  1
  Te  Te203  1  0.33411492  0.32888308  0.82994575  1
  Te  Te204  1  0.33660463  0.67198560  0.16363231  1
  Te  Te205  1  0.32662419  0.66857150  0.50739190  1
  Te  Te206  1  0.33720570  0.66744130  0.83236555  1
  Te  Te207  1  0.66535275  0.00381689  0.16830102  1
  Te  Te208  1  0.66718905  0.00224820  0.50015513  1
  Te  Te209  1  0.66726504  -0.00073025  0.82484921  1
  Te  Te210  1  0.66540110  0.32666364  0.17421872  1
  Te  Te211  1  0.67044935  0.32634676  0.49461309  1
  Te  Te212  1  0.67313380  0.33807318  0.83282309  1
  Te  Te213  1  0.66678227  0.66661570  0.16700805  1
  Te  Te214  1  0.66839390  0.66808827  0.50030932  1
  Te  Te215  1  0.66667631  0.66265346  0.83429328  1
