# generated using pymatgen
data_AgSbTe2
_symmetry_space_group_name_H-M   'P 1'
_cell_length_a   18.31575657
_cell_length_b   18.30784122
_cell_length_c   18.30943257
_cell_angle_alpha   90.00159740
_cell_angle_beta   90.00128626
_cell_angle_gamma   89.99843305
_symmetry_Int_Tables_number   1
_chemical_formula_structural   AgSbTe2
_chemical_formula_sum   'Ag54 Sb54 Te108'
_cell_volume   6139.55486571
_cell_formula_units_Z   54
loop_
 _symmetry_equiv_pos_site_id
 _symmetry_equiv_pos_as_xyz
  1  'x, y, z'
loop_
 _atom_site_type_symbol
 _atom_site_label
 _atom_site_symmetry_multiplicity
 _atom_site_fract_x
 _atom_site_fract_y
 _atom_site_fract_z
 _atom_site_occupancy
  Ag  Ag0  1  0.83536899  0.15899473  0.66395731  1
  Ag  Ag1  1  0.16693581  0.33042166  0.16617141  1
  Ag  Ag2  1  0.00417861  0.83484309  0.16982536  1
  Ag  Ag3  1  0.32852441  0.50386589  0.82755301  1
  Ag  Ag4  1  0.00341247  0.50271857  0.49836423  1
  Ag  Ag5  1  0.83522164  0.67301822  0.82763225  1
  Ag  Ag6  1  0.16803465  0.16758585  0.66808252  1
  Ag  Ag7  1  0.49359069  0.33648188  0.50501510  1
  Ag  Ag8  1  0.49374347  0.67366530  0.83628157  1
  Ag  Ag9  1  0.82916955  -0.00062144  0.17747488  1
  Ag  Ag10  1  0.17013181  0.49604206  0.33508283  1
  Ag  Ag11  1  0.00889630  0.32969856  0.67120752  1
  Ag  Ag12  1  0.00294709  -0.00057818  0.33551129  1
  Ag  Ag13  1  0.32797161  0.83594475  0.50062142  1
  Ag  Ag14  1  0.16668057  0.16998024  -0.00237457  1
  Ag  Ag15  1  0.67175380  0.00150781  0.33519407  1
  Ag  Ag16  1  0.00425279  0.33317895  -0.00861888  1
  Ag  Ag17  1  0.33214810  0.16020428  0.17086364  1
  Ag  Ag18  1  0.66572704  -0.00246041  0.66244415  1
  Ag  Ag19  1  0.49735937  -0.00602901  0.83240460  1
  Ag  Ag20  1  0.83383134  0.83415436  -0.01026109  1
  Ag  Ag21  1  0.66295729  0.16137491  0.16969893  1
  Ag  Ag22  1  0.16761454  0.84274991  0.33501109  1
  Ag  Ag23  1  0.16523850  -0.00258911  0.49627245  1
  Ag  Ag24  1  0.16767727  0.16273240  0.33370665  1
  Ag  Ag25  1  0.00075715  0.50073684  0.17086353  1
  Ag  Ag26  1  0.49795518  0.83291125  -0.00427957  1
  Ag  Ag27  1  0.33510785  0.66999274  -0.00503434  1
  Ag  Ag28  1  0.33069512  0.33136801  0.33854507  1
  Ag  Ag29  1  0.33606222  0.82865880  0.83389332  1
  Ag  Ag30  1  0.83490026  0.67449654  0.50614890  1
  Ag  Ag31  1  0.16669934  0.33444170  0.83252186  1
  Ag  Ag32  1  0.83948563  0.15932371  0.33568279  1
  Ag  Ag33  1  0.66387734  0.50188749  0.49606903  1
  Ag  Ag34  1  0.83380933  0.83716328  0.67005404  1
  Ag  Ag35  1  0.00136766  0.83619403  0.49904560  1
  Ag  Ag36  1  0.33225311  0.83797864  0.16789734  1
  Ag  Ag37  1  0.48957036  0.33399550  0.82780289  1
  Ag  Ag38  1  0.00333195  0.17113962  0.82930540  1
  Ag  Ag39  1  0.33239698  0.49995427  0.50018769  1
  Ag  Ag40  1  0.49820193  0.67393207  0.16075462  1
  Ag  Ag41  1  0.33074428  0.32703203  0.66565916  1
  Ag  Ag42  1  -0.00200632  0.83200155  0.83247665  1
  Ag  Ag43  1  0.33791177  0.00435405  0.66215316  1
  Ag  Ag44  1  0.33014164  0.00151124  0.33687278  1
  Ag  Ag45  1  0.49289556  0.49875623  0.33491189  1
  Ag  Ag46  1  0.66511445  0.83174524  0.83090468  1
  Ag  Ag47  1  0.00808239  0.49613151  0.83071255  1
  Ag  Ag48  1  0.16969304  0.66454968  0.83407289  1
  Ag  Ag49  1  0.49222597  0.16564779  0.66902976  1
  Ag  Ag50  1  0.83737821  -0.00430104  0.49639194  1
  Ag  Ag51  1  0.66655282  0.49777821  0.17445259  1
  Ag  Ag52  1  0.66862435  0.67491673  0.66920905  1
  Ag  Ag53  1  0.49984374  -0.00350920  0.16712309  1
  Sb  Sb54  1  0.17157769  0.33030658  0.50127462  1
  Sb  Sb55  1  0.49821616  0.00175619  0.50035040  1
  Sb  Sb56  1  0.83542729  0.49584240  0.33513129  1
  Sb  Sb57  1  0.16998163  0.00347309  0.17493199  1
  Sb  Sb58  1  0.83273980  0.33210424  0.50165295  1
  Sb  Sb59  1  0.50217554  0.83923033  0.67339082  1
  Sb  Sb60  1  0.00813554  0.32986241  0.33537802  1
  Sb  Sb61  1  0.33336690  -0.00396156  0.00149460  1
  Sb  Sb62  1  0.66931902  0.33334272  -0.00008214  1
  Sb  Sb63  1  0.83936593  0.84111334  0.33658348  1
  Sb  Sb64  1  0.49806926  0.49513080  0.66302285  1
  Sb  Sb65  1  0.84034805  0.33636940  0.83078427  1
  Sb  Sb66  1  0.16958421  0.00136086  0.82675704  1
  Sb  Sb67  1  0.83932661  0.16020294  -0.00023089  1
  Sb  Sb68  1  0.83144971  -0.00630550  0.82872871  1
  Sb  Sb69  1  0.00058698  0.16475182  0.50377658  1
  Sb  Sb70  1  0.66228205  0.66932990  -0.00472091  1
  Sb  Sb71  1  0.66338775  0.50668770  0.83062319  1
  Sb  Sb72  1  0.32899033  0.16637141  0.83261265  1
  Sb  Sb73  1  0.66057359  0.32951755  0.33354608  1
  Sb  Sb74  1  -0.00395568  0.66511844  0.66859880  1
  Sb  Sb75  1  0.16599287  0.49489124  -0.00006324  1
  Sb  Sb76  1  0.66608511  0.67039224  0.33659158  1
  Sb  Sb77  1  0.49383749  0.33188999  0.16629647  1
  Sb  Sb78  1  0.00457343  0.16451474  0.16577447  1
  Sb  Sb79  1  0.33161565  0.50095884  0.17025043  1
  Sb  Sb80  1  0.33209865  0.16549372  0.49887600  1
  Sb  Sb81  1  0.16783518  0.83777796  0.00149733  1
  Sb  Sb82  1  0.17073518  0.66454618  0.16307561  1
  Sb  Sb83  1  0.83564742  0.50647789  -0.00114940  1
  Sb  Sb84  1  0.49470495  0.16230581  -0.00267127  1
  Sb  Sb85  1  0.66360262  0.32967754  0.66617258  1
  Sb  Sb86  1  0.50215653  0.66309523  0.50296953  1
  Sb  Sb87  1  0.83896008  0.32848724  0.16794563  1
  Sb  Sb88  1  0.82999530  0.67298099  0.16583077  1
  Sb  Sb89  1  0.66902417  0.83221575  0.50552178  1
  Sb  Sb90  1  0.49289197  0.83255982  0.32929803  1
  Sb  Sb91  1  0.33822261  0.66932369  0.67205813  1
  Sb  Sb92  1  0.66677926  -0.00123301  0.00038316  1
  Sb  Sb93  1  0.00463131  0.66517015  -0.00389950  1
  Sb  Sb94  1  0.66876080  0.16137036  0.83333533  1
  Sb  Sb95  1  0.83412585  0.50296588  0.66529084  1
  Sb  Sb96  1  0.16377136  0.66996291  0.50482795  1
  Sb  Sb97  1  0.16426403  0.83925287  0.66442716  1
  Sb  Sb98  1  0.32825968  0.33613442  -0.00305480  1
  Sb  Sb99  1  0.00028356  0.00042148  0.00400806  1
  Sb  Sb100  1  0.49785959  0.50504738  0.00278699  1
  Sb  Sb101  1  0.66697296  0.16754488  0.49751080  1
  Sb  Sb102  1  -0.00122196  0.00297483  0.66227910  1
  Sb  Sb103  1  0.00070133  0.67141541  0.33422919  1
  Sb  Sb104  1  0.33305062  0.66812143  0.33188817  1
  Sb  Sb105  1  0.16678796  0.49464704  0.66560987  1
  Sb  Sb106  1  0.66460749  0.83622703  0.16347460  1
  Sb  Sb107  1  0.49540284  0.16776809  0.33536356  1
  Te  Te108  1  0.16921083  0.16959829  0.17227179  1
  Te  Te109  1  0.16622534  0.16041109  0.49774361  1
  Te  Te110  1  0.16314158  0.16800128  0.82982871  1
  Te  Te111  1  0.16254988  0.49713451  0.16967953  1
  Te  Te112  1  0.16631049  0.50214209  0.49657187  1
  Te  Te113  1  0.16726774  0.49732890  0.83346538  1
  Te  Te114  1  0.16603280  0.83244900  0.16947015  1
  Te  Te115  1  0.16604816  0.83533918  0.49756131  1
  Te  Te116  1  0.16663835  0.83270142  0.83328718  1
  Te  Te117  1  0.49812956  0.16280215  0.16578217  1
  Te  Te118  1  0.50077056  0.17416105  0.50660733  1
  Te  Te119  1  0.50061963  0.16540939  0.83019645  1
  Te  Te120  1  0.50128831  0.49983278  0.17065312  1
  Te  Te121  1  0.49587324  0.49832218  0.49617252  1
  Te  Te122  1  0.49712242  0.50004176  0.83387035  1
  Te  Te123  1  0.49691859  0.83436866  0.16318490  1
  Te  Te124  1  0.49261364  0.83147883  0.49970435  1
  Te  Te125  1  0.49707651  0.83406531  0.83386508  1
  Te  Te126  1  0.83231745  0.16100618  0.16818867  1
  Te  Te127  1  0.83363825  0.16250026  0.50029181  1
  Te  Te128  1  0.83844981  0.16638814  0.83025729  1
  Te  Te129  1  0.83565449  0.50125905  0.16704486  1
  Te  Te130  1  0.83696070  0.50166983  0.49921170  1
  Te  Te131  1  0.83591697  0.50713271  0.83319342  1
  Te  Te132  1  0.83611686  0.83719816  0.16728717  1
  Te  Te133  1  0.83505996  0.83428892  0.50286649  1
  Te  Te134  1  0.83611654  0.83263570  0.83112306  1
  Te  Te135  1  0.16636178  0.01015205  -0.00025614  1
  Te  Te136  1  0.16925618  0.00041532  0.33550201  1
  Te  Te137  1  0.17141147  0.00647280  0.65922003  1
  Te  Te138  1  0.16360671  0.32916680  -0.00209109  1
  Te  Te139  1  0.17197621  0.33262588  0.33444066  1
  Te  Te140  1  0.16898141  0.32868000  0.66838868  1
  Te  Te141  1  0.17356084  0.66779412  -0.00660268  1
  Te  Te142  1  0.16638066  0.66261460  0.33275255  1
  Te  Te143  1  0.16761160  0.66689164  0.67530909  1
  Te  Te144  1  0.50005962  -0.00525542  -0.00013852  1
  Te  Te145  1  0.49502787  0.00036368  0.33059750  1
  Te  Te146  1  0.49868824  0.00458315  0.66681080  1
  Te  Te147  1  0.50059105  0.33208732  -0.00799023  1
  Te  Te148  1  0.49301443  0.33725320  0.33462142  1
  Te  Te149  1  0.49788415  0.32842744  0.66809641  1
  Te  Te150  1  0.49679024  0.67139823  -0.00122210  1
  Te  Te151  1  0.50058477  0.66032485  0.32985643  1
  Te  Te152  1  0.50684794  0.66624243  0.67205535  1
  Te  Te153  1  0.83328401  -0.00750843  0.00621445  1
  Te  Te154  1  0.83250967  0.00239909  0.33525578  1
  Te  Te155  1  0.83224342  -0.00117176  0.66357160  1
  Te  Te156  1  0.84129053  0.33260920  -0.00042959  1
  Te  Te157  1  0.83345854  0.32168952  0.33375378  1
  Te  Te158  1  0.83469540  0.32508590  0.66624909  1
  Te  Te159  1  0.83337190  0.67498870  -0.00344332  1
  Te  Te160  1  0.83258088  0.66567684  0.33962909  1
  Te  Te161  1  0.83001606  0.66909197  0.66663729  1
  Te  Te162  1  0.00464662  0.17100236  -0.00482473  1
  Te  Te163  1  0.00219378  0.16204211  0.33425270  1
  Te  Te164  1  0.00131012  0.16893070  0.66891152  1
  Te  Te165  1  -0.00025303  0.49513654  -0.00024873  1
  Te  Te166  1  0.00303675  0.49861990  0.33359910  1
  Te  Te167  1  -0.00010204  0.49466207  0.66724222  1
  Te  Te168  1  -0.00110935  0.83285796  -0.00049749  1
  Te  Te169  1  0.00514236  0.83748207  0.33440644  1
  Te  Te170  1  -0.00345990  0.83412804  0.66558197  1
  Te  Te171  1  0.32730377  0.16765544  0.00736859  1
  Te  Te172  1  0.33107839  0.16511122  0.33141604  1
  Te  Te173  1  0.33216598  0.16611001  0.66649850  1
  Te  Te174  1  0.33297810  0.50565766  -0.00788732  1
  Te  Te175  1  0.33156292  0.49975320  0.33534441  1
  Te  Te176  1  0.33328372  0.49520089  0.66709543  1
  Te  Te177  1  0.33438383  0.83089224  -0.00083529  1
  Te  Te178  1  0.32838473  0.83505827  0.33247941  1
  Te  Te179  1  0.33250360  0.83795376  0.66619173  1
  Te  Te180  1  0.66743564  0.16705876  0.00826381  1
  Te  Te181  1  0.66599269  0.16201199  0.32936654  1
  Te  Te182  1  0.67150880  0.16098165  0.66711469  1
  Te  Te183  1  0.66743425  0.50039074  0.00900283  1
  Te  Te184  1  0.66718859  0.49962138  0.33468552  1
  Te  Te185  1  0.66676232  0.50084533  0.66091212  1
  Te  Te186  1  0.66569569  0.83323983  -0.00656842  1
  Te  Te187  1  0.66484412  0.84079934  0.33387633  1
  Te  Te188  1  0.67017566  0.83625701  0.66985456  1
  Te  Te189  1  -0.00165782  -0.00389939  0.17138969  1
  Te  Te190  1  -0.00067826  -0.00243596  0.49656165  1
  Te  Te191  1  0.00040989  -0.00445210  0.83386149  1
  Te  Te192  1  0.00553288  0.33599609  0.16731156  1
  Te  Te193  1  0.00019925  0.34033496  0.50561946  1
  Te  Te194  1  0.00207948  0.33522777  0.83125474  1
  Te  Te195  1  -0.00037005  0.66683482  0.16528976  1
  Te  Te196  1  -0.00402393  0.66660141  0.50168613  1
  Te  Te197  1  0.00076620  0.66860753  0.83321907  1
  Te  Te198  1  0.33587057  -0.00206689  0.16769920  1
  Te  Te199  1  0.33341948  -0.00285447  0.49960057  1
  Te  Te200  1  0.33677230  -0.00235185  0.83032413  1
  Te  Te201  1  0.32798055  0.33206056  0.16819819  1
  Te  Te202  1  0.33498613  0.33647016  0.50111223  1
  Te  Te203  1  0.33056199  0.33312471  0.83051157  1
  Te  Te204  1  0.33818479  0.66987926  0.16252202  1
  Te  Te205  1  0.33258933  0.66539262  0.50238945  1
  Te  Te206  1  0.33395620  0.66685274  0.83239725  1
  Te  Te207  1  0.66402919  0.00075495  0.16912111  1
  Te  Te208  1  0.66843220  -0.00019601  0.50023032  1
  Te  Te209  1  0.66191624  -0.00476312  0.82906931  1
  Te  Te210  1  0.66722651  0.33549787  0.16652923  1
  Te  Te211  1  0.66160086  0.34141304  0.49936225  1
  Te  Te212  1  0.66166083  0.33494236  0.83392101  1
  Te  Te213  1  0.66122167  0.66319790  0.16757810  1
  Te  Te214  1  0.67047861  0.66289987  0.50439096  1
  Te  Te215  1  0.66760728  0.67004586  0.82918899  1
