# generated using pymatgen
data_AgSbTe2
_symmetry_space_group_name_H-M   'P 1'
_cell_length_a   18.33873208
_cell_length_b   18.35349109
_cell_length_c   18.34531810
_cell_angle_alpha   90.00214848
_cell_angle_beta   89.99644244
_cell_angle_gamma   90.00046261
_symmetry_Int_Tables_number   1
_chemical_formula_structural   AgSbTe2
_chemical_formula_sum   'Ag54 Sb54 Te108'
_cell_volume   6174.66266910
_cell_formula_units_Z   54
loop_
 _symmetry_equiv_pos_site_id
 _symmetry_equiv_pos_as_xyz
  1  'x, y, z'
loop_
 _atom_site_type_symbol
 _atom_site_label
 _atom_site_symmetry_multiplicity
 _atom_site_fract_x
 _atom_site_fract_y
 _atom_site_fract_z
 _atom_site_occupancy
  Ag  Ag0  1  -0.00445977  0.15982427  0.83234021  1
  Ag  Ag1  1  0.67039646  0.16363702  0.82472288  1
  Ag  Ag2  1  -0.00724343  0.34168092  -0.00315548  1
  Ag  Ag3  1  0.00430265  0.83630420  0.82893287  1
  Ag  Ag4  1  0.33404588  0.50611379  0.50323797  1
  Ag  Ag5  1  0.33814167  0.67202083  0.66624021  1
  Ag  Ag6  1  0.50114286  0.83788772  0.66886220  1
  Ag  Ag7  1  0.66836443  -0.00823387  0.34544543  1
  Ag  Ag8  1  0.66380076  0.83282968  0.17540507  1
  Ag  Ag9  1  0.49508692  -0.00469974  0.82296170  1
  Ag  Ag10  1  0.66123602  0.67490809  0.34689075  1
  Ag  Ag11  1  0.66218761  0.15875331  0.50796213  1
  Ag  Ag12  1  0.82361509  0.83171902  0.66381179  1
  Ag  Ag13  1  0.16524077  0.50459454  -0.00289334  1
  Ag  Ag14  1  0.33629330  0.66721890  0.34258786  1
  Ag  Ag15  1  0.01014286  0.50712270  0.50411442  1
  Ag  Ag16  1  0.66408327  0.50713066  0.50720576  1
  Ag  Ag17  1  0.34470895  -0.00804010  0.66794478  1
  Ag  Ag18  1  0.33148624  0.34330702  0.34913221  1
  Ag  Ag19  1  0.17220403  0.66918683  0.83292116  1
  Ag  Ag20  1  0.67313845  0.33280667  -0.00931644  1
  Ag  Ag21  1  0.17447170  0.66649976  0.15336722  1
  Ag  Ag22  1  0.16712938  0.33063660  0.82846913  1
  Ag  Ag23  1  0.17506763  -0.00478172  0.83153214  1
  Ag  Ag24  1  0.33029389  0.66996647  -0.00485875  1
  Ag  Ag25  1  0.17443865  0.66356023  0.50425052  1
  Ag  Ag26  1  0.65735234  -0.00211526  0.66433396  1
  Ag  Ag27  1  0.83184101  0.17082808  -0.00117622  1
  Ag  Ag28  1  0.33722532  0.17240601  0.50734472  1
  Ag  Ag29  1  -0.00398519  0.82909689  0.50883215  1
  Ag  Ag30  1  0.66200101  0.33008430  0.66573924  1
  Ag  Ag31  1  0.33206772  0.51190823  0.16988069  1
  Ag  Ag32  1  0.49158701  0.67795934  0.82837907  1
  Ag  Ag33  1  0.66442297  0.83296622  0.50371144  1
  Ag  Ag34  1  0.17252991  0.34146389  0.50983313  1
  Ag  Ag35  1  0.50214947  0.50598673  0.66552421  1
  Ag  Ag36  1  0.18043772  0.16943921  0.66897864  1
  Ag  Ag37  1  0.82987878  0.00112812  0.16106612  1
  Ag  Ag38  1  0.82468421  0.50362416  0.66788328  1
  Ag  Ag39  1  0.82776335  0.00102821  0.83347924  1
  Ag  Ag40  1  0.65807313  0.67191146  0.66464383  1
  Ag  Ag41  1  0.83682518  0.49311048  -0.00431975  1
  Ag  Ag42  1  0.50199207  -0.00121092  0.51108218  1
  Ag  Ag43  1  0.82581072  0.83684940  0.34190398  1
  Ag  Ag44  1  0.49808321  0.15283200  0.66638248  1
  Ag  Ag45  1  0.33472490  -0.01292681  -0.01559227  1
  Ag  Ag46  1  0.83145619  0.32995850  0.15965875  1
  Ag  Ag47  1  0.33706497  0.82630594  0.50838807  1
  Ag  Ag48  1  0.33759064  0.33098300  0.66478611  1
  Ag  Ag49  1  0.83010896  0.15847928  0.33099052  1
  Ag  Ag50  1  0.33810170  0.82825721  0.15589298  1
  Ag  Ag51  1  0.49669475  0.83340258  -0.01268496  1
  Ag  Ag52  1  0.01105267  0.66398485  -0.00428483  1
  Ag  Ag53  1  0.33699148  0.83232899  0.83023850  1
  Sb  Sb54  1  0.16568342  0.33901176  0.16287852  1
  Sb  Sb55  1  0.17464382  0.83526980  0.66875745  1
  Sb  Sb56  1  0.49604654  0.67331914  0.50950751  1
  Sb  Sb57  1  -0.00018255  0.16454458  0.50781689  1
  Sb  Sb58  1  0.66418565  0.66546455  -0.00441418  1
  Sb  Sb59  1  0.00273091  0.33359917  0.33149419  1
  Sb  Sb60  1  0.16659884  -0.00663623  0.15738384  1
  Sb  Sb61  1  0.17444791  0.82511243  -0.00508743  1
  Sb  Sb62  1  0.83236796  0.66805319  0.50151045  1
  Sb  Sb63  1  0.49640235  0.33045630  0.82793243  1
  Sb  Sb64  1  0.50431190  0.16550027  0.34294687  1
  Sb  Sb65  1  0.66311218  0.50525713  0.17019961  1
  Sb  Sb66  1  0.00285991  0.50152578  0.16541550  1
  Sb  Sb67  1  0.83323107  0.67193075  0.83123855  1
  Sb  Sb68  1  0.66964045  0.16197615  0.16802055  1
  Sb  Sb69  1  0.82535598  -0.00227527  0.50472387  1
  Sb  Sb70  1  0.49748722  0.50268576  0.34376289  1
  Sb  Sb71  1  -0.00050260  0.33502732  0.67138635  1
  Sb  Sb72  1  0.49317362  0.32975088  0.50454928  1
  Sb  Sb73  1  0.50342706  0.33445627  0.16393168  1
  Sb  Sb74  1  -0.01029200  -0.00124251  0.33533395  1
  Sb  Sb75  1  0.66729901  0.49496410  0.82455508  1
  Sb  Sb76  1  0.00245026  -0.00268153  -0.00555230  1
  Sb  Sb77  1  0.66451627  0.00104336  -0.00544516  1
  Sb  Sb78  1  -0.00118745  0.83129481  0.16373124  1
  Sb  Sb79  1  0.16317804  0.17191447  -0.01065868  1
  Sb  Sb80  1  0.83571639  0.32808538  0.83656893  1
  Sb  Sb81  1  0.50331100  0.16124002  -0.01031996  1
  Sb  Sb82  1  0.83100926  0.50208613  0.33500236  1
  Sb  Sb83  1  0.33205697  0.16394777  0.17337276  1
  Sb  Sb84  1  0.83513819  0.33388366  0.50004778  1
  Sb  Sb85  1  0.82860910  0.83497265  -0.00341253  1
  Sb  Sb86  1  0.17544526  -0.00274189  0.50849661  1
  Sb  Sb87  1  -0.00330713  0.16694245  0.15879284  1
  Sb  Sb88  1  0.00420031  0.66820757  0.66904994  1
  Sb  Sb89  1  0.33284683  0.15823452  0.82547993  1
  Sb  Sb90  1  0.16599854  0.83248276  0.33672313  1
  Sb  Sb91  1  0.83549632  0.66783713  0.16485668  1
  Sb  Sb92  1  0.00106761  0.50141032  0.83135341  1
  Sb  Sb93  1  0.16955095  0.50169143  0.33460196  1
  Sb  Sb94  1  -0.00056540  -0.00332168  0.66931733  1
  Sb  Sb95  1  0.16483827  0.16703278  0.34393409  1
  Sb  Sb96  1  0.50469622  -0.00516438  0.16373657  1
  Sb  Sb97  1  0.82623817  0.16478798  0.66903453  1
  Sb  Sb98  1  0.34046187  -0.00642924  0.34033102  1
  Sb  Sb99  1  0.17078841  0.49849504  0.66766266  1
  Sb  Sb100  1  0.00199540  0.66804996  0.33445657  1
  Sb  Sb101  1  0.66258817  0.83816573  0.82634653  1
  Sb  Sb102  1  0.33222200  0.50967487  0.82761789  1
  Sb  Sb103  1  0.50456879  0.83194280  0.33944827  1
  Sb  Sb104  1  0.33247182  0.33763994  -0.00633898  1
  Sb  Sb105  1  0.49861651  0.50454091  -0.00690600  1
  Sb  Sb106  1  0.49230468  0.66955197  0.16167411  1
  Sb  Sb107  1  0.66372345  0.33305776  0.34010605  1
  Te  Te108  1  0.16443575  0.16563534  0.16748459  1
  Te  Te109  1  0.16855383  0.16786126  0.50767361  1
  Te  Te110  1  0.16482454  0.16790258  0.82838438  1
  Te  Te111  1  0.17057138  0.50482117  0.16268740  1
  Te  Te112  1  0.16971991  0.50077048  0.50099572  1
  Te  Te113  1  0.16598108  0.50351426  0.83639011  1
  Te  Te114  1  0.17077912  0.82776121  0.16867486  1
  Te  Te115  1  0.16956676  0.82919881  0.50224048  1
  Te  Te116  1  0.16534841  0.83347104  0.83195476  1
  Te  Te117  1  0.49977973  0.16528870  0.16586829  1
  Te  Te118  1  0.50145878  0.16245744  0.50609768  1
  Te  Te119  1  0.50620653  0.16163357  0.82720769  1
  Te  Te120  1  0.49245450  0.49970287  0.16530629  1
  Te  Te121  1  0.49935772  0.49790636  0.50681089  1
  Te  Te122  1  0.49976279  0.50263368  0.82676298  1
  Te  Te123  1  0.49846002  0.83321534  0.16336506  1
  Te  Te124  1  0.50026270  0.83772653  0.50474550  1
  Te  Te125  1  0.50053319  0.83561195  0.83022052  1
  Te  Te126  1  0.83340071  0.16587688  0.16456874  1
  Te  Te127  1  0.83128866  0.16627687  0.49566141  1
  Te  Te128  1  0.83287902  0.16258716  0.83501954  1
  Te  Te129  1  0.83329533  0.49754315  0.16323947  1
  Te  Te130  1  0.82753146  0.50008061  0.50344267  1
  Te  Te131  1  0.83433189  0.50056523  0.83464374  1
  Te  Te132  1  0.83065409  0.83616328  0.16550389  1
  Te  Te133  1  0.83248286  0.83354241  0.50177981  1
  Te  Te134  1  0.83543253  0.83855010  0.83056255  1
  Te  Te135  1  0.17308379  0.00295885  -0.00651632  1
  Te  Te136  1  0.16568020  0.00127613  0.32928272  1
  Te  Te137  1  0.16840652  0.00584224  0.67276890  1
  Te  Te138  1  0.16347874  0.33965587  -0.00423974  1
  Te  Te139  1  0.17231297  0.33228511  0.33385011  1
  Te  Te140  1  0.16599177  0.33270107  0.66802557  1
  Te  Te141  1  0.16956868  0.66425516  -0.00456905  1
  Te  Te142  1  0.17105118  0.66727724  0.34203963  1
  Te  Te143  1  0.17185189  0.66608652  0.66818463  1
  Te  Te144  1  0.49502336  -0.00497415  -0.00348315  1
  Te  Te145  1  0.50860082  0.00032716  0.33451962  1
  Te  Te146  1  0.50020419  -0.00226990  0.66669151  1
  Te  Te147  1  0.50824987  0.33277616  -0.00323069  1
  Te  Te148  1  0.49041667  0.33291965  0.33074789  1
  Te  Te149  1  0.50112870  0.33989517  0.66774698  1
  Te  Te150  1  0.49612277  0.67025781  -0.00840159  1
  Te  Te151  1  0.49954061  0.66608214  0.32956019  1
  Te  Te152  1  0.49835162  0.66728152  0.66927660  1
  Te  Te153  1  0.83359829  0.00271747  -0.00215905  1
  Te  Te154  1  0.82710229  -0.00206263  0.33308894  1
  Te  Te155  1  0.83132681  -0.00294076  0.67168652  1
  Te  Te156  1  0.83305856  0.33260268  -0.00131647  1
  Te  Te157  1  0.83351577  0.33273397  0.32752680  1
  Te  Te158  1  0.82829822  0.33739302  0.66731969  1
  Te  Te159  1  0.83391492  0.66196123  -0.00069632  1
  Te  Te160  1  0.82958812  0.67211556  0.33091969  1
  Te  Te161  1  0.82913574  0.66727806  0.66697702  1
  Te  Te162  1  -0.00452620  0.16782337  -0.00771074  1
  Te  Te163  1  -0.00771911  0.16708699  0.33420745  1
  Te  Te164  1  -0.00116910  0.16661539  0.67264278  1
  Te  Te165  1  -0.00065437  0.50224362  0.00006922  1
  Te  Te166  1  -0.00111593  0.49987070  0.34400304  1
  Te  Te167  1  -0.00797291  0.50124838  0.66181305  1
  Te  Te168  1  -0.00177951  0.82807195  -0.00439270  1
  Te  Te169  1  -0.00827612  0.83231760  0.33624297  1
  Te  Te170  1  -0.00763761  0.83163366  0.66778220  1
  Te  Te171  1  0.33384890  0.16690453  0.00289714  1
  Te  Te172  1  0.33416998  0.16578684  0.34199920  1
  Te  Te173  1  0.33772502  0.17045971  0.66600124  1
  Te  Te174  1  0.33197982  0.50381145  0.00211297  1
  Te  Te175  1  0.33301673  0.50277648  0.33562551  1
  Te  Te176  1  0.33426519  0.49778591  0.66271530  1
  Te  Te177  1  0.33495965  0.83082502  -0.00292731  1
  Te  Te178  1  0.33390391  0.82836972  0.33906629  1
  Te  Te179  1  0.33499673  0.83284465  0.66869839  1
  Te  Te180  1  0.67047727  0.17017144  0.00098850  1
  Te  Te181  1  0.67100935  0.16587445  0.33690661  1
  Te  Te182  1  0.66624875  0.16684019  0.66473544  1
  Te  Te183  1  0.66843773  0.49607990  0.00147701  1
  Te  Te184  1  0.66523734  0.50526651  0.34014945  1
  Te  Te185  1  0.66640273  0.49908188  0.66423176  1
  Te  Te186  1  0.66130946  0.83256429  0.00535535  1
  Te  Te187  1  0.66678244  0.83193324  0.33572108  1
  Te  Te188  1  0.66371270  0.83421264  0.66581686  1
  Te  Te189  1  -0.00738057  -0.00126565  0.16526439  1
  Te  Te190  1  0.00490099  -0.00743576  0.50041597  1
  Te  Te191  1  0.00137160  -0.00178130  0.83387834  1
  Te  Te192  1  -0.00508844  0.33430668  0.16021256  1
  Te  Te193  1  0.00711087  0.33360423  0.49975117  1
  Te  Te194  1  0.00532648  0.33281486  0.83761662  1
  Te  Te195  1  0.00866140  0.66667279  0.16253419  1
  Te  Te196  1  0.00625504  0.66820910  0.50047868  1
  Te  Te197  1  0.00318532  0.67098142  0.83608303  1
  Te  Te198  1  0.33324497  -0.00599546  0.16875144  1
  Te  Te199  1  0.33862415  -0.00251013  0.50500853  1
  Te  Te200  1  0.33442565  -0.00195675  0.82845710  1
  Te  Te201  1  0.33364454  0.33335465  0.16466973  1
  Te  Te202  1  0.33125534  0.33145758  0.50486610  1
  Te  Te203  1  0.32814371  0.33357600  0.82838730  1
  Te  Te204  1  0.33105014  0.66880286  0.16518415  1
  Te  Te205  1  0.33506545  0.66617529  0.50213694  1
  Te  Te206  1  0.33181401  0.67007790  0.83133129  1
  Te  Te207  1  0.67163724  -0.00494704  0.16549459  1
  Te  Te208  1  0.66500266  -0.00131960  0.50351664  1
  Te  Te209  1  0.66771094  0.00377128  0.83071872  1
  Te  Te210  1  0.67099715  0.33503723  0.16913035  1
  Te  Te211  1  0.66708264  0.33336785  0.50347047  1
  Te  Te212  1  0.66583840  0.32792741  0.83085041  1
  Te  Te213  1  0.66621431  0.67177222  0.16632236  1
  Te  Te214  1  0.66682431  0.66856539  0.50363863  1
  Te  Te215  1  0.66457629  0.66585511  0.82674589  1
