# generated using pymatgen
data_AgSbTe2
_symmetry_space_group_name_H-M   'P 1'
_cell_length_a   18.33248029
_cell_length_b   18.33412554
_cell_length_c   18.33779186
_cell_angle_alpha   90.00124939
_cell_angle_beta   89.99967533
_cell_angle_gamma   89.99677995
_symmetry_Int_Tables_number   1
_chemical_formula_structural   AgSbTe2
_chemical_formula_sum   'Ag54 Sb54 Te108'
_cell_volume   6163.51512132
_cell_formula_units_Z   54
loop_
 _symmetry_equiv_pos_site_id
 _symmetry_equiv_pos_as_xyz
  1  'x, y, z'
loop_
 _atom_site_type_symbol
 _atom_site_label
 _atom_site_symmetry_multiplicity
 _atom_site_fract_x
 _atom_site_fract_y
 _atom_site_fract_z
 _atom_site_occupancy
  Ag  Ag0  1  0.33620739  0.65619679  0.32704079  1
  Ag  Ag1  1  0.66430957  0.33045932  0.32605992  1
  Ag  Ag2  1  0.33692629  0.49765528  0.16492114  1
  Ag  Ag3  1  0.16975217  0.33299993  0.83424754  1
  Ag  Ag4  1  0.33036130  0.33905359  0.00410621  1
  Ag  Ag5  1  0.33651598  0.83538266  0.83556985  1
  Ag  Ag6  1  0.50387198  0.16464570  -0.00036733  1
  Ag  Ag7  1  0.66546202  -0.00082643  0.32564011  1
  Ag  Ag8  1  -0.00049240  0.50428337  0.84621681  1
  Ag  Ag9  1  -0.00407929  0.50266180  0.16279161  1
  Ag  Ag10  1  0.33866917  0.16616181  0.83331643  1
  Ag  Ag11  1  -0.00576991  -0.00218528  0.32579249  1
  Ag  Ag12  1  0.17179520  0.33414300  0.50255649  1
  Ag  Ag13  1  0.17986231  0.17075129  0.66875442  1
  Ag  Ag14  1  0.33417045  0.66372747  0.67181918  1
  Ag  Ag15  1  0.66183260  0.15965322  0.84379551  1
  Ag  Ag16  1  0.33614906  0.65685399  0.00196952  1
  Ag  Ag17  1  0.66172654  0.16515059  0.16170450  1
  Ag  Ag18  1  0.00001554  0.33411250  0.32186374  1
  Ag  Ag19  1  0.16474784  0.66296218  0.16359472  1
  Ag  Ag20  1  0.84012814  0.50328423  0.00456351  1
  Ag  Ag21  1  0.66469187  -0.00659840  0.68258367  1
  Ag  Ag22  1  0.67047189  0.00243528  -0.00058357  1
  Ag  Ag23  1  0.33113214  0.32886035  0.66764351  1
  Ag  Ag24  1  0.33375415  0.49424858  0.48900524  1
  Ag  Ag25  1  -0.00914355  0.66847791  0.67120931  1
  Ag  Ag26  1  0.50576560  0.83591463  0.68009875  1
  Ag  Ag27  1  0.83644463  0.66451854  0.16029458  1
  Ag  Ag28  1  0.66631113  0.49532766  0.16462050  1
  Ag  Ag29  1  0.33357766  0.17615858  0.50303375  1
  Ag  Ag30  1  0.83606785  0.67697552  0.83706691  1
  Ag  Ag31  1  0.82329689  0.82867281  0.68304403  1
  Ag  Ag32  1  -0.00646848  0.82871265  0.16028171  1
  Ag  Ag33  1  0.83420766  0.66824204  0.50520411  1
  Ag  Ag34  1  0.67363524  0.67607409  0.67058120  1
  Ag  Ag35  1  0.83369686  0.33973506  0.16371818  1
  Ag  Ag36  1  0.16402923  0.49888338  0.00216243  1
  Ag  Ag37  1  0.49723221  0.15961327  0.67651498  1
  Ag  Ag38  1  0.49632711  0.49760941  0.00523105  1
  Ag  Ag39  1  -0.01396319  0.82837242  0.84128544  1
  Ag  Ag40  1  0.82995679  -0.01091384  0.83989935  1
  Ag  Ag41  1  0.82463186  0.15656664  0.00133504  1
  Ag  Ag42  1  0.50253572  -0.00049526  0.16642227  1
  Ag  Ag43  1  0.50218952  0.83517372  0.32668588  1
  Ag  Ag44  1  -0.00935784  -0.00204347  0.00382212  1
  Ag  Ag45  1  0.83116308  0.83410067  -0.00401602  1
  Ag  Ag46  1  0.33445058  0.33585017  0.32986371  1
  Ag  Ag47  1  0.50352101  0.83706033  -0.00135686  1
  Ag  Ag48  1  0.34000820  0.17740679  0.16276271  1
  Ag  Ag49  1  0.00069035  0.34168905  0.00374270  1
  Ag  Ag50  1  0.82877647  0.83341005  0.32664629  1
  Ag  Ag51  1  0.34237813  0.00148438  0.32955615  1
  Ag  Ag52  1  0.67434505  0.84057014  0.83340333  1
  Ag  Ag53  1  0.49485434  0.50217298  0.32323713  1
  Sb  Sb54  1  0.49960998  0.00072280  0.49465727  1
  Sb  Sb55  1  0.83836358  0.33873254  0.49151827  1
  Sb  Sb56  1  0.33678613  0.00262848  0.00249150  1
  Sb  Sb57  1  0.82874402  0.50480896  0.32414030  1
  Sb  Sb58  1  0.82789722  0.16170145  0.67599770  1
  Sb  Sb59  1  -0.00338488  0.83168765  0.49843306  1
  Sb  Sb60  1  0.49155385  0.33248050  0.49790110  1
  Sb  Sb61  1  0.16862893  -0.00295423  0.16570293  1
  Sb  Sb62  1  0.50097652  0.66723606  0.16586312  1
  Sb  Sb63  1  0.16382866  0.66257265  0.83815787  1
  Sb  Sb64  1  0.66247539  0.50088718  0.49322852  1
  Sb  Sb65  1  0.82959840  -0.00198602  0.16032766  1
  Sb  Sb66  1  0.16829644  0.83297036  0.33109886  1
  Sb  Sb67  1  0.33050465  0.49841963  0.84078383  1
  Sb  Sb68  1  -0.00005761  0.16633557  0.83719960  1
  Sb  Sb69  1  0.83732298  0.33342717  0.84220428  1
  Sb  Sb70  1  0.50223520  0.66959254  0.83389485  1
  Sb  Sb71  1  -0.00599839  -0.00560995  0.67066382  1
  Sb  Sb72  1  0.67007551  0.83459717  0.16140177  1
  Sb  Sb73  1  0.49745012  0.16616537  0.32775616  1
  Sb  Sb74  1  0.66472355  0.67002090  0.33349570  1
  Sb  Sb75  1  -0.00137802  0.16721541  0.16305573  1
  Sb  Sb76  1  0.66733227  0.83293094  0.50641490  1
  Sb  Sb77  1  0.66033627  0.16625383  0.49795998  1
  Sb  Sb78  1  0.83222673  -0.00497725  0.50118011  1
  Sb  Sb79  1  0.00513435  0.16836442  0.49858612  1
  Sb  Sb80  1  0.49635022  0.50250801  0.66929579  1
  Sb  Sb81  1  0.83310597  0.50838871  0.67448859  1
  Sb  Sb82  1  0.66800399  0.32820174  0.00539504  1
  Sb  Sb83  1  0.49399356  0.32973224  0.83689849  1
  Sb  Sb84  1  0.17034204  0.17266803  -0.00285906  1
  Sb  Sb85  1  0.00494803  0.50029975  0.49570325  1
  Sb  Sb86  1  0.50675240  -0.00122719  0.84043195  1
  Sb  Sb87  1  0.16287615  0.00353532  0.83511163  1
  Sb  Sb88  1  0.00098632  0.66574321  0.33000519  1
  Sb  Sb89  1  0.50124449  0.66648977  0.50043626  1
  Sb  Sb90  1  0.16831204  0.83511945  0.67041491  1
  Sb  Sb91  1  0.17300905  0.49842434  0.32472171  1
  Sb  Sb92  1  0.16920957  0.49724860  0.67305771  1
  Sb  Sb93  1  0.17112737  0.16969160  0.33370943  1
  Sb  Sb94  1  0.83090881  0.16231541  0.32564092  1
  Sb  Sb95  1  0.34204151  0.00346429  0.66543500  1
  Sb  Sb96  1  0.16730106  0.66027017  0.49735027  1
  Sb  Sb97  1  0.33385183  0.82965286  0.16337738  1
  Sb  Sb98  1  0.66124174  0.33086292  0.66425183  1
  Sb  Sb99  1  0.33572056  0.83185666  0.50123437  1
  Sb  Sb100  1  0.66572133  0.67127456  -0.00190077  1
  Sb  Sb101  1  0.67161255  0.50088053  0.84216190  1
  Sb  Sb102  1  0.50146524  0.33131361  0.16591343  1
  Sb  Sb103  1  -0.00181313  0.66474435  -0.00155794  1
  Sb  Sb104  1  0.00491732  0.33708171  0.67155798  1
  Sb  Sb105  1  0.16926828  0.00614736  0.49981341  1
  Sb  Sb106  1  0.16439107  0.82737948  0.00008020  1
  Sb  Sb107  1  0.16585260  0.33788283  0.16417500  1
  Te  Te108  1  0.17767465  0.16536429  0.16559190  1
  Te  Te109  1  0.17242358  0.17238014  0.50587141  1
  Te  Te110  1  0.16999072  0.17052624  0.82996259  1
  Te  Te111  1  0.16732771  0.50376173  0.16063604  1
  Te  Te112  1  0.17294202  0.49472422  0.50176902  1
  Te  Te113  1  0.16086397  0.49557701  0.83975428  1
  Te  Te114  1  0.15695090  0.82602675  0.16653889  1
  Te  Te115  1  0.16580356  0.83215556  0.50097248  1
  Te  Te116  1  0.17520239  0.83418917  0.83351194  1
  Te  Te117  1  0.50041942  0.16374297  0.16303999  1
  Te  Te118  1  0.49295367  0.16632437  0.50895427  1
  Te  Te119  1  0.50022878  0.16469612  0.83648527  1
  Te  Te120  1  0.49852612  0.50161045  0.16554548  1
  Te  Te121  1  0.49409511  0.50021248  0.49574543  1
  Te  Te122  1  0.50285783  0.50062191  0.84236329  1
  Te  Te123  1  0.50165915  0.83606011  0.16467302  1
  Te  Te124  1  0.50058954  0.83292924  0.49212269  1
  Te  Te125  1  0.49677421  0.83367003  0.83653421  1
  Te  Te126  1  0.83001401  0.17156965  0.16065539  1
  Te  Te127  1  0.83344538  0.16801315  0.50170916  1
  Te  Te128  1  0.82877345  0.16553975  0.84043195  1
  Te  Te129  1  0.83446498  0.50092082  0.16421726  1
  Te  Te130  1  0.83333943  0.50690471  0.50028248  1
  Te  Te131  1  0.83897660  0.50128612  0.84123706  1
  Te  Te132  1  0.83427841  0.83170852  0.16602431  1
  Te  Te133  1  0.83314447  0.82778036  0.49057290  1
  Te  Te134  1  0.83079977  0.83319738  0.83800217  1
  Te  Te135  1  0.15594540  0.00046390  0.00061892  1
  Te  Te136  1  0.16256261  0.00104181  0.33323907  1
  Te  Te137  1  0.16384429  0.00796540  0.66646718  1
  Te  Te138  1  0.16736963  0.33684254  -0.00186948  1
  Te  Te139  1  0.16770045  0.33354887  0.33622954  1
  Te  Te140  1  0.16972639  0.33108686  0.66894411  1
  Te  Te141  1  0.17574114  0.66132698  0.00381522  1
  Te  Te142  1  0.17394175  0.66605546  0.32882258  1
  Te  Te143  1  0.17506962  0.66674556  0.66591367  1
  Te  Te144  1  0.50214235  -0.00064532  0.00577472  1
  Te  Te145  1  0.50135736  -0.00027301  0.32872663  1
  Te  Te146  1  0.50646279  -0.00382158  0.66350785  1
  Te  Te147  1  0.49336836  0.33139258  0.00039194  1
  Te  Te148  1  0.49859016  0.33621187  0.33234766  1
  Te  Te149  1  0.49327424  0.33117301  0.66733170  1
  Te  Te150  1  0.49606837  0.67125147  -0.00006621  1
  Te  Te151  1  0.49667576  0.66847329  0.33360720  1
  Te  Te152  1  0.49471843  0.67116981  0.66697930  1
  Te  Te153  1  0.83212808  -0.00183436  -0.00032453  1
  Te  Te154  1  0.83297248  -0.00397631  0.33348077  1
  Te  Te155  1  0.82679192  -0.00660240  0.66875165  1
  Te  Te156  1  0.83592762  0.33979214  0.00419656  1
  Te  Te157  1  0.83459087  0.33325747  0.32746970  1
  Te  Te158  1  0.83376973  0.33315865  0.66309334  1
  Te  Te159  1  0.83093032  0.66898695  -0.00020935  1
  Te  Te160  1  0.83319583  0.67187981  0.33038886  1
  Te  Te161  1  0.83272338  0.66963132  0.67079690  1
  Te  Te162  1  -0.00237022  0.16542737  -0.00055058  1
  Te  Te163  1  -0.00029569  0.16870281  0.33174537  1
  Te  Te164  1  -0.00013057  0.16604801  0.66759717  1
  Te  Te165  1  -0.00077340  0.50083347  0.00308122  1
  Te  Te166  1  0.00002565  0.49572232  0.32745949  1
  Te  Te167  1  0.00084507  0.50635424  0.66718487  1
  Te  Te168  1  -0.00137989  0.83260719  -0.00028016  1
  Te  Te169  1  -0.00098682  0.83440031  0.32979100  1
  Te  Te170  1  -0.00030984  0.82999687  0.66998932  1
  Te  Te171  1  0.33654970  0.16743212  -0.00027231  1
  Te  Te172  1  0.33503510  0.16927029  0.32984849  1
  Te  Te173  1  0.33724308  0.16532261  0.66997919  1
  Te  Te174  1  0.33537384  0.49855258  0.00178697  1
  Te  Te175  1  0.33472258  0.49810283  0.32929281  1
  Te  Te176  1  0.33505194  0.49951549  0.66763494  1
  Te  Te177  1  0.33433673  0.83542748  -0.00308583  1
  Te  Te178  1  0.33643472  0.83842686  0.33305887  1
  Te  Te179  1  0.33711641  0.83402881  0.66914096  1
  Te  Te180  1  0.66563597  0.16659850  0.00180713  1
  Te  Te181  1  0.66491391  0.16739328  0.32926860  1
  Te  Te182  1  0.66041458  0.16360003  0.66626946  1
  Te  Te183  1  0.66156791  0.49882506  0.00532687  1
  Te  Te184  1  0.66028980  0.49870369  0.32736757  1
  Te  Te185  1  0.66401720  0.50152512  0.66708427  1
  Te  Te186  1  0.66518768  0.83647641  -0.00404673  1
  Te  Te187  1  0.66431242  0.83513325  0.33195692  1
  Te  Te188  1  0.66514418  0.83347340  0.66952127  1
  Te  Te189  1  0.00120653  -0.00080058  0.16608681  1
  Te  Te190  1  0.00057105  0.00027587  0.49050920  1
  Te  Te191  1  -0.00610510  -0.00475537  0.83673229  1
  Te  Te192  1  -0.00009281  0.33358959  0.16400517  1
  Te  Te193  1  0.00693039  0.33416648  0.49649510  1
  Te  Te194  1  0.00491623  0.33635010  0.83825068  1
  Te  Te195  1  -0.00114757  0.66570803  0.16758236  1
  Te  Te196  1  -0.00311767  0.66488337  0.50593051  1
  Te  Te197  1  -0.00113391  0.66765677  0.83148459  1
  Te  Te198  1  0.33629862  -0.00195620  0.17027847  1
  Te  Te199  1  0.33234313  0.00447286  0.49094642  1
  Te  Te200  1  0.33118957  0.00149064  0.83388159  1
  Te  Te201  1  0.33195766  0.33567958  0.16630022  1
  Te  Te202  1  0.33073204  0.33346620  0.49943424  1
  Te  Te203  1  0.32991511  0.33170457  0.83300147  1
  Te  Te204  1  0.33426410  0.66488496  0.16601155  1
  Te  Te205  1  0.33274184  0.66289600  0.49812033  1
  Te  Te206  1  0.33266825  0.66691226  0.83405281  1
  Te  Te207  1  0.66414997  0.00101697  0.16490299  1
  Te  Te208  1  0.66753179  0.00082650  0.48732941  1
  Te  Te209  1  0.66904165  0.00086161  0.83761488  1
  Te  Te210  1  0.66951251  0.33351032  0.16808597  1
  Te  Te211  1  0.66894425  0.33393002  0.49020135  1
  Te  Te212  1  0.66797947  0.32794862  0.83084575  1
  Te  Te213  1  0.67384904  0.66064280  0.16625199  1
  Te  Te214  1  0.67312723  0.66532528  0.50669120  1
  Te  Te215  1  0.67224943  0.66804880  0.82996955  1
