# generated using pymatgen
data_AgSbTe2
_symmetry_space_group_name_H-M   'P 1'
_cell_length_a   18.33856968
_cell_length_b   18.33935004
_cell_length_c   18.34370172
_cell_angle_alpha   89.99775674
_cell_angle_beta   90.00480295
_cell_angle_gamma   90.00163385
_symmetry_Int_Tables_number   1
_chemical_formula_structural   AgSbTe2
_chemical_formula_sum   'Ag54 Sb54 Te108'
_cell_volume   6169.30693041
_cell_formula_units_Z   54
loop_
 _symmetry_equiv_pos_site_id
 _symmetry_equiv_pos_as_xyz
  1  'x, y, z'
loop_
 _atom_site_type_symbol
 _atom_site_label
 _atom_site_symmetry_multiplicity
 _atom_site_fract_x
 _atom_site_fract_y
 _atom_site_fract_z
 _atom_site_occupancy
  Ag  Ag0  1  0.00548894  0.66887323  0.66164946  1
  Ag  Ag1  1  0.32849548  0.49886232  0.50091575  1
  Ag  Ag2  1  0.00549217  0.33167813  0.66068390  1
  Ag  Ag3  1  0.50056948  0.00049495  0.83797857  1
  Ag  Ag4  1  0.32384897  0.33989951  0.65826246  1
  Ag  Ag5  1  0.16509700  0.17587392  0.66000368  1
  Ag  Ag6  1  0.49701809  0.67390347  0.83112948  1
  Ag  Ag7  1  0.33599678  0.66775573  -0.00318906  1
  Ag  Ag8  1  -0.00090113  0.83521750  0.82290532  1
  Ag  Ag9  1  0.16835878  0.83444966  0.33143804  1
  Ag  Ag10  1  0.00052881  0.49499026  0.50043583  1
  Ag  Ag11  1  0.15332995  0.00625227  0.17129210  1
  Ag  Ag12  1  0.67527880  0.16538553  0.17122672  1
  Ag  Ag13  1  0.49109405  0.83385286  0.33390395  1
  Ag  Ag14  1  -0.00472095  0.16433245  0.17180822  1
  Ag  Ag15  1  0.17005346  0.48919045  0.33801623  1
  Ag  Ag16  1  0.83434452  0.00501626  0.17026767  1
  Ag  Ag17  1  0.33598128  0.17416562  0.83116965  1
  Ag  Ag18  1  0.83522651  0.66093799  0.49886072  1
  Ag  Ag19  1  0.66320364  0.16897447  0.83467187  1
  Ag  Ag20  1  0.49743644  0.83268336  0.66163021  1
  Ag  Ag21  1  0.83510494  0.83507608  0.00607569  1
  Ag  Ag22  1  0.00063149  0.32532160  0.33471496  1
  Ag  Ag23  1  0.50334361  0.16507470  -0.00098442  1
  Ag  Ag24  1  -0.00063288  0.84208684  0.17564448  1
  Ag  Ag25  1  0.16050697  0.17158555  0.33426076  1
  Ag  Ag26  1  0.00015683  0.00189609  0.65550355  1
  Ag  Ag27  1  0.33185875  0.49386274  0.81909697  1
  Ag  Ag28  1  0.32990632  0.66006307  0.66132327  1
  Ag  Ag29  1  0.83583099  0.00320720  0.49035899  1
  Ag  Ag30  1  0.84107642  0.33141263  0.82965359  1
  Ag  Ag31  1  0.83814275  0.17023231  0.33174686  1
  Ag  Ag32  1  0.82851753  0.33202084  0.49489184  1
  Ag  Ag33  1  0.51281402  0.33344966  0.49917095  1
  Ag  Ag34  1  0.00041131  0.00707879  0.33141813  1
  Ag  Ag35  1  0.66848230  0.48833551  0.49635710  1
  Ag  Ag36  1  0.83784733  0.32330515  0.17763518  1
  Ag  Ag37  1  0.66809728  0.48798249  0.17866916  1
  Ag  Ag38  1  0.16884937  0.49326710  0.65714448  1
  Ag  Ag39  1  0.15719964  0.32787937  0.17964973  1
  Ag  Ag40  1  0.16310301  0.33184383  0.82094318  1
  Ag  Ag41  1  0.66941892  0.17616525  0.49156631  1
  Ag  Ag42  1  0.32057580  0.33766968  0.34206315  1
  Ag  Ag43  1  0.33135882  0.82644504  0.49398243  1
  Ag  Ag44  1  -0.00032735  0.33304015  0.01345973  1
  Ag  Ag45  1  -0.00004541  0.83246267  0.49715446  1
  Ag  Ag46  1  0.66594615  0.00313378  0.00870344  1
  Ag  Ag47  1  0.33220070  0.83421996  0.17645583  1
  Ag  Ag48  1  0.66409482  0.66054499  0.33335619  1
  Ag  Ag49  1  0.66858783  0.84593433  0.16943036  1
  Ag  Ag50  1  0.51003505  -0.00165024  0.16550092  1
  Ag  Ag51  1  0.33457842  0.67209290  0.33936217  1
  Ag  Ag52  1  0.66850713  0.33087341  0.65251001  1
  Ag  Ag53  1  0.67069814  0.33360452  0.33892778  1
  Sb  Sb54  1  0.83430103  0.49216667  0.33613529  1
  Sb  Sb55  1  0.00274535  0.66637838  -0.00454795  1
  Sb  Sb56  1  0.33744972  0.17296253  0.50217966  1
  Sb  Sb57  1  0.83768148  0.16981148  0.66046049  1
  Sb  Sb58  1  -0.00275822  0.49588214  0.17629393  1
  Sb  Sb59  1  -0.00524288  0.00351552  0.00531459  1
  Sb  Sb60  1  0.33175934  0.16295900  0.16523831  1
  Sb  Sb61  1  0.66170828  0.49261874  0.82734437  1
  Sb  Sb62  1  0.00632483  0.49876683  0.82483382  1
  Sb  Sb63  1  0.32873299  0.00081315  0.66545941  1
  Sb  Sb64  1  0.67244484  0.32714758  0.00482354  1
  Sb  Sb65  1  0.49926929  0.66368595  0.50094926  1
  Sb  Sb66  1  0.83037510  0.66334020  0.82732796  1
  Sb  Sb67  1  0.66495222  0.66095244  0.65937421  1
  Sb  Sb68  1  -0.00536940  0.16908798  0.49365432  1
  Sb  Sb69  1  0.67007906  0.00526291  0.66798107  1
  Sb  Sb70  1  0.83126093  0.00534710  0.83578424  1
  Sb  Sb71  1  0.50038062  0.16357153  0.32978932  1
  Sb  Sb72  1  0.33059895  0.83191989  0.83204253  1
  Sb  Sb73  1  0.16685410  0.83291020  0.66158576  1
  Sb  Sb74  1  0.83156179  0.66833825  0.17477701  1
  Sb  Sb75  1  0.49945325  0.49512288  -0.00032597  1
  Sb  Sb76  1  0.33535892  0.50282093  0.17257829  1
  Sb  Sb77  1  0.16408067  0.83454223  0.00665416  1
  Sb  Sb78  1  0.16062605  0.33374073  0.49986270  1
  Sb  Sb79  1  0.66831248  0.83772099  0.83730427  1
  Sb  Sb80  1  -0.00094350  0.16804624  0.83545535  1
  Sb  Sb81  1  0.16408342  0.66400920  0.49902421  1
  Sb  Sb82  1  0.49820420  0.16453403  0.67003200  1
  Sb  Sb83  1  0.66305932  0.67201749  0.00652356  1
  Sb  Sb84  1  0.32838216  0.33552019  -0.00079324  1
  Sb  Sb85  1  0.82990607  0.16506292  0.00715773  1
  Sb  Sb86  1  0.83278431  0.50044010  0.00213184  1
  Sb  Sb87  1  -0.00019871  0.66766894  0.33949888  1
  Sb  Sb88  1  0.66877567  0.83321220  0.49371175  1
  Sb  Sb89  1  0.49864605  0.50188822  0.33489912  1
  Sb  Sb90  1  0.16870686  0.00498814  0.83728801  1
  Sb  Sb91  1  0.49684545  0.33021082  0.82754396  1
  Sb  Sb92  1  0.32684477  -0.00116527  0.33219209  1
  Sb  Sb93  1  0.50469735  0.00092644  0.49788624  1
  Sb  Sb94  1  0.16651555  0.66602737  0.17089776  1
  Sb  Sb95  1  0.15954665  -0.00039584  0.49386349  1
  Sb  Sb96  1  0.16820108  0.16895860  0.00384393  1
  Sb  Sb97  1  0.84067635  0.49491994  0.66229405  1
  Sb  Sb98  1  0.83282707  0.83416834  0.66603607  1
  Sb  Sb99  1  0.49907152  0.67346724  0.16692329  1
  Sb  Sb100  1  0.67283930  0.00329567  0.32877030  1
  Sb  Sb101  1  0.17217749  0.66206537  0.83007105  1
  Sb  Sb102  1  0.49220827  0.50093077  0.66470658  1
  Sb  Sb103  1  0.50237461  0.32752080  0.17253611  1
  Sb  Sb104  1  0.33905022  -0.00328330  0.00192338  1
  Sb  Sb105  1  0.50179749  0.83788536  0.00297111  1
  Sb  Sb106  1  0.16698760  0.49728280  0.00265420  1
  Sb  Sb107  1  0.83563958  0.83862676  0.33089835  1
  Te  Te108  1  0.16622361  0.16766934  0.17072539  1
  Te  Te109  1  0.16967831  0.16340956  0.49913376  1
  Te  Te110  1  0.16896039  0.17014374  0.83319847  1
  Te  Te111  1  0.16627446  0.49332164  0.17367755  1
  Te  Te112  1  0.16779067  0.50037398  0.49865456  1
  Te  Te113  1  0.17271410  0.49457375  0.83315305  1
  Te  Te114  1  0.16525700  0.83314600  0.17043951  1
  Te  Te115  1  0.16598934  0.83365990  0.49499335  1
  Te  Te116  1  0.15991753  0.83518882  0.83470669  1
  Te  Te117  1  0.50011560  0.16001791  0.16262452  1
  Te  Te118  1  0.50730142  0.16916525  0.50019721  1
  Te  Te119  1  0.50040639  0.16386433  0.83482879  1
  Te  Te120  1  0.50838290  0.50011080  0.16640776  1
  Te  Te121  1  0.50183221  0.49516738  0.49978044  1
  Te  Te122  1  0.49318523  0.50296937  0.83296796  1
  Te  Te123  1  0.50116391  0.83804525  0.16858197  1
  Te  Te124  1  0.49888635  0.83397518  0.49801038  1
  Te  Te125  1  0.49980222  0.83644621  0.83308501  1
  Te  Te126  1  0.83453352  0.16647119  0.16949884  1
  Te  Te127  1  0.82911384  0.16700225  0.49512359  1
  Te  Te128  1  0.83000982  0.17114840  0.83473396  1
  Te  Te129  1  0.82733183  0.49750785  0.16702351  1
  Te  Te130  1  0.83418894  0.49887769  0.49980572  1
  Te  Te131  1  0.83249833  0.49392224  0.83374653  1
  Te  Te132  1  0.83271358  0.83332345  0.16639965  1
  Te  Te133  1  0.83720131  0.83888756  0.49993338  1
  Te  Te134  1  0.83743847  0.83313449  0.83582702  1
  Te  Te135  1  0.16744530  0.00129050  0.01004833  1
  Te  Te136  1  0.16101022  -0.00213169  0.32886627  1
  Te  Te137  1  0.16011665  0.00204765  0.66818968  1
  Te  Te138  1  0.15993001  0.33387370  -0.00030242  1
  Te  Te139  1  0.16405752  0.33175117  0.33583597  1
  Te  Te140  1  0.16747478  0.33319048  0.66415741  1
  Te  Te141  1  0.17504052  0.66583094  -0.00059724  1
  Te  Te142  1  0.17216365  0.67305587  0.33300721  1
  Te  Te143  1  0.16715591  0.66427040  0.66664279  1
  Te  Te144  1  0.50462142  0.00283620  0.00011223  1
  Te  Te145  1  0.49900588  -0.00491243  0.32989674  1
  Te  Te146  1  0.50058193  -0.00472560  0.66714975  1
  Te  Te147  1  0.49839052  0.32728797  0.00020710  1
  Te  Te148  1  0.50546079  0.33132345  0.33761833  1
  Te  Te149  1  0.50306162  0.33240522  0.66232295  1
  Te  Te150  1  0.49563304  0.66642612  -0.00506228  1
  Te  Te151  1  0.49882629  0.67264474  0.33382370  1
  Te  Te152  1  0.49734562  0.67067271  0.66874408  1
  Te  Te153  1  0.82799973  -0.00366098  0.00305251  1
  Te  Te154  1  0.83817830  0.00450912  0.33119496  1
  Te  Te155  1  0.84064903  0.00152187  0.66745920  1
  Te  Te156  1  0.83938095  0.33387850  -0.00382990  1
  Te  Te157  1  0.83316806  0.33162882  0.33453536  1
  Te  Te158  1  0.83089847  0.33227871  0.66768023  1
  Te  Te159  1  0.83303346  0.67165389  -0.00283134  1
  Te  Te160  1  0.82889957  0.66600585  0.33989506  1
  Te  Te161  1  0.83646356  0.66610685  0.66017502  1
  Te  Te162  1  -0.00011410  0.17253288  0.00572737  1
  Te  Te163  1  -0.00004378  0.16667772  0.33179416  1
  Te  Te164  1  0.00432546  0.16708891  0.66852890  1
  Te  Te165  1  -0.00036039  0.49512600  -0.00013473  1
  Te  Te166  1  0.00703270  0.50086146  0.34038259  1
  Te  Te167  1  0.00657228  0.49895185  0.66125818  1
  Te  Te168  1  -0.00316527  0.83200021  0.00582226  1
  Te  Te169  1  0.00194289  0.83206016  0.33491985  1
  Te  Te170  1  -0.00013145  0.83342719  0.66164607  1
  Te  Te171  1  0.33800820  0.16686269  -0.00607411  1
  Te  Te172  1  0.32949796  0.17266757  0.33428915  1
  Te  Te173  1  0.32893403  0.16876936  0.67009665  1
  Te  Te174  1  0.33436074  0.50724146  0.00296543  1
  Te  Te175  1  0.33208781  0.49767474  0.33649597  1
  Te  Te176  1  0.32980486  0.49936385  0.66253422  1
  Te  Te177  1  0.33277605  0.82761399  0.00114356  1
  Te  Te178  1  0.33219144  0.83582762  0.33408983  1
  Te  Te179  1  0.33459304  0.83253415  0.66351957  1
  Te  Te180  1  0.66411797  0.16326606  0.00159678  1
  Te  Te181  1  0.66590465  0.16889424  0.33168949  1
  Te  Te182  1  0.66743172  0.17038610  0.67001219  1
  Te  Te183  1  0.66600337  0.50184577  0.00140428  1
  Te  Te184  1  0.66557553  0.49905494  0.33616729  1
  Te  Te185  1  0.66661155  0.49323111  0.65990980  1
  Te  Te186  1  0.67086201  0.83848153  0.00545554  1
  Te  Te187  1  0.66658509  0.83279570  0.32894078  1
  Te  Te188  1  0.66063755  0.83209062  0.66729829  1
  Te  Te189  1  -0.00380892  0.00102090  0.16739009  1
  Te  Te190  1  -0.00420078  0.00084248  0.49748805  1
  Te  Te191  1  0.00003075  -0.00306899  0.83617680  1
  Te  Te192  1  -0.00184062  0.33425646  0.17281270  1
  Te  Te193  1  -0.00652052  0.33401687  0.49952463  1
  Te  Te194  1  0.00168842  0.33348211  0.82146846  1
  Te  Te195  1  -0.00141809  0.67108762  0.16402727  1
  Te  Te196  1  -0.00356272  0.66841542  0.50263981  1
  Te  Te197  1  -0.00077974  0.67003645  0.82713394  1
  Te  Te198  1  0.33651179  -0.00563742  0.16601346  1
  Te  Te199  1  0.33533500  -0.00616304  0.50032349  1
  Te  Te200  1  0.33786458  0.00371763  0.83354760  1
  Te  Te201  1  0.33275355  0.33313235  0.16850007  1
  Te  Te202  1  0.33438426  0.33527824  0.50036506  1
  Te  Te203  1  0.33086580  0.33456886  0.83358728  1
  Te  Te204  1  0.33362509  0.67148899  0.17487099  1
  Te  Te205  1  0.33519164  0.66588160  0.49979956  1
  Te  Te206  1  0.33661902  0.66672480  0.82587266  1
  Te  Te207  1  0.67021519  0.00346708  0.16755367  1
  Te  Te208  1  0.67367537  0.00266482  0.50065704  1
  Te  Te209  1  0.66308437  0.00550365  0.83535115  1
  Te  Te210  1  0.66898250  0.32931426  0.16919894  1
  Te  Te211  1  0.66964150  0.33234981  0.49693392  1
  Te  Te212  1  0.66610701  0.32944791  0.83696292  1
  Te  Te213  1  0.66586656  0.66596272  0.17280100  1
  Te  Te214  1  0.67098341  0.66521628  0.49510759  1
  Te  Te215  1  0.66101456  0.66455702  0.83253848  1
