# generated using pymatgen
data_AgSbTe2
_symmetry_space_group_name_H-M   'P 1'
_cell_length_a   18.31767275
_cell_length_b   18.32799878
_cell_length_c   18.32249454
_cell_angle_alpha   89.99902518
_cell_angle_beta   89.99684943
_cell_angle_gamma   89.99931762
_symmetry_Int_Tables_number   1
_chemical_formula_structural   AgSbTe2
_chemical_formula_sum   'Ag54 Sb54 Te108'
_cell_volume   6151.34299125
_cell_formula_units_Z   54
loop_
 _symmetry_equiv_pos_site_id
 _symmetry_equiv_pos_as_xyz
  1  'x, y, z'
loop_
 _atom_site_type_symbol
 _atom_site_label
 _atom_site_symmetry_multiplicity
 _atom_site_fract_x
 _atom_site_fract_y
 _atom_site_fract_z
 _atom_site_occupancy
  Ag  Ag0  1  0.49975821  0.33569583  0.49775366  1
  Ag  Ag1  1  0.33434739  0.16645522  0.83932496  1
  Ag  Ag2  1  0.34589419  0.67446001  0.32843335  1
  Ag  Ag3  1  -0.00187912  0.16539863  0.82707733  1
  Ag  Ag4  1  -0.00781425  0.83353800  0.16736672  1
  Ag  Ag5  1  0.82636732  -0.00678286  0.16465548  1
  Ag  Ag6  1  0.16493472  0.32874859  0.16966898  1
  Ag  Ag7  1  -0.00104446  0.83517210  0.50136144  1
  Ag  Ag8  1  0.50406074  0.50539227  -0.00144290  1
  Ag  Ag9  1  0.50469314  0.33617471  0.83582667  1
  Ag  Ag10  1  0.82992520  0.16560784  0.33514807  1
  Ag  Ag11  1  0.50642686  0.82546333  0.66454622  1
  Ag  Ag12  1  0.34319550  -0.00302950  0.32758488  1
  Ag  Ag13  1  0.15977557  0.33533497  0.49621133  1
  Ag  Ag14  1  0.15473118  0.50001401  0.66676762  1
  Ag  Ag15  1  -0.00422979  0.83412086  0.82698923  1
  Ag  Ag16  1  0.83852965  0.83199973  0.67267507  1
  Ag  Ag17  1  0.66144315  0.67507853  0.32105125  1
  Ag  Ag18  1  0.83610870  0.33682701  0.83143654  1
  Ag  Ag19  1  -0.00291723  0.33499942  0.66646163  1
  Ag  Ag20  1  0.50402505  0.15905266  0.33059012  1
  Ag  Ag21  1  0.67204847  0.16687478  0.49583858  1
  Ag  Ag22  1  0.50031481  -0.00127107  0.84103677  1
  Ag  Ag23  1  0.83964414  0.50175718  0.67244703  1
  Ag  Ag24  1  0.50511765  0.66489431  0.83951369  1
  Ag  Ag25  1  0.49987464  0.83306287  0.33154799  1
  Ag  Ag26  1  -0.00617453  -0.00160131  0.00013114  1
  Ag  Ag27  1  0.16478863  0.00315280  0.16717544  1
  Ag  Ag28  1  0.67037813  0.82672245  0.16690002  1
  Ag  Ag29  1  0.33495633  0.16357812  0.16514197  1
  Ag  Ag30  1  0.50284836  0.50482157  0.67403742  1
  Ag  Ag31  1  -0.00467876  0.50029541  0.82928975  1
  Ag  Ag32  1  0.49950283  0.66561381  0.49312730  1
  Ag  Ag33  1  0.16734881  0.83313761  0.33157362  1
  Ag  Ag34  1  0.50204520  0.33414040  0.16610313  1
  Ag  Ag35  1  0.50912140  0.66746259  0.16752730  1
  Ag  Ag36  1  0.16708878  0.66336309  0.49951340  1
  Ag  Ag37  1  -0.00517617  0.66576277  0.66932716  1
  Ag  Ag38  1  0.00059675  0.33047805  0.33670669  1
  Ag  Ag39  1  0.83861966  0.16495500  0.66499391  1
  Ag  Ag40  1  -0.00495626  0.50497970  0.16082751  1
  Ag  Ag41  1  0.34690383  0.66744508  0.00680265  1
  Ag  Ag42  1  0.66354986  0.33549719  0.00220429  1
  Ag  Ag43  1  0.50714737  -0.00321052  0.16959258  1
  Ag  Ag44  1  -0.00329759  0.16711214  0.50598088  1
  Ag  Ag45  1  0.66932518  -0.00276809  0.00830888  1
  Ag  Ag46  1  0.16581061  0.16710815  0.00298939  1
  Ag  Ag47  1  0.83380491  0.83247751  0.00316058  1
  Ag  Ag48  1  0.82195230  0.67468453  0.16131609  1
  Ag  Ag49  1  0.66108163  -0.00362424  0.32468699  1
  Ag  Ag50  1  -0.00279748  -0.00155788  0.67346189  1
  Ag  Ag51  1  0.66440438  0.66703800  0.00793674  1
  Ag  Ag52  1  0.83338845  0.66659923  0.83523099  1
  Ag  Ag53  1  0.66752503  0.51341376  0.16419445  1
  Sb  Sb54  1  0.66754837  0.33078875  0.32890784  1
  Sb  Sb55  1  -0.00271210  0.00263420  0.32829000  1
  Sb  Sb56  1  0.16400760  0.66687759  0.82944888  1
  Sb  Sb57  1  0.33509982  0.49756957  0.83364110  1
  Sb  Sb58  1  0.33474036  0.83554470  0.83511424  1
  Sb  Sb59  1  0.49862264  0.16835229  0.00452841  1
  Sb  Sb60  1  0.33271032  0.16699858  0.49746363  1
  Sb  Sb61  1  0.16689196  0.66792833  0.17107906  1
  Sb  Sb62  1  0.33167530  0.33191314  0.33062563  1
  Sb  Sb63  1  0.16656325  0.16315553  0.32920027  1
  Sb  Sb64  1  0.83466696  0.00100643  0.49560969  1
  Sb  Sb65  1  0.15951545  0.82863030  0.66062908  1
  Sb  Sb66  1  0.33895482  0.33382613  0.00092538  1
  Sb  Sb67  1  0.66833586  0.66673817  0.66827422  1
  Sb  Sb68  1  0.33101497  0.33234152  0.66722064  1
  Sb  Sb69  1  0.15782840  0.17077694  0.66881001  1
  Sb  Sb70  1  -0.00447724  0.32992068  -0.00182971  1
  Sb  Sb71  1  0.16837701  0.49730996  -0.00175709  1
  Sb  Sb72  1  0.66904317  0.50043202  0.83890790  1
  Sb  Sb73  1  0.50702077  0.82898104  0.00354298  1
  Sb  Sb74  1  0.33627728  0.49875990  0.16558262  1
  Sb  Sb75  1  0.83617259  0.16181873  0.00044126  1
  Sb  Sb76  1  0.16405924  0.50283405  0.33525665  1
  Sb  Sb77  1  0.00310182  0.16441070  0.16618993  1
  Sb  Sb78  1  0.50137864  -0.00184746  0.49487209  1
  Sb  Sb79  1  0.66387453  0.49764802  0.49532233  1
  Sb  Sb80  1  0.33555784  -0.00229671  0.00581726  1
  Sb  Sb81  1  0.67049774  0.33415936  0.67029683  1
  Sb  Sb82  1  0.67130257  0.83246377  0.84046850  1
  Sb  Sb83  1  0.83216305  0.83706531  0.32825754  1
  Sb  Sb84  1  0.00038391  0.49882047  0.50578798  1
  Sb  Sb85  1  0.50139508  0.50358424  0.32926675  1
  Sb  Sb86  1  -0.00430482  0.67119237  -0.00290972  1
  Sb  Sb87  1  0.83330665  -0.00262515  0.83746344  1
  Sb  Sb88  1  0.83149033  0.33307303  0.16209672  1
  Sb  Sb89  1  0.33486961  0.66719632  0.66638900  1
  Sb  Sb90  1  -0.00288073  0.66570554  0.33533000  1
  Sb  Sb91  1  0.33089396  0.83164408  0.49720769  1
  Sb  Sb92  1  0.83249488  0.66862333  0.50133608  1
  Sb  Sb93  1  0.33100226  0.00035207  0.66507119  1
  Sb  Sb94  1  0.16576466  0.00136849  0.83929240  1
  Sb  Sb95  1  0.83455625  0.49661643  0.33448791  1
  Sb  Sb96  1  0.82902340  0.50523701  -0.00313095  1
  Sb  Sb97  1  0.83433143  0.33035401  0.50542588  1
  Sb  Sb98  1  0.67047676  -0.00136321  0.66766416  1
  Sb  Sb99  1  0.33694654  0.83638366  0.16827218  1
  Sb  Sb100  1  0.16303416  0.33204137  0.83357369  1
  Sb  Sb101  1  0.66864429  0.16652701  0.83126391  1
  Sb  Sb102  1  0.66189223  0.16187312  0.17109841  1
  Sb  Sb103  1  0.16203502  0.00005740  0.49445715  1
  Sb  Sb104  1  0.66977420  0.83567299  0.49400728  1
  Sb  Sb105  1  0.33411846  0.50109928  0.49999753  1
  Sb  Sb106  1  0.15863220  0.83684195  0.00712569  1
  Sb  Sb107  1  0.50540413  0.16742724  0.66403440  1
  Te  Te108  1  0.16982007  0.16743570  0.16488946  1
  Te  Te109  1  0.16273610  0.17291940  0.49940024  1
  Te  Te110  1  0.16560317  0.16673111  0.83849993  1
  Te  Te111  1  0.16274478  0.49496509  0.16545530  1
  Te  Te112  1  0.16715907  0.49853306  0.50468460  1
  Te  Te113  1  0.16135602  0.49945162  0.82876960  1
  Te  Te114  1  0.16159610  0.83583391  0.17190253  1
  Te  Te115  1  0.16097777  0.82981189  0.49462701  1
  Te  Te116  1  0.15958634  0.83425561  0.83307781  1
  Te  Te117  1  0.49597632  0.16720080  0.16986712  1
  Te  Te118  1  0.49954367  0.17057083  0.49586840  1
  Te  Te119  1  0.50017810  0.16779015  0.83273809  1
  Te  Te120  1  0.50116938  0.49971778  0.16280385  1
  Te  Te121  1  0.50051362  0.49906948  0.50454117  1
  Te  Te122  1  0.50084175  0.50055742  0.83531292  1
  Te  Te123  1  0.50259725  0.83314495  0.16950064  1
  Te  Te124  1  0.50145726  0.82889802  0.49791837  1
  Te  Te125  1  0.50047305  0.83214309  0.83169987  1
  Te  Te126  1  0.83477004  0.16380860  0.17013630  1
  Te  Te127  1  0.83594840  0.16662614  0.49956026  1
  Te  Te128  1  0.83672729  0.16754238  0.83102193  1
  Te  Te129  1  0.83435930  0.50143186  0.16582183  1
  Te  Te130  1  0.83158951  0.49959038  0.50959501  1
  Te  Te131  1  0.83531925  0.50239777  0.83118674  1
  Te  Te132  1  0.83300379  0.83302209  0.16716475  1
  Te  Te133  1  0.83904164  0.83386086  0.50756550  1
  Te  Te134  1  0.83675342  0.83089295  0.83248749  1
  Te  Te135  1  0.16557257  0.00381766  0.00694112  1
  Te  Te136  1  0.16658928  -0.00451265  0.32757966  1
  Te  Te137  1  0.16082055  -0.00187123  0.66612698  1
  Te  Te138  1  0.16764636  0.32970335  0.00527621  1
  Te  Te139  1  0.16433839  0.33383838  0.33305315  1
  Te  Te140  1  0.16283123  0.33815838  0.66447281  1
  Te  Te141  1  0.17070153  0.66577754  -0.00020654  1
  Te  Te142  1  0.16534748  0.67087156  0.33927839  1
  Te  Te143  1  0.16517452  0.66185298  0.66123741  1
  Te  Te144  1  0.50285731  -0.00095407  0.00206854  1
  Te  Te145  1  0.50143695  -0.00117786  0.33252614  1
  Te  Te146  1  0.50062167  -0.00256760  0.66767729  1
  Te  Te147  1  0.50323376  0.33492368  0.00162876  1
  Te  Te148  1  0.49939411  0.33387204  0.33197587  1
  Te  Te149  1  0.49972188  0.33458880  0.66727219  1
  Te  Te150  1  0.50379718  0.66803752  0.00162515  1
  Te  Te151  1  0.50152441  0.66593129  0.33194893  1
  Te  Te152  1  0.50080891  0.66697377  0.66746734  1
  Te  Te153  1  0.83308147  -0.00378142  0.00350572  1
  Te  Te154  1  0.82904318  0.00456971  0.32694435  1
  Te  Te155  1  0.83763916  -0.00079549  0.66850401  1
  Te  Te156  1  0.82656602  0.33309719  -0.00696668  1
  Te  Te157  1  0.83782084  0.32811203  0.33291418  1
  Te  Te158  1  0.83644495  0.33327202  0.67146342  1
  Te  Te159  1  0.83034992  0.67054256  -0.00054269  1
  Te  Te160  1  0.82858633  0.66547563  0.32912815  1
  Te  Te161  1  0.83445771  0.66793286  0.66900655  1
  Te  Te162  1  0.00319159  0.16237855  -0.00471071  1
  Te  Te163  1  -0.00139482  0.16990514  0.33690525  1
  Te  Te164  1  -0.00269513  0.16782194  0.66716293  1
  Te  Te165  1  0.00054884  0.49905977  -0.00023892  1
  Te  Te166  1  -0.00106195  0.49333914  0.32629139  1
  Te  Te167  1  -0.00181958  0.50027714  0.66797706  1
  Te  Te168  1  -0.00502183  0.83756232  0.00299924  1
  Te  Te169  1  0.00017016  0.83390606  0.33423999  1
  Te  Te170  1  -0.00077178  0.83181581  0.66683578  1
  Te  Te171  1  0.32941962  0.16551742  0.00027203  1
  Te  Te172  1  0.33740862  0.16417861  0.32977949  1
  Te  Te173  1  0.33228336  0.16474208  0.67297859  1
  Te  Te174  1  0.33934394  0.50660898  -0.00093440  1
  Te  Te175  1  0.33193426  0.51023472  0.33223412  1
  Te  Te176  1  0.34043232  0.49999139  0.66790564  1
  Te  Te177  1  0.32878617  0.82631656  0.00020024  1
  Te  Te178  1  0.33602427  0.83393337  0.33288552  1
  Te  Te179  1  0.34224352  0.83496006  0.66658703  1
  Te  Te180  1  0.66736261  0.16388772  -0.00132043  1
  Te  Te181  1  0.66591499  0.16572008  0.33661965  1
  Te  Te182  1  0.67543577  0.16609183  0.65892980  1
  Te  Te183  1  0.66356913  0.50093028  0.00494569  1
  Te  Te184  1  0.66924225  0.50347934  0.32559779  1
  Te  Te185  1  0.66194045  0.49960810  0.66442571  1
  Te  Te186  1  0.67245228  0.83522531  0.00552579  1
  Te  Te187  1  0.66499041  0.83537290  0.32956169  1
  Te  Te188  1  0.66561655  0.83422105  0.66436597  1
  Te  Te189  1  0.00082124  -0.00209826  0.16353375  1
  Te  Te190  1  0.00024795  0.00101184  0.50374844  1
  Te  Te191  1  -0.00042354  0.00027942  0.83460956  1
  Te  Te192  1  0.00021225  0.33364569  0.16635096  1
  Te  Te193  1  0.00030145  0.33293828  0.50117198  1
  Te  Te194  1  -0.00201390  0.33306917  0.83079573  1
  Te  Te195  1  -0.00042629  0.66741714  0.16633911  1
  Te  Te196  1  0.00072558  0.66821156  0.50321534  1
  Te  Te197  1  -0.00231734  0.66649626  0.83067655  1
  Te  Te198  1  0.33451902  0.00229003  0.16940114  1
  Te  Te199  1  0.33090309  0.00042998  0.49094334  1
  Te  Te200  1  0.33882985  0.00439464  0.83423227  1
  Te  Te201  1  0.33420942  0.32869669  0.16719104  1
  Te  Te202  1  0.33580681  0.33245094  0.49883179  1
  Te  Te203  1  0.33862985  0.32732431  0.83480105  1
  Te  Te204  1  0.33515646  0.66703495  0.16798265  1
  Te  Te205  1  0.33542550  0.66760013  0.49574655  1
  Te  Te206  1  0.33787923  0.66680762  0.83585789  1
  Te  Te207  1  0.66585741  0.00113484  0.16612390  1
  Te  Te208  1  0.66730143  0.00635679  0.49548869  1
  Te  Te209  1  0.65999190  -0.00073904  0.83646737  1
  Te  Te210  1  0.66304007  0.33259473  0.16244691  1
  Te  Te211  1  0.66131753  0.32898182  0.49795846  1
  Te  Te212  1  0.66430348  0.33321786  0.83823742  1
  Te  Te213  1  0.66669452  0.66891518  0.16496205  1
  Te  Te214  1  0.66111892  0.66657715  0.49563480  1
  Te  Te215  1  0.66655502  0.66742208  0.83736639  1
