# generated using pymatgen
data_AgSbTe2
_symmetry_space_group_name_H-M   'P 1'
_cell_length_a   18.36350546
_cell_length_b   18.37269633
_cell_length_c   18.37127503
_cell_angle_alpha   89.99629086
_cell_angle_beta   90.00039752
_cell_angle_gamma   90.00189955
_symmetry_Int_Tables_number   1
_chemical_formula_structural   AgSbTe2
_chemical_formula_sum   'Ag54 Sb54 Te108'
_cell_volume   6198.23135923
_cell_formula_units_Z   54
loop_
 _symmetry_equiv_pos_site_id
 _symmetry_equiv_pos_as_xyz
  1  'x, y, z'
loop_
 _atom_site_type_symbol
 _atom_site_label
 _atom_site_symmetry_multiplicity
 _atom_site_fract_x
 _atom_site_fract_y
 _atom_site_fract_z
 _atom_site_occupancy
  Ag  Ag0  1  0.15776274  0.83836772  0.33648612  1
  Ag  Ag1  1  0.67513208  0.83869494  0.17678300  1
  Ag  Ag2  1  -0.01478593  -0.00458433  0.33713071  1
  Ag  Ag3  1  -0.00679866  0.50820733  0.17749922  1
  Ag  Ag4  1  0.33561260  0.84061872  0.16675020  1
  Ag  Ag5  1  0.50325796  0.00000601  0.82808622  1
  Ag  Ag6  1  0.15422825  0.50544657  0.34089132  1
  Ag  Ag7  1  0.49239978  0.84249387  0.66397311  1
  Ag  Ag8  1  0.34141491  0.16427199  0.49809333  1
  Ag  Ag9  1  0.65347978  0.15739014  0.49913015  1
  Ag  Ag10  1  0.34497051  -0.00308117  -0.00365222  1
  Ag  Ag11  1  0.83050420  0.50551783  0.01145261  1
  Ag  Ag12  1  0.33330617  0.31474231  0.66260724  1
  Ag  Ag13  1  0.50420294  0.84180861  0.33358178  1
  Ag  Ag14  1  0.50328247  0.31842203  0.49472245  1
  Ag  Ag15  1  0.50339966  0.00496426  0.50305881  1
  Ag  Ag16  1  0.33619492  -0.00152261  0.66524768  1
  Ag  Ag17  1  0.83044138  0.33455761  0.17654513  1
  Ag  Ag18  1  0.16721318  0.67328291  0.82083022  1
  Ag  Ag19  1  0.84124193  0.84739056  0.32768473  1
  Ag  Ag20  1  0.67266436  -0.00158108  0.33610810  1
  Ag  Ag21  1  0.83212318  -0.00979126  0.18211240  1
  Ag  Ag22  1  0.17668513  0.15160229  0.65661513  1
  Ag  Ag23  1  0.66345592  0.84254013  0.49359855  1
  Ag  Ag24  1  0.82383352  -0.00219311  0.83322753  1
  Ag  Ag25  1  0.83570913  0.68039835  0.17177229  1
  Ag  Ag26  1  0.83611685  0.15799265  0.33415334  1
  Ag  Ag27  1  0.16720993  0.51576304  0.65514828  1
  Ag  Ag28  1  0.33061900  0.83723804  0.82276622  1
  Ag  Ag29  1  0.16708440  -0.00083997  0.50113187  1
  Ag  Ag30  1  0.00262557  0.49974489  0.48763269  1
  Ag  Ag31  1  -0.00498537  0.34661324  0.33581623  1
  Ag  Ag32  1  0.50161633  0.15464049  0.00348049  1
  Ag  Ag33  1  0.49487388  0.15777511  0.65105511  1
  Ag  Ag34  1  0.82299794  0.00168201  0.49163954  1
  Ag  Ag35  1  0.16636573  0.68096755  0.50116633  1
  Ag  Ag36  1  0.83085868  0.32053641  0.49241619  1
  Ag  Ag37  1  0.66289332  0.15929472  0.82332861  1
  Ag  Ag38  1  0.50344211  0.49888230  0.00196892  1
  Ag  Ag39  1  0.00590652  -0.00196844  0.65325515  1
  Ag  Ag40  1  0.66127342  -0.00259235  0.00618638  1
  Ag  Ag41  1  0.33909710  0.15731232  0.17609313  1
  Ag  Ag42  1  0.17332565  0.83448597  0.65648277  1
  Ag  Ag43  1  -0.01305458  0.83135937  0.17611711  1
  Ag  Ag44  1  0.84099391  0.49696636  0.32867965  1
  Ag  Ag45  1  0.16411277  0.15771805  0.33945926  1
  Ag  Ag46  1  0.82785704  0.83748388  0.01466290  1
  Ag  Ag47  1  0.33043077  0.68099401  0.66575597  1
  Ag  Ag48  1  0.50148664  0.15945366  0.33976790  1
  Ag  Ag49  1  -0.00166630  0.66169186  0.33358657  1
  Ag  Ag50  1  0.50375526  0.84202087  0.00550587  1
  Ag  Ag51  1  0.00380267  0.83540340  0.83370197  1
  Ag  Ag52  1  0.66045087  0.67061065  0.66488045  1
  Ag  Ag53  1  0.50218415  0.32515588  0.17215361  1
  Sb  Sb54  1  0.50175472  0.49523610  0.33092065  1
  Sb  Sb55  1  0.33104660  0.32863647  0.33694638  1
  Sb  Sb56  1  0.66299611  0.15861447  0.17272435  1
  Sb  Sb57  1  0.67334282  0.67771122  0.33677891  1
  Sb  Sb58  1  0.50587373  0.67021290  0.16794850  1
  Sb  Sb59  1  0.00582965  0.32859989  0.65767381  1
  Sb  Sb60  1  -0.00397914  -0.00238217  0.00472036  1
  Sb  Sb61  1  0.67548488  0.32413340  0.33333138  1
  Sb  Sb62  1  0.16622293  0.32691589  0.49809425  1
  Sb  Sb63  1  0.66151514  0.33319207  0.66284739  1
  Sb  Sb64  1  0.50299963  0.00074388  0.16982355  1
  Sb  Sb65  1  -0.00042677  0.50767618  0.83314319  1
  Sb  Sb66  1  0.82847986  0.16173591  0.65750946  1
  Sb  Sb67  1  0.16374029  -0.00167244  0.17583536  1
  Sb  Sb68  1  0.49288171  0.49992213  0.66833699  1
  Sb  Sb69  1  0.82656455  0.15857723  0.00851686  1
  Sb  Sb70  1  0.32567318  0.67181086  0.33915330  1
  Sb  Sb71  1  0.33688882  0.00028701  0.33485934  1
  Sb  Sb72  1  0.84052126  0.50093401  0.66132563  1
  Sb  Sb73  1  0.66171866  -0.00395157  0.66141438  1
  Sb  Sb74  1  0.16503328  0.50279924  0.00250500  1
  Sb  Sb75  1  0.83468993  0.32694195  0.83346647  1
  Sb  Sb76  1  0.67212694  0.50046598  0.49792144  1
  Sb  Sb77  1  0.66486991  0.84068480  0.83063413  1
  Sb  Sb78  1  0.66683072  0.49665437  0.83454860  1
  Sb  Sb79  1  -0.00399835  0.15541525  0.82862271  1
  Sb  Sb80  1  0.00395903  0.67437340  0.66047769  1
  Sb  Sb81  1  -0.00448169  0.33577959  0.01144203  1
  Sb  Sb82  1  0.33350148  0.50837763  0.83207015  1
  Sb  Sb83  1  0.33450274  0.84312594  0.49999160  1
  Sb  Sb84  1  0.49683349  0.67842785  0.83182320  1
  Sb  Sb85  1  0.16652742  0.33221794  0.17255855  1
  Sb  Sb86  1  0.00103751  0.16436281  0.49554706  1
  Sb  Sb87  1  0.16793503  0.33648645  0.82625751  1
  Sb  Sb88  1  0.49937330  0.32302202  0.83189800  1
  Sb  Sb89  1  0.66540895  0.32654041  0.00410195  1
  Sb  Sb90  1  -0.00092888  0.67066689  0.00682884  1
  Sb  Sb91  1  0.83671006  0.67630901  0.83740865  1
  Sb  Sb92  1  0.83364883  0.83757178  0.66137201  1
  Sb  Sb93  1  0.33094023  0.50025856  0.16741411  1
  Sb  Sb94  1  0.32757456  0.49404599  0.50150289  1
  Sb  Sb95  1  0.17540717  0.16213843  0.00105433  1
  Sb  Sb96  1  0.83781295  0.67176500  0.49379903  1
  Sb  Sb97  1  0.49496635  0.67258252  0.50049109  1
  Sb  Sb98  1  0.66729785  0.67535149  -0.00284400  1
  Sb  Sb99  1  0.33522410  0.67606002  -0.00264287  1
  Sb  Sb100  1  0.33885338  0.15628548  0.82751211  1
  Sb  Sb101  1  0.16997824  -0.00576735  0.82373224  1
  Sb  Sb102  1  -0.00011196  0.83509721  0.49520582  1
  Sb  Sb103  1  0.16829460  0.83540689  0.00199218  1
  Sb  Sb104  1  0.33759726  0.32598411  -0.00330987  1
  Sb  Sb105  1  -0.00063862  0.16377135  0.17154241  1
  Sb  Sb106  1  0.16145638  0.66980348  0.17322280  1
  Sb  Sb107  1  0.67566155  0.50639114  0.16655561  1
  Te  Te108  1  0.17404991  0.16645012  0.17057443  1
  Te  Te109  1  0.16755797  0.16346294  0.49878748  1
  Te  Te110  1  0.16613058  0.16772507  0.83047468  1
  Te  Te111  1  0.15969265  0.50091052  0.17061721  1
  Te  Te112  1  0.16368952  0.49224825  0.49876815  1
  Te  Te113  1  0.16570105  0.50734127  0.83233646  1
  Te  Te114  1  0.17224169  0.83230280  0.17157219  1
  Te  Te115  1  0.16697538  0.83764782  0.49680857  1
  Te  Te116  1  0.16841974  0.83155368  0.83574688  1
  Te  Te117  1  0.49869339  0.16768473  0.16562549  1
  Te  Te118  1  0.49818015  0.16370871  0.49580716  1
  Te  Te119  1  0.50341219  0.16025292  0.84308834  1
  Te  Te120  1  0.50003334  0.49882559  0.16454344  1
  Te  Te121  1  0.50157880  0.49728591  0.49980787  1
  Te  Te122  1  0.50099844  0.49767939  0.83844785  1
  Te  Te123  1  0.49719789  0.83206049  0.16620488  1
  Te  Te124  1  0.50146352  0.83567441  0.49981703  1
  Te  Te125  1  0.49731248  0.83971504  0.83282365  1
  Te  Te126  1  0.83201751  0.17345593  0.17281728  1
  Te  Te127  1  0.83493646  0.16253299  0.49450268  1
  Te  Te128  1  0.82775563  0.16045578  0.83524750  1
  Te  Te129  1  0.83519144  0.49206006  0.16746074  1
  Te  Te130  1  0.83931242  0.50234685  0.49691468  1
  Te  Te131  1  0.83333425  0.49991035  0.83569189  1
  Te  Te132  1  0.83155805  0.83592492  0.16906149  1
  Te  Te133  1  0.82878030  0.83810354  0.49414875  1
  Te  Te134  1  0.83663427  0.83819829  0.82997098  1
  Te  Te135  1  0.17137608  0.00030252  0.00036403  1
  Te  Te136  1  0.17145615  -0.00155419  0.33793397  1
  Te  Te137  1  0.16680674  -0.00484309  0.66368016  1
  Te  Te138  1  0.16707804  0.33378662  -0.00131286  1
  Te  Te139  1  0.16013225  0.33199591  0.33332080  1
  Te  Te140  1  0.17310825  0.33020225  0.66474384  1
  Te  Te141  1  0.16723019  0.66665533  -0.00655673  1
  Te  Te142  1  0.16149217  0.66923931  0.33845359  1
  Te  Te143  1  0.16599152  0.67338693  0.66163100  1
  Te  Te144  1  0.50157196  -0.00372253  0.00680686  1
  Te  Te145  1  0.50168217  -0.00007443  0.33593877  1
  Te  Te146  1  0.50123588  -0.00024240  0.66580504  1
  Te  Te147  1  0.50009205  0.33845905  0.00182356  1
  Te  Te148  1  0.50020665  0.33118628  0.33384087  1
  Te  Te149  1  0.49438740  0.33171438  0.66354892  1
  Te  Te150  1  0.50101070  0.66068436  -0.00054019  1
  Te  Te151  1  0.49892709  0.66708533  0.33429127  1
  Te  Te152  1  0.49587659  0.66830811  0.66713203  1
  Te  Te153  1  0.83000263  -0.00355607  -0.00574285  1
  Te  Te154  1  0.82837837  0.00240737  0.33701878  1
  Te  Te155  1  0.84243300  0.00212191  0.67201442  1
  Te  Te156  1  0.83190487  0.33626333  0.00185285  1
  Te  Te157  1  0.83501934  0.33539986  0.33632977  1
  Te  Te158  1  0.83477599  0.33207173  0.66222050  1
  Te  Te159  1  0.83258443  0.66845545  0.00520682  1
  Te  Te160  1  0.83724431  0.66186725  0.33068292  1
  Te  Te161  1  0.83202383  0.66655687  0.66691032  1
  Te  Te162  1  0.00148795  0.16752345  -0.00026921  1
  Te  Te163  1  0.00296339  0.15501191  0.33071240  1
  Te  Te164  1  0.00682693  0.16041869  0.66594559  1
  Te  Te165  1  -0.00485151  0.50222060  0.00361571  1
  Te  Te166  1  -0.00070716  0.50215163  0.33219360  1
  Te  Te167  1  0.00795369  0.49808685  0.66634509  1
  Te  Te168  1  -0.00488881  0.83415092  0.00249258  1
  Te  Te169  1  -0.00030340  0.83675873  0.33448806  1
  Te  Te170  1  0.00212800  0.83808279  0.66792410  1
  Te  Te171  1  0.34006217  0.16100579  0.00166308  1
  Te  Te172  1  0.33369898  0.16716408  0.33467313  1
  Te  Te173  1  0.33580059  0.15799178  0.66643738  1
  Te  Te174  1  0.33513035  0.49981284  -0.00010927  1
  Te  Te175  1  0.32747973  0.50034918  0.33271018  1
  Te  Te176  1  0.32618379  0.50708437  0.66806450  1
  Te  Te177  1  0.33647842  0.83725876  0.00420284  1
  Te  Te178  1  0.33837840  0.83187348  0.32991240  1
  Te  Te179  1  0.33354653  0.83829072  0.66351851  1
  Te  Te180  1  0.66179801  0.15983699  0.00212622  1
  Te  Te181  1  0.66411262  0.16145228  0.33814951  1
  Te  Te182  1  0.66123682  0.16792827  0.66216694  1
  Te  Te183  1  0.66938746  0.50047364  -0.00066280  1
  Te  Te184  1  0.67093102  0.50379966  0.33276802  1
  Te  Te185  1  0.66655256  0.50506664  0.66694398  1
  Te  Te186  1  0.66553151  0.83805357  -0.00332633  1
  Te  Te187  1  0.66329573  0.83701560  0.33433992  1
  Te  Te188  1  0.66514274  0.82956736  0.66354104  1
  Te  Te189  1  -0.00582274  -0.00376463  0.17170831  1
  Te  Te190  1  0.00406595  -0.00074805  0.49647819  1
  Te  Te191  1  -0.00006850  -0.00646985  0.83766061  1
  Te  Te192  1  -0.00332447  0.33282728  0.17513431  1
  Te  Te193  1  -0.00618815  0.33693645  0.49560353  1
  Te  Te194  1  -0.00017844  0.33389751  0.83380000  1
  Te  Te195  1  -0.00409720  0.66988273  0.17179365  1
  Te  Te196  1  0.00496853  0.66215615  0.49567635  1
  Te  Te197  1  0.00414852  0.67486268  0.83220555  1
  Te  Te198  1  0.32948116  0.00006461  0.16355003  1
  Te  Te199  1  0.33321440  0.00523041  0.50316256  1
  Te  Te200  1  0.33709894  -0.00567133  0.83324981  1
  Te  Te201  1  0.33852687  0.33181480  0.16552997  1
  Te  Te202  1  0.33894746  0.32728304  0.50347558  1
  Te  Te203  1  0.33370450  0.33546500  0.82421356  1
  Te  Te204  1  0.33268430  0.66945077  0.16598895  1
  Te  Te205  1  0.32716365  0.66247867  0.50611049  1
  Te  Te206  1  0.32982683  0.67535499  0.82812127  1
  Te  Te207  1  0.67280362  -0.00299640  0.16695991  1
  Te  Te208  1  0.66532616  0.00015026  0.50046726  1
  Te  Te209  1  0.66342726  0.00200427  0.83196063  1
  Te  Te210  1  0.66384788  0.33543296  0.16766779  1
  Te  Te211  1  0.66770019  0.33258619  0.49944886  1
  Te  Te212  1  0.66766521  0.32294633  0.83246756  1
  Te  Te213  1  0.67318592  0.67618126  0.16611954  1
  Te  Te214  1  0.66620903  0.66855249  0.50431099  1
  Te  Te215  1  0.66782017  0.66529737  0.82656550  1
