# generated using pymatgen
data_AgSbTe2
_symmetry_space_group_name_H-M   'P 1'
_cell_length_a   18.32351118
_cell_length_b   18.32474566
_cell_length_c   18.32565048
_cell_angle_alpha   89.99828530
_cell_angle_beta   90.00232059
_cell_angle_gamma   89.99970724
_symmetry_Int_Tables_number   1
_chemical_formula_structural   AgSbTe2
_chemical_formula_sum   'Ag54 Sb54 Te108'
_cell_volume   6153.27112652
_cell_formula_units_Z   54
loop_
 _symmetry_equiv_pos_site_id
 _symmetry_equiv_pos_as_xyz
  1  'x, y, z'
loop_
 _atom_site_type_symbol
 _atom_site_label
 _atom_site_symmetry_multiplicity
 _atom_site_fract_x
 _atom_site_fract_y
 _atom_site_fract_z
 _atom_site_occupancy
  Ag  Ag0  1  0.66412548  0.82686076  0.82858259  1
  Ag  Ag1  1  0.83862603  -0.00833153  0.50187971  1
  Ag  Ag2  1  0.34291066  0.66870863  0.65916352  1
  Ag  Ag3  1  0.82291760  0.67051377  0.83023500  1
  Ag  Ag4  1  0.16659817  0.33528249  0.82970560  1
  Ag  Ag5  1  0.49393795  0.50970401  0.67082867  1
  Ag  Ag6  1  0.17633962  0.66283506  0.50180668  1
  Ag  Ag7  1  0.66367015  0.66673886  -0.00032476  1
  Ag  Ag8  1  0.33384074  0.82991239  0.50159573  1
  Ag  Ag9  1  0.49927928  0.34587779  0.16126252  1
  Ag  Ag10  1  0.49231234  -0.00353121  0.16064063  1
  Ag  Ag11  1  0.50440098  0.66808728  0.82300967  1
  Ag  Ag12  1  0.49734589  -0.01005776  0.83191157  1
  Ag  Ag13  1  0.33008348  0.16108847  0.49851316  1
  Ag  Ag14  1  0.66657158  0.66508949  0.33419758  1
  Ag  Ag15  1  0.00999745  0.83215808  0.16084189  1
  Ag  Ag16  1  0.83701538  0.34081514  0.16908657  1
  Ag  Ag17  1  0.33444769  0.50437213  0.16947224  1
  Ag  Ag18  1  0.33288556  -0.00251971  0.01025886  1
  Ag  Ag19  1  0.16502217  0.83081997  0.00310478  1
  Ag  Ag20  1  0.82884893  0.66470965  0.16436711  1
  Ag  Ag21  1  0.01201410  0.16836474  0.16609319  1
  Ag  Ag22  1  0.16879958  0.17271222  0.33011061  1
  Ag  Ag23  1  0.83898157  0.82947036  0.00013451  1
  Ag  Ag24  1  0.49410990  0.50226770  0.00270476  1
  Ag  Ag25  1  0.33007244  0.50948207  0.49974414  1
  Ag  Ag26  1  0.49581006  0.66792242  0.51059581  1
  Ag  Ag27  1  0.00154789  0.66677451  0.66530087  1
  Ag  Ag28  1  0.65532468  0.66438973  0.66607554  1
  Ag  Ag29  1  0.17274525  -0.00203125  0.50221957  1
  Ag  Ag30  1  0.65906711  0.34275204  0.66591790  1
  Ag  Ag31  1  0.33146485  0.00149642  0.33472661  1
  Ag  Ag32  1  0.49774018  0.82374125  0.66815086  1
  Ag  Ag33  1  0.33197078  0.83269386  0.16782659  1
  Ag  Ag34  1  0.00380430  0.33366066  0.00542845  1
  Ag  Ag35  1  0.84219461  0.33692181  0.50050323  1
  Ag  Ag36  1  -0.00124184  0.83120434  0.83522348  1
  Ag  Ag37  1  0.16494645  0.34016561  0.50304602  1
  Ag  Ag38  1  0.00741954  -0.00534905  0.66507572  1
  Ag  Ag39  1  0.33011500  0.16091829  0.17003251  1
  Ag  Ag40  1  0.17156266  0.66464954  0.16838192  1
  Ag  Ag41  1  0.17251116  0.50015943  0.00345783  1
  Ag  Ag42  1  0.66037624  0.82685552  0.50691131  1
  Ag  Ag43  1  0.00358206  0.33520751  0.66485784  1
  Ag  Ag44  1  0.33368574  -0.00539765  0.66127637  1
  Ag  Ag45  1  0.16881369  0.49724976  0.33733685  1
  Ag  Ag46  1  0.49741089  0.33918895  0.83084541  1
  Ag  Ag47  1  0.49818300  0.66416761  0.16467864  1
  Ag  Ag48  1  0.65417834  0.50562792  0.16644636  1
  Ag  Ag49  1  0.49626636  0.16736343  0.66721925  1
  Ag  Ag50  1  0.82615937  0.66696700  0.50531589  1
  Ag  Ag51  1  0.16905197  0.17083711  0.00793786  1
  Ag  Ag52  1  0.17285219  0.50185636  0.65868772  1
  Ag  Ag53  1  0.00344621  0.33280064  0.33169448  1
  Sb  Sb54  1  0.33351170  0.16559277  0.83194567  1
  Sb  Sb55  1  0.66175585  0.50854695  0.83459117  1
  Sb  Sb56  1  0.83318422  0.83111711  0.33111333  1
  Sb  Sb57  1  0.83496561  0.34109432  0.83179575  1
  Sb  Sb58  1  0.65959440  0.50865738  0.49791086  1
  Sb  Sb59  1  0.32732508  0.33244529  0.00257149  1
  Sb  Sb60  1  0.84131044  0.16823846  0.33455081  1
  Sb  Sb61  1  0.83305963  0.50622816  0.00338177  1
  Sb  Sb62  1  0.66024474  0.17386290  0.16715188  1
  Sb  Sb63  1  0.00748543  -0.00127318  -0.00286465  1
  Sb  Sb64  1  0.16574755  0.33648665  0.16777648  1
  Sb  Sb65  1  0.00880132  0.49954612  0.50201188  1
  Sb  Sb66  1  0.00781233  0.00323391  0.33607396  1
  Sb  Sb67  1  0.49229051  -0.00655413  0.50390980  1
  Sb  Sb68  1  0.33337431  0.33776253  0.66507718  1
  Sb  Sb69  1  0.00834539  0.16913376  0.49731921  1
  Sb  Sb70  1  0.33568331  0.66914884  0.33607880  1
  Sb  Sb71  1  0.00589154  0.50021651  0.16561686  1
  Sb  Sb72  1  0.83018502  0.82881746  0.66881658  1
  Sb  Sb73  1  0.67141050  0.34060077  0.33624479  1
  Sb  Sb74  1  0.00295102  0.50487146  0.83191324  1
  Sb  Sb75  1  0.33568847  0.66868887  0.00217821  1
  Sb  Sb76  1  0.33443346  0.50158620  0.83172591  1
  Sb  Sb77  1  0.33414705  0.83256318  0.83192679  1
  Sb  Sb78  1  0.84049305  0.16406503  0.00366013  1
  Sb  Sb79  1  0.49670263  0.33882509  0.50231313  1
  Sb  Sb80  1  0.32759733  0.33103442  0.33263419  1
  Sb  Sb81  1  -0.00053205  0.66354660  0.33558718  1
  Sb  Sb82  1  0.17163021  0.17129104  0.66375550  1
  Sb  Sb83  1  0.49363636  0.17054451  -0.00169563  1
  Sb  Sb84  1  0.00243194  0.83194143  0.50164561  1
  Sb  Sb85  1  0.66754138  0.34092315  -0.00379611  1
  Sb  Sb86  1  0.66291940  0.16383514  0.83173675  1
  Sb  Sb87  1  0.65972283  -0.00933067  0.00001865  1
  Sb  Sb88  1  0.16855016  0.83033206  0.33082909  1
  Sb  Sb89  1  0.49306703  0.50127490  0.33086599  1
  Sb  Sb90  1  0.83171856  0.16748263  0.66429538  1
  Sb  Sb91  1  0.83111546  -0.00363316  0.17054980  1
  Sb  Sb92  1  0.66208416  -0.00564967  0.66511845  1
  Sb  Sb93  1  0.83006141  -0.00954135  0.82879691  1
  Sb  Sb94  1  0.83869561  0.50117841  0.33367886  1
  Sb  Sb95  1  0.00295604  0.16445878  0.83526600  1
  Sb  Sb96  1  0.49757800  0.82627696  -0.00285440  1
  Sb  Sb97  1  0.66050155  0.16423891  0.50186233  1
  Sb  Sb98  1  0.49137408  0.16570040  0.33583217  1
  Sb  Sb99  1  0.17396790  -0.00162017  0.16979636  1
  Sb  Sb100  1  0.17044873  0.82733072  0.66850684  1
  Sb  Sb101  1  0.49750927  0.82937194  0.33677515  1
  Sb  Sb102  1  0.83158354  0.50306765  0.66382382  1
  Sb  Sb103  1  0.17127397  0.00210372  0.82928034  1
  Sb  Sb104  1  0.65952802  -0.00737057  0.33525677  1
  Sb  Sb105  1  0.16911229  0.66341038  0.83163111  1
  Sb  Sb106  1  -0.00099875  0.66583316  -0.00194191  1
  Sb  Sb107  1  0.66205902  0.82321157  0.16584183  1
  Te  Te108  1  0.16921282  0.16613225  0.16758650  1
  Te  Te109  1  0.17159661  0.16739067  0.49814153  1
  Te  Te110  1  0.16659159  0.17379673  0.84019073  1
  Te  Te111  1  0.17105750  0.50281608  0.16419592  1
  Te  Te112  1  0.17070882  0.50124279  0.50066244  1
  Te  Te113  1  0.16852719  0.49462980  0.83966314  1
  Te  Te114  1  0.16929415  0.83167582  0.16496488  1
  Te  Te115  1  0.16999152  0.83020744  0.50007966  1
  Te  Te116  1  0.16235206  0.83328013  0.83929777  1
  Te  Te117  1  0.49328046  0.16342568  0.16691960  1
  Te  Te118  1  0.49271620  0.16719945  0.50388364  1
  Te  Te119  1  0.50001505  0.17242222  0.82962608  1
  Te  Te120  1  0.49567565  0.50188014  0.16797873  1
  Te  Te121  1  0.49230897  0.50549703  0.50168670  1
  Te  Te122  1  0.50002777  0.49998151  0.83314604  1
  Te  Te123  1  0.49485491  0.83125771  0.16544328  1
  Te  Te124  1  0.49765931  0.82900926  0.50294679  1
  Te  Te125  1  0.50051583  0.83069962  0.83092066  1
  Te  Te126  1  0.83358732  0.16991081  0.16729867  1
  Te  Te127  1  0.83119575  0.17344063  0.49984840  1
  Te  Te128  1  0.83247680  0.16512634  0.83412710  1
  Te  Te129  1  0.83330867  0.50171524  0.16710156  1
  Te  Te130  1  0.83091231  0.49930589  0.49885841  1
  Te  Te131  1  0.83313648  0.51065434  0.83467694  1
  Te  Te132  1  0.83177699  0.83001644  0.16266082  1
  Te  Te133  1  0.83446496  0.83035139  0.49940448  1
  Te  Te134  1  0.83447364  0.82845579  0.83662293  1
  Te  Te135  1  0.17255886  -0.00250817  -0.00236355  1
  Te  Te136  1  0.17096143  0.00276440  0.34069440  1
  Te  Te137  1  0.16761463  0.00096497  0.66367831  1
  Te  Te138  1  0.16386915  0.33467805  0.00079804  1
  Te  Te139  1  0.16366890  0.33374488  0.33532542  1
  Te  Te140  1  0.16610953  0.33689104  0.66619722  1
  Te  Te141  1  0.16763317  0.66586662  0.00166508  1
  Te  Te142  1  0.16630170  0.66220854  0.33433824  1
  Te  Te143  1  0.16254632  0.66234620  0.66597538  1
  Te  Te144  1  0.49419206  0.00139461  -0.00194090  1
  Te  Te145  1  0.49271510  -0.00080148  0.32782652  1
  Te  Te146  1  0.49776985  0.00227828  0.66888496  1
  Te  Te147  1  0.50199649  0.33851450  -0.00072332  1
  Te  Te148  1  0.50321266  0.33314476  0.32706555  1
  Te  Te149  1  0.50032135  0.33387741  0.66710621  1
  Te  Te150  1  0.50107241  0.66216672  0.00528208  1
  Te  Te151  1  0.50584193  0.66489743  0.32481729  1
  Te  Te152  1  0.49919384  0.66681548  0.66681429  1
  Te  Te153  1  0.83264253  -0.00730329  -0.00037057  1
  Te  Te154  1  0.83302527  0.00038985  0.34133195  1
  Te  Te155  1  0.83505289  0.00004453  0.66064986  1
  Te  Te156  1  0.83855287  0.33338884  0.00236789  1
  Te  Te157  1  0.83965531  0.33453696  0.33289701  1
  Te  Te158  1  0.83796804  0.33547792  0.66388122  1
  Te  Te159  1  0.83212602  0.66984401  0.00223778  1
  Te  Te160  1  0.83038667  0.66582077  0.33197212  1
  Te  Te161  1  0.84046854  0.66571192  0.66564358  1
  Te  Te162  1  0.00659194  0.16868156  0.00473025  1
  Te  Te163  1  0.00750648  0.17086864  0.32727285  1
  Te  Te164  1  0.00047703  0.16848460  0.66661538  1
  Te  Te165  1  0.00461880  0.49402685  -0.00142323  1
  Te  Te166  1  0.00920419  0.49363021  0.33299196  1
  Te  Te167  1  0.00538701  0.49970977  0.66787274  1
  Te  Te168  1  0.00225583  0.83347079  0.00082976  1
  Te  Te169  1  0.00078547  0.83445064  0.32263185  1
  Te  Te170  1  0.00118381  0.83383499  0.66883311  1
  Te  Te171  1  0.32876861  0.16189526  0.00378751  1
  Te  Te172  1  0.32820933  0.16364636  0.33259948  1
  Te  Te173  1  0.33642645  0.16237949  0.66439032  1
  Te  Te174  1  0.33379686  0.50061199  0.00523012  1
  Te  Te175  1  0.32700257  0.49963289  0.33388755  1
  Te  Te176  1  0.33316677  0.50377204  0.66475054  1
  Te  Te177  1  0.32961506  0.83612567  0.00300770  1
  Te  Te178  1  0.33266302  0.83976705  0.33261544  1
  Te  Te179  1  0.33558625  0.83251397  0.66509056  1
  Te  Te180  1  0.66819587  0.16544727  0.00049708  1
  Te  Te181  1  0.66681215  0.16577501  0.33379829  1
  Te  Te182  1  0.66043696  0.17084652  0.66624367  1
  Te  Te183  1  0.66309324  0.50612427  0.00556592  1
  Te  Te184  1  0.66732357  0.50562255  0.32750846  1
  Te  Te185  1  0.66205810  0.50187694  0.66550855  1
  Te  Te186  1  0.66852479  0.82659989  -0.00401028  1
  Te  Te187  1  0.66593481  0.82521212  0.34090289  1
  Te  Te188  1  0.66335423  0.82904573  0.66657883  1
  Te  Te189  1  -0.00224947  0.00015176  0.16659614  1
  Te  Te190  1  0.00072387  0.00001835  0.50401008  1
  Te  Te191  1  -0.00044689  -0.00524367  0.82682713  1
  Te  Te192  1  -0.00066666  0.33334786  0.16591658  1
  Te  Te193  1  0.00208067  0.33310900  0.50270004  1
  Te  Te194  1  0.00101419  0.33288076  0.82908165  1
  Te  Te195  1  0.00103976  0.67024978  0.16724404  1
  Te  Te196  1  -0.00298511  0.66710992  0.50316979  1
  Te  Te197  1  0.00097367  0.67152878  0.82989188  1
  Te  Te198  1  0.33369632  -0.00140136  0.16711401  1
  Te  Te199  1  0.33252178  -0.00239590  0.50094545  1
  Te  Te200  1  0.33861703  -0.00042442  0.82593418  1
  Te  Te201  1  0.33846195  0.33544227  0.16699408  1
  Te  Te202  1  0.32857720  0.33138072  0.49878085  1
  Te  Te203  1  0.33549828  0.33301219  0.83428371  1
  Te  Te204  1  0.33048747  0.66818025  0.16881709  1
  Te  Te205  1  0.33391185  0.66893152  0.49824504  1
  Te  Te206  1  0.34043468  0.66728475  0.82407783  1
  Te  Te207  1  0.65904076  -0.00009920  0.16833334  1
  Te  Te208  1  0.67197568  -0.00561592  0.49869903  1
  Te  Te209  1  0.65919392  -0.00818447  0.83332104  1
  Te  Te210  1  0.66797011  0.34040286  0.16698780  1
  Te  Te211  1  0.66781120  0.33343699  0.50481918  1
  Te  Te212  1  0.66554975  0.33280168  0.82721844  1
  Te  Te213  1  0.66795173  0.66546727  0.16487360  1
  Te  Te214  1  0.66614691  0.66791747  0.50397562  1
  Te  Te215  1  0.66484183  0.66901077  0.83086407  1
