# generated using pymatgen
data_AgSbTe2
_symmetry_space_group_name_H-M   'P 1'
_cell_length_a   18.31990703
_cell_length_b   18.32002971
_cell_length_c   18.32266992
_cell_angle_alpha   90.00016751
_cell_angle_beta   89.99939406
_cell_angle_gamma   89.99808438
_symmetry_Int_Tables_number   1
_chemical_formula_structural   AgSbTe2
_chemical_formula_sum   'Ag54 Sb54 Te108'
_cell_volume   6149.47721327
_cell_formula_units_Z   54
loop_
 _symmetry_equiv_pos_site_id
 _symmetry_equiv_pos_as_xyz
  1  'x, y, z'
loop_
 _atom_site_type_symbol
 _atom_site_label
 _atom_site_symmetry_multiplicity
 _atom_site_fract_x
 _atom_site_fract_y
 _atom_site_fract_z
 _atom_site_occupancy
  Ag  Ag0  1  0.16722548  0.49893904  0.66955313  1
  Ag  Ag1  1  0.15843745  0.16991066  0.67570314  1
  Ag  Ag2  1  0.66450504  0.67367939  -0.00150891  1
  Ag  Ag3  1  0.49909328  0.66332098  0.15612551  1
  Ag  Ag4  1  0.33353664  0.66680013  0.66749772  1
  Ag  Ag5  1  0.32784341  0.82965318  0.50127054  1
  Ag  Ag6  1  0.66876026  0.33030080  0.33572884  1
  Ag  Ag7  1  0.33600073  0.33490500  0.32839026  1
  Ag  Ag8  1  -0.00592676  0.32812680  0.67023272  1
  Ag  Ag9  1  0.33472423  0.50048888  0.16579926  1
  Ag  Ag10  1  0.67597776  0.83682997  0.15680290  1
  Ag  Ag11  1  -0.00470858  -0.00779103  0.33452240  1
  Ag  Ag12  1  0.32419807  0.16920307  0.83514677  1
  Ag  Ag13  1  0.16123827  0.83174091  -0.00296901  1
  Ag  Ag14  1  0.50187627  0.66680173  0.83942159  1
  Ag  Ag15  1  0.67794700  0.82820126  0.49855760  1
  Ag  Ag16  1  0.16634377  0.66697287  0.15737556  1
  Ag  Ag17  1  0.16581815  0.50079429  0.33737046  1
  Ag  Ag18  1  0.66720896  0.50878854  0.50111846  1
  Ag  Ag19  1  -0.00514208  0.82837847  0.84028972  1
  Ag  Ag20  1  0.49921141  0.33977427  0.16274998  1
  Ag  Ag21  1  -0.00390620  0.83264433  0.50020454  1
  Ag  Ag22  1  0.16206201  0.32998002  0.83143535  1
  Ag  Ag23  1  0.00009663  0.00034549  0.66433731  1
  Ag  Ag24  1  0.51361114  0.82269013  -0.00000317  1
  Ag  Ag25  1  0.83795277  0.67224678  0.83121576  1
  Ag  Ag26  1  0.49749899  0.50387533  0.67136266  1
  Ag  Ag27  1  0.84000471  0.16916983  0.66508994  1
  Ag  Ag28  1  -0.00596416  0.15858670  0.16603115  1
  Ag  Ag29  1  0.82997517  0.67277327  0.50554883  1
  Ag  Ag30  1  -0.00126655  0.67582150  0.32840601  1
  Ag  Ag31  1  0.67744703  -0.00195153  0.32636948  1
  Ag  Ag32  1  0.67179092  0.15674896  0.16534816  1
  Ag  Ag33  1  0.67842839  0.83028522  0.84524617  1
  Ag  Ag34  1  0.66770596  -0.01364971  0.00571314  1
  Ag  Ag35  1  0.33537734  0.33192020  0.00153890  1
  Ag  Ag36  1  0.83113388  0.33685270  0.50889283  1
  Ag  Ag37  1  0.83316129  0.15737413  0.33629718  1
  Ag  Ag38  1  0.00264233  0.50893300  0.83215255  1
  Ag  Ag39  1  -0.00856795  0.83392502  0.16258165  1
  Ag  Ag40  1  0.83924403  0.33540898  0.82667001  1
  Ag  Ag41  1  0.83517906  0.83447908  0.66513202  1
  Ag  Ag42  1  0.83263327  -0.00410851  0.16996334  1
  Ag  Ag43  1  0.50954286  0.66715648  0.50204641  1
  Ag  Ag44  1  0.16070274  -0.00348277  0.50560976  1
  Ag  Ag45  1  -0.00118218  0.67140088  -0.00310715  1
  Ag  Ag46  1  0.16827826  0.16288069  -0.00623757  1
  Ag  Ag47  1  0.83511535  0.83707979  0.33242255  1
  Ag  Ag48  1  0.15767892  0.66763450  0.83727622  1
  Ag  Ag49  1  0.49886300  0.16852661  0.00041204  1
  Ag  Ag50  1  0.16328659  0.00377467  0.83230430  1
  Ag  Ag51  1  0.49908321  0.50834449  -0.00167798  1
  Ag  Ag52  1  0.67866180  0.33333732  0.66336063  1
  Ag  Ag53  1  0.82947814  0.83187296  -0.00179666  1
  Sb  Sb54  1  0.33100618  0.16436772  0.50480042  1
  Sb  Sb55  1  -0.00325391  0.16002648  0.50102338  1
  Sb  Sb56  1  0.32828189  0.66422716  0.33556887  1
  Sb  Sb57  1  0.33487267  0.00312258  0.00011186  1
  Sb  Sb58  1  0.50117796  0.17426280  0.67272589  1
  Sb  Sb59  1  0.50650915  0.82651580  0.67038257  1
  Sb  Sb60  1  0.15728069  0.82903610  0.33049593  1
  Sb  Sb61  1  0.16958113  0.33691824  0.16192324  1
  Sb  Sb62  1  0.49994987  0.33917484  0.83871510  1
  Sb  Sb63  1  -0.00378120  0.33290352  0.33756650  1
  Sb  Sb64  1  0.83496211  0.16156168  -0.00158523  1
  Sb  Sb65  1  0.49722222  -0.00592023  0.83536655  1
  Sb  Sb66  1  0.83407415  0.67478297  0.16413876  1
  Sb  Sb67  1  0.15780451  0.83289585  0.67159934  1
  Sb  Sb68  1  0.66639877  0.16282523  0.83830819  1
  Sb  Sb69  1  0.33687651  0.50383426  0.49846468  1
  Sb  Sb70  1  0.66353219  0.33546977  0.00062057  1
  Sb  Sb71  1  0.67036974  0.16490613  0.49430548  1
  Sb  Sb72  1  0.82920516  0.50834886  -0.00256515  1
  Sb  Sb73  1  0.50741657  0.33956602  0.49673520  1
  Sb  Sb74  1  0.33455991  0.17321843  0.16150718  1
  Sb  Sb75  1  0.83858218  -0.00580098  0.83501918  1
  Sb  Sb76  1  0.49800800  0.50174031  0.33119067  1
  Sb  Sb77  1  0.82881813  0.32539462  0.16663940  1
  Sb  Sb78  1  0.16158072  0.33100833  0.50557396  1
  Sb  Sb79  1  -0.00309383  -0.00816739  -0.00033645  1
  Sb  Sb80  1  0.16027096  0.16938309  0.33157144  1
  Sb  Sb81  1  -0.00328555  0.50589807  0.50526801  1
  Sb  Sb82  1  0.17080874  0.50196397  -0.00385763  1
  Sb  Sb83  1  0.67211304  0.66902631  0.33217351  1
  Sb  Sb84  1  0.33443921  0.66502211  -0.00396824  1
  Sb  Sb85  1  0.00107681  0.66834903  0.67185328  1
  Sb  Sb86  1  0.00324295  0.33585576  -0.00563933  1
  Sb  Sb87  1  0.83660581  0.50263874  0.33516626  1
  Sb  Sb88  1  0.00346632  0.16374035  0.83471698  1
  Sb  Sb89  1  0.32866009  0.00330252  0.33450854  1
  Sb  Sb90  1  0.83717880  -0.00670094  0.49404307  1
  Sb  Sb91  1  0.66914816  0.50534375  0.82911698  1
  Sb  Sb92  1  0.66578033  0.66428982  0.66857651  1
  Sb  Sb93  1  0.16275250  0.67048186  0.50289514  1
  Sb  Sb94  1  0.32413989  -0.00504491  0.66794229  1
  Sb  Sb95  1  0.50891953  -0.00269186  0.16411465  1
  Sb  Sb96  1  0.66228092  0.50295595  0.17014885  1
  Sb  Sb97  1  0.50894307  0.83165391  0.32873224  1
  Sb  Sb98  1  0.00447501  0.50634608  0.16261862  1
  Sb  Sb99  1  0.50759523  0.16922383  0.32539855  1
  Sb  Sb100  1  0.49974897  -0.01033503  0.50075310  1
  Sb  Sb101  1  0.83488619  0.49972523  0.66729947  1
  Sb  Sb102  1  0.33312443  0.82733401  0.16889785  1
  Sb  Sb103  1  0.33101560  0.33730813  0.66815417  1
  Sb  Sb104  1  0.32905920  0.49861659  0.83647145  1
  Sb  Sb105  1  0.33007900  0.83202350  0.83108858  1
  Sb  Sb106  1  0.67592809  0.00085869  0.66634345  1
  Sb  Sb107  1  0.15833741  -0.00476277  0.16387468  1
  Te  Te108  1  0.16428549  0.16643890  0.16235322  1
  Te  Te109  1  0.16558696  0.16153576  0.50417258  1
  Te  Te110  1  0.16457047  0.16748139  0.83336898  1
  Te  Te111  1  0.17097269  0.50431291  0.16711372  1
  Te  Te112  1  0.16649880  0.50059514  0.50309923  1
  Te  Te113  1  0.16454131  0.50330773  0.83083266  1
  Te  Te114  1  0.16552661  0.82803052  0.16223040  1
  Te  Te115  1  0.16315555  0.83621436  0.50057491  1
  Te  Te116  1  0.16558375  0.82820641  0.83587984  1
  Te  Te117  1  0.50254256  0.16904874  0.16053505  1
  Te  Te118  1  0.49919375  0.16530979  0.50168888  1
  Te  Te119  1  0.49705209  0.16683018  0.83928722  1
  Te  Te120  1  0.49713022  0.50200424  0.16490793  1
  Te  Te121  1  0.50429460  0.50618388  0.50271126  1
  Te  Te122  1  0.50031224  0.50586093  0.83344300  1
  Te  Te123  1  0.50068996  0.82841720  0.16115297  1
  Te  Te124  1  0.50141242  0.82613953  0.50069809  1
  Te  Te125  1  0.49939099  0.82736391  0.83819950  1
  Te  Te126  1  0.83343774  0.16118308  0.16650888  1
  Te  Te127  1  0.83341311  0.17259012  0.50247602  1
  Te  Te128  1  0.83392392  0.16928788  0.82889575  1
  Te  Te129  1  0.83407791  0.49725314  0.16674594  1
  Te  Te130  1  0.82863798  0.50165561  0.50040384  1
  Te  Te131  1  0.83807381  0.50259896  0.83308671  1
  Te  Te132  1  0.83342505  0.83417503  0.16726341  1
  Te  Te133  1  0.83592753  0.83287106  0.50075314  1
  Te  Te134  1  0.83456802  0.83315841  0.83418493  1
  Te  Te135  1  0.16652998  0.00029031  -0.00337063  1
  Te  Te136  1  0.15985686  0.00168790  0.33559848  1
  Te  Te137  1  0.16082237  0.00091855  0.66904275  1
  Te  Te138  1  0.17092675  0.33220423  -0.00596114  1
  Te  Te139  1  0.16710376  0.33773357  0.33421653  1
  Te  Te140  1  0.16600863  0.33336122  0.67044430  1
  Te  Te141  1  0.16807219  0.66781469  -0.00158205  1
  Te  Te142  1  0.16113630  0.66219159  0.33280875  1
  Te  Te143  1  0.16902679  0.66414463  0.67048990  1
  Te  Te144  1  0.50496955  0.00241136  -0.00089027  1
  Te  Te145  1  0.50408705  0.00115225  0.33346950  1
  Te  Te146  1  0.49988888  0.00257607  0.66766998  1
  Te  Te147  1  0.49702883  0.33144130  0.00261021  1
  Te  Te148  1  0.50127573  0.33421858  0.32848258  1
  Te  Te149  1  0.50054226  0.34134085  0.66654601  1
  Te  Te150  1  0.49807474  0.66663701  -0.00037994  1
  Te  Te151  1  0.49924434  0.66675128  0.33639867  1
  Te  Te152  1  0.49923130  0.66315879  0.66546870  1
  Te  Te153  1  0.82851589  -0.00494856  0.00394446  1
  Te  Te154  1  0.83458709  -0.00037676  0.33225626  1
  Te  Te155  1  0.83971918  0.00211970  0.66731803  1
  Te  Te156  1  0.83329100  0.33470491  -0.00649248  1
  Te  Te157  1  0.82933414  0.33171361  0.33469142  1
  Te  Te158  1  0.83444536  0.33533625  0.66871826  1
  Te  Te159  1  0.83306740  0.67189971  -0.00335683  1
  Te  Te160  1  0.83885745  0.67042829  0.33619466  1
  Te  Te161  1  0.83342823  0.66986437  0.66828371  1
  Te  Te162  1  0.00357595  0.16756245  0.00566334  1
  Te  Te163  1  -0.00577666  0.16489330  0.32864546  1
  Te  Te164  1  0.00028725  0.16621905  0.66693172  1
  Te  Te165  1  -0.00046857  0.50764467  -0.00556452  1
  Te  Te166  1  0.00519589  0.50221028  0.33280711  1
  Te  Te167  1  0.00504822  0.49663418  0.67124814  1
  Te  Te168  1  0.00109309  0.83167966  0.00080354  1
  Te  Te169  1  -0.00264093  0.83321764  0.33084019  1
  Te  Te170  1  -0.00474701  0.83467916  0.66554613  1
  Te  Te171  1  0.33143868  0.16973525  -0.00316851  1
  Te  Te172  1  0.33320953  0.17248873  0.33463727  1
  Te  Te173  1  0.33076775  0.16660411  0.67276900  1
  Te  Te174  1  0.33817819  0.49541563  0.00327683  1
  Te  Te175  1  0.32833340  0.49655808  0.33061107  1
  Te  Te176  1  0.33265881  0.50398670  0.66659909  1
  Te  Te177  1  0.32699394  0.83510664  0.00044270  1
  Te  Te178  1  0.33442451  0.83485105  0.33965235  1
  Te  Te179  1  0.33621304  0.82891794  0.66250617  1
  Te  Te180  1  0.66561122  0.16740572  0.00527422  1
  Te  Te181  1  0.67187905  0.16661269  0.32769331  1
  Te  Te182  1  0.66996293  0.17122030  0.66829109  1
  Te  Te183  1  0.65971775  0.50506820  0.00043540  1
  Te  Te184  1  0.66746202  0.49536522  0.33889112  1
  Te  Te185  1  0.66383261  0.49491630  0.66260223  1
  Te  Te186  1  0.66848627  0.83070699  0.00060176  1
  Te  Te187  1  0.67257172  0.83534263  0.33676045  1
  Te  Te188  1  0.67362633  0.83500335  0.66008870  1
  Te  Te189  1  -0.00462139  -0.00256828  0.16781313  1
  Te  Te190  1  0.00241054  -0.00475711  0.49985406  1
  Te  Te191  1  0.00482795  -0.00664575  0.83111917  1
  Te  Te192  1  -0.00044019  0.33179858  0.16676128  1
  Te  Te193  1  -0.00659754  0.33561044  0.50638835  1
  Te  Te194  1  0.00045815  0.33212262  0.83054132  1
  Te  Te195  1  0.00258571  0.66992356  0.16421317  1
  Te  Te196  1  -0.00479079  0.67127817  0.49800981  1
  Te  Te197  1  -0.00169212  0.66823203  0.83415020  1
  Te  Te198  1  0.33352085  0.00000719  0.16914229  1
  Te  Te199  1  0.32708397  -0.00672853  0.50001594  1
  Te  Te200  1  0.32580569  0.00521569  0.83353105  1
  Te  Te201  1  0.33617516  0.33769569  0.16641561  1
  Te  Te202  1  0.33417999  0.33334482  0.49419195  1
  Te  Te203  1  0.33113030  0.33075825  0.83615808  1
  Te  Te204  1  0.33338029  0.66205907  0.16812376  1
  Te  Te205  1  0.33285708  0.67088743  0.50350089  1
  Te  Te206  1  0.33599179  0.66559449  0.82847610  1
  Te  Te207  1  0.66950864  -0.00257142  0.16682349  1
  Te  Te208  1  0.66538758  -0.00546692  0.49657935  1
  Te  Te209  1  0.66669637  -0.00709886  0.83511151  1
  Te  Te210  1  0.66167274  0.33441605  0.16952621  1
  Te  Te211  1  0.67087141  0.33085980  0.49948313  1
  Te  Te212  1  0.66995236  0.33286340  0.83003484  1
  Te  Te213  1  0.66361367  0.67067825  0.16400332  1
  Te  Te214  1  0.66928668  0.66673015  0.49925627  1
  Te  Te215  1  0.66786281  0.67016419  0.83481896  1
