# generated using pymatgen
data_AgSbTe2
_symmetry_space_group_name_H-M   'P 1'
_cell_length_a   18.33302928
_cell_length_b   18.34140081
_cell_length_c   18.33224007
_cell_angle_alpha   90.00324064
_cell_angle_beta   89.99800461
_cell_angle_gamma   89.99761278
_symmetry_Int_Tables_number   1
_chemical_formula_structural   AgSbTe2
_chemical_formula_sum   'Ag54 Sb54 Te108'
_cell_volume   6164.27873613
_cell_formula_units_Z   54
loop_
 _symmetry_equiv_pos_site_id
 _symmetry_equiv_pos_as_xyz
  1  'x, y, z'
loop_
 _atom_site_type_symbol
 _atom_site_label
 _atom_site_symmetry_multiplicity
 _atom_site_fract_x
 _atom_site_fract_y
 _atom_site_fract_z
 _atom_site_occupancy
  Ag  Ag0  1  0.16843489  -0.00103548  0.84087075  1
  Ag  Ag1  1  0.66624122  0.33543296  0.00388899  1
  Ag  Ag2  1  0.16256829  0.16762238  0.00241172  1
  Ag  Ag3  1  0.83268183  -0.01076617  0.50738825  1
  Ag  Ag4  1  0.49375222  -0.00747591  0.83513745  1
  Ag  Ag5  1  0.00426383  0.00476565  -0.00109028  1
  Ag  Ag6  1  0.66720558  0.50389314  0.83192837  1
  Ag  Ag7  1  0.33548011  0.66431299  0.33057715  1
  Ag  Ag8  1  0.16876638  0.84464001  -0.00249956  1
  Ag  Ag9  1  0.49760509  0.83168343  0.33572464  1
  Ag  Ag10  1  0.33971607  0.83585337  0.82685411  1
  Ag  Ag11  1  0.17983816  0.83121229  0.67275492  1
  Ag  Ag12  1  0.82526569  0.67020508  0.82616826  1
  Ag  Ag13  1  0.83140730  0.49366427  -0.00306527  1
  Ag  Ag14  1  0.33360505  -0.00677426  0.66613173  1
  Ag  Ag15  1  0.33652641  0.49028726  0.16963999  1
  Ag  Ag16  1  0.32668573  0.33430116  0.01127280  1
  Ag  Ag17  1  0.17604678  0.65682995  0.16807904  1
  Ag  Ag18  1  0.01148621  0.16730862  0.16180014  1
  Ag  Ag19  1  0.49364858  0.16489347  0.32697895  1
  Ag  Ag20  1  0.50502034  0.67256642  0.82937945  1
  Ag  Ag21  1  0.82486047  0.83176581  0.34432434  1
  Ag  Ag22  1  0.49503306  0.65823857  0.16959466  1
  Ag  Ag23  1  0.66610864  0.83250315  0.50869594  1
  Ag  Ag24  1  0.33576263  0.17520284  0.16875794  1
  Ag  Ag25  1  0.66025854  0.82439311  0.82769811  1
  Ag  Ag26  1  0.17870941  0.50296169  0.31846420  1
  Ag  Ag27  1  0.65743879  0.49463902  0.16076807  1
  Ag  Ag28  1  0.49595310  0.50296771  0.32295670  1
  Ag  Ag29  1  0.33385408  0.16006367  0.48662889  1
  Ag  Ag30  1  0.84108302  0.17382768  0.00322999  1
  Ag  Ag31  1  0.83289256  -0.00530514  0.83127347  1
  Ag  Ag32  1  0.82938408  0.33423533  0.49716704  1
  Ag  Ag33  1  0.33976636  0.83733328  0.50375035  1
  Ag  Ag34  1  0.00092057  0.16409283  0.84387234  1
  Ag  Ag35  1  0.18135505  0.33464514  0.16110949  1
  Ag  Ag36  1  0.17420808  0.00698278  0.16017284  1
  Ag  Ag37  1  0.66725917  0.66510920  0.67060108  1
  Ag  Ag38  1  0.16968059  0.33300728  0.84549766  1
  Ag  Ag39  1  0.82193669  0.82690961  0.66367558  1
  Ag  Ag40  1  0.50148058  0.82961035  0.66939609  1
  Ag  Ag41  1  0.00508689  0.66676449  0.33067324  1
  Ag  Ag42  1  0.65903856  0.17658386  0.16499680  1
  Ag  Ag43  1  0.66651916  0.34466990  0.67392334  1
  Ag  Ag44  1  0.82771884  0.33246816  0.16293691  1
  Ag  Ag45  1  0.49322368  0.00612901  0.16796006  1
  Ag  Ag46  1  0.83114363  0.67240203  0.50681172  1
  Ag  Ag47  1  0.50526692  0.50824999  0.66814406  1
  Ag  Ag48  1  0.82177990  0.50630383  0.67355090  1
  Ag  Ag49  1  0.49625355  0.33507052  0.16749695  1
  Ag  Ag50  1  0.17146998  0.50364526  0.67226850  1
  Ag  Ag51  1  0.16507230  0.49102095  0.00156396  1
  Ag  Ag52  1  0.33494776  0.00151159  0.33191795  1
  Ag  Ag53  1  0.33544244  0.33373685  0.32392686  1
  Sb  Sb54  1  0.82910486  0.16386269  0.32751255  1
  Sb  Sb55  1  -0.00411357  0.33464684  0.66845568  1
  Sb  Sb56  1  0.66751624  0.50402233  0.50401983  1
  Sb  Sb57  1  0.00534098  0.49506888  0.16516485  1
  Sb  Sb58  1  0.00358164  0.32647361  0.00150809  1
  Sb  Sb59  1  0.66948622  0.00516816  -0.00073671  1
  Sb  Sb60  1  0.49934758  -0.00365532  0.49805931  1
  Sb  Sb61  1  0.83273017  0.00429339  0.16430371  1
  Sb  Sb62  1  0.00457008  -0.00366887  0.32701918  1
  Sb  Sb63  1  0.00472008  0.33754044  0.32887769  1
  Sb  Sb64  1  0.16791224  -0.00191351  0.50110415  1
  Sb  Sb65  1  0.83457515  0.33354202  0.83765437  1
  Sb  Sb66  1  0.49753752  0.33416671  0.83803260  1
  Sb  Sb67  1  0.50312058  0.66932278  0.49957335  1
  Sb  Sb68  1  0.17367422  0.82922819  0.33222972  1
  Sb  Sb69  1  0.00348641  -0.00167280  0.67325989  1
  Sb  Sb70  1  0.16892927  0.16538579  0.67446567  1
  Sb  Sb71  1  0.16390933  0.66730898  0.49687844  1
  Sb  Sb72  1  0.00229434  0.67040491  0.00353398  1
  Sb  Sb73  1  0.00264820  0.16571305  0.49624339  1
  Sb  Sb74  1  0.66139249  0.33464504  0.32682344  1
  Sb  Sb75  1  0.49462396  0.83372667  -0.00325931  1
  Sb  Sb76  1  0.00213701  0.83633054  0.16708955  1
  Sb  Sb77  1  0.33203597  0.66250547  0.00575024  1
  Sb  Sb78  1  0.66398579  0.16423071  0.49589256  1
  Sb  Sb79  1  0.66678212  0.66057360  -0.00641517  1
  Sb  Sb80  1  0.66311987  0.83053700  0.16424964  1
  Sb  Sb81  1  -0.00365764  0.83377674  0.49965903  1
  Sb  Sb82  1  0.33681950  0.33209807  0.66558632  1
  Sb  Sb83  1  0.83568730  0.83351274  -0.00431070  1
  Sb  Sb84  1  0.49758545  0.16716734  0.00690032  1
  Sb  Sb85  1  -0.00180651  0.50069652  0.49973146  1
  Sb  Sb86  1  0.32826039  0.00318909  0.00249720  1
  Sb  Sb87  1  0.33407470  0.50223756  0.49372921  1
  Sb  Sb88  1  0.16828589  0.66848151  0.83742444  1
  Sb  Sb89  1  -0.00591331  0.66713540  0.66500325  1
  Sb  Sb90  1  0.16689067  0.33424954  0.49685464  1
  Sb  Sb91  1  0.33377314  0.83429110  0.16739294  1
  Sb  Sb92  1  0.33746170  0.67138438  0.66277673  1
  Sb  Sb93  1  0.83131985  0.16558453  0.67087303  1
  Sb  Sb94  1  0.66281159  0.66667728  0.33626592  1
  Sb  Sb95  1  0.33015281  0.16159928  0.83915065  1
  Sb  Sb96  1  0.66279421  -0.00479022  0.66809922  1
  Sb  Sb97  1  0.66047874  -0.00202759  0.33254305  1
  Sb  Sb98  1  0.50134217  0.49908833  0.00265436  1
  Sb  Sb99  1  0.17470751  0.17124913  0.32204657  1
  Sb  Sb100  1  0.50277361  0.33383097  0.49451856  1
  Sb  Sb101  1  0.83034479  0.50297084  0.33251115  1
  Sb  Sb102  1  0.49892709  0.16362473  0.66372762  1
  Sb  Sb103  1  0.00049407  0.83759551  0.83309687  1
  Sb  Sb104  1  0.83053862  0.66116384  0.16638219  1
  Sb  Sb105  1  -0.00281123  0.49644829  0.83542785  1
  Sb  Sb106  1  0.66980969  0.16850709  0.83883911  1
  Sb  Sb107  1  0.33674746  0.50443053  0.83686059  1
  Te  Te108  1  0.17015024  0.16910514  0.16381874  1
  Te  Te109  1  0.17174668  0.16663066  0.50073002  1
  Te  Te110  1  0.16435940  0.16422166  0.83856920  1
  Te  Te111  1  0.16749788  0.49739521  0.16309635  1
  Te  Te112  1  0.16634399  0.49968489  0.50932188  1
  Te  Te113  1  0.16762264  0.49974400  0.83577126  1
  Te  Te114  1  0.16664824  0.83492315  0.16349173  1
  Te  Te115  1  0.17104056  0.83336670  0.50550577  1
  Te  Te116  1  0.16704205  0.83433400  0.83301317  1
  Te  Te117  1  0.49778545  0.16655636  0.16785528  1
  Te  Te118  1  0.49537685  0.16537850  0.49211805  1
  Te  Te119  1  0.50009821  0.15945007  0.83345506  1
  Te  Te120  1  0.49768058  0.49914862  0.16485012  1
  Te  Te121  1  0.50003100  0.50092277  0.50637946  1
  Te  Te122  1  0.50420845  0.50215349  0.83015335  1
  Te  Te123  1  0.50062799  0.83455428  0.16920134  1
  Te  Te124  1  0.50176045  0.83416036  0.50003972  1
  Te  Te125  1  0.50070737  0.83336796  0.83340420  1
  Te  Te126  1  0.82709501  0.16860552  0.16309562  1
  Te  Te127  1  0.83304685  0.16974758  0.49915622  1
  Te  Te128  1  0.83726071  0.16275177  0.83811391  1
  Te  Te129  1  0.83204626  0.49636705  0.16429036  1
  Te  Te130  1  0.83235105  0.49761744  0.50342156  1
  Te  Te131  1  0.83102636  0.49959828  0.83300460  1
  Te  Te132  1  0.83205327  0.83256312  0.16828714  1
  Te  Te133  1  0.83219812  0.83235753  0.50252556  1
  Te  Te134  1  0.83279893  0.83321842  0.83146099  1
  Te  Te135  1  0.16728191  0.00211970  0.00082317  1
  Te  Te136  1  0.17157094  -0.00144689  0.33035524  1
  Te  Te137  1  0.17140327  -0.00343117  0.66927379  1
  Te  Te138  1  0.16651304  0.33245859  0.00263784  1
  Te  Te139  1  0.17193423  0.34131570  0.32965323  1
  Te  Te140  1  0.16724373  0.33616078  0.66582837  1
  Te  Te141  1  0.16609063  0.66189495  0.00651906  1
  Te  Te142  1  0.16890531  0.66391100  0.33011332  1
  Te  Te143  1  0.16549718  0.66823297  0.66743918  1
  Te  Te144  1  0.50009385  0.00032880  0.00011377  1
  Te  Te145  1  0.49524267  -0.00312337  0.33156675  1
  Te  Te146  1  0.49519765  -0.00350375  0.67021873  1
  Te  Te147  1  0.50166111  0.33273681  0.00434660  1
  Te  Te148  1  0.49564292  0.33659663  0.32951406  1
  Te  Te149  1  0.50487144  0.33488200  0.66795506  1
  Te  Te150  1  0.49939330  0.66694226  0.00273922  1
  Te  Te151  1  0.49741106  0.66695844  0.33252616  1
  Te  Te152  1  0.50279180  0.66806333  0.66729407  1
  Te  Te153  1  0.83780815  0.00126543  -0.00427247  1
  Te  Te154  1  0.83499332  -0.00557286  0.33417694  1
  Te  Te155  1  0.83421468  -0.00215658  0.66960445  1
  Te  Te156  1  0.83179125  0.33339715  0.00048165  1
  Te  Te157  1  0.83400099  0.33341094  0.33378795  1
  Te  Te158  1  0.82897041  0.33612865  0.66838544  1
  Te  Te159  1  0.83494270  0.66332896  -0.00371264  1
  Te  Te160  1  0.83224756  0.67006248  0.33457882  1
  Te  Te161  1  0.83172721  0.66648027  0.66697856  1
  Te  Te162  1  0.00037261  0.16459171  0.00195183  1
  Te  Te163  1  -0.00033431  0.16601601  0.32722277  1
  Te  Te164  1  0.00026794  0.16630234  0.66950074  1
  Te  Te165  1  -0.00227965  0.50210310  -0.00000368  1
  Te  Te166  1  0.00268877  0.50590979  0.33310665  1
  Te  Te167  1  0.00731787  0.50026348  0.66749454  1
  Te  Te168  1  0.00712461  0.84044918  0.00046313  1
  Te  Te169  1  -0.00329198  0.82830804  0.33362730  1
  Te  Te170  1  0.00135292  0.83308318  0.66573918  1
  Te  Te171  1  0.32877457  0.17288375  0.00570138  1
  Te  Te172  1  0.33439833  0.16586901  0.32983984  1
  Te  Te173  1  0.33432354  0.16137993  0.66380892  1
  Te  Te174  1  0.32892659  0.49549490  0.00405837  1
  Te  Te175  1  0.33537992  0.50073545  0.33260194  1
  Te  Te176  1  0.33331541  0.50033974  0.66662583  1
  Te  Te177  1  0.32739188  0.83155504  -0.00736882  1
  Te  Te178  1  0.33669584  0.83508397  0.33495966  1
  Te  Te179  1  0.33739100  0.83319680  0.66577074  1
  Te  Te180  1  0.67067501  0.17276970  0.00460058  1
  Te  Te181  1  0.65918421  0.16581019  0.32722130  1
  Te  Te182  1  0.66525144  0.17488926  0.66545806  1
  Te  Te183  1  0.66927017  0.49595138  -0.00042678  1
  Te  Te184  1  0.66024565  0.50059459  0.32906449  1
  Te  Te185  1  0.66610809  0.50249116  0.66699183  1
  Te  Te186  1  0.66760170  0.83405326  -0.00820768  1
  Te  Te187  1  0.66462053  0.83258082  0.33506432  1
  Te  Te188  1  0.66466494  0.83349086  0.66815345  1
  Te  Te189  1  0.00307177  0.00579627  0.16182966  1
  Te  Te190  1  -0.00738373  0.00216290  0.49838012  1
  Te  Te191  1  0.00248487  0.00363726  0.83724793  1
  Te  Te192  1  -0.01064915  0.32690721  0.16777873  1
  Te  Te193  1  -0.00923098  0.33153564  0.49860733  1
  Te  Te194  1  0.00969720  0.32664221  0.83220315  1
  Te  Te195  1  0.00207979  0.66664381  0.17131049  1
  Te  Te196  1  -0.00722578  0.66701368  0.49244647  1
  Te  Te197  1  -0.00615836  0.66595476  0.83448197  1
  Te  Te198  1  0.33371188  -0.00087931  0.16785281  1
  Te  Te199  1  0.33273059  -0.00146829  0.49910137  1
  Te  Te200  1  0.33223805  -0.00245763  0.83412673  1
  Te  Te201  1  0.33616800  0.33461118  0.16767485  1
  Te  Te202  1  0.33432443  0.32860601  0.49690832  1
  Te  Te203  1  0.32903088  0.33296944  0.83448550  1
  Te  Te204  1  0.33438453  0.66829605  0.17077854  1
  Te  Te205  1  0.33198872  0.67216752  0.49250473  1
  Te  Te206  1  0.33854695  0.67247332  0.83329220  1
  Te  Te207  1  0.66059022  0.00172993  0.16588585  1
  Te  Te208  1  0.67334599  -0.00363487  0.50031296  1
  Te  Te209  1  0.66897232  0.00057648  0.83282733  1
  Te  Te210  1  0.66677190  0.33520241  0.16587463  1
  Te  Te211  1  0.67010175  0.33203656  0.50219969  1
  Te  Te212  1  0.66562827  0.33660489  0.83625089  1
  Te  Te213  1  0.66100761  0.66153275  0.16543016  1
  Te  Te214  1  0.67160453  0.67172100  0.50537056  1
  Te  Te215  1  0.66518746  0.66493563  0.83109022  1
