# generated using pymatgen
data_AgSbTe2
_symmetry_space_group_name_H-M   'P 1'
_cell_length_a   18.32369189
_cell_length_b   18.32525555
_cell_length_c   18.31484792
_cell_angle_alpha   90.00211116
_cell_angle_beta   89.99857096
_cell_angle_gamma   89.99961495
_symmetry_Int_Tables_number   1
_chemical_formula_structural   AgSbTe2
_chemical_formula_sum   'Ag54 Sb54 Te108'
_cell_volume   6149.87568178
_cell_formula_units_Z   54
loop_
 _symmetry_equiv_pos_site_id
 _symmetry_equiv_pos_as_xyz
  1  'x, y, z'
loop_
 _atom_site_type_symbol
 _atom_site_label
 _atom_site_symmetry_multiplicity
 _atom_site_fract_x
 _atom_site_fract_y
 _atom_site_fract_z
 _atom_site_occupancy
  Ag  Ag0  1  0.49669386  0.16776738  0.34068059  1
  Ag  Ag1  1  0.33472119  0.50469420  0.15750401  1
  Ag  Ag2  1  0.83106004  0.66789614  0.15606240  1
  Ag  Ag3  1  0.33263199  0.33994888  -0.00530518  1
  Ag  Ag4  1  0.16841456  -0.00627157  0.16814944  1
  Ag  Ag5  1  0.66799614  0.82882030  0.50462902  1
  Ag  Ag6  1  0.83262815  -0.01107451  0.83372223  1
  Ag  Ag7  1  0.00168156  -0.00436180  0.32988287  1
  Ag  Ag8  1  0.17088409  0.33268736  0.16919611  1
  Ag  Ag9  1  -0.00639910  0.66905224  -0.00515053  1
  Ag  Ag10  1  -0.00040515  0.50754647  0.83485146  1
  Ag  Ag11  1  -0.00331720  0.82757874  0.83738132  1
  Ag  Ag12  1  0.34049591  0.16612532  0.49761454  1
  Ag  Ag13  1  0.82450901  0.66638261  0.50053657  1
  Ag  Ag14  1  0.00711838  0.83362402  0.16152799  1
  Ag  Ag15  1  0.49391265  0.83382778  0.67059255  1
  Ag  Ag16  1  0.16527901  0.33490677  0.50020352  1
  Ag  Ag17  1  0.49685473  0.50455898  0.33166496  1
  Ag  Ag18  1  0.17183083  0.66713184  0.83506691  1
  Ag  Ag19  1  0.83207099  0.66990764  0.83818214  1
  Ag  Ag20  1  0.49586496  0.50336315  -0.00698617  1
  Ag  Ag21  1  -0.00269485  -0.00982340  -0.00294201  1
  Ag  Ag22  1  0.49507226  0.16208609  0.66470878  1
  Ag  Ag23  1  0.67086284  0.66748426  -0.00662271  1
  Ag  Ag24  1  0.67205864  -0.00833374  -0.00569308  1
  Ag  Ag25  1  0.32854434  0.82932040  0.16701595  1
  Ag  Ag26  1  0.16695241  0.83440658  0.33395036  1
  Ag  Ag27  1  0.49492786  0.66506457  0.16428113  1
  Ag  Ag28  1  0.33545191  -0.00788411  0.66572344  1
  Ag  Ag29  1  0.33214659  0.33345066  0.67021246  1
  Ag  Ag30  1  0.66204911  0.82758471  0.83052063  1
  Ag  Ag31  1  0.33916325  0.50824703  0.83751407  1
  Ag  Ag32  1  0.00721025  0.33406139  0.66725619  1
  Ag  Ag33  1  0.50306197  0.66530217  0.50282996  1
  Ag  Ag34  1  -0.00724531  0.49954532  0.50453047  1
  Ag  Ag35  1  0.33099094  -0.00475697  0.33438202  1
  Ag  Ag36  1  0.83086490  0.15602131  0.33695149  1
  Ag  Ag37  1  0.66897363  0.50895160  0.50440990  1
  Ag  Ag38  1  0.83820661  0.83554791  0.33749833  1
  Ag  Ag39  1  0.50139527  -0.00984332  0.83211565  1
  Ag  Ag40  1  0.83199052  -0.00134962  0.49811219  1
  Ag  Ag41  1  0.33767299  0.82572745  0.82739071  1
  Ag  Ag42  1  0.83630592  0.33852446  0.50100076  1
  Ag  Ag43  1  0.66307322  0.16494518  0.49934754  1
  Ag  Ag44  1  0.49714278  0.66643430  0.83355948  1
  Ag  Ag45  1  -0.00230432  0.16090468  0.83320910  1
  Ag  Ag46  1  0.33572242  0.67402711  0.67397841  1
  Ag  Ag47  1  0.65920622  0.51075289  0.83525283  1
  Ag  Ag48  1  0.17446319  0.83257200  0.66910608  1
  Ag  Ag49  1  0.33339467  0.16571698  0.17340160  1
  Ag  Ag50  1  0.83306481  0.50598675  -0.00411783  1
  Ag  Ag51  1  0.17583961  0.50175118  -0.00248715  1
  Ag  Ag52  1  0.49587497  0.34517160  0.83145618  1
  Ag  Ag53  1  0.33625996  0.67237299  0.33439202  1
  Sb  Sb54  1  0.16527500  0.82676019  -0.00066459  1
  Sb  Sb55  1  0.17113086  0.34074187  0.83175549  1
  Sb  Sb56  1  0.33617506  0.66184523  -0.00262002  1
  Sb  Sb57  1  0.00429644  0.00138885  0.66927020  1
  Sb  Sb58  1  0.00114204  0.32877465  0.33931761  1
  Sb  Sb59  1  -0.00462333  0.82893309  0.50160579  1
  Sb  Sb60  1  0.00437491  0.66518153  0.67394549  1
  Sb  Sb61  1  0.00475541  0.15929721  0.16422006  1
  Sb  Sb62  1  0.66180242  0.33978850  -0.00363266  1
  Sb  Sb63  1  0.16778442  0.50342600  0.67166800  1
  Sb  Sb64  1  0.16568303  0.00154190  0.49651663  1
  Sb  Sb65  1  0.17182871  0.50500647  0.33020931  1
  Sb  Sb66  1  0.66108793  -0.00204028  0.67024323  1
  Sb  Sb67  1  0.83835634  -0.00783369  0.16559562  1
  Sb  Sb68  1  0.16738284  0.17059333  -0.00045367  1
  Sb  Sb69  1  0.49734406  0.83179364  0.33745177  1
  Sb  Sb70  1  0.00527485  0.50721199  0.16175093  1
  Sb  Sb71  1  0.33518596  0.49853295  0.50199098  1
  Sb  Sb72  1  0.17057034  0.66896556  0.16082544  1
  Sb  Sb73  1  0.66563665  -0.00211504  0.33227253  1
  Sb  Sb74  1  0.49324439  -0.00578360  0.16248074  1
  Sb  Sb75  1  0.66025969  0.50344844  0.16336490  1
  Sb  Sb76  1  0.66040774  0.16401193  0.17160822  1
  Sb  Sb77  1  0.83192365  0.33788740  0.82870005  1
  Sb  Sb78  1  0.33255695  0.16597108  0.83187385  1
  Sb  Sb79  1  0.16620505  -0.00802157  0.83732568  1
  Sb  Sb80  1  0.33132213  0.00130892  -0.00050656  1
  Sb  Sb81  1  0.50278690  -0.00125953  0.50392520  1
  Sb  Sb82  1  0.66615503  0.83046295  0.16456909  1
  Sb  Sb83  1  -0.00167660  0.16931869  0.50344284  1
  Sb  Sb84  1  0.66286907  0.33307479  0.66592331  1
  Sb  Sb85  1  0.83281000  0.83237385  0.66697412  1
  Sb  Sb86  1  0.49857857  0.16954879  -0.00192919  1
  Sb  Sb87  1  0.16877970  0.66403777  0.50383791  1
  Sb  Sb88  1  0.49742879  0.50345255  0.66988071  1
  Sb  Sb89  1  0.49162046  0.33926352  0.16258799  1
  Sb  Sb90  1  0.82972193  0.50529097  0.33444025  1
  Sb  Sb91  1  0.16939654  0.16087048  0.33294133  1
  Sb  Sb92  1  0.66657390  0.33405102  0.33657272  1
  Sb  Sb93  1  0.66755274  0.16304660  0.82936564  1
  Sb  Sb94  1  0.84167184  0.33913669  0.17095781  1
  Sb  Sb95  1  0.49968623  0.33539159  0.50448331  1
  Sb  Sb96  1  0.83402885  0.16809499  0.00320200  1
  Sb  Sb97  1  0.66225638  0.66753341  0.33512636  1
  Sb  Sb98  1  0.65997766  0.66816441  0.67215164  1
  Sb  Sb99  1  0.00162988  0.67198049  0.33069293  1
  Sb  Sb100  1  0.00465647  0.33870573  -0.00616216  1
  Sb  Sb101  1  0.49975311  0.82581441  -0.00736620  1
  Sb  Sb102  1  0.83506296  0.82656191  -0.00007767  1
  Sb  Sb103  1  0.17316948  0.16468839  0.66646948  1
  Sb  Sb104  1  0.33722076  0.83481861  0.50291030  1
  Sb  Sb105  1  0.82937730  0.16578255  0.66167935  1
  Sb  Sb106  1  0.33333807  0.33217200  0.33399527  1
  Sb  Sb107  1  0.83482385  0.50200714  0.66959366  1
  Te  Te108  1  0.17240479  0.16915021  0.16700155  1
  Te  Te109  1  0.17010598  0.17271737  0.49934273  1
  Te  Te110  1  0.15852104  0.16560207  0.83314786  1
  Te  Te111  1  0.17271754  0.49849393  0.16263198  1
  Te  Te112  1  0.16335994  0.49563642  0.49934187  1
  Te  Te113  1  0.16547020  0.50528098  0.83699939  1
  Te  Te114  1  0.16738003  0.83367922  0.16741221  1
  Te  Te115  1  0.16510215  0.83300226  0.49814244  1
  Te  Te116  1  0.17022546  0.82813711  0.83295370  1
  Te  Te117  1  0.49367112  0.16674536  0.16992181  1
  Te  Te118  1  0.50041152  0.16680271  0.50024287  1
  Te  Te119  1  0.50080078  0.16291552  0.82995116  1
  Te  Te120  1  0.49497014  0.50440624  0.16980551  1
  Te  Te121  1  0.50310942  0.50284179  0.49802591  1
  Te  Te122  1  0.49967133  0.50411844  0.83219880  1
  Te  Te123  1  0.49639939  0.82604911  0.16848129  1
  Te  Te124  1  0.50552504  0.83032105  0.50476113  1
  Te  Te125  1  0.49944327  0.83096670  0.83179878  1
  Te  Te126  1  0.83252732  0.16891148  0.17475231  1
  Te  Te127  1  0.83149378  0.16261019  0.49690279  1
  Te  Te128  1  0.83648272  0.16709188  0.83371686  1
  Te  Te129  1  0.83375815  0.50638758  0.16405607  1
  Te  Te130  1  0.83142507  0.50170948  0.49934634  1
  Te  Te131  1  0.83380990  0.50224854  0.83526826  1
  Te  Te132  1  0.83353838  0.82740139  0.17321855  1
  Te  Te133  1  0.83006691  0.83296830  0.50054190  1
  Te  Te134  1  0.83287187  0.83159299  0.83242303  1
  Te  Te135  1  0.16196920  0.00147288  0.00595421  1
  Te  Te136  1  0.16876752  -0.00482733  0.33057430  1
  Te  Te137  1  0.17351510  -0.00550238  0.66567677  1
  Te  Te138  1  0.17127100  0.33926620  0.00204548  1
  Te  Te139  1  0.16624982  0.33489140  0.33360937  1
  Te  Te140  1  0.16868203  0.33259004  0.66387486  1
  Te  Te141  1  0.15857782  0.66100805  -0.00514292  1
  Te  Te142  1  0.17297014  0.67318354  0.33357806  1
  Te  Te143  1  0.17423726  0.67149738  0.67115118  1
  Te  Te144  1  0.50122394  0.00126089  -0.00655246  1
  Te  Te145  1  0.49524546  0.00380237  0.33167852  1
  Te  Te146  1  0.49529842  -0.00130574  0.67037734  1
  Te  Te147  1  0.49465483  0.33891035  -0.00521207  1
  Te  Te148  1  0.49969380  0.33157102  0.33226512  1
  Te  Te149  1  0.49583564  0.32968923  0.67085053  1
  Te  Te150  1  0.50378996  0.66268798  -0.00172122  1
  Te  Te151  1  0.49651800  0.66613486  0.33416182  1
  Te  Te152  1  0.49449968  0.66935213  0.66645835  1
  Te  Te153  1  0.83618088  0.00167584  -0.00265401  1
  Te  Te154  1  0.83245696  -0.00286809  0.33239594  1
  Te  Te155  1  0.83492323  0.00017454  0.66923141  1
  Te  Te156  1  0.83344906  0.34107008  0.00155419  1
  Te  Te157  1  0.83430988  0.33137795  0.33972883  1
  Te  Te158  1  0.83748579  0.33199473  0.65991128  1
  Te  Te159  1  0.83256389  0.66467164  -0.00182200  1
  Te  Te160  1  0.83309254  0.67123738  0.33935821  1
  Te  Te161  1  0.83584313  0.66811236  0.66060149  1
  Te  Te162  1  -0.00107737  0.16436409  -0.00504513  1
  Te  Te163  1  -0.00370819  0.15912551  0.33319028  1
  Te  Te164  1  0.00042709  0.17012597  0.67207276  1
  Te  Te165  1  -0.00298871  0.50364487  -0.00273923  1
  Te  Te166  1  0.00051898  0.49948660  0.33492944  1
  Te  Te167  1  0.00140604  0.49570901  0.66696276  1
  Te  Te168  1  0.00001310  0.83213780  -0.00075671  1
  Te  Te169  1  0.00048483  0.83652801  0.33426146  1
  Te  Te170  1  0.00670476  0.83385825  0.67291429  1
  Te  Te171  1  0.33396024  0.17410233  0.00526146  1
  Te  Te172  1  0.33494454  0.16476592  0.33422019  1
  Te  Te173  1  0.33670837  0.16904848  0.66525209  1
  Te  Te174  1  0.33502202  0.50023999  -0.00227306  1
  Te  Te175  1  0.33719720  0.50393703  0.33259224  1
  Te  Te176  1  0.33193467  0.49599821  0.67192509  1
  Te  Te177  1  0.33278424  0.83520621  0.00346606  1
  Te  Te178  1  0.33219533  0.83420299  0.33448688  1
  Te  Te179  1  0.33362231  0.83309104  0.66666197  1
  Te  Te180  1  0.66695801  0.16462053  0.00057198  1
  Te  Te181  1  0.66454100  0.16521675  0.33865891  1
  Te  Te182  1  0.65872597  0.16580138  0.66018410  1
  Te  Te183  1  0.66494866  0.50406601  -0.00346356  1
  Te  Te184  1  0.65965064  0.50081234  0.33776041  1
  Te  Te185  1  0.66706116  0.49929890  0.66544947  1
  Te  Te186  1  0.66704854  0.83242580  -0.00441495  1
  Te  Te187  1  0.67160825  0.83375466  0.33766602  1
  Te  Te188  1  0.66170423  0.83421845  0.66829419  1
  Te  Te189  1  0.00456756  -0.00537601  0.16774633  1
  Te  Te190  1  -0.00508590  0.00035403  0.49671791  1
  Te  Te191  1  -0.00162406  -0.00513559  0.83487515  1
  Te  Te192  1  0.00863800  0.33278253  0.16543379  1
  Te  Te193  1  -0.00041712  0.33641384  0.50418822  1
  Te  Te194  1  0.00049697  0.33981487  0.82840257  1
  Te  Te195  1  -0.00260108  0.67338914  0.16309930  1
  Te  Te196  1  -0.00033956  0.66022376  0.50005551  1
  Te  Te197  1  -0.00526648  0.66704609  0.83336277  1
  Te  Te198  1  0.33019467  -0.00274387  0.16799769  1
  Te  Te199  1  0.33406824  0.00489505  0.49929696  1
  Te  Te200  1  0.33533657  -0.00200511  0.83120243  1
  Te  Te201  1  0.32983906  0.33600713  0.16660289  1
  Te  Te202  1  0.33183269  0.33060022  0.50382201  1
  Te  Te203  1  0.33568771  0.33161242  0.83278583  1
  Te  Te204  1  0.33504808  0.66784853  0.16616989  1
  Te  Te205  1  0.33665683  0.66585972  0.49829533  1
  Te  Te206  1  0.33559511  0.66736445  0.83440917  1
  Te  Te207  1  0.66565687  -0.00147975  0.15580539  1
  Te  Te208  1  0.67136350  -0.00107856  0.49966068  1
  Te  Te209  1  0.66926737  -0.00196485  0.83600423  1
  Te  Te210  1  0.66996485  0.33341792  0.16576780  1
  Te  Te211  1  0.67137611  0.33135821  0.50105536  1
  Te  Te212  1  0.66074955  0.33730073  0.83216186  1
  Te  Te213  1  0.66828436  0.66684793  0.16072903  1
  Te  Te214  1  0.66444851  0.66763098  0.50075122  1
  Te  Te215  1  0.66943785  0.66722773  0.83263698  1
