# generated using pymatgen
data_AgSbTe2
_symmetry_space_group_name_H-M   'P 1'
_cell_length_a   18.33869899
_cell_length_b   18.34691078
_cell_length_c   18.33341292
_cell_angle_alpha   89.99880792
_cell_angle_beta   90.00459912
_cell_angle_gamma   89.99639870
_symmetry_Int_Tables_number   1
_chemical_formula_structural   AgSbTe2
_chemical_formula_sum   'Ag54 Sb54 Te108'
_cell_volume   6168.43210623
_cell_formula_units_Z   54
loop_
 _symmetry_equiv_pos_site_id
 _symmetry_equiv_pos_as_xyz
  1  'x, y, z'
loop_
 _atom_site_type_symbol
 _atom_site_label
 _atom_site_symmetry_multiplicity
 _atom_site_fract_x
 _atom_site_fract_y
 _atom_site_fract_z
 _atom_site_occupancy
  Ag  Ag0  1  -0.00248872  0.34013450  0.33171069  1
  Ag  Ag1  1  0.49442338  0.82589652  0.33298472  1
  Ag  Ag2  1  0.17272373  0.66229380  0.16165725  1
  Ag  Ag3  1  0.48671936  -0.00657368  0.17172260  1
  Ag  Ag4  1  0.16506600  0.66862145  0.83530904  1
  Ag  Ag5  1  0.16691176  0.33630933  0.83251815  1
  Ag  Ag6  1  0.67698724  0.16952794  0.50077647  1
  Ag  Ag7  1  0.32526063  0.66499338  0.01415314  1
  Ag  Ag8  1  0.66483529  0.33529885  0.00159973  1
  Ag  Ag9  1  0.83709026  0.18010295  0.66207858  1
  Ag  Ag10  1  0.16955439  -0.00121150  0.16380617  1
  Ag  Ag11  1  0.16961113  0.16878101  -0.00011254  1
  Ag  Ag12  1  0.49953273  0.50383439  0.32906895  1
  Ag  Ag13  1  0.49094781  0.17480270  0.00232787  1
  Ag  Ag14  1  0.84792865  0.66387149  0.83136076  1
  Ag  Ag15  1  -0.00516992  0.17080295  0.50143005  1
  Ag  Ag16  1  0.84341458  0.34243602  0.17604084  1
  Ag  Ag17  1  0.00261418  0.00715864  0.66553277  1
  Ag  Ag18  1  0.32681513  0.34036011  0.66302632  1
  Ag  Ag19  1  0.67888154  0.33862490  0.66424838  1
  Ag  Ag20  1  0.83318676  0.33462721  0.50344561  1
  Ag  Ag21  1  0.16663827  -0.00720598  0.83414712  1
  Ag  Ag22  1  0.16180562  0.34165251  0.16264798  1
  Ag  Ag23  1  0.33626370  0.82654485  0.49373129  1
  Ag  Ag24  1  -0.00106882  0.33331850  0.66094893  1
  Ag  Ag25  1  0.33240141  0.17245117  0.50366153  1
  Ag  Ag26  1  0.48619139  0.65860472  0.16920215  1
  Ag  Ag27  1  0.00311488  0.18192376  0.17048960  1
  Ag  Ag28  1  0.65862711  -0.00164728  0.33559011  1
  Ag  Ag29  1  0.84038545  0.49859212  0.65967344  1
  Ag  Ag30  1  0.32971174  0.66047238  0.66410814  1
  Ag  Ag31  1  0.16805946  0.82296605  0.67227390  1
  Ag  Ag32  1  0.83937582  0.65941843  0.17267845  1
  Ag  Ag33  1  0.66442495  0.83378815  0.49840817  1
  Ag  Ag34  1  0.32739266  0.82992099  0.82845923  1
  Ag  Ag35  1  0.50378713  0.33313279  0.50130269  1
  Ag  Ag36  1  0.00174166  0.66006700  0.32536233  1
  Ag  Ag37  1  0.16193692  0.50060694  0.67043466  1
  Ag  Ag38  1  0.83346686  0.50051520  0.33305230  1
  Ag  Ag39  1  0.66864372  0.50005068  0.16817941  1
  Ag  Ag40  1  0.83386158  0.65642478  0.50134702  1
  Ag  Ag41  1  0.33131573  0.66808152  0.32639463  1
  Ag  Ag42  1  0.00032101  0.50087501  0.16738751  1
  Ag  Ag43  1  0.33286415  0.50599228  0.17348716  1
  Ag  Ag44  1  0.33482605  0.50510481  0.49730940  1
  Ag  Ag45  1  0.83247164  0.00943100  0.49976514  1
  Ag  Ag46  1  0.00194927  0.50296822  0.83553751  1
  Ag  Ag47  1  0.32779386  0.16574692  0.83033517  1
  Ag  Ag48  1  0.33333352  0.81825729  0.17497607  1
  Ag  Ag49  1  0.00689410  0.66378352  0.00530031  1
  Ag  Ag50  1  0.49866632  0.49825365  0.00917939  1
  Ag  Ag51  1  0.67110375  0.65850745  0.66489596  1
  Ag  Ag52  1  0.01028700  0.81896055  0.82954933  1
  Ag  Ag53  1  0.33720622  -0.01108128  0.33221979  1
  Sb  Sb54  1  0.83001282  0.82513137  0.33674747  1
  Sb  Sb55  1  0.84268356  -0.00463245  0.82372708  1
  Sb  Sb56  1  0.50180385  0.00359587  0.49477239  1
  Sb  Sb57  1  0.16586969  0.50114049  0.33249597  1
  Sb  Sb58  1  0.00144865  0.66129321  0.66704974  1
  Sb  Sb59  1  0.16647909  0.00092187  0.50119904  1
  Sb  Sb60  1  0.16911093  0.49925928  -0.00015775  1
  Sb  Sb61  1  0.33021684  -0.00311594  0.00559559  1
  Sb  Sb62  1  0.83960989  0.33970842  0.82959914  1
  Sb  Sb63  1  0.49931267  0.66261219  0.49463998  1
  Sb  Sb64  1  0.83740240  0.00046463  0.17567252  1
  Sb  Sb65  1  0.49876629  0.49965035  0.66549625  1
  Sb  Sb66  1  -0.00028250  0.49689529  0.49836699  1
  Sb  Sb67  1  0.50104913  0.16822217  0.66638477  1
  Sb  Sb68  1  0.66641702  0.49821233  0.49734428  1
  Sb  Sb69  1  0.16598138  0.66553354  0.50057238  1
  Sb  Sb70  1  0.67025849  0.33321862  0.33658218  1
  Sb  Sb71  1  0.66520330  0.83077702  0.82305239  1
  Sb  Sb72  1  0.83420100  0.17379046  0.34068606  1
  Sb  Sb73  1  0.16828269  0.83128598  -0.00541943  1
  Sb  Sb74  1  0.49589530  0.82952206  0.00771934  1
  Sb  Sb75  1  0.49074284  0.00063646  0.84086913  1
  Sb  Sb76  1  0.16385275  0.17039773  0.67078619  1
  Sb  Sb77  1  0.67311057  0.49985469  0.83470938  1
  Sb  Sb78  1  0.32823594  -0.00036535  0.66248276  1
  Sb  Sb79  1  0.66274641  0.16746113  0.82858629  1
  Sb  Sb80  1  0.83853298  0.82571523  0.66339761  1
  Sb  Sb81  1  0.33441694  0.33712069  -0.00266480  1
  Sb  Sb82  1  0.17213442  0.83167493  0.33527953  1
  Sb  Sb83  1  0.49503778  0.33453214  0.82978450  1
  Sb  Sb84  1  0.83666737  0.17050495  -0.00388627  1
  Sb  Sb85  1  0.66298086  0.00684541  0.00850243  1
  Sb  Sb86  1  0.49889003  0.16854835  0.33050757  1
  Sb  Sb87  1  0.00804095  0.82551268  0.16355176  1
  Sb  Sb88  1  0.00104371  0.83420012  0.50463976  1
  Sb  Sb89  1  0.83387649  0.82986056  -0.00002593  1
  Sb  Sb90  1  0.49826086  0.33843450  0.17080089  1
  Sb  Sb91  1  0.00295280  -0.00336931  -0.00281420  1
  Sb  Sb92  1  0.32693460  0.50224881  0.83205465  1
  Sb  Sb93  1  0.67153297  0.17300387  0.17104413  1
  Sb  Sb94  1  0.32889630  0.33787161  0.33743616  1
  Sb  Sb95  1  0.83251022  0.50023776  0.00691810  1
  Sb  Sb96  1  -0.00072344  0.33867471  0.00192402  1
  Sb  Sb97  1  0.49166166  0.66587308  0.83835825  1
  Sb  Sb98  1  0.32819981  0.16994929  0.16650083  1
  Sb  Sb99  1  0.66036179  0.82597145  0.17276636  1
  Sb  Sb100  1  0.66661245  0.66150615  -0.00082559  1
  Sb  Sb101  1  0.67470543  0.00177399  0.65848137  1
  Sb  Sb102  1  0.49235290  0.83083931  0.65902736  1
  Sb  Sb103  1  0.16381688  0.33395266  0.50232286  1
  Sb  Sb104  1  0.66517878  0.66678594  0.33613296  1
  Sb  Sb105  1  0.00204279  0.00034098  0.33696640  1
  Sb  Sb106  1  0.00596870  0.17102724  0.83221785  1
  Sb  Sb107  1  0.16653253  0.16765042  0.32885046  1
  Te  Te108  1  0.16321576  0.16644042  0.16298943  1
  Te  Te109  1  0.16985411  0.16622168  0.49975439  1
  Te  Te110  1  0.16907944  0.16942435  0.83689168  1
  Te  Te111  1  0.16487091  0.50207955  0.16648235  1
  Te  Te112  1  0.17401208  0.49982257  0.50809247  1
  Te  Te113  1  0.16338724  0.50059561  0.83186261  1
  Te  Te114  1  0.17334118  0.83319367  0.16592686  1
  Te  Te115  1  0.17224878  0.83388175  0.50826293  1
  Te  Te116  1  0.16850549  0.83187909  0.83254525  1
  Te  Te117  1  0.50122948  0.16859436  0.16257464  1
  Te  Te118  1  0.49380957  0.17135491  0.49959702  1
  Te  Te119  1  0.49235134  0.16655268  0.84031189  1
  Te  Te120  1  0.49692508  0.49954112  0.16914021  1
  Te  Te121  1  0.49658990  0.49545020  0.49735521  1
  Te  Te122  1  0.50127088  0.50020085  0.84103371  1
  Te  Te123  1  0.49551080  0.83414647  0.17264442  1
  Te  Te124  1  0.49837869  0.83429982  0.49341661  1
  Te  Te125  1  0.49281909  0.83458093  0.83414664  1
  Te  Te126  1  0.84075143  0.16914089  0.16642065  1
  Te  Te127  1  0.83541372  0.17097771  0.50243529  1
  Te  Te128  1  0.83332012  0.16504260  0.82570522  1
  Te  Te129  1  0.83706253  0.49954583  0.16740087  1
  Te  Te130  1  0.83250948  0.49766442  0.49820418  1
  Te  Te131  1  0.83902461  0.50482165  0.82837547  1
  Te  Te132  1  0.83262417  0.82989075  0.16754498  1
  Te  Te133  1  0.82975906  0.83281944  0.50037743  1
  Te  Te134  1  0.83515833  0.82665342  0.83178441  1
  Te  Te135  1  0.16607156  0.00636285  0.00017966  1
  Te  Te136  1  0.17105214  -0.00078134  0.32786013  1
  Te  Te137  1  0.16270530  0.00112987  0.66977060  1
  Te  Te138  1  0.16673980  0.33046647  -0.00080137  1
  Te  Te139  1  0.15822290  0.33389136  0.32577764  1
  Te  Te140  1  0.16629864  0.33632082  0.66856958  1
  Te  Te141  1  0.16721755  0.66586327  -0.00108656  1
  Te  Te142  1  0.16727771  0.66704298  0.32947618  1
  Te  Te143  1  0.16728106  0.66327797  0.66695405  1
  Te  Te144  1  0.49845413  0.00476949  0.00990223  1
  Te  Te145  1  0.49737283  0.00229941  0.32976107  1
  Te  Te146  1  0.50263994  -0.00041284  0.66982498  1
  Te  Te147  1  0.50192333  0.33504509  -0.00080695  1
  Te  Te148  1  0.49974020  0.33961485  0.33918241  1
  Te  Te149  1  0.49498883  0.33295390  0.66168712  1
  Te  Te150  1  0.49866068  0.66205117  0.00673653  1
  Te  Te151  1  0.49885096  0.66465342  0.32928370  1
  Te  Te152  1  0.49993145  0.66635992  0.66839558  1
  Te  Te153  1  0.83275877  0.00034118  -0.00069747  1
  Te  Te154  1  0.83295833  -0.00225165  0.33989836  1
  Te  Te155  1  0.84076078  -0.00016312  0.65969094  1
  Te  Te156  1  0.82630843  0.33281804  -0.00023247  1
  Te  Te157  1  0.83623932  0.33888115  0.33395770  1
  Te  Te158  1  0.83657599  0.33761279  0.66718029  1
  Te  Te159  1  0.83511689  0.66616350  -0.00441634  1
  Te  Te160  1  0.83229992  0.66096762  0.33483953  1
  Te  Te161  1  0.83389079  0.66139369  0.66375533  1
  Te  Te162  1  0.00389750  0.16578679  0.00443735  1
  Te  Te163  1  0.00005340  0.16876723  0.33384751  1
  Te  Te164  1  -0.00199160  0.17040919  0.66534375  1
  Te  Te165  1  -0.00132536  0.50501168  0.00031966  1
  Te  Te166  1  -0.00089322  0.50026346  0.33220960  1
  Te  Te167  1  0.00090338  0.49577008  0.66431323  1
  Te  Te168  1  -0.00011901  0.82601685  -0.00875364  1
  Te  Te169  1  0.00078891  0.82776854  0.33414710  1
  Te  Te170  1  0.00551178  0.83586800  0.66980781  1
  Te  Te171  1  0.33166279  0.16666988  -0.00194726  1
  Te  Te172  1  0.33348156  0.16749561  0.33924111  1
  Te  Te173  1  0.33376566  0.16677852  0.66677847  1
  Te  Te174  1  0.33696649  0.50451227  0.00136925  1
  Te  Te175  1  0.33282655  0.50314945  0.33485457  1
  Te  Te176  1  0.33345013  0.49923018  0.66579881  1
  Te  Te177  1  0.33462501  0.82609882  -0.00048369  1
  Te  Te178  1  0.33414244  0.82989535  0.33401913  1
  Te  Te179  1  0.32903498  0.83376076  0.66654394  1
  Te  Te180  1  0.66492823  0.17347412  -0.00032156  1
  Te  Te181  1  0.66670556  0.16167583  0.34010622  1
  Te  Te182  1  0.67042709  0.17039914  0.66128569  1
  Te  Te183  1  0.66217327  0.49554906  0.00409049  1
  Te  Te184  1  0.66611201  0.49993584  0.32900625  1
  Te  Te185  1  0.66741819  0.49893631  0.66675129  1
  Te  Te186  1  0.66478839  0.83614338  -0.00220499  1
  Te  Te187  1  0.66124286  0.83621093  0.33838897  1
  Te  Te188  1  0.66480471  0.83080633  0.65842326  1
  Te  Te189  1  0.00540717  -0.00456654  0.16679009  1
  Te  Te190  1  -0.00234063  0.00428734  0.50304509  1
  Te  Te191  1  0.00639524  0.00068207  0.82899948  1
  Te  Te192  1  0.00046775  0.33790798  0.16406744  1
  Te  Te193  1  -0.00202386  0.33116433  0.49899188  1
  Te  Te194  1  0.00588864  0.33860806  0.83267975  1
  Te  Te195  1  -0.00103344  0.66513998  0.16525405  1
  Te  Te196  1  -0.00496147  0.66711739  0.49261277  1
  Te  Te197  1  0.00415987  0.66307491  0.82877803  1
  Te  Te198  1  0.33035365  0.00489929  0.17111660  1
  Te  Te199  1  0.33390845  -0.00154494  0.49468578  1
  Te  Te200  1  0.32655061  -0.00015725  0.83372790  1
  Te  Te201  1  0.32681516  0.33856237  0.16717120  1
  Te  Te202  1  0.33032500  0.33273432  0.50218665  1
  Te  Te203  1  0.32797875  0.33156606  0.82883842  1
  Te  Te204  1  0.33101807  0.66306473  0.16976868  1
  Te  Te205  1  0.33404836  0.66674380  0.50444382  1
  Te  Te206  1  0.32838488  0.66850333  0.82281365  1
  Te  Te207  1  0.66811744  -0.00025354  0.17431409  1
  Te  Te208  1  0.66900977  0.00208608  0.49608135  1
  Te  Te209  1  0.66758859  -0.00133443  0.83472698  1
  Te  Te210  1  0.66812915  0.33781910  0.16683114  1
  Te  Te211  1  0.66908507  0.33197327  0.50256076  1
  Te  Te212  1  0.66655250  0.33242863  0.82649065  1
  Te  Te213  1  0.67682272  0.66091127  0.16560936  1
  Te  Te214  1  0.66777829  0.66743198  0.50371631  1
  Te  Te215  1  0.66636053  0.66734761  0.82687598  1
