# generated using pymatgen
data_AgSbTe2
_symmetry_space_group_name_H-M   'P 1'
_cell_length_a   18.34967628
_cell_length_b   18.35835454
_cell_length_c   18.35492644
_cell_angle_alpha   90.00031947
_cell_angle_beta   89.99863082
_cell_angle_gamma   89.99680193
_symmetry_Int_Tables_number   1
_chemical_formula_structural   AgSbTe2
_chemical_formula_sum   'Ag54 Sb54 Te108'
_cell_volume   6183.22154061
_cell_formula_units_Z   54
loop_
 _symmetry_equiv_pos_site_id
 _symmetry_equiv_pos_as_xyz
  1  'x, y, z'
loop_
 _atom_site_type_symbol
 _atom_site_label
 _atom_site_symmetry_multiplicity
 _atom_site_fract_x
 _atom_site_fract_y
 _atom_site_fract_z
 _atom_site_occupancy
  Ag  Ag0  1  0.49730247  0.66344076  0.15531103  1
  Ag  Ag1  1  0.01259470  0.50080564  0.16861778  1
  Ag  Ag2  1  0.16819546  0.82449460  -0.00005192  1
  Ag  Ag3  1  0.49613397  0.34680396  0.16122074  1
  Ag  Ag4  1  0.49857020  0.17746990  -0.00027595  1
  Ag  Ag5  1  0.49859773  0.50327133  0.67107761  1
  Ag  Ag6  1  0.65709903  0.50786996  0.82556291  1
  Ag  Ag7  1  0.82903865  0.50444020  0.66453389  1
  Ag  Ag8  1  0.50320573  0.66458530  0.83171718  1
  Ag  Ag9  1  0.33157495  0.50149134  0.15234621  1
  Ag  Ag10  1  0.33687545  0.66482325  -0.00474894  1
  Ag  Ag11  1  0.66377614  0.82085522  0.82163200  1
  Ag  Ag12  1  0.83428677  0.82769303  0.34449081  1
  Ag  Ag13  1  0.66551429  -0.01657599  -0.01070224  1
  Ag  Ag14  1  0.83358243  0.50735954  0.34170422  1
  Ag  Ag15  1  0.83540298  0.33576497  0.50364670  1
  Ag  Ag16  1  0.66774008  0.66663687  0.34462453  1
  Ag  Ag17  1  0.83289405  0.34698791  0.82153467  1
  Ag  Ag18  1  0.17148150  0.66237631  0.15718647  1
  Ag  Ag19  1  0.82209800  0.82448592  0.66493625  1
  Ag  Ag20  1  0.66116038  -0.01197482  0.66652256  1
  Ag  Ag21  1  0.16697261  0.50529373  0.33458379  1
  Ag  Ag22  1  0.83672355  0.16978174  0.33951281  1
  Ag  Ag23  1  0.17862619  0.50496284  0.00004546  1
  Ag  Ag24  1  0.82789693  0.82995906  -0.01001504  1
  Ag  Ag25  1  0.82052531  0.66463967  0.83055300  1
  Ag  Ag26  1  0.33634955  0.16813619  0.50395693  1
  Ag  Ag27  1  0.65770395  0.66725203  -0.01338768  1
  Ag  Ag28  1  0.33170873  -0.00304397  0.34393047  1
  Ag  Ag29  1  0.66609933  0.16656925  0.50156729  1
  Ag  Ag30  1  0.00043597  0.34313554  0.66382801  1
  Ag  Ag31  1  0.33590344  0.50137487  0.50559368  1
  Ag  Ag32  1  0.49448486  0.50186677  -0.00766958  1
  Ag  Ag33  1  0.16731873  0.82566474  0.33722019  1
  Ag  Ag34  1  0.16693026  0.33898597  0.50115722  1
  Ag  Ag35  1  0.33146866  0.34519664  0.66813948  1
  Ag  Ag36  1  -0.00901484  0.66110616  0.66746159  1
  Ag  Ag37  1  0.66945450  0.82741819  0.50783814  1
  Ag  Ag38  1  0.82722645  -0.01155101  0.50045315  1
  Ag  Ag39  1  0.50826983  0.82234269  0.66574452  1
  Ag  Ag40  1  0.33465866  0.34987814  -0.01042099  1
  Ag  Ag41  1  0.33666995  0.82802512  0.50847695  1
  Ag  Ag42  1  0.17952282  0.50131982  0.66467625  1
  Ag  Ag43  1  -0.01407305  0.83129448  0.50124177  1
  Ag  Ag44  1  0.17723644  0.66338557  0.83676850  1
  Ag  Ag45  1  0.33893320  0.82082927  0.82635344  1
  Ag  Ag46  1  0.33758303  0.50268459  0.83700069  1
  Ag  Ag47  1  0.50199684  0.66452823  0.51053034  1
  Ag  Ag48  1  0.33748830  -0.00298434  0.66404622  1
  Ag  Ag49  1  0.33517102  0.17479225  0.82465244  1
  Ag  Ag50  1  0.66748607  0.67012931  0.66932495  1
  Ag  Ag51  1  0.16534139  0.17146148  0.33483925  1
  Ag  Ag52  1  0.66431768  0.50980873  0.50571454  1
  Ag  Ag53  1  0.00185346  0.17591876  0.16891059  1
  Sb  Sb54  1  0.17379049  0.66338564  0.50316764  1
  Sb  Sb55  1  0.49928853  0.16640767  0.33425645  1
  Sb  Sb56  1  0.82690525  0.16337070  0.00220630  1
  Sb  Sb57  1  0.66569305  0.34193569  0.66540666  1
  Sb  Sb58  1  0.00499388  0.33681566  -0.00348515  1
  Sb  Sb59  1  0.00266937  0.00041908  0.33510146  1
  Sb  Sb60  1  0.83068799  0.16887643  0.66089021  1
  Sb  Sb61  1  0.33186402  0.33458082  0.33883773  1
  Sb  Sb62  1  0.00004815  0.16564001  0.49758299  1
  Sb  Sb63  1  0.00141484  0.82859159  0.17038177  1
  Sb  Sb64  1  0.83157251  0.50489785  -0.00480721  1
  Sb  Sb65  1  0.00156978  0.50298934  0.83104396  1
  Sb  Sb66  1  0.16782133  0.82425849  0.66503222  1
  Sb  Sb67  1  0.33515740  0.66711464  0.33139313  1
  Sb  Sb68  1  -0.00231478  0.66603636  0.33913966  1
  Sb  Sb69  1  -0.00574038  -0.00190273  0.00140633  1
  Sb  Sb70  1  0.49803065  0.16938427  0.66961688  1
  Sb  Sb71  1  0.83245255  -0.00101146  0.17227640  1
  Sb  Sb72  1  0.82954243  -0.00585506  0.82739743  1
  Sb  Sb73  1  0.49942044  0.82966892  0.34098507  1
  Sb  Sb74  1  0.49994183  -0.00664258  0.83255789  1
  Sb  Sb75  1  -0.00050227  0.50484181  0.50215662  1
  Sb  Sb76  1  0.00515877  0.17166364  0.83609174  1
  Sb  Sb77  1  0.50097124  0.82498347  -0.00596003  1
  Sb  Sb78  1  0.33120137  0.17400490  0.17018873  1
  Sb  Sb79  1  0.83181867  0.33582972  0.16944685  1
  Sb  Sb80  1  0.49825648  0.50347952  0.33389689  1
  Sb  Sb81  1  0.49863263  0.33972918  0.49763034  1
  Sb  Sb82  1  0.16925720  0.34118431  0.82787650  1
  Sb  Sb83  1  0.17386650  0.16967606  0.00355856  1
  Sb  Sb84  1  0.83341737  0.66549828  0.16262468  1
  Sb  Sb85  1  0.66205550  0.33989779  -0.00247779  1
  Sb  Sb86  1  0.16821769  -0.00341370  0.16919336  1
  Sb  Sb87  1  0.50101750  -0.00463469  0.50298268  1
  Sb  Sb88  1  0.66797567  0.16691417  0.17160304  1
  Sb  Sb89  1  0.66785505  0.82963961  0.16631138  1
  Sb  Sb90  1  0.34015959  0.66460928  0.67328035  1
  Sb  Sb91  1  0.49995830  0.34125899  0.83565937  1
  Sb  Sb92  1  0.66219021  0.16763399  0.82899519  1
  Sb  Sb93  1  0.49924729  -0.00464638  0.16419364  1
  Sb  Sb94  1  0.66499944  -0.00529801  0.33918628  1
  Sb  Sb95  1  -0.00214627  0.82992818  0.82926183  1
  Sb  Sb96  1  0.17156319  -0.00910721  0.83186626  1
  Sb  Sb97  1  0.00421064  0.66561699  -0.00389323  1
  Sb  Sb98  1  0.82559350  0.66524846  0.50812541  1
  Sb  Sb99  1  0.66297903  0.50277550  0.16753169  1
  Sb  Sb100  1  -0.00083674  -0.00303692  0.66273428  1
  Sb  Sb101  1  -0.00001570  0.33508121  0.33852044  1
  Sb  Sb102  1  0.33778061  -0.00535322  -0.00410416  1
  Sb  Sb103  1  0.33191143  0.82715523  0.16563628  1
  Sb  Sb104  1  0.16944590  0.00014189  0.49891401  1
  Sb  Sb105  1  0.66785332  0.34022062  0.33673548  1
  Sb  Sb106  1  0.17104784  0.17451576  0.66188137  1
  Sb  Sb107  1  0.17071839  0.34285225  0.17137746  1
  Te  Te108  1  0.16326409  0.16580491  0.17164430  1
  Te  Te109  1  0.16925515  0.16698702  0.49475513  1
  Te  Te110  1  0.17489917  0.16710493  0.83644940  1
  Te  Te111  1  0.17056261  0.50178924  0.16957759  1
  Te  Te112  1  0.16551061  0.49741293  0.50074566  1
  Te  Te113  1  0.16811007  0.50330889  0.83161802  1
  Te  Te114  1  0.16493287  0.82728640  0.16913065  1
  Te  Te115  1  0.17868245  0.83357976  0.49659266  1
  Te  Te116  1  0.16762737  0.82502688  0.83609033  1
  Te  Te117  1  0.50036151  0.16426465  0.16199186  1
  Te  Te118  1  0.49772662  0.16915829  0.50038471  1
  Te  Te119  1  0.49553233  0.16813821  0.83726004  1
  Te  Te120  1  0.49692391  0.50400203  0.16810746  1
  Te  Te121  1  0.50196544  0.50252735  0.50023557  1
  Te  Te122  1  0.49966568  0.50047028  0.83311184  1
  Te  Te123  1  0.49949955  0.82535532  0.16711252  1
  Te  Te124  1  0.49563138  0.83000673  0.50552385  1
  Te  Te125  1  0.50028123  0.82837263  0.82891197  1
  Te  Te126  1  0.83701304  0.16722846  0.17267179  1
  Te  Te127  1  0.83453932  0.17342119  0.49678337  1
  Te  Te128  1  0.83476157  0.16564602  0.83544326  1
  Te  Te129  1  0.83277174  0.49900401  0.17138662  1
  Te  Te130  1  0.83256615  0.49741304  0.50068068  1
  Te  Te131  1  0.83497951  0.50345117  0.83113340  1
  Te  Te132  1  0.83613200  0.83405255  0.16808990  1
  Te  Te133  1  0.82984071  0.82931118  0.50214115  1
  Te  Te134  1  0.83031534  0.83079088  0.83109244  1
  Te  Te135  1  0.16477722  -0.00602703  0.00034049  1
  Te  Te136  1  0.17192208  -0.00376887  0.33360627  1
  Te  Te137  1  0.16989362  0.00200362  0.66656622  1
  Te  Te138  1  0.17395893  0.33845971  -0.00033938  1
  Te  Te139  1  0.16569312  0.33347916  0.33878387  1
  Te  Te140  1  0.16740608  0.33994613  0.66230359  1
  Te  Te141  1  0.16586360  0.66517141  -0.00056653  1
  Te  Te142  1  0.16522059  0.66652381  0.33455529  1
  Te  Te143  1  0.16003048  0.66041075  0.66878219  1
  Te  Te144  1  0.50588351  0.00077266  -0.00036809  1
  Te  Te145  1  0.49242124  -0.00046045  0.33193631  1
  Te  Te146  1  0.49817153  -0.00060732  0.66700760  1
  Te  Te147  1  0.49580410  0.33782031  0.00150004  1
  Te  Te148  1  0.50021278  0.33243094  0.32343158  1
  Te  Te149  1  0.49379891  0.33996690  0.66565090  1
  Te  Te150  1  0.49881126  0.66481764  -0.00285292  1
  Te  Te151  1  0.50590995  0.66690932  0.33314902  1
  Te  Te152  1  0.50280067  0.66389684  0.66908097  1
  Te  Te153  1  0.82593554  -0.00498701  0.00109153  1
  Te  Te154  1  0.83259251  -0.00449882  0.33979963  1
  Te  Te155  1  0.83176322  -0.00155500  0.66016780  1
  Te  Te156  1  0.83597536  0.33162245  -0.00188806  1
  Te  Te157  1  0.83349872  0.33244914  0.33716150  1
  Te  Te158  1  0.83146612  0.33496792  0.66435361  1
  Te  Te159  1  0.83301133  0.67078515  -0.00488573  1
  Te  Te160  1  0.83143646  0.66634163  0.32940609  1
  Te  Te161  1  0.83123629  0.66621442  0.66876341  1
  Te  Te162  1  0.00061485  0.16722225  0.00634448  1
  Te  Te163  1  0.00029468  0.16710397  0.33030775  1
  Te  Te164  1  0.00164103  0.16995050  0.66838828  1
  Te  Te165  1  0.00051689  0.49883414  0.00723416  1
  Te  Te166  1  0.00005306  0.50008235  0.33096319  1
  Te  Te167  1  -0.00892366  0.50017509  0.66625956  1
  Te  Te168  1  0.00016140  0.83406248  0.00121102  1
  Te  Te169  1  -0.00014751  0.83337204  0.33754974  1
  Te  Te170  1  0.00072496  0.83169783  0.66087576  1
  Te  Te171  1  0.33809458  0.16199959  0.00058684  1
  Te  Te172  1  0.33070945  0.16538187  0.33824240  1
  Te  Te173  1  0.33410286  0.16347456  0.66522140  1
  Te  Te174  1  0.33376045  0.50412739  -0.00243705  1
  Te  Te175  1  0.32774554  0.49990222  0.34614380  1
  Te  Te176  1  0.33545271  0.50198322  0.66494407  1
  Te  Te177  1  0.32917761  0.82848897  -0.00317955  1
  Te  Te178  1  0.33085843  0.83500814  0.33230479  1
  Te  Te179  1  0.33155902  0.83384524  0.66841926  1
  Te  Te180  1  0.65986023  0.17152315  0.00049073  1
  Te  Te181  1  0.67091125  0.16366080  0.33983573  1
  Te  Te182  1  0.66435184  0.16173308  0.66171817  1
  Te  Te183  1  0.66399460  0.50683793  -0.00293703  1
  Te  Te184  1  0.67069071  0.50560188  0.33766731  1
  Te  Te185  1  0.66625569  0.50182733  0.66590713  1
  Te  Te186  1  0.66767603  0.82746380  0.00005254  1
  Te  Te187  1  0.67011589  0.82967786  0.33565880  1
  Te  Te188  1  0.66632270  0.83301558  0.66517202  1
  Te  Te189  1  0.00004878  0.00603200  0.16657974  1
  Te  Te190  1  -0.00709025  -0.00628042  0.49991404  1
  Te  Te191  1  0.00118917  0.00217292  0.83297732  1
  Te  Te192  1  0.00000149  0.33663808  0.16577177  1
  Te  Te193  1  -0.00007704  0.33282071  0.50554401  1
  Te  Te194  1  -0.00678515  0.33352661  0.82719056  1
  Te  Te195  1  0.00459014  0.66063445  0.16713479  1
  Te  Te196  1  0.00629931  0.67186791  0.50557379  1
  Te  Te197  1  0.00021790  0.66847654  0.82751940  1
  Te  Te198  1  0.33405148  0.00126890  0.16937293  1
  Te  Te199  1  0.33483276  0.00210461  0.50266152  1
  Te  Te200  1  0.33328746  0.00312802  0.82704970  1
  Te  Te201  1  0.33651849  0.33900857  0.16455829  1
  Te  Te202  1  0.33215964  0.33587137  0.50453677  1
  Te  Te203  1  0.33396522  0.33497966  0.83085469  1
  Te  Te204  1  0.33250809  0.66198005  0.16539428  1
  Te  Te205  1  0.34065938  0.66586957  0.49614272  1
  Te  Te206  1  0.33422979  0.66382679  0.83508303  1
  Te  Te207  1  0.66628301  0.00081277  0.16024398  1
  Te  Te208  1  0.66738113  -0.00120833  0.50192898  1
  Te  Te209  1  0.66622672  -0.00102024  0.83096361  1
  Te  Te210  1  0.65911754  0.33314521  0.16674717  1
  Te  Te211  1  0.67049718  0.32757647  0.49889148  1
  Te  Te212  1  0.67485236  0.33477282  0.83292526  1
  Te  Te213  1  0.66376750  0.66574919  0.16764342  1
  Te  Te214  1  0.66299621  0.66729418  0.50211976  1
  Te  Te215  1  0.66578635  0.66577825  0.83160007  1
