# generated using pymatgen
data_AgSbTe2
_symmetry_space_group_name_H-M   'P 1'
_cell_length_a   18.32971411
_cell_length_b   18.34074520
_cell_length_c   18.33418851
_cell_angle_alpha   90.00238435
_cell_angle_beta   90.00188757
_cell_angle_gamma   89.99987268
_symmetry_Int_Tables_number   1
_chemical_formula_structural   AgSbTe2
_chemical_formula_sum   'Ag54 Sb54 Te108'
_cell_volume   6163.59877702
_cell_formula_units_Z   54
loop_
 _symmetry_equiv_pos_site_id
 _symmetry_equiv_pos_as_xyz
  1  'x, y, z'
loop_
 _atom_site_type_symbol
 _atom_site_label
 _atom_site_symmetry_multiplicity
 _atom_site_fract_x
 _atom_site_fract_y
 _atom_site_fract_z
 _atom_site_occupancy
  Ag  Ag0  1  0.16376707  0.16615148  0.66456023  1
  Ag  Ag1  1  -0.00221686  0.83363777  0.16453571  1
  Ag  Ag2  1  0.83802740  0.00497536  0.84298374  1
  Ag  Ag3  1  0.83747317  0.00188247  0.16085968  1
  Ag  Ag4  1  0.83555773  0.33395763  0.83130688  1
  Ag  Ag5  1  0.17006490  0.33902723  0.16712152  1
  Ag  Ag6  1  0.66909046  0.34448629  0.66310702  1
  Ag  Ag7  1  0.49974443  0.83036226  0.32943989  1
  Ag  Ag8  1  0.32982446  0.17202904  0.16505273  1
  Ag  Ag9  1  0.50047602  0.50027657  0.00914373  1
  Ag  Ag10  1  0.66579299  0.65988734  0.33103446  1
  Ag  Ag11  1  0.00044871  0.16212636  0.84308187  1
  Ag  Ag12  1  0.50294819  0.66203141  0.83780267  1
  Ag  Ag13  1  0.00349952  0.66939391  0.32487348  1
  Ag  Ag14  1  0.51286277  0.50671978  0.66941500  1
  Ag  Ag15  1  -0.00274599  0.00410801  0.00260381  1
  Ag  Ag16  1  0.16126267  0.33775365  0.49078984  1
  Ag  Ag17  1  0.50148095  0.65670804  0.16781237  1
  Ag  Ag18  1  0.15847886  0.66195184  0.48882696  1
  Ag  Ag19  1  0.67053812  0.50000588  0.82349060  1
  Ag  Ag20  1  0.16003712  0.49797937  0.00543643  1
  Ag  Ag21  1  -0.00077600  -0.00273383  0.67902585  1
  Ag  Ag22  1  0.83498276  0.82786350  0.66852037  1
  Ag  Ag23  1  0.32581018  0.16626056  0.84783140  1
  Ag  Ag24  1  0.66703289  0.65622695  0.66098044  1
  Ag  Ag25  1  0.83449157  0.33974738  0.50666959  1
  Ag  Ag26  1  0.00191358  0.33485555  0.00246556  1
  Ag  Ag27  1  0.16807908  0.16488406  0.33002368  1
  Ag  Ag28  1  0.65816830  0.49943014  0.16796390  1
  Ag  Ag29  1  0.00069931  0.65592340  0.00608861  1
  Ag  Ag30  1  0.32599170  0.00303078  0.32502486  1
  Ag  Ag31  1  0.16401929  0.83335371  0.33289023  1
  Ag  Ag32  1  0.00081466  0.16403998  0.16246509  1
  Ag  Ag33  1  -0.00620279  0.49968493  0.84051518  1
  Ag  Ag34  1  0.00334099  -0.00481190  0.32052044  1
  Ag  Ag35  1  0.66469408  0.17090614  0.16627493  1
  Ag  Ag36  1  0.66514663  0.34491380  0.32974636  1
  Ag  Ag37  1  0.49753899  0.34303769  0.16718939  1
  Ag  Ag38  1  0.67879927  0.00225338  0.00467821  1
  Ag  Ag39  1  0.32989122  0.01041666  0.00600853  1
  Ag  Ag40  1  0.82581371  0.50163520  0.66796265  1
  Ag  Ag41  1  0.66802447  0.50102166  0.51025221  1
  Ag  Ag42  1  0.50653925  0.50239239  0.32132231  1
  Ag  Ag43  1  0.66948962  0.82811034  0.16810899  1
  Ag  Ag44  1  0.83415409  0.65949293  0.50192686  1
  Ag  Ag45  1  0.00091790  0.50583014  0.16081637  1
  Ag  Ag46  1  0.84216167  0.16426677  0.00122394  1
  Ag  Ag47  1  0.15679843  0.83400553  0.66155740  1
  Ag  Ag48  1  0.34420981  0.49253514  0.16439464  1
  Ag  Ag49  1  0.50698564  0.82567065  0.66579321  1
  Ag  Ag50  1  0.49643398  0.17033921  0.32615494  1
  Ag  Ag51  1  0.15603649  0.65878989  0.16999326  1
  Ag  Ag52  1  0.32561533  0.33072877  0.00477614  1
  Ag  Ag53  1  -0.00188136  0.83829998  0.83861644  1
  Sb  Sb54  1  0.83322581  0.33090816  0.16450926  1
  Sb  Sb55  1  0.33613939  0.33344590  0.67330064  1
  Sb  Sb56  1  0.33623738  0.32958747  0.32453855  1
  Sb  Sb57  1  0.83855230  0.16825376  0.67328188  1
  Sb  Sb58  1  0.50039320  0.82852312  0.00340529  1
  Sb  Sb59  1  0.50334164  0.00012832  0.16620643  1
  Sb  Sb60  1  0.50279766  0.66372083  0.49549474  1
  Sb  Sb61  1  -0.00430491  0.33112131  0.67293265  1
  Sb  Sb62  1  0.33373260  0.66961149  0.32976529  1
  Sb  Sb63  1  -0.00460175  0.67022243  0.66757734  1
  Sb  Sb64  1  0.67143990  0.66615523  0.00341292  1
  Sb  Sb65  1  0.32850725  0.83887175  0.83392995  1
  Sb  Sb66  1  0.83481594  0.66849891  0.17011542  1
  Sb  Sb67  1  0.67029099  0.17160867  0.83941678  1
  Sb  Sb68  1  0.16143811  0.17164738  0.00521411  1
  Sb  Sb69  1  0.16369263  0.50033337  0.66949010  1
  Sb  Sb70  1  -0.00007135  0.83178589  0.49770905  1
  Sb  Sb71  1  0.66827739  0.17709627  0.49111683  1
  Sb  Sb72  1  0.49862556  0.17202971  0.00653789  1
  Sb  Sb73  1  0.50412996  -0.00371222  0.83564001  1
  Sb  Sb74  1  0.15774068  0.00207646  0.83468378  1
  Sb  Sb75  1  0.16198149  0.82994315  0.00577059  1
  Sb  Sb76  1  0.66884559  -0.00180525  0.32538972  1
  Sb  Sb77  1  0.67387353  -0.00250406  0.67367873  1
  Sb  Sb78  1  0.50108751  0.33682160  0.49223596  1
  Sb  Sb79  1  0.83455866  0.49477950  -0.00295836  1
  Sb  Sb80  1  0.33046593  0.83622134  0.16783725  1
  Sb  Sb81  1  0.16476213  -0.00081865  0.49694766  1
  Sb  Sb82  1  -0.00226332  0.33516345  0.32522020  1
  Sb  Sb83  1  0.33545425  0.49539728  0.84182882  1
  Sb  Sb84  1  0.33066358  0.16914715  0.49328232  1
  Sb  Sb85  1  0.50140841  -0.00124348  0.49747924  1
  Sb  Sb86  1  0.83658376  0.83884218  -0.00213351  1
  Sb  Sb87  1  0.33855630  0.66624039  0.66726715  1
  Sb  Sb88  1  0.33668262  0.49905738  0.49239385  1
  Sb  Sb89  1  0.82602359  0.50008861  0.33540068  1
  Sb  Sb90  1  0.16058795  0.33128556  0.83811572  1
  Sb  Sb91  1  -0.00481510  0.50083354  0.49760431  1
  Sb  Sb92  1  0.66917498  0.33279586  0.00419018  1
  Sb  Sb93  1  0.16023291  0.00267511  0.16774987  1
  Sb  Sb94  1  0.16913447  0.50038141  0.32461562  1
  Sb  Sb95  1  0.83586124  0.16685535  0.32590047  1
  Sb  Sb96  1  0.67149062  0.82851331  0.83681055  1
  Sb  Sb97  1  0.32695142  0.00122540  0.66820838  1
  Sb  Sb98  1  0.49758735  0.16808243  0.66470257  1
  Sb  Sb99  1  0.00061415  0.16903488  0.49696207  1
  Sb  Sb100  1  0.16647556  0.66706968  0.83524594  1
  Sb  Sb101  1  0.50509542  0.33951127  0.83928349  1
  Sb  Sb102  1  0.83180368  0.66428518  0.82972818  1
  Sb  Sb103  1  0.83548279  -0.00006127  0.49986217  1
  Sb  Sb104  1  0.33031286  0.66357591  0.00370104  1
  Sb  Sb105  1  0.33217135  0.83176797  0.49876994  1
  Sb  Sb106  1  0.66825999  0.82569211  0.49580997  1
  Sb  Sb107  1  0.83612947  0.83107157  0.33442474  1
  Te  Te108  1  0.16589432  0.16888495  0.16942811  1
  Te  Te109  1  0.16670963  0.17194739  0.49786784  1
  Te  Te110  1  0.16438630  0.16668193  0.82819771  1
  Te  Te111  1  0.16009977  0.49921948  0.16503548  1
  Te  Te112  1  0.16708762  0.49946151  0.50048140  1
  Te  Te113  1  0.16384090  0.49967765  0.83945613  1
  Te  Te114  1  0.16309547  0.82598872  0.17174625  1
  Te  Te115  1  0.16622734  0.82790727  0.49854054  1
  Te  Te116  1  0.16067678  0.83310806  0.82610820  1
  Te  Te117  1  0.50001136  0.16612918  0.16944608  1
  Te  Te118  1  0.49950992  0.16719223  0.48977441  1
  Te  Te119  1  0.49713517  0.16706039  0.83208725  1
  Te  Te120  1  0.50010775  0.49969377  0.16592567  1
  Te  Te121  1  0.50385282  0.49963688  0.50719583  1
  Te  Te122  1  0.50204374  0.50273792  0.82881791  1
  Te  Te123  1  0.50075638  0.83062408  0.16968189  1
  Te  Te124  1  0.50028230  0.83180727  0.49954263  1
  Te  Te125  1  0.50038011  0.82767895  0.83041776  1
  Te  Te126  1  0.83570816  0.16369778  0.16251566  1
  Te  Te127  1  0.83298282  0.17459263  0.50112228  1
  Te  Te128  1  0.83645150  0.16674114  0.83837291  1
  Te  Te129  1  0.84079401  0.49974059  0.16575598  1
  Te  Te130  1  0.83021356  0.49921876  0.50310386  1
  Te  Te131  1  0.83271984  0.49818255  0.83113739  1
  Te  Te132  1  0.83522426  0.83792489  0.16733944  1
  Te  Te133  1  0.83258175  0.82988853  0.50810471  1
  Te  Te134  1  0.83747162  0.83524613  0.82856271  1
  Te  Te135  1  0.16944095  -0.00220912  0.00022606  1
  Te  Te136  1  0.16435693  -0.00123104  0.33374947  1
  Te  Te137  1  0.16140394  -0.00216613  0.66429884  1
  Te  Te138  1  0.16495354  0.33705209  0.00439140  1
  Te  Te139  1  0.16586440  0.33134291  0.33067069  1
  Te  Te140  1  0.16705368  0.33046273  0.66554264  1
  Te  Te141  1  0.16249002  0.66173081  0.00479309  1
  Te  Te142  1  0.16680961  0.66693070  0.33040126  1
  Te  Te143  1  0.16780344  0.67058408  0.66642199  1
  Te  Te144  1  0.49562726  -0.00179662  -0.00109059  1
  Te  Te145  1  0.50012880  -0.00509252  0.33353614  1
  Te  Te146  1  0.49987673  -0.00454586  0.66592559  1
  Te  Te147  1  0.49954234  0.33910511  0.00621281  1
  Te  Te148  1  0.50295684  0.33285219  0.32838848  1
  Te  Te149  1  0.50518337  0.33387649  0.66601585  1
  Te  Te150  1  0.50047799  0.66202027  0.00268313  1
  Te  Te151  1  0.50087709  0.66827265  0.33060324  1
  Te  Te152  1  0.50385594  0.66729229  0.66246913  1
  Te  Te153  1  0.83621487  0.00235229  0.00078110  1
  Te  Te154  1  0.84123564  -0.00058469  0.33123043  1
  Te  Te155  1  0.83916680  -0.00200614  0.66755680  1
  Te  Te156  1  0.83723795  0.32669569  -0.00382553  1
  Te  Te157  1  0.82741809  0.33222059  0.33910163  1
  Te  Te158  1  0.83003000  0.33472641  0.66794465  1
  Te  Te159  1  0.84122993  0.66754409  -0.00131611  1
  Te  Te160  1  0.83101179  0.66690147  0.34040860  1
  Te  Te161  1  0.82905626  0.66535327  0.66400374  1
  Te  Te162  1  0.00211916  0.16560248  0.00048853  1
  Te  Te163  1  0.00411341  0.16539051  0.32881097  1
  Te  Te164  1  0.00418703  0.16274424  0.66736125  1
  Te  Te165  1  -0.00275052  0.49788344  -0.00028697  1
  Te  Te166  1  0.00009776  0.50561202  0.32911417  1
  Te  Te167  1  -0.00307843  0.50065160  0.67191810  1
  Te  Te168  1  0.00123655  0.83951428  0.00129339  1
  Te  Te169  1  0.00202116  0.83182270  0.33048105  1
  Te  Te170  1  -0.00133704  0.83427248  0.66650868  1
  Te  Te171  1  0.33305524  0.16879062  0.00389808  1
  Te  Te172  1  0.33147331  0.16390990  0.32724893  1
  Te  Te173  1  0.32757360  0.16633824  0.66659513  1
  Te  Te174  1  0.33424899  0.49694294  0.00441063  1
  Te  Te175  1  0.34308734  0.49961389  0.32645839  1
  Te  Te176  1  0.33591895  0.49911683  0.66814758  1
  Te  Te177  1  0.33139727  0.84243288  -0.00084627  1
  Te  Te178  1  0.33228603  0.84050693  0.33292208  1
  Te  Te179  1  0.33557809  0.83482907  0.66718863  1
  Te  Te180  1  0.66665186  0.16381242  0.00537742  1
  Te  Te181  1  0.66396603  0.16548370  0.32595153  1
  Te  Te182  1  0.66512770  0.16784402  0.66590573  1
  Te  Te183  1  0.66470263  0.50065868  0.00852853  1
  Te  Te184  1  0.66455204  0.50182680  0.32558275  1
  Te  Te185  1  0.66902577  0.50048826  0.66674352  1
  Te  Te186  1  0.66657616  0.83690710  0.00693674  1
  Te  Te187  1  0.66447895  0.83060306  0.32854099  1
  Te  Te188  1  0.66679742  0.83183030  0.66741104  1
  Te  Te189  1  -0.00054550  -0.00004252  0.16392716  1
  Te  Te190  1  -0.00091514  0.00100365  0.49913562  1
  Te  Te191  1  -0.00290874  0.00017551  0.83615187  1
  Te  Te192  1  0.00064513  0.32895584  0.16328428  1
  Te  Te193  1  0.00031155  0.33573346  0.49914920  1
  Te  Te194  1  -0.00412374  0.33358687  0.83810709  1
  Te  Te195  1  -0.00308156  0.66902108  0.16655666  1
  Te  Te196  1  -0.00106482  0.66535416  0.49566600  1
  Te  Te197  1  0.00024144  0.66639230  0.83746596  1
  Te  Te198  1  0.33326534  0.00342235  0.16673920  1
  Te  Te199  1  0.33324819  0.00057740  0.49333299  1
  Te  Te200  1  0.33510014  0.00670246  0.83642509  1
  Te  Te201  1  0.33255635  0.33259413  0.16419280  1
  Te  Te202  1  0.32413520  0.33497880  0.50256428  1
  Te  Te203  1  0.33428264  0.32712058  0.84135481  1
  Te  Te204  1  0.33826170  0.66471063  0.16523053  1
  Te  Te205  1  0.32067382  0.66451499  0.49972835  1
  Te  Te206  1  0.34151191  0.66793797  0.83529780  1
  Te  Te207  1  0.67080610  0.00075982  0.16321919  1
  Te  Te208  1  0.66935207  0.00091325  0.50154436  1
  Te  Te209  1  0.67371900  -0.00005747  0.84170597  1
  Te  Te210  1  0.66634206  0.33276378  0.16861849  1
  Te  Te211  1  0.66771789  0.34013809  0.49787729  1
  Te  Te212  1  0.67146645  0.33824786  0.83208082  1
  Te  Te213  1  0.66798601  0.66776239  0.16843045  1
  Te  Te214  1  0.66909322  0.66164662  0.49796211  1
  Te  Te215  1  0.66348444  0.66160875  0.83400546  1
