# generated using pymatgen
data_AgSbTe2
_symmetry_space_group_name_H-M   'P 1'
_cell_length_a   18.32233562
_cell_length_b   18.32719098
_cell_length_c   18.33129434
_cell_angle_alpha   90.00099327
_cell_angle_beta   90.00016818
_cell_angle_gamma   90.00182498
_symmetry_Int_Tables_number   1
_chemical_formula_structural   AgSbTe2
_chemical_formula_sum   'Ag54 Sb54 Te108'
_cell_volume   6155.59261820
_cell_formula_units_Z   54
loop_
 _symmetry_equiv_pos_site_id
 _symmetry_equiv_pos_as_xyz
  1  'x, y, z'
loop_
 _atom_site_type_symbol
 _atom_site_label
 _atom_site_symmetry_multiplicity
 _atom_site_fract_x
 _atom_site_fract_y
 _atom_site_fract_z
 _atom_site_occupancy
  Ag  Ag0  1  0.67066284  0.50503247  0.48791943  1
  Ag  Ag1  1  0.83254822  0.34682136  0.83349321  1
  Ag  Ag2  1  0.00073032  0.82322206  0.50309773  1
  Ag  Ag3  1  0.51096781  0.48989283  0.33166188  1
  Ag  Ag4  1  0.49681407  0.17633862  0.32749639  1
  Ag  Ag5  1  0.00680866  -0.00607863  0.66603667  1
  Ag  Ag6  1  0.83612380  0.50202280  0.66616592  1
  Ag  Ag7  1  0.67079174  0.50116931  0.83406408  1
  Ag  Ag8  1  0.33544781  0.33508789  0.00053678  1
  Ag  Ag9  1  0.33423425  0.17514345  0.49715962  1
  Ag  Ag10  1  0.33356636  0.83292205  0.50136875  1
  Ag  Ag11  1  0.82353391  0.50404874  0.32964019  1
  Ag  Ag12  1  0.67135092  0.66308591  0.32552823  1
  Ag  Ag13  1  0.34077506  0.66533594  -0.00197576  1
  Ag  Ag14  1  0.49829434  -0.00013785  0.83525268  1
  Ag  Ag15  1  0.33294942  0.82866194  0.83126518  1
  Ag  Ag16  1  0.66805257  0.82387609  0.49036036  1
  Ag  Ag17  1  -0.00292783  0.50572924  0.49803303  1
  Ag  Ag18  1  0.82475220  0.66309816  0.84060682  1
  Ag  Ag19  1  0.17990759  0.16915179  0.33554010  1
  Ag  Ag20  1  0.51013667  0.66529919  0.16503386  1
  Ag  Ag21  1  0.66212402  0.82261489  0.17302427  1
  Ag  Ag22  1  0.49261587  0.33293948  0.48858535  1
  Ag  Ag23  1  0.82731426  0.82056780  0.33049075  1
  Ag  Ag24  1  0.16478655  0.49663788  0.66345257  1
  Ag  Ag25  1  0.00774875  0.16857104  0.16909247  1
  Ag  Ag26  1  0.00321933  0.66621744  0.65879539  1
  Ag  Ag27  1  0.17457165  0.33769030  0.50360139  1
  Ag  Ag28  1  0.83009820  0.50495808  0.00027915  1
  Ag  Ag29  1  0.33698276  0.16426752  0.17369941  1
  Ag  Ag30  1  0.66134253  0.17390112  0.83311873  1
  Ag  Ag31  1  0.33103438  0.32665131  0.66249003  1
  Ag  Ag32  1  0.00110274  0.83061375  0.82488055  1
  Ag  Ag33  1  0.33020665  0.66782048  0.66759000  1
  Ag  Ag34  1  0.82401628  0.66416057  0.16605395  1
  Ag  Ag35  1  0.66460283  -0.00491306  0.33218000  1
  Ag  Ag36  1  0.49865628  0.16999813  0.00549448  1
  Ag  Ag37  1  0.65290494  0.34859536  0.33277516  1
  Ag  Ag38  1  0.34067119  0.83613402  0.16830362  1
  Ag  Ag39  1  0.49801721  0.33102381  0.17654135  1
  Ag  Ag40  1  0.17480091  0.17337194  0.66170959  1
  Ag  Ag41  1  0.33156201  0.00717426  0.66612433  1
  Ag  Ag42  1  0.34202345  0.32917605  0.33985207  1
  Ag  Ag43  1  0.66502715  0.66403278  0.01192624  1
  Ag  Ag44  1  0.16415729  0.66156491  0.50189862  1
  Ag  Ag45  1  0.49136861  0.16773615  0.66603579  1
  Ag  Ag46  1  0.17739009  0.00404721  0.16916787  1
  Ag  Ag47  1  -0.00930903  0.50289887  0.17566287  1
  Ag  Ag48  1  0.49712856  0.00355887  0.16703333  1
  Ag  Ag49  1  0.17042865  0.33288890  0.82270324  1
  Ag  Ag50  1  -0.00920329  0.66415378  0.33853822  1
  Ag  Ag51  1  0.66919155  0.51126565  0.17690788  1
  Ag  Ag52  1  0.50322879  0.66821678  0.83923263  1
  Ag  Ag53  1  0.83149526  0.82183402  0.00451238  1
  Sb  Sb54  1  0.50524749  0.49970846  0.00500743  1
  Sb  Sb55  1  0.66154801  0.34017142  0.00305158  1
  Sb  Sb56  1  -0.00313795  -0.00423935  0.33637841  1
  Sb  Sb57  1  0.49631997  0.83548040  0.66754328  1
  Sb  Sb58  1  0.50635033  0.83248627  0.33121787  1
  Sb  Sb59  1  0.17490969  0.16900638  0.00129068  1
  Sb  Sb60  1  0.82872366  0.17160216  0.33053548  1
  Sb  Sb61  1  -0.00243463  0.83038366  0.16914596  1
  Sb  Sb62  1  0.17243695  0.00335016  0.83222724  1
  Sb  Sb63  1  -0.00014410  -0.00177660  -0.00204792  1
  Sb  Sb64  1  0.66264971  0.00017235  0.66344764  1
  Sb  Sb65  1  0.66274388  -0.00558910  0.00390373  1
  Sb  Sb66  1  0.83391911  0.17301573  0.66828974  1
  Sb  Sb67  1  0.49747404  0.00407401  0.49737173  1
  Sb  Sb68  1  0.16989928  0.00103133  0.49871079  1
  Sb  Sb69  1  0.33774114  0.50300675  0.83202490  1
  Sb  Sb70  1  0.49967270  0.33379049  0.83373018  1
  Sb  Sb71  1  0.00007133  0.33882047  0.33299257  1
  Sb  Sb72  1  0.83841746  0.66474327  0.49462884  1
  Sb  Sb73  1  0.82780254  0.34269046  0.16418131  1
  Sb  Sb74  1  0.16836035  0.66230160  0.82644471  1
  Sb  Sb75  1  0.82643464  0.17049642  0.00119769  1
  Sb  Sb76  1  0.65902660  0.16705736  0.16577837  1
  Sb  Sb77  1  0.66115022  0.33547689  0.66386517  1
  Sb  Sb78  1  0.66788911  0.66473632  0.66405311  1
  Sb  Sb79  1  0.33313826  0.49683531  0.50115387  1
  Sb  Sb80  1  0.00963278  0.16834163  0.49727069  1
  Sb  Sb81  1  -0.00658236  0.50522435  0.82829240  1
  Sb  Sb82  1  0.83662919  0.82416204  0.66567675  1
  Sb  Sb83  1  0.33784700  0.00502315  0.33387537  1
  Sb  Sb84  1  0.33774974  0.49996141  0.16736496  1
  Sb  Sb85  1  0.33690958  0.66403605  0.33414499  1
  Sb  Sb86  1  0.33951073  0.16565634  0.82969455  1
  Sb  Sb87  1  0.49929853  0.49715189  0.66321873  1
  Sb  Sb88  1  0.66543984  0.82877078  0.83487840  1
  Sb  Sb89  1  -0.00558560  0.66542119  -0.00027640  1
  Sb  Sb90  1  -0.00180189  0.16409337  0.83434902  1
  Sb  Sb91  1  0.83326622  -0.00364618  0.50029683  1
  Sb  Sb92  1  0.17407522  0.32988055  0.17072579  1
  Sb  Sb93  1  0.33720476  -0.00110020  -0.00033259  1
  Sb  Sb94  1  0.49723268  0.66253094  0.49787412  1
  Sb  Sb95  1  0.50221175  0.83105216  0.00287225  1
  Sb  Sb96  1  0.16584471  0.83194850  0.00027399  1
  Sb  Sb97  1  0.00767979  0.33786066  0.66598589  1
  Sb  Sb98  1  0.00317069  0.33507137  0.00109881  1
  Sb  Sb99  1  0.16841956  0.66840944  0.17127416  1
  Sb  Sb100  1  0.16668371  0.49591563  0.33881662  1
  Sb  Sb101  1  0.82812823  -0.00510204  0.83220291  1
  Sb  Sb102  1  0.16450014  0.83596698  0.33488318  1
  Sb  Sb103  1  0.82957307  -0.00659213  0.16804242  1
  Sb  Sb104  1  0.16797418  0.83166969  0.66493605  1
  Sb  Sb105  1  0.83157141  0.33915198  0.50246743  1
  Sb  Sb106  1  0.16246916  0.49995643  -0.00416565  1
  Sb  Sb107  1  0.65789261  0.17052678  0.49984249  1
  Te  Te108  1  0.17062147  0.16478822  0.16789627  1
  Te  Te109  1  0.17280153  0.16854667  0.49943943  1
  Te  Te110  1  0.16570697  0.17177545  0.82988581  1
  Te  Te111  1  0.15966679  0.49919702  0.16563646  1
  Te  Te112  1  0.16529955  0.49958351  0.50361138  1
  Te  Te113  1  0.16393749  0.49407978  0.82755695  1
  Te  Te114  1  0.17073071  0.83877278  0.16703540  1
  Te  Te115  1  0.16674903  0.82984638  0.49882194  1
  Te  Te116  1  0.16805850  0.83424336  0.83413420  1
  Te  Te117  1  0.49825236  0.16716277  0.16725573  1
  Te  Te118  1  0.49462734  0.17074925  0.50287858  1
  Te  Te119  1  0.50255420  0.16626548  0.83090658  1
  Te  Te120  1  0.50372806  0.50245697  0.16930017  1
  Te  Te121  1  0.50518971  0.49539736  0.49620864  1
  Te  Te122  1  0.50606274  0.50589826  0.83297001  1
  Te  Te123  1  0.50052771  0.83245272  0.16603916  1
  Te  Te124  1  0.49739594  0.83237777  0.49908171  1
  Te  Te125  1  0.49613894  0.83242967  0.83506436  1
  Te  Te126  1  0.83920147  0.16703919  0.16504787  1
  Te  Te127  1  0.83489961  0.16783730  0.50026825  1
  Te  Te128  1  0.82667084  0.16672727  0.83473124  1
  Te  Te129  1  0.83103510  0.50236860  0.16852736  1
  Te  Te130  1  0.83252654  0.49941356  0.50233453  1
  Te  Te131  1  0.83380646  0.50349426  0.83309698  1
  Te  Te132  1  0.83137039  0.82859489  0.16823378  1
  Te  Te133  1  0.83245840  0.83276795  0.49615881  1
  Te  Te134  1  0.83505251  0.82801255  0.83449552  1
  Te  Te135  1  0.16712973  0.00065918  0.00742322  1
  Te  Te136  1  0.16489401  0.00723667  0.32814355  1
  Te  Te137  1  0.16891011  0.00637879  0.66748657  1
  Te  Te138  1  0.17430666  0.33387661  -0.00421351  1
  Te  Te139  1  0.16726410  0.32814413  0.33818335  1
  Te  Te140  1  0.16939130  0.33401185  0.66445602  1
  Te  Te141  1  0.17585778  0.66568397  0.00054128  1
  Te  Te142  1  0.16562553  0.66674005  0.33975259  1
  Te  Te143  1  0.16656617  0.66407080  0.66268214  1
  Te  Te144  1  0.50013867  0.00644883  0.00034694  1
  Te  Te145  1  0.50353901  0.00302539  0.32927439  1
  Te  Te146  1  0.49557222  0.00534581  0.66898366  1
  Te  Te147  1  0.49489233  0.33122216  0.00089798  1
  Te  Te148  1  0.49787733  0.33232491  0.33257547  1
  Te  Te149  1  0.49342876  0.33006584  0.66577845  1
  Te  Te150  1  0.50090540  0.66520584  0.00084595  1
  Te  Te151  1  0.50286475  0.66187782  0.32966304  1
  Te  Te152  1  0.49396860  0.66584731  0.66997695  1
  Te  Te153  1  0.83177094  -0.00483064  -0.00063903  1
  Te  Te154  1  0.82720409  -0.00163946  0.33307182  1
  Te  Te155  1  0.83845722  0.00164264  0.66790435  1
  Te  Te156  1  0.83270236  0.33821502  -0.00549224  1
  Te  Te157  1  0.82954929  0.34047771  0.33334189  1
  Te  Te158  1  0.83336058  0.33923149  0.67228893  1
  Te  Te159  1  0.83336487  0.66520998  0.00121755  1
  Te  Te160  1  0.83271936  0.66424015  0.33189246  1
  Te  Te161  1  0.83627699  0.66102341  0.67339537  1
  Te  Te162  1  -0.00022252  0.16636322  0.00612872  1
  Te  Te163  1  -0.00226791  0.16544878  0.32887129  1
  Te  Te164  1  0.00357903  0.16284064  0.66653692  1
  Te  Te165  1  -0.00687664  0.50006897  0.00646701  1
  Te  Te166  1  0.00061482  0.50393240  0.33599976  1
  Te  Te167  1  0.00059937  0.50354968  0.66321652  1
  Te  Te168  1  -0.00568185  0.83331601  -0.00304245  1
  Te  Te169  1  -0.00464613  0.82895648  0.33802430  1
  Te  Te170  1  0.00099347  0.83090943  0.66426362  1
  Te  Te171  1  0.33891286  0.16898126  0.00292306  1
  Te  Te172  1  0.33606694  0.16644204  0.33414080  1
  Te  Te173  1  0.33348982  0.16643153  0.66811938  1
  Te  Te174  1  0.33210833  0.50079833  -0.00001483  1
  Te  Te175  1  0.33558083  0.49348444  0.33321286  1
  Te  Te176  1  0.33059090  0.50384520  0.66678858  1
  Te  Te177  1  0.33361623  0.82883406  0.00035848  1
  Te  Te178  1  0.33341187  0.83353409  0.33300190  1
  Te  Te179  1  0.33271149  0.82921974  0.66645896  1
  Te  Te180  1  0.66053057  0.16706012  -0.00545841  1
  Te  Te181  1  0.66192592  0.16264094  0.33422546  1
  Te  Te182  1  0.66461270  0.16657478  0.67118008  1
  Te  Te183  1  0.67029362  0.50448558  -0.00550552  1
  Te  Te184  1  0.66711662  0.50309479  0.33231626  1
  Te  Te185  1  0.67045805  0.49955917  0.67236325  1
  Te  Te186  1  0.67125366  0.82692114  0.00286902  1
  Te  Te187  1  0.66730889  0.83031855  0.33315666  1
  Te  Te188  1  0.66773142  0.83445089  0.65684727  1
  Te  Te189  1  0.00024768  0.00222365  0.16684412  1
  Te  Te190  1  0.00131712  -0.00320064  0.50554779  1
  Te  Te191  1  0.00052568  -0.00509360  0.82806191  1
  Te  Te192  1  0.00079857  0.33275943  0.16641391  1
  Te  Te193  1  0.00420012  0.33746710  0.49954197  1
  Te  Te194  1  -0.00313273  0.33210125  0.83390696  1
  Te  Te195  1  -0.00007670  0.66361885  0.17090357  1
  Te  Te196  1  0.00098155  0.66622423  0.50004456  1
  Te  Te197  1  0.00084491  0.67160460  0.83229703  1
  Te  Te198  1  0.33677116  -0.00076622  0.16699675  1
  Te  Te199  1  0.33287199  -0.00717568  0.50548035  1
  Te  Te200  1  0.33749679  -0.00544280  0.83014971  1
  Te  Te201  1  0.33738164  0.33255852  0.16591341  1
  Te  Te202  1  0.33330471  0.33377257  0.50127785  1
  Te  Te203  1  0.33148457  0.33421978  0.83212348  1
  Te  Te204  1  0.33523384  0.67028140  0.16497774  1
  Te  Te205  1  0.32975804  0.66891262  0.50248475  1
  Te  Te206  1  0.33449121  0.66905712  0.83269298  1
  Te  Te207  1  0.66159851  -0.00115029  0.17065520  1
  Te  Te208  1  0.66576607  -0.00251599  0.49494801  1
  Te  Te209  1  0.65950894  -0.00095313  0.83248761  1
  Te  Te210  1  0.66080253  0.33453003  0.17054559  1
  Te  Te211  1  0.66416683  0.33778673  0.49545934  1
  Te  Te212  1  0.66933021  0.33482647  0.83394909  1
  Te  Te213  1  0.66723589  0.66701715  0.16624803  1
  Te  Te214  1  0.66463797  0.66529726  0.49747466  1
  Te  Te215  1  0.66504966  0.66569328  0.83098118  1
