# generated using pymatgen
data_AgSbTe2
_symmetry_space_group_name_H-M   'P 1'
_cell_length_a   18.32703214
_cell_length_b   18.32608108
_cell_length_c   18.32280554
_cell_angle_alpha   89.99700745
_cell_angle_beta   90.00082593
_cell_angle_gamma   89.99938215
_symmetry_Int_Tables_number   1
_chemical_formula_structural   AgSbTe2
_chemical_formula_sum   'Ag54 Sb54 Te108'
_cell_volume   6153.94651088
_cell_formula_units_Z   54
loop_
 _symmetry_equiv_pos_site_id
 _symmetry_equiv_pos_as_xyz
  1  'x, y, z'
loop_
 _atom_site_type_symbol
 _atom_site_label
 _atom_site_symmetry_multiplicity
 _atom_site_fract_x
 _atom_site_fract_y
 _atom_site_fract_z
 _atom_site_occupancy
  Ag  Ag0  1  0.32947732  0.32851028  -0.00684566  1
  Ag  Ag1  1  0.17113937  0.82915022  0.33394124  1
  Ag  Ag2  1  0.49507916  0.00152448  0.83813854  1
  Ag  Ag3  1  0.66471220  0.34059194  -0.00672413  1
  Ag  Ag4  1  0.33605874  0.49312019  0.83668696  1
  Ag  Ag5  1  0.50132738  0.50091928  -0.00359781  1
  Ag  Ag6  1  0.33050852  0.83613748  0.83657254  1
  Ag  Ag7  1  0.33176341  0.66118450  0.33971762  1
  Ag  Ag8  1  0.16553378  0.33989817  0.50439140  1
  Ag  Ag9  1  0.83480781  0.00301078  0.49675390  1
  Ag  Ag10  1  0.16525735  0.83256025  -0.00780819  1
  Ag  Ag11  1  0.49728589  0.83168426  -0.00260809  1
  Ag  Ag12  1  0.33166510  0.16811768  0.50177008  1
  Ag  Ag13  1  0.83949087  0.83190168  0.00022390  1
  Ag  Ag14  1  0.66320855  0.16904842  0.50332375  1
  Ag  Ag15  1  0.49505462  0.33638800  0.83627704  1
  Ag  Ag16  1  0.00953173  0.33028356  -0.00789418  1
  Ag  Ag17  1  0.33221132  -0.00342966  0.67954717  1
  Ag  Ag18  1  0.66675257  0.66013650  -0.00133698  1
  Ag  Ag19  1  0.48999964  0.66426964  0.49751901  1
  Ag  Ag20  1  0.16744987  0.17352181  -0.00134417  1
  Ag  Ag21  1  0.00192582  0.66979785  -0.00428401  1
  Ag  Ag22  1  0.33017038  0.33876841  0.33160129  1
  Ag  Ag23  1  0.00733248  0.49811550  0.50408184  1
  Ag  Ag24  1  0.32723218  0.66576203  0.66442588  1
  Ag  Ag25  1  0.01012017  0.16627668  0.15510031  1
  Ag  Ag26  1  0.17067836  0.17695260  0.32906442  1
  Ag  Ag27  1  0.32720851  0.16592005  0.15588326  1
  Ag  Ag28  1  0.16924237  0.82302873  0.67711966  1
  Ag  Ag29  1  0.83976617  0.33212428  0.83555013  1
  Ag  Ag30  1  0.66195552  0.83215917  0.83862994  1
  Ag  Ag31  1  0.00976850  0.17296870  0.83867278  1
  Ag  Ag32  1  0.66257994  0.17462793  0.83559313  1
  Ag  Ag33  1  0.65607424  0.49055928  0.83943281  1
  Ag  Ag34  1  0.00926293  0.65969796  0.67150485  1
  Ag  Ag35  1  0.16862734  0.33435832  0.83730740  1
  Ag  Ag36  1  0.83481759  0.83323548  0.32447990  1
  Ag  Ag37  1  0.17311490  0.49848810  0.34136751  1
  Ag  Ag38  1  0.49371909  0.82809640  0.32822322  1
  Ag  Ag39  1  0.84110209  0.33022898  0.50337543  1
  Ag  Ag40  1  0.00930210  0.83621149  0.83813661  1
  Ag  Ag41  1  0.49054739  0.50445528  0.33285070  1
  Ag  Ag42  1  0.17068807  0.65950742  0.50351403  1
  Ag  Ag43  1  0.50088952  -0.00120567  0.15620778  1
  Ag  Ag44  1  0.33151308  0.17150047  0.83630144  1
  Ag  Ag45  1  0.66418188  0.50094119  0.15486622  1
  Ag  Ag46  1  0.33024731  0.00721845  -0.00412882  1
  Ag  Ag47  1  0.83058939  -0.00467734  0.16453790  1
  Ag  Ag48  1  0.83428749  0.67460292  0.16244791  1
  Ag  Ag49  1  0.00769025  0.00016977  -0.00252127  1
  Ag  Ag50  1  0.17097059  0.49136944  -0.00728907  1
  Ag  Ag51  1  0.48933693  0.50175285  0.67977615  1
  Ag  Ag52  1  0.00486170  0.33834218  0.67499847  1
  Ag  Ag53  1  0.16965138  0.50443550  0.66557517  1
  Sb  Sb54  1  -0.00091786  0.49663191  0.16436623  1
  Sb  Sb55  1  0.16801863  0.33193482  0.16174187  1
  Sb  Sb56  1  0.66339716  0.00009827  -0.00189524  1
  Sb  Sb57  1  0.16404963  0.66697764  0.16783374  1
  Sb  Sb58  1  0.66001602  0.00077198  0.66923926  1
  Sb  Sb59  1  0.66351806  0.66487420  0.67361485  1
  Sb  Sb60  1  0.49903011  -0.00308565  0.50172263  1
  Sb  Sb61  1  0.00664582  0.66770423  0.33238952  1
  Sb  Sb62  1  0.66779052  0.82922810  0.15887566  1
  Sb  Sb63  1  0.66626613  0.49567611  0.50331586  1
  Sb  Sb64  1  0.16930479  0.17120090  0.67036110  1
  Sb  Sb65  1  0.83501998  0.50330290  0.33291303  1
  Sb  Sb66  1  0.16755019  0.00211768  0.16173137  1
  Sb  Sb67  1  0.83064337  0.00281878  0.83565203  1
  Sb  Sb68  1  0.66160102  0.66669752  0.32821407  1
  Sb  Sb69  1  0.83137064  0.50331643  -0.00149990  1
  Sb  Sb70  1  0.33191208  0.83350525  0.50274793  1
  Sb  Sb71  1  0.49144105  0.16631428  -0.00307557  1
  Sb  Sb72  1  0.83720520  0.66660041  0.49564461  1
  Sb  Sb73  1  0.83442240  0.16693901  0.66799565  1
  Sb  Sb74  1  0.66480706  0.16980477  0.16002477  1
  Sb  Sb75  1  0.00345485  0.17213492  0.50314487  1
  Sb  Sb76  1  0.00077740  -0.00119939  0.32637184  1
  Sb  Sb77  1  0.83409123  0.33172971  0.16216474  1
  Sb  Sb78  1  0.49737095  0.33174267  0.15837017  1
  Sb  Sb79  1  0.33205421  -0.00015248  0.32932501  1
  Sb  Sb80  1  0.66623752  0.83579551  0.50350857  1
  Sb  Sb81  1  0.83955244  0.16402154  0.33418166  1
  Sb  Sb82  1  0.33402108  0.83778471  0.16065915  1
  Sb  Sb83  1  0.67042940  0.33470520  0.67529416  1
  Sb  Sb84  1  0.49829904  0.66369528  0.83273285  1
  Sb  Sb85  1  0.84253485  0.16293502  -0.00092551  1
  Sb  Sb86  1  0.17567885  0.00256851  0.83562981  1
  Sb  Sb87  1  0.33088648  0.66555540  -0.00266984  1
  Sb  Sb88  1  0.50117882  0.66788440  0.16792575  1
  Sb  Sb89  1  0.83475516  0.66345452  0.83919137  1
  Sb  Sb90  1  0.16446827  0.00165842  0.50089989  1
  Sb  Sb91  1  -0.00125887  0.83766747  0.15678557  1
  Sb  Sb92  1  0.32735787  0.33760495  0.67215103  1
  Sb  Sb93  1  0.00800815  0.33335033  0.33359509  1
  Sb  Sb94  1  0.83979744  0.83306163  0.67251238  1
  Sb  Sb95  1  0.49520302  0.33832692  0.50425669  1
  Sb  Sb96  1  0.33601649  0.49618867  0.16383223  1
  Sb  Sb97  1  0.83818850  0.49866846  0.66896778  1
  Sb  Sb98  1  0.00564556  0.49610730  0.83226611  1
  Sb  Sb99  1  0.66645538  -0.00014262  0.33331908  1
  Sb  Sb100  1  0.49150779  0.16814007  0.33326372  1
  Sb  Sb101  1  0.00681908  0.00031650  0.67489243  1
  Sb  Sb102  1  0.32752051  0.49829969  0.50427228  1
  Sb  Sb103  1  0.49623930  0.17249795  0.67130600  1
  Sb  Sb104  1  0.00224576  0.82971830  0.50497704  1
  Sb  Sb105  1  0.66111593  0.33448834  0.33161451  1
  Sb  Sb106  1  0.16719982  0.66241476  0.82822458  1
  Sb  Sb107  1  0.49221603  0.82781077  0.67337893  1
  Te  Te108  1  0.16781178  0.16600649  0.16631974  1
  Te  Te109  1  0.17043242  0.16910701  0.49919767  1
  Te  Te110  1  0.16888130  0.17038407  0.83611310  1
  Te  Te111  1  0.16641794  0.50023805  0.16638794  1
  Te  Te112  1  0.16692697  0.49987982  0.50071297  1
  Te  Te113  1  0.17059847  0.49626203  0.83417553  1
  Te  Te114  1  0.16595961  0.83481561  0.17169032  1
  Te  Te115  1  0.16630842  0.83101857  0.49389564  1
  Te  Te116  1  0.16817755  0.83406893  0.83415519  1
  Te  Te117  1  0.49655926  0.15929177  0.16780753  1
  Te  Te118  1  0.49991240  0.16673062  0.50161760  1
  Te  Te119  1  0.49795198  0.16741841  0.83297135  1
  Te  Te120  1  0.50351436  0.50008694  0.16534526  1
  Te  Te121  1  0.50094327  0.50425770  0.49276487  1
  Te  Te122  1  0.49673472  0.49949288  0.83692397  1
  Te  Te123  1  0.50095461  0.83765031  0.16559061  1
  Te  Te124  1  0.50132543  0.82811797  0.49596529  1
  Te  Te125  1  0.49735180  0.83284421  0.83662416  1
  Te  Te126  1  0.83391488  0.16037886  0.16820447  1
  Te  Te127  1  0.83252657  0.16866299  0.49966463  1
  Te  Te128  1  0.82811354  0.17123693  0.83357955  1
  Te  Te129  1  0.82788383  0.50215697  0.16789338  1
  Te  Te130  1  0.83808746  0.49481490  0.50006831  1
  Te  Te131  1  0.82437642  0.49229246  0.83247782  1
  Te  Te132  1  0.83328146  0.83487641  0.16419246  1
  Te  Te133  1  0.83323349  0.83657253  0.49866223  1
  Te  Te134  1  0.83197774  0.83434086  0.83930564  1
  Te  Te135  1  0.16733196  -0.00459000  0.00047952  1
  Te  Te136  1  0.16649525  -0.00633544  0.33270112  1
  Te  Te137  1  0.17313215  -0.00886541  0.66494119  1
  Te  Te138  1  0.16878480  0.33327836  -0.00178531  1
  Te  Te139  1  0.17054591  0.33495533  0.33527823  1
  Te  Te140  1  0.16340376  0.33662837  0.66485447  1
  Te  Te141  1  0.16333457  0.67111057  0.00128546  1
  Te  Te142  1  0.17008376  0.66465431  0.33626450  1
  Te  Te143  1  0.16586079  0.66495766  0.66447687  1
  Te  Te144  1  0.49746947  -0.00181967  -0.00204708  1
  Te  Te145  1  0.49960181  -0.00552818  0.33263453  1
  Te  Te146  1  0.49227324  -0.00208407  0.67048269  1
  Te  Te147  1  0.49679260  0.33639503  -0.00418005  1
  Te  Te148  1  0.49300764  0.33770946  0.33418818  1
  Te  Te149  1  0.49975983  0.34195066  0.67278607  1
  Te  Te150  1  0.50143348  0.66650040  0.00139894  1
  Te  Te151  1  0.49663947  0.66682862  0.33455715  1
  Te  Te152  1  0.49671735  0.66121504  0.66000556  1
  Te  Te153  1  0.83416310  -0.00604053  0.00161649  1
  Te  Te154  1  0.83369243  -0.00510229  0.33254353  1
  Te  Te155  1  0.83405638  -0.00104483  0.66025019  1
  Te  Te156  1  0.83245771  0.33296558  -0.00314151  1
  Te  Te157  1  0.83315081  0.33322740  0.33754729  1
  Te  Te158  1  0.84081161  0.33340455  0.66560441  1
  Te  Te159  1  0.83390483  0.67018383  0.00238345  1
  Te  Te160  1  0.83377202  0.67189895  0.32725849  1
  Te  Te161  1  0.84102836  0.66708401  0.66483734  1
  Te  Te162  1  0.00384823  0.16749904  -0.00330998  1
  Te  Te163  1  0.00931427  0.16624664  0.33099925  1
  Te  Te164  1  0.00173015  0.16993881  0.67531940  1
  Te  Te165  1  0.00473972  0.49993071  0.00033530  1
  Te  Te166  1  0.00496141  0.50007054  0.33589516  1
  Te  Te167  1  0.00445753  0.49960459  0.66626042  1
  Te  Te168  1  0.00217842  0.83248554  -0.00287501  1
  Te  Te169  1  -0.00081546  0.83283057  0.33415636  1
  Te  Te170  1  0.00687098  0.83166185  0.67400645  1
  Te  Te171  1  0.32984497  0.16715295  -0.00245993  1
  Te  Te172  1  0.32857104  0.16699904  0.33568019  1
  Te  Te173  1  0.33227799  0.16229847  0.67002648  1
  Te  Te174  1  0.33128008  0.49960117  -0.00199739  1
  Te  Te175  1  0.33232690  0.49901163  0.33020593  1
  Te  Te176  1  0.33081407  0.50323355  0.66978647  1
  Te  Te177  1  0.33325871  0.83178925  -0.00357419  1
  Te  Te178  1  0.33468860  0.83223370  0.33263925  1
  Te  Te179  1  0.32947687  0.83065788  0.66963085  1
  Te  Te180  1  0.66751959  0.17224969  -0.00373139  1
  Te  Te181  1  0.66588262  0.16845821  0.33584589  1
  Te  Te182  1  0.66568540  0.16730620  0.66754539  1
  Te  Te183  1  0.66730506  0.50121935  -0.00295517  1
  Te  Te184  1  0.66341850  0.49969140  0.33357795  1
  Te  Te185  1  0.66062740  0.50133814  0.67241943  1
  Te  Te186  1  0.66151671  0.83334237  -0.00344412  1
  Te  Te187  1  0.66727200  0.83239101  0.33422714  1
  Te  Te188  1  0.66652820  0.83266706  0.67567311  1
  Te  Te189  1  -0.00452554  0.00580247  0.15951033  1
  Te  Te190  1  -0.00515602  0.00230501  0.50178506  1
  Te  Te191  1  -0.00312238  0.00087265  0.83835442  1
  Te  Te192  1  -0.00225922  0.32705395  0.15926002  1
  Te  Te193  1  0.00226541  0.33610470  0.50025476  1
  Te  Te194  1  0.00100294  0.33476314  0.83476795  1
  Te  Te195  1  -0.00557924  0.66541082  0.16079315  1
  Te  Te196  1  0.00408954  0.66172925  0.50315090  1
  Te  Te197  1  -0.00097951  0.66883055  0.83470231  1
  Te  Te198  1  0.33778597  0.00503678  0.15979634  1
  Te  Te199  1  0.33353915  0.00656903  0.50150788  1
  Te  Te200  1  0.33602297  -0.00097407  0.83656775  1
  Te  Te201  1  0.33425864  0.32626604  0.16794089  1
  Te  Te202  1  0.33010204  0.32884610  0.49928808  1
  Te  Te203  1  0.33186075  0.33336030  0.83302003  1
  Te  Te204  1  0.33272918  0.66753906  0.17549176  1
  Te  Te205  1  0.33128237  0.66748729  0.50041424  1
  Te  Te206  1  0.33388971  0.66996623  0.82892778  1
  Te  Te207  1  0.66666319  0.00131649  0.16601160  1
  Te  Te208  1  0.67076940  0.00640542  0.50196077  1
  Te  Te209  1  0.66008165  0.00152271  0.83231663  1
  Te  Te210  1  0.66617635  0.33871942  0.16078407  1
  Te  Te211  1  0.66790561  0.32824476  0.50081127  1
  Te  Te212  1  0.66379133  0.33260967  0.83541037  1
  Te  Te213  1  0.67068736  0.66191939  0.16090690  1
  Te  Te214  1  0.66669680  0.66621978  0.50162430  1
  Te  Te215  1  0.66764760  0.67103887  0.83878792  1
