# generated using pymatgen
data_AgSbTe2
_symmetry_space_group_name_H-M   'P 1'
_cell_length_a   18.32304546
_cell_length_b   18.32547747
_cell_length_c   18.31878391
_cell_angle_alpha   90.00071216
_cell_angle_beta   89.99717913
_cell_angle_gamma   90.00104781
_symmetry_Int_Tables_number   1
_chemical_formula_structural   AgSbTe2
_chemical_formula_sum   'Ag54 Sb54 Te108'
_cell_volume   6151.05481474
_cell_formula_units_Z   54
loop_
 _symmetry_equiv_pos_site_id
 _symmetry_equiv_pos_as_xyz
  1  'x, y, z'
loop_
 _atom_site_type_symbol
 _atom_site_label
 _atom_site_symmetry_multiplicity
 _atom_site_fract_x
 _atom_site_fract_y
 _atom_site_fract_z
 _atom_site_occupancy
  Ag  Ag0  1  0.49816126  0.82906019  0.00931356  1
  Ag  Ag1  1  0.66478430  0.16515770  0.50350693  1
  Ag  Ag2  1  0.83485514  0.84494053  0.66697399  1
  Ag  Ag3  1  0.49441525  0.82859830  0.32714512  1
  Ag  Ag4  1  0.49915906  0.66192548  0.83034649  1
  Ag  Ag5  1  0.83074139  0.16313727  0.67047755  1
  Ag  Ag6  1  0.49780735  0.49553667  0.66872510  1
  Ag  Ag7  1  0.66036444  0.50227966  0.83410069  1
  Ag  Ag8  1  0.66175870  0.83492394  0.16345052  1
  Ag  Ag9  1  0.66722893  0.50033102  0.16346812  1
  Ag  Ag10  1  -0.00426234  0.50545675  0.16403952  1
  Ag  Ag11  1  0.65984928  0.33378849  0.33181053  1
  Ag  Ag12  1  0.17391896  0.82756491  0.32630863  1
  Ag  Ag13  1  0.01320884  0.82733156  0.16977927  1
  Ag  Ag14  1  0.33605163  0.34071334  0.34015248  1
  Ag  Ag15  1  0.33041512  0.32933516  0.66328490  1
  Ag  Ag16  1  0.49326644  0.50348800  0.33517853  1
  Ag  Ag17  1  0.82436038  -0.00022738  0.50974902  1
  Ag  Ag18  1  0.50422004  0.00008582  0.50177949  1
  Ag  Ag19  1  0.66539415  0.83515557  0.83622261  1
  Ag  Ag20  1  0.33148579  0.17246510  0.82681286  1
  Ag  Ag21  1  0.83662445  0.66476358  0.16664663  1
  Ag  Ag22  1  0.66595134  -0.00192587  -0.00365087  1
  Ag  Ag23  1  0.17365828  0.33539008  0.50248236  1
  Ag  Ag24  1  0.32797913  0.83203964  0.16785486  1
  Ag  Ag25  1  0.17311128  -0.01291677  0.16875582  1
  Ag  Ag26  1  0.66770612  0.00194903  0.66940969  1
  Ag  Ag27  1  0.49501883  0.66561128  0.50014014  1
  Ag  Ag28  1  0.33576196  0.66917314  0.00669007  1
  Ag  Ag29  1  -0.00221027  0.49499964  0.82988018  1
  Ag  Ag30  1  0.83034961  0.16620464  -0.01196006  1
  Ag  Ag31  1  0.16968954  0.16998778  0.34141621  1
  Ag  Ag32  1  0.16706350  0.67226618  0.17543183  1
  Ag  Ag33  1  0.49483824  0.33482979  0.50134884  1
  Ag  Ag34  1  0.33785733  0.00924898  0.66837565  1
  Ag  Ag35  1  0.83005034  0.00943239  0.82692085  1
  Ag  Ag36  1  0.17418658  0.17023996  0.66309654  1
  Ag  Ag37  1  0.49721152  0.16828267  0.66505978  1
  Ag  Ag38  1  0.17399331  0.66590261  0.49549333  1
  Ag  Ag39  1  0.83245392  0.49421402  0.67188143  1
  Ag  Ag40  1  0.34202059  0.49760309  0.82981740  1
  Ag  Ag41  1  0.17626699  0.50574109  0.33812612  1
  Ag  Ag42  1  0.66723368  0.16517915  0.16983039  1
  Ag  Ag43  1  0.83353304  0.32838602  0.82956206  1
  Ag  Ag44  1  0.50155182  -0.00770576  0.16963582  1
  Ag  Ag45  1  -0.00627154  0.17307327  0.82793968  1
  Ag  Ag46  1  0.33246227  0.66281774  0.32941772  1
  Ag  Ag47  1  0.16532523  0.83446126  0.66296399  1
  Ag  Ag48  1  0.00487044  0.83408013  0.49971546  1
  Ag  Ag49  1  0.83045243  0.33822669  0.16360752  1
  Ag  Ag50  1  0.00414446  0.33373541  0.66766365  1
  Ag  Ag51  1  0.50086048  0.50719490  -0.00498303  1
  Ag  Ag52  1  0.16994975  0.49244857  0.66257404  1
  Ag  Ag53  1  0.17435663  0.83217133  0.01422029  1
  Sb  Sb54  1  0.50435486  0.33361676  0.17450183  1
  Sb  Sb55  1  0.33335428  0.66411811  0.66474278  1
  Sb  Sb56  1  0.17139782  0.50523601  0.00023245  1
  Sb  Sb57  1  0.01047828  0.66598966  0.33189764  1
  Sb  Sb58  1  0.16377122  0.16063530  -0.00277531  1
  Sb  Sb59  1  -0.00483518  -0.00118330  0.00033953  1
  Sb  Sb60  1  0.33377487  0.00027284  0.33660938  1
  Sb  Sb61  1  0.49664027  0.16807993  0.33940356  1
  Sb  Sb62  1  0.83281636  0.83275049  0.33390018  1
  Sb  Sb63  1  0.33489009  0.33879891  -0.00351103  1
  Sb  Sb64  1  0.00215956  0.66163467  0.66699429  1
  Sb  Sb65  1  0.83156721  0.49975549  0.33297816  1
  Sb  Sb66  1  0.00212450  -0.00095116  0.33365840  1
  Sb  Sb67  1  0.83179599  0.33038920  0.50412832  1
  Sb  Sb68  1  0.66536880  0.66911635  0.66700931  1
  Sb  Sb69  1  0.33742583  0.16770631  0.50643881  1
  Sb  Sb70  1  0.66618963  0.83913631  0.49994291  1
  Sb  Sb71  1  0.82865522  0.83633568  -0.00273036  1
  Sb  Sb72  1  0.16428705  -0.00043638  0.83369168  1
  Sb  Sb73  1  0.00370869  0.50284288  0.50140959  1
  Sb  Sb74  1  0.33599547  0.50470404  0.16706099  1
  Sb  Sb75  1  -0.00233310  0.16340921  0.50663358  1
  Sb  Sb76  1  0.66506841  0.32933929  0.66361284  1
  Sb  Sb77  1  0.16278058  0.33809689  0.17739552  1
  Sb  Sb78  1  0.33681767  0.16179671  0.16402877  1
  Sb  Sb79  1  -0.00451011  0.83225751  0.83232416  1
  Sb  Sb80  1  0.33881648  -0.00500109  -0.00375582  1
  Sb  Sb81  1  0.66384470  0.00297312  0.33363025  1
  Sb  Sb82  1  0.33441191  0.49787322  0.50481850  1
  Sb  Sb83  1  0.49957415  0.83411278  0.66481376  1
  Sb  Sb84  1  0.00216088  0.33487699  0.33830939  1
  Sb  Sb85  1  0.65710821  0.66208056  0.33011458  1
  Sb  Sb86  1  0.83312380  0.67069908  0.49787858  1
  Sb  Sb87  1  0.16345281  0.33407039  0.82378215  1
  Sb  Sb88  1  0.00602961  0.66711436  0.00257280  1
  Sb  Sb89  1  0.49636759  0.67219998  0.16694974  1
  Sb  Sb90  1  0.66033681  0.67086349  0.00139845  1
  Sb  Sb91  1  0.50517652  -0.00319717  0.83018681  1
  Sb  Sb92  1  0.33040150  0.83264072  0.49546548  1
  Sb  Sb93  1  0.66849237  0.16634911  0.83011497  1
  Sb  Sb94  1  0.66707916  0.33079574  0.00305417  1
  Sb  Sb95  1  0.16895259  -0.00093463  0.49920162  1
  Sb  Sb96  1  0.66284863  0.49498642  0.50127333  1
  Sb  Sb97  1  0.82723893  0.49692706  -0.00288058  1
  Sb  Sb98  1  0.17226397  0.66530813  0.83130427  1
  Sb  Sb99  1  0.83386489  0.16764110  0.33627177  1
  Sb  Sb100  1  0.82791897  0.66403837  0.83622059  1
  Sb  Sb101  1  0.33815100  0.83101882  0.83558590  1
  Sb  Sb102  1  -0.00375218  0.16682520  0.16320213  1
  Sb  Sb103  1  0.50400994  0.33846037  0.82635739  1
  Sb  Sb104  1  -0.00101049  0.33446996  -0.00603279  1
  Sb  Sb105  1  0.82879613  -0.00071853  0.16585698  1
  Sb  Sb106  1  0.50492770  0.16500217  -0.00426357  1
  Sb  Sb107  1  -0.00238611  0.00431080  0.66712845  1
  Te  Te108  1  0.16629626  0.16605253  0.16673580  1
  Te  Te109  1  0.16518663  0.16721907  0.50168885  1
  Te  Te110  1  0.16666617  0.16630545  0.82925578  1
  Te  Te111  1  0.16448964  0.50459153  0.16856607  1
  Te  Te112  1  0.16600599  0.50229145  0.50053835  1
  Te  Te113  1  0.16381624  0.50075796  0.83099156  1
  Te  Te114  1  0.16930952  0.83133550  0.17010550  1
  Te  Te115  1  0.16460777  0.83393740  0.50353578  1
  Te  Te116  1  0.16570474  0.83243304  0.82326956  1
  Te  Te117  1  0.50523199  0.16146419  0.16600454  1
  Te  Te118  1  0.50381668  0.16567965  0.50381934  1
  Te  Te119  1  0.49711191  0.16775833  0.82742324  1
  Te  Te120  1  0.50408662  0.50020706  0.17120916  1
  Te  Te121  1  0.50046592  0.50037834  0.49842223  1
  Te  Te122  1  0.50150509  0.50014402  0.83056352  1
  Te  Te123  1  0.50304830  0.83321740  0.16750045  1
  Te  Te124  1  0.49971059  0.83192284  0.49592963  1
  Te  Te125  1  0.50466624  0.82847769  0.83379315  1
  Te  Te126  1  0.82956126  0.16856653  0.16863756  1
  Te  Te127  1  0.82929579  0.16284435  0.50378374  1
  Te  Te128  1  0.83067955  0.16834666  0.83102533  1
  Te  Te129  1  0.83152942  0.49886261  0.16579820  1
  Te  Te130  1  0.83401592  0.50157988  0.50775482  1
  Te  Te131  1  0.83370416  0.49945561  0.83171728  1
  Te  Te132  1  0.82725054  0.83078893  0.16588856  1
  Te  Te133  1  0.83647263  0.83554788  0.50441261  1
  Te  Te134  1  0.82755572  0.83171210  0.82906944  1
  Te  Te135  1  0.16753814  -0.00678952  0.00467250  1
  Te  Te136  1  0.16875044  -0.00349748  0.33013781  1
  Te  Te137  1  0.16926186  0.00337826  0.66654657  1
  Te  Te138  1  0.16761915  0.33211718  0.00325888  1
  Te  Te139  1  0.16946249  0.33640327  0.34125785  1
  Te  Te140  1  0.16937299  0.33310270  0.66317155  1
  Te  Te141  1  0.17364745  0.67246991  0.00103417  1
  Te  Te142  1  0.17209614  0.66697476  0.33521619  1
  Te  Te143  1  0.16768810  0.66709589  0.66178360  1
  Te  Te144  1  0.50546085  -0.00350005  0.00190527  1
  Te  Te145  1  0.49888050  -0.00269929  0.33475996  1
  Te  Te146  1  0.50129258  0.00120748  0.66505609  1
  Te  Te147  1  0.49945487  0.33901597  0.00135768  1
  Te  Te148  1  0.49781386  0.33484517  0.33957107  1
  Te  Te149  1  0.49839683  0.33419037  0.66162030  1
  Te  Te150  1  0.49584233  0.66711066  -0.00034552  1
  Te  Te151  1  0.49323435  0.66556945  0.33531984  1
  Te  Te152  1  0.49887472  0.66290222  0.66402032  1
  Te  Te153  1  0.82712460  0.00414872  -0.00243807  1
  Te  Te154  1  0.83341699  0.00048437  0.34232674  1
  Te  Te155  1  0.83346950  0.00135209  0.66736606  1
  Te  Te156  1  0.83316452  0.32805834  0.00023424  1
  Te  Te157  1  0.82999199  0.33336141  0.33139976  1
  Te  Te158  1  0.83179494  0.33383784  0.66800343  1
  Te  Te159  1  0.83346348  0.66695288  0.00693551  1
  Te  Te160  1  0.83164523  0.66607050  0.32813629  1
  Te  Te161  1  0.83361044  0.66364897  0.66651645  1
  Te  Te162  1  -0.00609371  0.16676687  -0.00759764  1
  Te  Te163  1  0.00972088  0.16748151  0.33290745  1
  Te  Te164  1  -0.00166312  0.17132294  0.66979829  1
  Te  Te165  1  0.00085961  0.49978026  0.00222455  1
  Te  Te166  1  0.00215997  0.49876280  0.32722905  1
  Te  Te167  1  0.00296351  0.49562258  0.66783145  1
  Te  Te168  1  0.00482572  0.83300983  0.00298237  1
  Te  Te169  1  0.00235330  0.83289478  0.33069361  1
  Te  Te170  1  -0.00060991  0.83300533  0.66734978  1
  Te  Te171  1  0.33370053  0.16735488  -0.00918554  1
  Te  Te172  1  0.32820070  0.17009027  0.33097482  1
  Te  Te173  1  0.33393323  0.16841566  0.66862776  1
  Te  Te174  1  0.33923982  0.50544994  -0.00500268  1
  Te  Te175  1  0.33369625  0.49907270  0.33088921  1
  Te  Te176  1  0.33313905  0.49861727  0.67081723  1
  Te  Te177  1  0.33601399  0.83040443  0.00223122  1
  Te  Te178  1  0.33415850  0.83461215  0.32962356  1
  Te  Te179  1  0.32951326  0.83493915  0.66780848  1
  Te  Te180  1  0.66976172  0.16204817  0.00435867  1
  Te  Te181  1  0.66557900  0.17185802  0.33073125  1
  Te  Te182  1  0.66672996  0.16331193  0.66485754  1
  Te  Te183  1  0.66058947  0.50009700  0.00072729  1
  Te  Te184  1  0.66396692  0.49514839  0.33023018  1
  Te  Te185  1  0.66460711  0.50013538  0.66939227  1
  Te  Te186  1  0.66384661  0.83714939  -0.00045174  1
  Te  Te187  1  0.66341656  0.83231518  0.32880989  1
  Te  Te188  1  0.66908245  0.83847126  0.66845030  1
  Te  Te189  1  0.00240112  -0.00347683  0.16634179  1
  Te  Te190  1  -0.00423406  -0.00606170  0.49999987  1
  Te  Te191  1  -0.00793637  0.00321007  0.83456152  1
  Te  Te192  1  -0.00615700  0.33648039  0.16747902  1
  Te  Te193  1  0.00282963  0.33257918  0.50626818  1
  Te  Te194  1  -0.00402822  0.33435330  0.82843764  1
  Te  Te195  1  0.00103696  0.66685843  0.16696311  1
  Te  Te196  1  0.00244961  0.67431242  0.49977429  1
  Te  Te197  1  -0.00080133  0.65841969  0.83533839  1
  Te  Te198  1  0.33588840  -0.00448321  0.16506607  1
  Te  Te199  1  0.34054042  0.00004849  0.50762572  1
  Te  Te200  1  0.33354504  0.00280617  0.82803766  1
  Te  Te201  1  0.33316507  0.33168600  0.17053793  1
  Te  Te202  1  0.33358836  0.33242090  0.50035356  1
  Te  Te203  1  0.33343369  0.33570487  0.82872485  1
  Te  Te204  1  0.32990135  0.66992572  0.16760987  1
  Te  Te205  1  0.33399465  0.66647538  0.49494550  1
  Te  Te206  1  0.33911611  0.66287200  0.83504857  1
  Te  Te207  1  0.66462485  -0.00115593  0.16702939  1
  Te  Te208  1  0.66446984  0.00369065  0.50135425  1
  Te  Te209  1  0.66993583  -0.00075245  0.83142497  1
  Te  Te210  1  0.66934761  0.33449305  0.16921613  1
  Te  Te211  1  0.66392003  0.32781619  0.49453027  1
  Te  Te212  1  0.67256243  0.33987289  0.83444480  1
  Te  Te213  1  0.67048083  0.66426305  0.16672857  1
  Te  Te214  1  0.66037043  0.66756841  0.49810173  1
  Te  Te215  1  0.66052257  0.66485677  0.83401553  1
