# generated using pymatgen
data_AgSbTe2
_symmetry_space_group_name_H-M   'P 1'
_cell_length_a   18.34451456
_cell_length_b   18.34463619
_cell_length_c   18.35084744
_cell_angle_alpha   90.00564183
_cell_angle_beta   89.99977937
_cell_angle_gamma   90.00527424
_symmetry_Int_Tables_number   1
_chemical_formula_structural   AgSbTe2
_chemical_formula_sum   'Ag54 Sb54 Te108'
_cell_volume   6175.49035523
_cell_formula_units_Z   54
loop_
 _symmetry_equiv_pos_site_id
 _symmetry_equiv_pos_as_xyz
  1  'x, y, z'
loop_
 _atom_site_type_symbol
 _atom_site_label
 _atom_site_symmetry_multiplicity
 _atom_site_fract_x
 _atom_site_fract_y
 _atom_site_fract_z
 _atom_site_occupancy
  Ag  Ag0  1  0.34707094  0.82761053  0.83060990  1
  Ag  Ag1  1  0.33906116  0.50456333  0.82623898  1
  Ag  Ag2  1  0.16257999  0.83603919  0.66578845  1
  Ag  Ag3  1  0.83261386  0.83043098  -0.01196389  1
  Ag  Ag4  1  0.49991371  0.33543951  0.82036779  1
  Ag  Ag5  1  -0.00577196  0.49549252  0.82477091  1
  Ag  Ag6  1  0.16672921  0.32303704  0.17008156  1
  Ag  Ag7  1  -0.00163535  0.00154845  -0.00689806  1
  Ag  Ag8  1  -0.00327140  0.50082926  0.50781111  1
  Ag  Ag9  1  0.83615400  0.82891823  0.34766533  1
  Ag  Ag10  1  0.17090510  0.33278421  0.50282613  1
  Ag  Ag11  1  -0.00004761  0.16537110  0.82931371  1
  Ag  Ag12  1  0.66744096  0.33363188  0.34663550  1
  Ag  Ag13  1  0.00083423  0.00077372  0.66775812  1
  Ag  Ag14  1  0.67338979  0.49595607  0.50900536  1
  Ag  Ag15  1  0.83295403  -0.00994268  0.83409253  1
  Ag  Ag16  1  0.50294562  -0.01221091  0.83397620  1
  Ag  Ag17  1  0.84001156  0.50902419  -0.01389348  1
  Ag  Ag18  1  0.66108897  0.82879713  0.82797923  1
  Ag  Ag19  1  -0.00370337  0.83385090  0.50355798  1
  Ag  Ag20  1  0.32382482  0.00120555  0.33497503  1
  Ag  Ag21  1  0.16485402  0.00403801  0.16676986  1
  Ag  Ag22  1  0.16498810  0.16911120  -0.00253748  1
  Ag  Ag23  1  0.16740713  0.17064879  0.66245415  1
  Ag  Ag24  1  0.32243679  0.17459758  0.50473419  1
  Ag  Ag25  1  0.49433454  -0.00046511  0.15616441  1
  Ag  Ag26  1  0.84079606  0.16013905  -0.00467412  1
  Ag  Ag27  1  0.16078643  0.49541574  -0.01114285  1
  Ag  Ag28  1  0.49665905  0.17713726  0.66941657  1
  Ag  Ag29  1  0.49839629  0.16140600  -0.01253103  1
  Ag  Ag30  1  0.83657712  0.66581334  0.50559040  1
  Ag  Ag31  1  0.50258024  0.48852369  0.66911055  1
  Ag  Ag32  1  0.83358957  0.50899507  0.35071777  1
  Ag  Ag33  1  0.67709229  0.83067458  0.51114012  1
  Ag  Ag34  1  0.66931501  0.50407155  0.82698915  1
  Ag  Ag35  1  0.82989309  0.50458077  0.66802594  1
  Ag  Ag36  1  0.00201325  -0.00138093  0.33719335  1
  Ag  Ag37  1  0.32255708  0.49398365  0.50926926  1
  Ag  Ag38  1  0.33173529  0.66689253  -0.00624723  1
  Ag  Ag39  1  0.16795310  0.49595748  0.66626642  1
  Ag  Ag40  1  0.50597599  0.84077860  -0.01303256  1
  Ag  Ag41  1  0.65781579  0.33774516  0.66390965  1
  Ag  Ag42  1  0.66671926  0.17980414  0.50292107  1
  Ag  Ag43  1  0.00404795  0.16495892  0.50853478  1
  Ag  Ag44  1  0.50706534  0.83613134  0.67418533  1
  Ag  Ag45  1  -0.00346568  0.83792300  0.17020245  1
  Ag  Ag46  1  0.83033557  0.82648869  0.66900128  1
  Ag  Ag47  1  0.83476068  0.66867510  0.15843224  1
  Ag  Ag48  1  0.15778655  0.65855326  0.50248258  1
  Ag  Ag49  1  0.16566305  0.16486785  0.34618797  1
  Ag  Ag50  1  0.50517233  0.67371097  0.83127694  1
  Ag  Ag51  1  0.50024472  0.33143460  0.50948155  1
  Ag  Ag52  1  0.83088597  0.67101047  0.83022892  1
  Ag  Ag53  1  0.34346675  0.33617449  0.66420997  1
  Sb  Sb54  1  0.16096890  0.66974027  0.16828728  1
  Sb  Sb55  1  0.16056195  0.84018905  0.34030497  1
  Sb  Sb56  1  0.83783619  -0.00652683  0.50771631  1
  Sb  Sb57  1  -0.00088170  0.50527737  0.16756214  1
  Sb  Sb58  1  0.50640227  0.83653658  0.33672346  1
  Sb  Sb59  1  0.16447461  0.00425588  0.49846321  1
  Sb  Sb60  1  0.00028546  0.67055974  -0.00314873  1
  Sb  Sb61  1  0.67008151  0.66232288  0.33869787  1
  Sb  Sb62  1  0.33090331  0.49993836  0.16332832  1
  Sb  Sb63  1  -0.00434046  0.83674325  0.82771238  1
  Sb  Sb64  1  0.33036769  0.16549301  0.17032894  1
  Sb  Sb65  1  0.33229986  -0.00127420  -0.00056995  1
  Sb  Sb66  1  0.82869511  0.33731795  0.83119713  1
  Sb  Sb67  1  0.16434991  0.66358339  0.82714257  1
  Sb  Sb68  1  0.33454498  0.32993551  0.34399282  1
  Sb  Sb69  1  -0.00191721  0.32841619  0.33761308  1
  Sb  Sb70  1  0.83822537  -0.00629278  0.16063645  1
  Sb  Sb71  1  0.66977947  -0.00015811  0.66776238  1
  Sb  Sb72  1  0.66812535  0.66672033  -0.00468650  1
  Sb  Sb73  1  0.16393819  0.83395398  -0.00510079  1
  Sb  Sb74  1  0.67334581  0.83464769  0.16437582  1
  Sb  Sb75  1  0.49482270  0.32875497  0.16623930  1
  Sb  Sb76  1  0.17082449  0.33519895  0.82722389  1
  Sb  Sb77  1  0.66858225  0.65958852  0.66828285  1
  Sb  Sb78  1  0.33044763  0.00335977  0.66481311  1
  Sb  Sb79  1  0.50218706  0.66253846  0.51063216  1
  Sb  Sb80  1  -0.00115101  0.66848146  0.66651673  1
  Sb  Sb81  1  0.00115153  0.32928969  -0.00187699  1
  Sb  Sb82  1  0.49990796  0.00489705  0.50667784  1
  Sb  Sb83  1  0.33367050  0.65745223  0.67183894  1
  Sb  Sb84  1  0.16533783  0.00129627  0.83499048  1
  Sb  Sb85  1  0.33230451  0.67048940  0.33346684  1
  Sb  Sb86  1  0.33314676  0.16688974  0.82795599  1
  Sb  Sb87  1  -0.00265084  0.67162522  0.33737002  1
  Sb  Sb88  1  0.49614548  0.16475285  0.34079147  1
  Sb  Sb89  1  0.00268713  0.16029257  0.16428922  1
  Sb  Sb90  1  0.83456710  0.16711260  0.66914470  1
  Sb  Sb91  1  0.66956833  -0.00005545  -0.00235524  1
  Sb  Sb92  1  0.00064266  0.33286001  0.66532056  1
  Sb  Sb93  1  0.50443124  0.67230094  0.15435084  1
  Sb  Sb94  1  0.67126162  0.00213558  0.33640214  1
  Sb  Sb95  1  0.50434990  0.49772649  0.34633236  1
  Sb  Sb96  1  0.16125544  0.49315951  0.34132325  1
  Sb  Sb97  1  0.83084568  0.33970319  0.50152149  1
  Sb  Sb98  1  0.33186783  0.33570453  -0.00808129  1
  Sb  Sb99  1  0.66614499  0.16636973  0.16922233  1
  Sb  Sb100  1  0.66689030  0.16714651  0.82803415  1
  Sb  Sb101  1  0.83905703  0.33780063  0.16661554  1
  Sb  Sb102  1  0.66925237  0.49899363  0.16702951  1
  Sb  Sb103  1  0.32889989  0.83585950  0.16153611  1
  Sb  Sb104  1  0.83869642  0.16393477  0.33353990  1
  Sb  Sb105  1  0.66593595  0.33412520  -0.00469284  1
  Sb  Sb106  1  0.33033163  0.83199095  0.50864754  1
  Sb  Sb107  1  0.49987232  0.50124796  -0.01346483  1
  Te  Te108  1  0.16653230  0.16468013  0.15802583  1
  Te  Te109  1  0.16426955  0.16751630  0.50259215  1
  Te  Te110  1  0.16409374  0.16782819  0.83535450  1
  Te  Te111  1  0.16621026  0.50086730  0.16621654  1
  Te  Te112  1  0.16380605  0.49808903  0.50175142  1
  Te  Te113  1  0.16484745  0.49914233  0.83059519  1
  Te  Te114  1  0.16052391  0.83742577  0.16772660  1
  Te  Te115  1  0.16355393  0.82974790  0.50561976  1
  Te  Te116  1  0.16533929  0.83240864  0.82637245  1
  Te  Te117  1  0.49851402  0.16139554  0.16325513  1
  Te  Te118  1  0.50522300  0.16958844  0.50548149  1
  Te  Te119  1  0.50020862  0.17229328  0.82992934  1
  Te  Te120  1  0.50059430  0.50038337  0.16597839  1
  Te  Te121  1  0.50569964  0.49746314  0.50859924  1
  Te  Te122  1  0.49944039  0.49908822  0.83018805  1
  Te  Te123  1  0.49998861  0.83768150  0.16406643  1
  Te  Te124  1  0.50156665  0.83238316  0.50422899  1
  Te  Te125  1  0.50268600  0.83097100  0.83246485  1
  Te  Te126  1  0.83366454  0.16682924  0.15948477  1
  Te  Te127  1  0.83614304  0.16528405  0.49959444  1
  Te  Te128  1  0.83502306  0.16651472  0.83625160  1
  Te  Te129  1  0.83386366  0.50608815  0.15966104  1
  Te  Te130  1  0.83456497  0.50167921  0.50662353  1
  Te  Te131  1  0.83321342  0.49874971  0.82933602  1
  Te  Te132  1  0.83694797  0.82968324  0.16020054  1
  Te  Te133  1  0.83532004  0.83220385  0.50498037  1
  Te  Te134  1  0.83518285  0.83186297  0.83015358  1
  Te  Te135  1  0.16323356  0.00231917  0.00315142  1
  Te  Te136  1  0.16302784  0.00368064  0.32959939  1
  Te  Te137  1  0.16257432  0.00354163  0.66733454  1
  Te  Te138  1  0.16733274  0.33492509  0.00213464  1
  Te  Te139  1  0.16717539  0.32669358  0.33508614  1
  Te  Te140  1  0.16635403  0.33224030  0.66262767  1
  Te  Te141  1  0.16937772  0.66322067  0.00181611  1
  Te  Te142  1  0.16717403  0.66607340  0.33921211  1
  Te  Te143  1  0.16728642  0.66441702  0.66076888  1
  Te  Te144  1  0.49894429  0.00081648  -0.00417668  1
  Te  Te145  1  0.49966790  0.00014126  0.33120750  1
  Te  Te146  1  0.49936535  -0.00492891  0.67240368  1
  Te  Te147  1  0.49922194  0.32673208  0.00047658  1
  Te  Te148  1  0.50558880  0.33210379  0.33447688  1
  Te  Te149  1  0.49976476  0.33299998  0.66415520  1
  Te  Te150  1  0.49555935  0.67125531  -0.00810366  1
  Te  Te151  1  0.50022814  0.66671221  0.32835907  1
  Te  Te152  1  0.49861969  0.67806310  0.67355699  1
  Te  Te153  1  0.83607273  -0.00051304  -0.00394596  1
  Te  Te154  1  0.83897850  -0.00506169  0.32923873  1
  Te  Te155  1  0.83928077  -0.00024215  0.67377485  1
  Te  Te156  1  0.83313029  0.33234566  0.00153654  1
  Te  Te157  1  0.82832698  0.33564609  0.33005842  1
  Te  Te158  1  0.82482147  0.33841104  0.66672248  1
  Te  Te159  1  0.83405734  0.66809157  -0.00477711  1
  Te  Te160  1  0.83311598  0.66778319  0.34091704  1
  Te  Te161  1  0.83349766  0.66576784  0.66688959  1
  Te  Te162  1  0.00112707  0.16331809  -0.00212342  1
  Te  Te163  1  0.00386954  0.16080871  0.33597944  1
  Te  Te164  1  0.00054527  0.16558491  0.66817141  1
  Te  Te165  1  0.00026415  0.49987829  0.00021534  1
  Te  Te166  1  -0.00708472  0.49917704  0.33609498  1
  Te  Te167  1  0.00334940  0.49842994  0.66551957  1
  Te  Te168  1  -0.00260358  0.83811367  -0.00127472  1
  Te  Te169  1  -0.00402490  0.83786036  0.33804885  1
  Te  Te170  1  0.00029690  0.83695977  0.66402242  1
  Te  Te171  1  0.33179455  0.16726837  -0.00163192  1
  Te  Te172  1  0.32853299  0.16258305  0.34008447  1
  Te  Te173  1  0.33190365  0.16956926  0.66378332  1
  Te  Te174  1  0.33069695  0.50344267  -0.00514158  1
  Te  Te175  1  0.33375583  0.50100507  0.33783322  1
  Te  Te176  1  0.33108560  0.49774430  0.66639752  1
  Te  Te177  1  0.33337802  0.83077504  -0.00604473  1
  Te  Te178  1  0.33382847  0.83935013  0.33442473  1
  Te  Te179  1  0.32854063  0.83524879  0.67096366  1
  Te  Te180  1  0.66445587  0.16782244  0.00035602  1
  Te  Te181  1  0.66771212  0.17002884  0.34043340  1
  Te  Te182  1  0.66446679  0.16874532  0.66243662  1
  Te  Te183  1  0.67229855  0.49898272  -0.00535085  1
  Te  Te184  1  0.67243838  0.49586523  0.33705367  1
  Te  Te185  1  0.66464375  0.49920525  0.66783547  1
  Te  Te186  1  0.66792224  0.83339607  -0.00388357  1
  Te  Te187  1  0.67484965  0.83399636  0.33468400  1
  Te  Te188  1  0.66982887  0.83646363  0.66880942  1
  Te  Te189  1  0.00255776  -0.00365438  0.16614718  1
  Te  Te190  1  0.00032937  0.00038992  0.50195303  1
  Te  Te191  1  -0.00131094  0.00300055  0.83285045  1
  Te  Te192  1  0.00802283  0.33352005  0.16876709  1
  Te  Te193  1  0.00465443  0.33225826  0.49959709  1
  Te  Te194  1  -0.00004385  0.33271440  0.83308436  1
  Te  Te195  1  -0.00600450  0.67558676  0.16726625  1
  Te  Te196  1  -0.00191981  0.66486219  0.50053073  1
  Te  Te197  1  -0.00554754  0.65605206  0.83396893  1
  Te  Te198  1  0.33123695  -0.00040343  0.17173836  1
  Te  Te199  1  0.33408145  0.00326767  0.49468526  1
  Te  Te200  1  0.33866509  -0.00458790  0.83215825  1
  Te  Te201  1  0.32574787  0.33387380  0.16849571  1
  Te  Te202  1  0.33459568  0.33366692  0.50353642  1
  Te  Te203  1  0.33852214  0.33749929  0.82635242  1
  Te  Te204  1  0.33433074  0.66766785  0.16033511  1
  Te  Te205  1  0.33344501  0.66084131  0.49782007  1
  Te  Te206  1  0.33010190  0.66560507  0.83534736  1
  Te  Te207  1  0.65606924  0.00075032  0.16854669  1
  Te  Te208  1  0.66801956  -0.00720511  0.49964714  1
  Te  Te209  1  0.66767131  -0.00409951  0.83319568  1
  Te  Te210  1  0.66495183  0.33262235  0.16984143  1
  Te  Te211  1  0.66830401  0.33625659  0.50364696  1
  Te  Te212  1  0.66036984  0.33676901  0.82910670  1
  Te  Te213  1  0.67521758  0.66689599  0.16694717  1
  Te  Te214  1  0.67017528  0.67028605  0.50087667  1
  Te  Te215  1  0.66822728  0.66690691  0.83322026  1
