# generated using pymatgen
data_AgSbTe2
_symmetry_space_group_name_H-M   'P 1'
_cell_length_a   18.36750652
_cell_length_b   18.36926549
_cell_length_c   18.35695868
_cell_angle_alpha   90.00092974
_cell_angle_beta   89.99919670
_cell_angle_gamma   89.99799102
_symmetry_Int_Tables_number   1
_chemical_formula_structural   AgSbTe2
_chemical_formula_sum   'Ag54 Sb54 Te108'
_cell_volume   6193.59386125
_cell_formula_units_Z   54
loop_
 _symmetry_equiv_pos_site_id
 _symmetry_equiv_pos_as_xyz
  1  'x, y, z'
loop_
 _atom_site_type_symbol
 _atom_site_label
 _atom_site_symmetry_multiplicity
 _atom_site_fract_x
 _atom_site_fract_y
 _atom_site_fract_z
 _atom_site_occupancy
  Ag  Ag0  1  0.33852339  0.00617054  0.00367196  1
  Ag  Ag1  1  -0.00305446  -0.00870174  0.33161022  1
  Ag  Ag2  1  0.83672334  0.00320105  0.16494262  1
  Ag  Ag3  1  0.33294795  0.65509282  0.01344514  1
  Ag  Ag4  1  -0.00274138  0.33636609  0.66924342  1
  Ag  Ag5  1  0.33572243  0.49654548  0.16859789  1
  Ag  Ag6  1  0.48622085  0.65880119  0.16994185  1
  Ag  Ag7  1  0.50440938  0.66196234  0.48451606  1
  Ag  Ag8  1  0.50631803  0.00218061  0.84163854  1
  Ag  Ag9  1  0.83625479  0.65672895  0.17154382  1
  Ag  Ag10  1  0.67916636  0.32995971  0.00130581  1
  Ag  Ag11  1  0.33516142  0.17753014  0.16452322  1
  Ag  Ag12  1  -0.00680953  0.81696107  0.49661651  1
  Ag  Ag13  1  0.83151635  0.33542443  0.16678118  1
  Ag  Ag14  1  0.66929362  0.17645628  0.49390696  1
  Ag  Ag15  1  0.17115636  0.66905522  0.17379571  1
  Ag  Ag16  1  0.83854776  0.49870247  0.33135472  1
  Ag  Ag17  1  -0.01077864  0.33856910  0.33274610  1
  Ag  Ag18  1  0.33331543  0.33237228  0.00952276  1
  Ag  Ag19  1  0.83491500  0.34371248  0.49258710  1
  Ag  Ag20  1  0.50123473  0.48983682  0.00306929  1
  Ag  Ag21  1  0.49765318  0.49991815  0.65801757  1
  Ag  Ag22  1  0.49697248  0.81740035  0.33418452  1
  Ag  Ag23  1  0.15723882  0.33313571  0.84243092  1
  Ag  Ag24  1  0.16563487  -0.00450935  0.16462487  1
  Ag  Ag25  1  0.83009218  0.48391784  0.00953979  1
  Ag  Ag26  1  -0.00937384  0.33169755  0.00012234  1
  Ag  Ag27  1  0.32917004  0.33719625  0.66564793  1
  Ag  Ag28  1  0.16356099  0.83660498  0.00715770  1
  Ag  Ag29  1  0.83289282  0.16978375  0.00770848  1
  Ag  Ag30  1  0.84001844  0.32812245  0.85175140  1
  Ag  Ag31  1  0.83585505  0.83097501  0.65766387  1
  Ag  Ag32  1  0.83798684  0.66003527  0.48706153  1
  Ag  Ag33  1  0.16605236  0.81521730  0.32728138  1
  Ag  Ag34  1  0.66698187  0.66617890  0.33441045  1
  Ag  Ag35  1  0.83327778  0.00840470  0.84685870  1
  Ag  Ag36  1  0.50467820  0.16845918  0.32383991  1
  Ag  Ag37  1  0.16242408  0.50156139  0.33406587  1
  Ag  Ag38  1  0.33096608  0.34327265  0.32654909  1
  Ag  Ag39  1  0.83667095  0.83721756  0.00254015  1
  Ag  Ag40  1  -0.00129714  0.65557921  0.65074396  1
  Ag  Ag41  1  0.00837272  0.66072188  0.33788922  1
  Ag  Ag42  1  0.49225394  0.33829102  0.16421972  1
  Ag  Ag43  1  -0.00634309  0.50302405  0.49463831  1
  Ag  Ag44  1  0.32303816  0.65782231  0.32969165  1
  Ag  Ag45  1  0.49702013  0.17412158  0.00647923  1
  Ag  Ag46  1  0.67200792  0.50206971  0.49623624  1
  Ag  Ag47  1  0.67523304  0.00888436  0.00077659  1
  Ag  Ag48  1  0.14817382  0.66233838  0.48358478  1
  Ag  Ag49  1  0.67636254  0.82251060  0.49512963  1
  Ag  Ag50  1  0.16806515  0.17114043  0.00385340  1
  Ag  Ag51  1  0.83279068  0.17742208  0.32610222  1
  Ag  Ag52  1  0.33332915  0.50112021  0.48429264  1
  Ag  Ag53  1  -0.00457909  0.17192368  0.83912294  1
  Sb  Sb54  1  -0.00205575  0.00272912  0.66175293  1
  Sb  Sb55  1  0.83298722  0.50221290  0.66157959  1
  Sb  Sb56  1  -0.00042491  0.16901449  0.16364846  1
  Sb  Sb57  1  0.16081000  0.83000695  0.66214299  1
  Sb  Sb58  1  -0.00056266  0.49882192  0.17434595  1
  Sb  Sb59  1  0.67131437  -0.00163992  0.32837747  1
  Sb  Sb60  1  0.33121083  0.82851499  0.16727471  1
  Sb  Sb61  1  0.16346654  0.17132787  0.32721160  1
  Sb  Sb62  1  -0.00497436  0.17294864  0.49859699  1
  Sb  Sb63  1  0.67401827  0.66516268  0.65409327  1
  Sb  Sb64  1  0.50482872  0.82560436  0.65990634  1
  Sb  Sb65  1  0.67110703  0.16753892  0.83605458  1
  Sb  Sb66  1  0.66792187  0.49799608  0.83249370  1
  Sb  Sb67  1  0.66935325  0.83243664  0.17126974  1
  Sb  Sb68  1  0.49847151  0.50125641  0.33000205  1
  Sb  Sb69  1  0.00063177  0.83263404  0.17219004  1
  Sb  Sb70  1  0.16771597  0.49904111  0.65878083  1
  Sb  Sb71  1  0.83562901  0.66392603  0.83755400  1
  Sb  Sb72  1  -0.00267613  0.83903699  0.83100935  1
  Sb  Sb73  1  0.33037702  0.00026716  0.32541061  1
  Sb  Sb74  1  0.16537328  0.17050523  0.67484860  1
  Sb  Sb75  1  0.66500227  0.66407264  0.00814987  1
  Sb  Sb76  1  0.16246834  0.00535820  0.84526160  1
  Sb  Sb77  1  0.66516872  0.50000493  0.17255717  1
  Sb  Sb78  1  0.00115634  0.66253113  0.00687862  1
  Sb  Sb79  1  0.16475899  0.66172416  0.83925627  1
  Sb  Sb80  1  0.83715643  0.82685197  0.33167218  1
  Sb  Sb81  1  0.66899805  -0.00045172  0.66965337  1
  Sb  Sb82  1  0.49973886  0.83429213  0.00713345  1
  Sb  Sb83  1  0.32998613  0.65937922  0.65931279  1
  Sb  Sb84  1  0.16239247  0.33833086  0.49875243  1
  Sb  Sb85  1  0.33170379  0.82352817  0.49680740  1
  Sb  Sb86  1  -0.00393782  0.00511348  0.00662174  1
  Sb  Sb87  1  0.83364984  0.16637845  0.66673168  1
  Sb  Sb88  1  0.83271838  -0.00163997  0.49463990  1
  Sb  Sb89  1  0.33357630  0.49698870  0.83928978  1
  Sb  Sb90  1  -0.00210758  0.49280504  0.82952624  1
  Sb  Sb91  1  0.33757566  0.17733905  0.48908176  1
  Sb  Sb92  1  0.33273585  0.83577794  0.83736885  1
  Sb  Sb93  1  0.49987104  0.33030547  0.84251735  1
  Sb  Sb94  1  0.16560067  -0.00884809  0.48825978  1
  Sb  Sb95  1  0.49916940  0.00202618  0.16323883  1
  Sb  Sb96  1  0.66978599  0.33514873  0.66742691  1
  Sb  Sb97  1  0.49839061  0.66867955  0.84029741  1
  Sb  Sb98  1  0.50124267  -0.00360593  0.49935135  1
  Sb  Sb99  1  0.49953854  0.17414463  0.66861091  1
  Sb  Sb100  1  0.66808299  0.33791005  0.32831410  1
  Sb  Sb101  1  0.16592650  0.49710581  0.00845145  1
  Sb  Sb102  1  0.32991823  0.17101071  0.84535552  1
  Sb  Sb103  1  0.33503177  0.00687428  0.67330388  1
  Sb  Sb104  1  0.66617560  0.16881425  0.16767873  1
  Sb  Sb105  1  0.66982410  0.83519407  0.83190020  1
  Sb  Sb106  1  0.16707478  0.33527959  0.16546559  1
  Sb  Sb107  1  0.50396245  0.34022806  0.49235040  1
  Te  Te108  1  0.17163659  0.16491984  0.16223606  1
  Te  Te109  1  0.16814119  0.16352057  0.50022437  1
  Te  Te110  1  0.16089467  0.17245689  0.84218255  1
  Te  Te111  1  0.17214179  0.50502777  0.17217713  1
  Te  Te112  1  0.17153790  0.50398522  0.49487883  1
  Te  Te113  1  0.16575006  0.49310451  0.83311247  1
  Te  Te114  1  0.16591829  0.83249418  0.16759957  1
  Te  Te115  1  0.16350525  0.82399648  0.49431455  1
  Te  Te116  1  0.16503103  0.83485374  0.83841225  1
  Te  Te117  1  0.49839374  0.16753446  0.16393952  1
  Te  Te118  1  0.50578356  0.16699928  0.49942649  1
  Te  Te119  1  0.50089871  0.16193275  0.83723436  1
  Te  Te120  1  0.49958536  0.49895906  0.16308339  1
  Te  Te121  1  0.49786078  0.50159997  0.49965509  1
  Te  Te122  1  0.50122079  0.49999867  0.84321715  1
  Te  Te123  1  0.50179030  0.82812514  0.17464694  1
  Te  Te124  1  0.50124644  0.82852739  0.49492858  1
  Te  Te125  1  0.50111029  0.83973462  0.83127887  1
  Te  Te126  1  0.83335416  0.16887270  0.16722122  1
  Te  Te127  1  0.82949869  0.16581421  0.49846852  1
  Te  Te128  1  0.83527666  0.16823807  0.83281074  1
  Te  Te129  1  0.83332943  0.49785441  0.16808124  1
  Te  Te130  1  0.83324803  0.50302851  0.50096008  1
  Te  Te131  1  0.83269027  0.49410555  0.83995714  1
  Te  Te132  1  0.83432782  0.84081061  0.16372642  1
  Te  Te133  1  0.83403276  0.83285516  0.49765268  1
  Te  Te134  1  0.83343983  0.83599934  0.83974581  1
  Te  Te135  1  0.16351487  0.00026388  0.00520962  1
  Te  Te136  1  0.16160396  0.00273833  0.32517556  1
  Te  Te137  1  0.16780959  0.00001526  0.66810260  1
  Te  Te138  1  0.17351854  0.33251055  0.00037202  1
  Te  Te139  1  0.17085743  0.33719191  0.33327506  1
  Te  Te140  1  0.16363620  0.33354275  0.66821748  1
  Te  Te141  1  0.16973627  0.66787730  0.00451298  1
  Te  Te142  1  0.16814157  0.66054824  0.33004506  1
  Te  Te143  1  0.16059816  0.66692349  0.66701102  1
  Te  Te144  1  0.49982308  -0.00133244  -0.00034229  1
  Te  Te145  1  0.49992262  0.00917598  0.33206982  1
  Te  Te146  1  0.50037450  -0.00065121  0.67407767  1
  Te  Te147  1  0.49109184  0.33231163  0.00287685  1
  Te  Te148  1  0.49980392  0.32795307  0.32749920  1
  Te  Te149  1  0.50068844  0.33912491  0.66952966  1
  Te  Te150  1  0.49561288  0.66675929  0.00740601  1
  Te  Te151  1  0.50537391  0.66246104  0.32798402  1
  Te  Te152  1  0.49901491  0.66089124  0.67177451  1
  Te  Te153  1  0.83542458  0.00115952  0.00370653  1
  Te  Te154  1  0.83672603  0.00252533  0.32784795  1
  Te  Te155  1  0.83398419  -0.00588913  0.66912532  1
  Te  Te156  1  0.83501454  0.32893699  0.00679981  1
  Te  Te157  1  0.82949873  0.33621570  0.33229680  1
  Te  Te158  1  0.83661608  0.33453715  0.65677016  1
  Te  Te159  1  0.83400140  0.67441389  0.00396586  1
  Te  Te160  1  0.83197158  0.66796211  0.33155524  1
  Te  Te161  1  0.84000618  0.67000168  0.67013678  1
  Te  Te162  1  -0.00343855  0.17054034  -0.00155729  1
  Te  Te163  1  -0.00476614  0.17718408  0.33327391  1
  Te  Te164  1  0.00013649  0.17409846  0.67036302  1
  Te  Te165  1  -0.00434284  0.49450741  -0.00121865  1
  Te  Te166  1  -0.00091345  0.49934906  0.33510932  1
  Te  Te167  1  0.00026246  0.49677426  0.66007165  1
  Te  Te168  1  0.00176213  0.83120157  -0.00140758  1
  Te  Te169  1  0.00332965  0.83216970  0.33752553  1
  Te  Te170  1  -0.00383857  0.83516785  0.65998577  1
  Te  Te171  1  0.33496299  0.16785669  0.00437483  1
  Te  Te172  1  0.33579824  0.16926846  0.32638013  1
  Te  Te173  1  0.33307068  0.17452216  0.66358207  1
  Te  Te174  1  0.33289163  0.49813716  0.00438911  1
  Te  Te175  1  0.33712360  0.50010093  0.32858201  1
  Te  Te176  1  0.33682492  0.49645459  0.67029929  1
  Te  Te177  1  0.33008522  0.84099969  0.00014190  1
  Te  Te178  1  0.33191062  0.83254151  0.33448416  1
  Te  Te179  1  0.33333697  0.83464742  0.66723713  1
  Te  Te180  1  0.66862597  0.16744520  -0.00018226  1
  Te  Te181  1  0.66921720  0.16569072  0.33542392  1
  Te  Te182  1  0.66568972  0.16695023  0.65526364  1
  Te  Te183  1  0.66781636  0.49735430  -0.00052002  1
  Te  Te184  1  0.67594075  0.50351010  0.33827017  1
  Te  Te185  1  0.66007107  0.49984771  0.66130191  1
  Te  Te186  1  0.66911350  0.83389536  -0.00029453  1
  Te  Te187  1  0.66205668  0.83214916  0.33759872  1
  Te  Te188  1  0.67317297  0.83268600  0.65882353  1
  Te  Te189  1  0.00001845  0.00119582  0.17293877  1
  Te  Te190  1  0.00091375  0.00175420  0.49261115  1
  Te  Te191  1  -0.00556158  0.00704145  0.83026281  1
  Te  Te192  1  -0.00295716  0.33389664  0.16701635  1
  Te  Te193  1  -0.00314253  0.33661945  0.49458127  1
  Te  Te194  1  -0.00198090  0.33220044  0.83483311  1
  Te  Te195  1  -0.00376875  0.66611176  0.17204525  1
  Te  Te196  1  -0.00640503  0.66188905  0.49597407  1
  Te  Te197  1  0.00103436  0.66777380  0.82954320  1
  Te  Te198  1  0.33089509  0.00256855  0.16171048  1
  Te  Te199  1  0.33292007  0.00112161  0.50340781  1
  Te  Te200  1  0.33395556  0.00310321  0.84040354  1
  Te  Te201  1  0.33167980  0.33525667  0.16902926  1
  Te  Te202  1  0.33333931  0.34016791  0.50078897  1
  Te  Te203  1  0.33293363  0.33263571  0.82591923  1
  Te  Te204  1  0.33095227  0.66610245  0.16953902  1
  Te  Te205  1  0.34414065  0.66028377  0.49675361  1
  Te  Te206  1  0.33157374  0.66743544  0.83944867  1
  Te  Te207  1  0.67129146  -0.00091017  0.15980972  1
  Te  Te208  1  0.66577145  -0.00417079  0.50051642  1
  Te  Te209  1  0.67131767  0.00104047  0.83878382  1
  Te  Te210  1  0.66700209  0.33466090  0.16008063  1
  Te  Te211  1  0.67087423  0.33709631  0.49987600  1
  Te  Te212  1  0.67321488  0.33259868  0.83855457  1
  Te  Te213  1  0.67832622  0.66680130  0.17266341  1
  Te  Te214  1  0.66556698  0.66372247  0.49616477  1
  Te  Te215  1  0.66610014  0.66695430  0.83193016  1
