# generated using pymatgen
data_AgSbTe2
_symmetry_space_group_name_H-M   'P 1'
_cell_length_a   18.31350092
_cell_length_b   18.31018684
_cell_length_c   18.31446105
_cell_angle_alpha   89.99762902
_cell_angle_beta   90.00129062
_cell_angle_gamma   90.00246892
_symmetry_Int_Tables_number   1
_chemical_formula_structural   AgSbTe2
_chemical_formula_sum   'Ag54 Sb54 Te108'
_cell_volume   6141.27143251
_cell_formula_units_Z   54
loop_
 _symmetry_equiv_pos_site_id
 _symmetry_equiv_pos_as_xyz
  1  'x, y, z'
loop_
 _atom_site_type_symbol
 _atom_site_label
 _atom_site_symmetry_multiplicity
 _atom_site_fract_x
 _atom_site_fract_y
 _atom_site_fract_z
 _atom_site_occupancy
  Ag  Ag0  1  0.67140372  0.51140081  0.83307281  1
  Ag  Ag1  1  -0.00179333  0.50020585  0.16289325  1
  Ag  Ag2  1  0.49957641  -0.00149980  0.82842334  1
  Ag  Ag3  1  0.66412581  0.82869590  0.83548872  1
  Ag  Ag4  1  -0.00168784  0.00090227  0.32747610  1
  Ag  Ag5  1  0.33220817  0.66626104  -0.00190117  1
  Ag  Ag6  1  0.33197313  0.17339880  0.50194102  1
  Ag  Ag7  1  0.33001772  0.33263374  0.33767685  1
  Ag  Ag8  1  0.33803506  0.83464144  0.50319155  1
  Ag  Ag9  1  0.66216131  0.66869852  0.67526401  1
  Ag  Ag10  1  0.83968877  0.51087005  0.00499710  1
  Ag  Ag11  1  0.33345498  0.33663731  0.00202151  1
  Ag  Ag12  1  0.84357725  0.34143873  0.16397103  1
  Ag  Ag13  1  0.33444759  0.33041227  0.65856285  1
  Ag  Ag14  1  0.83540156  0.16561314  0.67072210  1
  Ag  Ag15  1  0.16495127  0.33386058  0.17213800  1
  Ag  Ag16  1  0.16785192  0.17402002  0.33471284  1
  Ag  Ag17  1  0.00373352  0.83074624  0.16110261  1
  Ag  Ag18  1  0.67363565  -0.01061900  -0.00016930  1
  Ag  Ag19  1  0.50087673  0.66735516  0.16171768  1
  Ag  Ag20  1  0.50126972  0.49939862  0.33488647  1
  Ag  Ag21  1  0.32613023  0.17104797  0.16974118  1
  Ag  Ag22  1  0.50363207  -0.00140052  0.50540212  1
  Ag  Ag23  1  0.49073185  0.33058317  0.50501742  1
  Ag  Ag24  1  0.82764247  0.00009812  0.49799263  1
  Ag  Ag25  1  0.00394623  0.16930933  0.16092829  1
  Ag  Ag26  1  0.66974241  -0.00150020  0.33692640  1
  Ag  Ag27  1  0.16335482  0.49389160  0.33156859  1
  Ag  Ag28  1  0.67923798  0.67092159  -0.00655641  1
  Ag  Ag29  1  0.66877562  0.50588182  0.50065931  1
  Ag  Ag30  1  -0.00913305  0.66385437  0.00027961  1
  Ag  Ag31  1  0.16824723  0.66001671  0.50643427  1
  Ag  Ag32  1  0.16294000  0.66730595  0.83294533  1
  Ag  Ag33  1  -0.00010858  0.16832424  0.84060362  1
  Ag  Ag34  1  0.17474441  0.83113968  0.66724079  1
  Ag  Ag35  1  0.82871255  0.82342806  -0.00010087  1
  Ag  Ag36  1  0.17155773  0.16619966  0.66383049  1
  Ag  Ag37  1  0.50562275  0.83086045  -0.00518423  1
  Ag  Ag38  1  0.17357804  0.33687474  0.49360476  1
  Ag  Ag39  1  0.49660166  0.83552407  0.66860678  1
  Ag  Ag40  1  0.83890373  0.49971575  0.32526574  1
  Ag  Ag41  1  0.00126856  0.50118770  0.49185653  1
  Ag  Ag42  1  0.83153344  0.66418505  0.84129885  1
  Ag  Ag43  1  0.83430340  0.66152576  0.15415545  1
  Ag  Ag44  1  0.32998132  0.83121147  0.16575430  1
  Ag  Ag45  1  0.49393485  0.16365934  0.66562088  1
  Ag  Ag46  1  0.49846934  0.33046631  0.82627262  1
  Ag  Ag47  1  0.16641272  -0.00301585  0.83336058  1
  Ag  Ag48  1  0.65908348  0.83165884  0.50726381  1
  Ag  Ag49  1  -0.00556705  -0.00227662  0.00297757  1
  Ag  Ag50  1  0.15773321  0.50311566  0.00222168  1
  Ag  Ag51  1  0.83859486  0.16540636  -0.00133776  1
  Ag  Ag52  1  0.33382485  0.66821962  0.66854454  1
  Ag  Ag53  1  -0.00279034  0.50234534  0.84485468  1
  Sb  Sb54  1  0.16548987  0.66131325  0.16220304  1
  Sb  Sb55  1  0.83557334  0.66812938  0.50112706  1
  Sb  Sb56  1  0.17054549  0.33540424  0.83381600  1
  Sb  Sb57  1  0.67480794  0.50229465  0.16658727  1
  Sb  Sb58  1  0.83268041  0.49763201  0.66923953  1
  Sb  Sb59  1  0.84023503  0.16889260  0.33115399  1
  Sb  Sb60  1  0.50169255  0.16235818  -0.00432447  1
  Sb  Sb61  1  0.33479248  -0.00093814  0.66545164  1
  Sb  Sb62  1  0.50327744  0.66883719  0.83663236  1
  Sb  Sb63  1  0.83450323  0.33254830  0.49659242  1
  Sb  Sb64  1  0.66984190  0.16329523  0.83268383  1
  Sb  Sb65  1  0.66625822  0.66865206  0.33269900  1
  Sb  Sb66  1  0.00145927  0.83055302  0.49571276  1
  Sb  Sb67  1  0.00651783  0.33234027  0.66701487  1
  Sb  Sb68  1  0.49343342  0.16968052  0.33898349  1
  Sb  Sb69  1  0.32921190  0.16849171  0.83081697  1
  Sb  Sb70  1  0.00785757  0.33378070  0.33021292  1
  Sb  Sb71  1  0.16734921  0.83296599  0.33634965  1
  Sb  Sb72  1  0.50190897  0.50676704  0.00277567  1
  Sb  Sb73  1  0.83246761  0.83121227  0.32783678  1
  Sb  Sb74  1  0.00115446  0.66537989  0.32587087  1
  Sb  Sb75  1  0.66162739  0.16427246  0.50187394  1
  Sb  Sb76  1  0.33172262  0.00527226  0.33537758  1
  Sb  Sb77  1  0.16613986  0.82688350  -0.00424171  1
  Sb  Sb78  1  0.33276523  0.50118376  0.83505978  1
  Sb  Sb79  1  0.00209019  0.66579384  0.67386975  1
  Sb  Sb80  1  0.83110108  0.83545121  0.67060559  1
  Sb  Sb81  1  0.16267560  0.17162634  -0.00005290  1
  Sb  Sb82  1  -0.00200414  0.83151590  0.84013260  1
  Sb  Sb83  1  0.66243142  0.33309906  0.33500582  1
  Sb  Sb84  1  0.33730245  0.83119851  0.83130597  1
  Sb  Sb85  1  0.83671282  -0.00208529  0.16595394  1
  Sb  Sb86  1  0.50057486  0.50104558  0.66416092  1
  Sb  Sb87  1  0.33178708  0.66174141  0.33330558  1
  Sb  Sb88  1  0.00008884  0.00144415  0.66984375  1
  Sb  Sb89  1  0.50023139  0.83134336  0.33443776  1
  Sb  Sb90  1  0.16788813  0.00118049  0.50376735  1
  Sb  Sb91  1  0.33167987  0.49728165  0.49908921  1
  Sb  Sb92  1  0.49975686  -0.00384905  0.16628323  1
  Sb  Sb93  1  0.66448710  -0.00627191  0.66787627  1
  Sb  Sb94  1  0.83254326  -0.00279293  0.83518311  1
  Sb  Sb95  1  0.66085664  0.33769364  0.66668088  1
  Sb  Sb96  1  0.00615537  0.16889103  0.49848148  1
  Sb  Sb97  1  0.66987423  0.16546309  0.16538773  1
  Sb  Sb98  1  0.00298345  0.33745113  0.00206814  1
  Sb  Sb99  1  0.83013683  0.33754686  0.83883094  1
  Sb  Sb100  1  0.16350587  0.00476234  0.16248220  1
  Sb  Sb101  1  0.66698230  0.83116382  0.16089642  1
  Sb  Sb102  1  0.49651609  0.66703152  0.49960000  1
  Sb  Sb103  1  0.66377878  0.33698740  -0.00154278  1
  Sb  Sb104  1  0.49443650  0.33738674  0.16745645  1
  Sb  Sb105  1  0.33153113  -0.00210568  0.00006559  1
  Sb  Sb106  1  0.32649353  0.49854630  0.16587550  1
  Sb  Sb107  1  0.16709217  0.50068371  0.66598422  1
  Te  Te108  1  0.16637673  0.17070303  0.16729896  1
  Te  Te109  1  0.17086258  0.16842154  0.50203633  1
  Te  Te110  1  0.16184624  0.16628951  0.82984451  1
  Te  Te111  1  0.16091641  0.49620348  0.16768172  1
  Te  Te112  1  0.16475098  0.49877506  0.49933644  1
  Te  Te113  1  0.16201904  0.50348407  0.83642042  1
  Te  Te114  1  0.16748054  0.83281101  0.16739165  1
  Te  Te115  1  0.16952475  0.83222358  0.50445872  1
  Te  Te116  1  0.16633989  0.83297162  0.82806819  1
  Te  Te117  1  0.49400257  0.16691809  0.16633981  1
  Te  Te118  1  0.49509300  0.16681264  0.50423396  1
  Te  Te119  1  0.50068415  0.16434120  0.82805184  1
  Te  Te120  1  0.50091715  0.50434091  0.17158259  1
  Te  Te121  1  0.50363713  0.49846870  0.49658227  1
  Te  Te122  1  0.50611924  0.49588327  0.83402279  1
  Te  Te123  1  0.49605142  0.82940163  0.16472821  1
  Te  Te124  1  0.49922799  0.83404669  0.50158827  1
  Te  Te125  1  0.50323190  0.83521429  0.83199500  1
  Te  Te126  1  0.83764286  0.16975311  0.16352655  1
  Te  Te127  1  0.83402244  0.16328703  0.50111763  1
  Te  Te128  1  0.83749040  0.16772249  0.83308333  1
  Te  Te129  1  0.83659565  0.50067465  0.16542514  1
  Te  Te130  1  0.83376736  0.49895752  0.49772282  1
  Te  Te131  1  0.83424515  0.50251198  0.83599062  1
  Te  Te132  1  0.83753061  0.82804347  0.16100153  1
  Te  Te133  1  0.83190385  0.83733426  0.50029983  1
  Te  Te134  1  0.82871401  0.82878273  0.83783478  1
  Te  Te135  1  0.16188577  -0.00074606  -0.00692067  1
  Te  Te136  1  0.16146949  0.00290759  0.33393308  1
  Te  Te137  1  0.16677303  0.00171067  0.67206247  1
  Te  Te138  1  0.17295371  0.33979321  0.00192477  1
  Te  Te139  1  0.16908039  0.33348600  0.33367266  1
  Te  Te140  1  0.17361063  0.32948731  0.66470441  1
  Te  Te141  1  0.17257761  0.66245575  -0.00342511  1
  Te  Te142  1  0.16586672  0.66220878  0.34039102  1
  Te  Te143  1  0.16821453  0.66802297  0.66802786  1
  Te  Te144  1  0.50265769  -0.00581099  -0.00226678  1
  Te  Te145  1  0.50441251  0.00062977  0.33723374  1
  Te  Te146  1  0.50096614  -0.00150194  0.66658133  1
  Te  Te147  1  0.49495041  0.33214163  -0.00148540  1
  Te  Te148  1  0.49481719  0.33742072  0.33665114  1
  Te  Te149  1  0.49520982  0.33241161  0.66557253  1
  Te  Te150  1  0.49152860  0.67101045  0.00168740  1
  Te  Te151  1  0.49980333  0.66040515  0.32626183  1
  Te  Te152  1  0.49746950  0.67153994  0.66732969  1
  Te  Te153  1  0.83435491  0.00322416  0.00021456  1
  Te  Te154  1  0.83376609  0.00009916  0.33593653  1
  Te  Te155  1  0.83230602  0.00483673  0.66211093  1
  Te  Te156  1  0.83053669  0.32775941  0.00490177  1
  Te  Te157  1  0.83099250  0.33820801  0.32810443  1
  Te  Te158  1  0.83301523  0.32506874  0.66619815  1
  Te  Te159  1  0.83441655  0.66739021  -0.00151093  1
  Te  Te160  1  0.83326411  0.66023406  0.33172159  1
  Te  Te161  1  0.82937143  0.66655007  0.67077624  1
  Te  Te162  1  -0.00146571  0.16734966  0.00067183  1
  Te  Te163  1  0.00597564  0.16185906  0.32959885  1
  Te  Te164  1  0.00199457  0.16662875  0.66902468  1
  Te  Te165  1  -0.00067860  0.50106129  0.00128886  1
  Te  Te166  1  0.00080216  0.50017965  0.33212237  1
  Te  Te167  1  -0.00108578  0.49970043  0.66635937  1
  Te  Te168  1  -0.00039624  0.83354692  0.00342140  1
  Te  Te169  1  -0.00027753  0.83928833  0.32587770  1
  Te  Te170  1  0.00521937  0.83324530  0.66576972  1
  Te  Te171  1  0.33312100  0.16838433  0.00348691  1
  Te  Te172  1  0.32790549  0.17131812  0.33273943  1
  Te  Te173  1  0.33388486  0.16868450  0.66522938  1
  Te  Te174  1  0.33257345  0.50165223  0.00066670  1
  Te  Te175  1  0.33017666  0.49397923  0.33212877  1
  Te  Te176  1  0.33399120  0.50513032  0.66732479  1
  Te  Te177  1  0.33581349  0.83127581  0.00301987  1
  Te  Te178  1  0.33316761  0.83358524  0.33263069  1
  Te  Te179  1  0.33477014  0.83025228  0.66479380  1
  Te  Te180  1  0.67094704  0.16322165  -0.00016545  1
  Te  Te181  1  0.66672152  0.15971006  0.33320273  1
  Te  Te182  1  0.66593829  0.16803800  0.66716009  1
  Te  Te183  1  0.67073223  0.50461809  -0.00361179  1
  Te  Te184  1  0.66621570  0.50053406  0.33796752  1
  Te  Te185  1  0.66738948  0.50687416  0.66612234  1
  Te  Te186  1  0.66645926  0.83145911  -0.00024568  1
  Te  Te187  1  0.66732033  0.83824132  0.34069214  1
  Te  Te188  1  0.66559208  0.82828382  0.66644282  1
  Te  Te189  1  -0.00055209  0.00066894  0.16404331  1
  Te  Te190  1  -0.00329783  -0.00034227  0.49597694  1
  Te  Te191  1  0.00116816  0.00265383  0.83762063  1
  Te  Te192  1  0.00260366  0.33239740  0.16620504  1
  Te  Te193  1  0.00402114  0.33969286  0.49976964  1
  Te  Te194  1  -0.00038700  0.33384752  0.83346607  1
  Te  Te195  1  -0.00144394  0.66614832  0.16103730  1
  Te  Te196  1  0.00439425  0.66221322  0.50058329  1
  Te  Te197  1  0.00121260  0.66449114  0.83900840  1
  Te  Te198  1  0.33218514  -0.00127570  0.16782231  1
  Te  Te199  1  0.33784463  -0.00329082  0.49869558  1
  Te  Te200  1  0.33438958  0.00023080  0.83404668  1
  Te  Te201  1  0.32972622  0.33151740  0.16508514  1
  Te  Te202  1  0.33321440  0.33324708  0.50094364  1
  Te  Te203  1  0.33881774  0.33429296  0.83564683  1
  Te  Te204  1  0.33381234  0.66944912  0.16532532  1
  Te  Te205  1  0.32904228  0.67026751  0.50208850  1
  Te  Te206  1  0.32793977  0.66619240  0.83277902  1
  Te  Te207  1  0.66752977  -0.00128656  0.16507535  1
  Te  Te208  1  0.66456460  -0.00198953  0.50060781  1
  Te  Te209  1  0.66339910  -0.00425826  0.83811879  1
  Te  Te210  1  0.66927278  0.33284746  0.16680348  1
  Te  Te211  1  0.66270970  0.33885497  0.49990462  1
  Te  Te212  1  0.65897378  0.33693411  0.83319802  1
  Te  Te213  1  0.66689871  0.66703259  0.16236476  1
  Te  Te214  1  0.66688467  0.66711338  0.50111860  1
  Te  Te215  1  0.66544864  0.66766397  0.83411311  1
