# generated using pymatgen
data_AgSbTe2
_symmetry_space_group_name_H-M   'P 1'
_cell_length_a   18.35423965
_cell_length_b   18.34401585
_cell_length_c   18.34611169
_cell_angle_alpha   90.00223625
_cell_angle_beta   90.00298736
_cell_angle_gamma   89.99968553
_symmetry_Int_Tables_number   1
_chemical_formula_structural   AgSbTe2
_chemical_formula_sum   'Ag54 Sb54 Te108'
_cell_volume   6176.96082844
_cell_formula_units_Z   54
loop_
 _symmetry_equiv_pos_site_id
 _symmetry_equiv_pos_as_xyz
  1  'x, y, z'
loop_
 _atom_site_type_symbol
 _atom_site_label
 _atom_site_symmetry_multiplicity
 _atom_site_fract_x
 _atom_site_fract_y
 _atom_site_fract_z
 _atom_site_occupancy
  Ag  Ag0  1  0.16057962  0.16805704  0.31925571  1
  Ag  Ag1  1  0.66839913  0.83592817  0.16240863  1
  Ag  Ag2  1  0.49991080  0.66677513  0.83323824  1
  Ag  Ag3  1  0.84249988  0.83567072  0.67022592  1
  Ag  Ag4  1  0.82622441  0.67101890  0.16239101  1
  Ag  Ag5  1  0.00059648  0.15697794  0.84335388  1
  Ag  Ag6  1  0.16428985  0.00599751  0.50381276  1
  Ag  Ag7  1  0.83576833  0.32679915  0.49551044  1
  Ag  Ag8  1  0.00336101  0.31938355  0.00170655  1
  Ag  Ag9  1  0.84618799  0.16508625  0.00821547  1
  Ag  Ag10  1  0.32130688  0.16534253  0.50028018  1
  Ag  Ag11  1  0.67256025  0.83026978  0.51344567  1
  Ag  Ag12  1  0.17248572  0.67198778  0.82875230  1
  Ag  Ag13  1  0.16281276  0.31940812  0.16365928  1
  Ag  Ag14  1  0.49823760  0.16736671  0.00424538  1
  Ag  Ag15  1  0.00160376  0.00633043  -0.00084385  1
  Ag  Ag16  1  0.00497043  0.16473308  0.50312156  1
  Ag  Ag17  1  0.00275196  0.83459719  0.83115339  1
  Ag  Ag18  1  0.66802958  0.67014116  -0.00688375  1
  Ag  Ag19  1  0.00090227  0.83348301  0.51153197  1
  Ag  Ag20  1  0.16481766  0.49171120  0.33498719  1
  Ag  Ag21  1  0.50173494  0.01143967  0.15883130  1
  Ag  Ag22  1  0.66943581  0.33073063  0.32606367  1
  Ag  Ag23  1  0.84252030  0.16875316  0.31920550  1
  Ag  Ag24  1  0.49946972  0.50611294  0.67230767  1
  Ag  Ag25  1  0.68476430  0.16315464  0.16446185  1
  Ag  Ag26  1  0.49898653  0.33476693  0.83984273  1
  Ag  Ag27  1  0.50116676  -0.00255370  0.83851820  1
  Ag  Ag28  1  0.16358870  0.67585968  0.51072603  1
  Ag  Ag29  1  0.33060509  0.32747681  0.00079910  1
  Ag  Ag30  1  0.16585581  0.00676765  0.16332805  1
  Ag  Ag31  1  0.16048875  0.15933905  0.66574470  1
  Ag  Ag32  1  0.65901772  0.51331598  0.83232294  1
  Ag  Ag33  1  0.50533560  0.66733271  0.15646933  1
  Ag  Ag34  1  -0.00150671  0.67057171  -0.00694535  1
  Ag  Ag35  1  0.15608822  0.16170859  0.00703699  1
  Ag  Ag36  1  0.16088333  0.83158747  0.67146039  1
  Ag  Ag37  1  0.32269321  0.83057949  0.83061021  1
  Ag  Ag38  1  0.83165711  0.32066781  0.16876655  1
  Ag  Ag39  1  0.66710701  0.83008806  0.83297998  1
  Ag  Ag40  1  0.84150050  0.15863775  0.66846170  1
  Ag  Ag41  1  0.83751705  -0.00054397  0.83634697  1
  Ag  Ag42  1  0.33150212  0.67084776  0.67231325  1
  Ag  Ag43  1  0.66002039  0.67050672  0.67630851  1
  Ag  Ag44  1  0.49638674  0.66778808  0.51656076  1
  Ag  Ag45  1  0.50098697  0.32436024  0.15799278  1
  Ag  Ag46  1  -0.00093624  0.16647464  0.15627328  1
  Ag  Ag47  1  0.00252704  0.50114950  0.50176886  1
  Ag  Ag48  1  0.16183908  0.83772930  -0.01130126  1
  Ag  Ag49  1  0.34014544  0.51174295  0.83172310  1
  Ag  Ag50  1  0.00372520  0.67469882  0.67091074  1
  Ag  Ag51  1  0.31374245  0.16735490  0.16330355  1
  Ag  Ag52  1  0.83362944  0.00963137  0.15877607  1
  Ag  Ag53  1  0.33011366  -0.00421814  0.67019820  1
  Sb  Sb54  1  0.66416721  -0.00622636  0.66829181  1
  Sb  Sb55  1  0.32951768  0.83499686  0.50944978  1
  Sb  Sb56  1  0.16897539  0.50575911  0.66475977  1
  Sb  Sb57  1  0.49885806  0.16878761  0.67206859  1
  Sb  Sb58  1  0.16562853  0.49798545  0.00219562  1
  Sb  Sb59  1  0.66819824  0.00483939  0.32866239  1
  Sb  Sb60  1  0.50022845  0.49646141  -0.00811043  1
  Sb  Sb61  1  0.33440370  0.66513268  -0.00694301  1
  Sb  Sb62  1  0.16438647  0.83823954  0.33703646  1
  Sb  Sb63  1  0.33141245  0.00335544  0.33471642  1
  Sb  Sb64  1  0.67002869  0.16260855  0.49538250  1
  Sb  Sb65  1  0.00089564  0.66582764  0.33462756  1
  Sb  Sb66  1  0.83391304  0.49712393  -0.00079109  1
  Sb  Sb67  1  0.66826781  0.33613135  0.66632370  1
  Sb  Sb68  1  0.33510458  0.49426827  0.16037352  1
  Sb  Sb69  1  0.33236252  0.33279960  0.67299689  1
  Sb  Sb70  1  0.67139478  -0.00323401  0.00076426  1
  Sb  Sb71  1  0.66912525  0.16232294  0.83949584  1
  Sb  Sb72  1  0.66499881  0.49965695  0.16129259  1
  Sb  Sb73  1  0.00033135  0.33076574  0.67023369  1
  Sb  Sb74  1  0.00076327  0.00437236  0.32744143  1
  Sb  Sb75  1  0.83389045  0.83972318  0.33443076  1
  Sb  Sb76  1  0.33388172  0.33007793  0.32667711  1
  Sb  Sb77  1  0.16096892  0.32686049  0.49419319  1
  Sb  Sb78  1  0.84105120  0.00347809  0.50301227  1
  Sb  Sb79  1  0.32796578  0.16317705  0.83656636  1
  Sb  Sb80  1  0.00529640  -0.00265240  0.67265826  1
  Sb  Sb81  1  0.83168268  0.67302220  0.83594501  1
  Sb  Sb82  1  0.66705676  0.33230978  0.00306502  1
  Sb  Sb83  1  0.16471111  -0.00428932  0.83343312  1
  Sb  Sb84  1  0.33672489  0.83895481  0.15769368  1
  Sb  Sb85  1  0.83056656  0.32431576  0.83682740  1
  Sb  Sb86  1  0.83156742  0.50413861  0.66731648  1
  Sb  Sb87  1  0.66971941  0.50490839  0.50436009  1
  Sb  Sb88  1  0.32850089  0.00558953  -0.00384396  1
  Sb  Sb89  1  0.50318844  0.33498596  0.50056229  1
  Sb  Sb90  1  0.16735075  0.67077202  0.16299342  1
  Sb  Sb91  1  0.49873472  0.83700119  -0.00375982  1
  Sb  Sb92  1  0.49676593  0.49952605  0.33684837  1
  Sb  Sb93  1  0.50250813  0.83240795  0.33070054  1
  Sb  Sb94  1  -0.00297957  0.32846216  0.32868343  1
  Sb  Sb95  1  0.83687307  0.49312899  0.33361751  1
  Sb  Sb96  1  0.83677386  0.66691126  0.49875871  1
  Sb  Sb97  1  0.00061928  0.49500365  0.16873073  1
  Sb  Sb98  1  0.32851876  0.49707672  0.50623700  1
  Sb  Sb99  1  0.49981554  0.16826114  0.32196727  1
  Sb  Sb100  1  0.16996438  0.33385743  0.83972029  1
  Sb  Sb101  1  0.49530997  -0.00518849  0.50327827  1
  Sb  Sb102  1  -0.00366574  0.83866907  0.16191232  1
  Sb  Sb103  1  0.49930540  0.82694826  0.67164842  1
  Sb  Sb104  1  0.83753519  0.83863183  -0.00534163  1
  Sb  Sb105  1  0.33177734  0.66557887  0.33985846  1
  Sb  Sb106  1  0.66728109  0.66358853  0.33200894  1
  Sb  Sb107  1  0.00098314  0.50448485  0.83000865  1
  Te  Te108  1  0.15905030  0.16440434  0.16351481  1
  Te  Te109  1  0.16478719  0.16641787  0.50794581  1
  Te  Te110  1  0.16204809  0.16799112  0.82913262  1
  Te  Te111  1  0.16826267  0.50058501  0.17322235  1
  Te  Te112  1  0.16339054  0.49745183  0.49708144  1
  Te  Te113  1  0.16967384  0.50618950  0.83347594  1
  Te  Te114  1  0.16703058  0.84080963  0.16760534  1
  Te  Te115  1  0.16455020  0.83430361  0.50288289  1
  Te  Te116  1  0.16386484  0.83164364  0.83134229  1
  Te  Te117  1  0.50232961  0.16810386  0.16564648  1
  Te  Te118  1  0.49954358  0.16505732  0.49876379  1
  Te  Te119  1  0.50028747  0.16546303  0.83733464  1
  Te  Te120  1  0.49906430  0.50534901  0.16798942  1
  Te  Te121  1  0.49964924  0.50557030  0.50515798  1
  Te  Te122  1  0.49960905  0.50280729  0.83147196  1
  Te  Te123  1  0.50394643  0.82806727  0.16383414  1
  Te  Te124  1  0.50177298  0.82756120  0.49831658  1
  Te  Te125  1  0.50617081  0.83331031  0.83486944  1
  Te  Te126  1  0.83975155  0.16536400  0.16373039  1
  Te  Te127  1  0.83330254  0.16715028  0.50835908  1
  Te  Te128  1  0.83614741  0.16093546  0.82908073  1
  Te  Te129  1  0.83332805  0.50547765  0.16755359  1
  Te  Te130  1  0.83904781  0.49440868  0.49954759  1
  Te  Te131  1  0.82806008  0.49486600  0.83222957  1
  Te  Te132  1  0.83004421  0.83267971  0.16693843  1
  Te  Te133  1  0.83371764  0.83531436  0.50294057  1
  Te  Te134  1  0.83399563  0.83844908  0.83037539  1
  Te  Te135  1  0.16407118  0.00137171  0.00022076  1
  Te  Te136  1  0.16649427  0.00695563  0.33379034  1
  Te  Te137  1  0.16994811  -0.00149392  0.66581840  1
  Te  Te138  1  0.16514337  0.33071550  0.00421726  1
  Te  Te139  1  0.16708878  0.32905423  0.32711951  1
  Te  Te140  1  0.16707876  0.32793355  0.66742538  1
  Te  Te141  1  0.16539928  0.66900932  -0.00327967  1
  Te  Te142  1  0.16758959  0.66661522  0.33709583  1
  Te  Te143  1  0.16578009  0.66740243  0.66773828  1
  Te  Te144  1  0.49811368  0.00220785  0.00045876  1
  Te  Te145  1  0.49958096  -0.00021646  0.32547013  1
  Te  Te146  1  0.49339782  0.00058965  0.67062008  1
  Te  Te147  1  0.50094257  0.33159476  0.00071756  1
  Te  Te148  1  0.50592128  0.33552018  0.33002383  1
  Te  Te149  1  0.50051166  0.34000128  0.67076614  1
  Te  Te150  1  0.50119571  0.66772972  -0.00418643  1
  Te  Te151  1  0.49925292  0.66462798  0.32940061  1
  Te  Te152  1  0.50080297  0.66578557  0.67304454  1
  Te  Te153  1  0.83693903  0.00412812  -0.00096022  1
  Te  Te154  1  0.83390662  0.00781154  0.32589612  1
  Te  Te155  1  0.83100152  -0.00247248  0.66963479  1
  Te  Te156  1  0.83661906  0.32842453  0.00469951  1
  Te  Te157  1  0.83134611  0.32836888  0.33063976  1
  Te  Te158  1  0.83292379  0.33123764  0.66431683  1
  Te  Te159  1  0.83243479  0.66580527  0.00221876  1
  Te  Te160  1  0.83345623  0.66616591  0.32566564  1
  Te  Te161  1  0.83660086  0.67154002  0.66460453  1
  Te  Te162  1  0.00113399  0.16457016  -0.00184142  1
  Te  Te163  1  0.00075128  0.16714804  0.34333017  1
  Te  Te164  1  -0.00017818  0.16654212  0.66370281  1
  Te  Te165  1  0.00034667  0.51162151  -0.00006106  1
  Te  Te166  1  0.00536562  0.49840168  0.33998495  1
  Te  Te167  1  -0.00021359  0.50484419  0.66215525  1
  Te  Te168  1  0.00270402  0.82921510  -0.00247926  1
  Te  Te169  1  -0.00097600  0.83340836  0.34468753  1
  Te  Te170  1  0.00130473  0.83396786  0.66921683  1
  Te  Te171  1  0.33706340  0.16887568  0.00291002  1
  Te  Te172  1  0.32686794  0.16718488  0.33261585  1
  Te  Te173  1  0.33221206  0.16504663  0.66497769  1
  Te  Te174  1  0.33212099  0.49178926  -0.00762606  1
  Te  Te175  1  0.32585131  0.49800216  0.33384224  1
  Te  Te176  1  0.33658938  0.50290221  0.67184760  1
  Te  Te177  1  0.32423650  0.83306155  -0.00748928  1
  Te  Te178  1  0.33345469  0.83388985  0.33281556  1
  Te  Te179  1  0.32948398  0.83182269  0.67131185  1
  Te  Te180  1  0.65968023  0.16569101  0.00601083  1
  Te  Te181  1  0.67053633  0.17154039  0.32737230  1
  Te  Te182  1  0.66931380  0.16616724  0.66631829  1
  Te  Te183  1  0.66723888  0.50800574  -0.00658477  1
  Te  Te184  1  0.66678950  0.49237541  0.33529817  1
  Te  Te185  1  0.66411957  0.50637070  0.67128420  1
  Te  Te186  1  0.66820373  0.82934542  0.00061312  1
  Te  Te187  1  0.66853477  0.83262188  0.32444368  1
  Te  Te188  1  0.66686932  0.82918320  0.66967163  1
  Te  Te189  1  -0.00010324  0.00247930  0.16149806  1
  Te  Te190  1  0.00453158  0.00020790  0.49853137  1
  Te  Te191  1  -0.00169693  -0.00162651  0.83811948  1
  Te  Te192  1  -0.00050823  0.33175908  0.16232993  1
  Te  Te193  1  -0.00435028  0.33077341  0.50193083  1
  Te  Te194  1  -0.00017508  0.33565945  0.84026123  1
  Te  Te195  1  -0.00004645  0.66797236  0.16517791  1
  Te  Te196  1  0.00223532  0.66830135  0.50125975  1
  Te  Te197  1  -0.00170780  0.66823823  0.83118100  1
  Te  Te198  1  0.33434787  0.00579829  0.16612558  1
  Te  Te199  1  0.32937012  0.00368274  0.50492822  1
  Te  Te200  1  0.33836364  -0.00383339  0.83016883  1
  Te  Te201  1  0.33727902  0.32884573  0.16138974  1
  Te  Te202  1  0.33571472  0.32707473  0.50007954  1
  Te  Te203  1  0.33810816  0.33142713  0.83855578  1
  Te  Te204  1  0.33794507  0.66706123  0.16641755  1
  Te  Te205  1  0.33304986  0.66607593  0.50667486  1
  Te  Te206  1  0.33433493  0.66999132  0.83172759  1
  Te  Te207  1  0.66572166  0.00013335  0.16522694  1
  Te  Te208  1  0.66456288  -0.00976341  0.49832838  1
  Te  Te209  1  0.66277180  -0.00531996  0.83387152  1
  Te  Te210  1  0.66752466  0.33296355  0.16597693  1
  Te  Te211  1  0.67191213  0.33372322  0.49792784  1
  Te  Te212  1  0.66062022  0.33257534  0.83439858  1
  Te  Te213  1  0.66551960  0.66649312  0.16640855  1
  Te  Te214  1  0.66561160  0.67072810  0.50018300  1
  Te  Te215  1  0.66959638  0.67021795  0.83270143  1
