# generated using pymatgen
data_AgSbTe2
_symmetry_space_group_name_H-M   'P 1'
_cell_length_a   18.32885035
_cell_length_b   18.32366724
_cell_length_c   18.32512660
_cell_angle_alpha   90.00092479
_cell_angle_beta   89.99818430
_cell_angle_gamma   89.99980951
_symmetry_Int_Tables_number   1
_chemical_formula_structural   AgSbTe2
_chemical_formula_sum   'Ag54 Sb54 Te108'
_cell_volume   6154.52591965
_cell_formula_units_Z   54
loop_
 _symmetry_equiv_pos_site_id
 _symmetry_equiv_pos_as_xyz
  1  'x, y, z'
loop_
 _atom_site_type_symbol
 _atom_site_label
 _atom_site_symmetry_multiplicity
 _atom_site_fract_x
 _atom_site_fract_y
 _atom_site_fract_z
 _atom_site_occupancy
  Ag  Ag0  1  0.50379248  0.65588199  0.50934547  1
  Ag  Ag1  1  0.50171687  0.49475372  0.66234623  1
  Ag  Ag2  1  0.33787181  0.49797389  0.16776447  1
  Ag  Ag3  1  0.50236000  0.17981624  0.66710607  1
  Ag  Ag4  1  0.83190900  0.33428066  0.16865727  1
  Ag  Ag5  1  0.34368494  0.33754045  0.66538431  1
  Ag  Ag6  1  0.82993348  0.17161360  0.66532354  1
  Ag  Ag7  1  0.66887406  0.00659603  0.33572124  1
  Ag  Ag8  1  0.33618610  0.65866881  0.32894119  1
  Ag  Ag9  1  0.49573140  0.66478216  0.82822754  1
  Ag  Ag10  1  0.16851671  0.32917788  0.17220565  1
  Ag  Ag11  1  0.32768269  0.17211593  0.16367614  1
  Ag  Ag12  1  0.00208432  -0.00367975  0.00522884  1
  Ag  Ag13  1  0.65897582  0.65908503  0.66773078  1
  Ag  Ag14  1  0.16820327  0.00960511  0.16483714  1
  Ag  Ag15  1  0.66236224  0.49702669  0.49665764  1
  Ag  Ag16  1  0.17868626  0.66169602  0.83587202  1
  Ag  Ag17  1  0.82633650  0.66284945  0.50359494  1
  Ag  Ag18  1  0.82898786  0.82734295  -0.00009887  1
  Ag  Ag19  1  0.33552261  0.17032110  0.83605345  1
  Ag  Ag20  1  -0.00113686  0.66986401  -0.00361394  1
  Ag  Ag21  1  -0.00224465  0.66631147  0.66940749  1
  Ag  Ag22  1  0.82727056  0.33223580  0.50030684  1
  Ag  Ag23  1  0.00784181  0.16810460  0.17401045  1
  Ag  Ag24  1  0.34348916  0.65986926  0.67624406  1
  Ag  Ag25  1  0.82890074  0.00486536  0.83331059  1
  Ag  Ag26  1  0.66933776  0.34160384  0.00027624  1
  Ag  Ag27  1  -0.00289341  0.16697836  0.49440114  1
  Ag  Ag28  1  0.49901253  0.00018137  0.83092271  1
  Ag  Ag29  1  0.16489159  0.17165565  0.32927972  1
  Ag  Ag30  1  0.33259921  -0.00814283  0.00159774  1
  Ag  Ag31  1  0.17038808  0.33228749  0.48977719  1
  Ag  Ag32  1  0.82669014  0.32840291  0.83140796  1
  Ag  Ag33  1  0.66330783  0.82700504  0.16313989  1
  Ag  Ag34  1  0.17521711  0.33598357  0.83501702  1
  Ag  Ag35  1  -0.00356333  0.01056574  0.33153445  1
  Ag  Ag36  1  0.50098075  0.49733828  0.34049166  1
  Ag  Ag37  1  0.33638113  0.82638100  0.84035557  1
  Ag  Ag38  1  0.49656262  0.83001560  -0.00239595  1
  Ag  Ag39  1  0.16711771  0.50094897  0.00062932  1
  Ag  Ag40  1  0.33619519  0.83120600  0.15851597  1
  Ag  Ag41  1  -0.00336918  0.83740242  0.49852313  1
  Ag  Ag42  1  0.83087796  0.50192995  0.00121328  1
  Ag  Ag43  1  0.50508544  0.33722428  0.50861068  1
  Ag  Ag44  1  0.50553952  0.00263918  0.50298723  1
  Ag  Ag45  1  0.49727379  0.33420345  0.82384790  1
  Ag  Ag46  1  0.83097157  0.00329432  0.50117780  1
  Ag  Ag47  1  0.66185045  0.49786656  0.16725488  1
  Ag  Ag48  1  0.00651900  0.32837350  0.33423425  1
  Ag  Ag49  1  0.65644640  0.33928365  0.66304885  1
  Ag  Ag50  1  0.66482278  0.33382264  0.33841040  1
  Ag  Ag51  1  0.33793326  0.67187071  -0.00541391  1
  Ag  Ag52  1  0.33379797  0.33562023  0.33484508  1
  Ag  Ag53  1  0.66542860  0.66248922  -0.00286164  1
  Sb  Sb54  1  0.66030899  0.66208801  0.33285819  1
  Sb  Sb55  1  0.00108232  0.83935260  0.16693748  1
  Sb  Sb56  1  0.66624366  -0.00274860  0.00308007  1
  Sb  Sb57  1  0.33217292  0.17062556  0.50069002  1
  Sb  Sb58  1  0.66506808  0.49701087  0.83568025  1
  Sb  Sb59  1  -0.00135999  0.33632497  0.66148594  1
  Sb  Sb60  1  0.50007425  0.82864749  0.67180491  1
  Sb  Sb61  1  -0.00756037  0.49619207  0.49952169  1
  Sb  Sb62  1  0.33584756  0.33598575  0.00005740  1
  Sb  Sb63  1  0.00252679  0.83264556  0.83305936  1
  Sb  Sb64  1  0.34132715  0.49753769  0.49474572  1
  Sb  Sb65  1  -0.00322285  -0.00145601  0.66442012  1
  Sb  Sb66  1  0.33742396  0.00296719  0.67363069  1
  Sb  Sb67  1  0.83047769  0.66563010  0.83230227  1
  Sb  Sb68  1  0.49784173  0.66623064  0.16336622  1
  Sb  Sb69  1  -0.00325280  0.33324365  0.00412856  1
  Sb  Sb70  1  0.83206563  0.66183393  0.16650680  1
  Sb  Sb71  1  0.00000187  0.50003828  0.83401364  1
  Sb  Sb72  1  0.67122942  0.17535630  0.49996137  1
  Sb  Sb73  1  0.16846426  0.65904623  0.50520558  1
  Sb  Sb74  1  0.17442940  0.49857541  0.67024876  1
  Sb  Sb75  1  0.66173499  0.83184214  0.83934030  1
  Sb  Sb76  1  0.33312720  0.83102443  0.50059905  1
  Sb  Sb77  1  0.49971710  0.33484206  0.16728654  1
  Sb  Sb78  1  0.49702592  0.16483956  -0.00575949  1
  Sb  Sb79  1  0.00047638  0.49368250  0.16488021  1
  Sb  Sb80  1  0.83216720  0.83421962  0.33032316  1
  Sb  Sb81  1  0.83368116  0.16883475  -0.00467108  1
  Sb  Sb82  1  0.66673097  0.17135683  0.16855762  1
  Sb  Sb83  1  0.00378732  0.16717115  0.83362245  1
  Sb  Sb84  1  0.83238032  0.83402416  0.66929823  1
  Sb  Sb85  1  0.84088991  0.17019442  0.33856478  1
  Sb  Sb86  1  0.49533725  0.17275732  0.33916877  1
  Sb  Sb87  1  0.66055947  0.17019476  0.83202149  1
  Sb  Sb88  1  0.16362746  0.00652006  0.49407247  1
  Sb  Sb89  1  0.82671864  0.49508919  0.33033131  1
  Sb  Sb90  1  0.16712836  0.17308311  0.00596755  1
  Sb  Sb91  1  0.16870985  0.17123258  0.66353400  1
  Sb  Sb92  1  0.17402849  0.49265886  0.32847531  1
  Sb  Sb93  1  0.50142426  0.50359425  -0.00161576  1
  Sb  Sb94  1  0.66552992  0.00174776  0.66212751  1
  Sb  Sb95  1  0.49990228  0.82949001  0.33034466  1
  Sb  Sb96  1  0.82600610  0.49573712  0.66948241  1
  Sb  Sb97  1  0.33511578  0.50047221  0.83887699  1
  Sb  Sb98  1  0.33425454  0.00325367  0.32730233  1
  Sb  Sb99  1  0.83667095  0.00571197  0.16670759  1
  Sb  Sb100  1  0.17131918  0.00195828  0.84226209  1
  Sb  Sb101  1  0.16771000  0.83771305  0.33110497  1
  Sb  Sb102  1  0.17039884  0.82774743  0.00049049  1
  Sb  Sb103  1  0.66886143  0.82927007  0.49574149  1
  Sb  Sb104  1  0.00395405  0.66489582  0.33395546  1
  Sb  Sb105  1  0.16692649  0.83029303  0.66685992  1
  Sb  Sb106  1  0.17087622  0.66175545  0.16027927  1
  Sb  Sb107  1  0.49677238  -0.00026798  0.16590621  1
  Te  Te108  1  0.16734195  0.16939048  0.16721847  1
  Te  Te109  1  0.16147675  0.17343510  0.49570927  1
  Te  Te110  1  0.17260402  0.17116689  0.83281124  1
  Te  Te111  1  0.17027309  0.49415952  0.16206773  1
  Te  Te112  1  0.16398222  0.49099597  0.50042226  1
  Te  Te113  1  0.16670612  0.49910912  0.83816555  1
  Te  Te114  1  0.17206387  0.83786704  0.16672364  1
  Te  Te115  1  0.15973112  0.83268459  0.49902585  1
  Te  Te116  1  0.17384963  0.82966961  0.83317185  1
  Te  Te117  1  0.49159305  0.16586758  0.16653040  1
  Te  Te118  1  0.49944952  0.16593962  0.50619501  1
  Te  Te119  1  0.49541110  0.16605222  0.82843484  1
  Te  Te120  1  0.50034886  0.50023940  0.17034687  1
  Te  Te121  1  0.50279014  0.49787004  0.50059081  1
  Te  Te122  1  0.50032760  0.49940014  0.82793320  1
  Te  Te123  1  0.49960031  0.83329386  0.16118935  1
  Te  Te124  1  0.50037371  0.83936402  0.49925339  1
  Te  Te125  1  0.49603507  0.83442895  0.83724092  1
  Te  Te126  1  0.83578973  0.17420147  0.16505021  1
  Te  Te127  1  0.83647341  0.16643480  0.50381014  1
  Te  Te128  1  0.83543096  0.16644490  0.82838616  1
  Te  Te129  1  0.82960138  0.49446734  0.16211912  1
  Te  Te130  1  0.82492749  0.49906638  0.50066675  1
  Te  Te131  1  0.83294729  0.49412478  0.83989490  1
  Te  Te132  1  0.83068396  0.83342658  0.16056688  1
  Te  Te133  1  0.83596984  0.83616511  0.50003914  1
  Te  Te134  1  0.83408052  0.83759160  0.83871722  1
  Te  Te135  1  0.16542080  -0.00047497  0.00453659  1
  Te  Te136  1  0.16305582  0.00626895  0.32772861  1
  Te  Te137  1  0.16695402  0.00064509  0.66679785  1
  Te  Te138  1  0.16546334  0.33926562  -0.00321939  1
  Te  Te139  1  0.16962075  0.33178094  0.33174445  1
  Te  Te140  1  0.16928719  0.33429497  0.67310188  1
  Te  Te141  1  0.16622068  0.66189298  -0.00398596  1
  Te  Te142  1  0.17457669  0.66564405  0.33498016  1
  Te  Te143  1  0.16507150  0.66433558  0.67345485  1
  Te  Te144  1  0.49787663  -0.00372998  -0.00480482  1
  Te  Te145  1  0.50332055  0.00108056  0.33860102  1
  Te  Te146  1  0.50138795  0.00051189  0.66686958  1
  Te  Te147  1  0.50705292  0.33458934  -0.00607762  1
  Te  Te148  1  0.49871167  0.33639859  0.33454781  1
  Te  Te149  1  0.50010346  0.33514400  0.66731230  1
  Te  Te150  1  0.50162628  0.66871802  -0.00322599  1
  Te  Te151  1  0.49516581  0.66269315  0.33921232  1
  Te  Te152  1  0.50008926  0.66682074  0.66745960  1
  Te  Te153  1  0.83398532  -0.00154896  -0.00227222  1
  Te  Te154  1  0.83412443  0.00078066  0.33669842  1
  Te  Te155  1  0.83209807  0.00408997  0.66630581  1
  Te  Te156  1  0.83131375  0.33548721  -0.00269656  1
  Te  Te157  1  0.82772224  0.33373216  0.33553064  1
  Te  Te158  1  0.83389872  0.33147476  0.66607638  1
  Te  Te159  1  0.83032850  0.66575242  -0.00044126  1
  Te  Te160  1  0.83503420  0.66550668  0.34219227  1
  Te  Te161  1  0.83455613  0.66578031  0.66462312  1
  Te  Te162  1  0.00028972  0.15976400  0.00238761  1
  Te  Te163  1  0.00198018  0.16815830  0.33350210  1
  Te  Te164  1  -0.00356635  0.16707662  0.66235009  1
  Te  Te165  1  -0.00216433  0.50510914  0.00076478  1
  Te  Te166  1  -0.00011301  0.49359194  0.33230331  1
  Te  Te167  1  0.00030020  0.50835293  0.66624735  1
  Te  Te168  1  -0.00342683  0.83342888  0.00082476  1
  Te  Te169  1  -0.00001907  0.83538331  0.33740315  1
  Te  Te170  1  -0.00030890  0.82710274  0.66113543  1
  Te  Te171  1  0.33247824  0.16228914  0.00026049  1
  Te  Te172  1  0.32800785  0.17124738  0.32940200  1
  Te  Te173  1  0.33649879  0.17119198  0.67100890  1
  Te  Te174  1  0.33310874  0.50514827  0.00734483  1
  Te  Te175  1  0.33836120  0.49710074  0.32832816  1
  Te  Te176  1  0.33928650  0.49905273  0.66517548  1
  Te  Te177  1  0.33357941  0.83179663  0.00030818  1
  Te  Te178  1  0.33361348  0.83057004  0.32828321  1
  Te  Te179  1  0.33263618  0.82820635  0.67018426  1
  Te  Te180  1  0.66539066  0.17445707  0.00150287  1
  Te  Te181  1  0.66437242  0.16741987  0.33291582  1
  Te  Te182  1  0.66619122  0.17061881  0.66619564  1
  Te  Te183  1  0.66709574  0.50146386  0.00344379  1
  Te  Te184  1  0.66175789  0.49606654  0.33108802  1
  Te  Te185  1  0.66321849  0.49972291  0.66389945  1
  Te  Te186  1  0.66660039  0.83213324  0.00449973  1
  Te  Te187  1  0.66629805  0.83558515  0.32402010  1
  Te  Te188  1  0.66780449  0.82363837  0.66602394  1
  Te  Te189  1  0.00212671  0.00459427  0.16797581  1
  Te  Te190  1  -0.00206337  0.00180468  0.49768581  1
  Te  Te191  1  -0.00247276  -0.00058593  0.83655776  1
  Te  Te192  1  0.00001703  0.32870252  0.17013603  1
  Te  Te193  1  -0.00472582  0.33060957  0.49599811  1
  Te  Te194  1  -0.00034307  0.33209995  0.83313491  1
  Te  Te195  1  0.00134352  0.66780329  0.16185803  1
  Te  Te196  1  0.00009944  0.66813433  0.50030416  1
  Te  Te197  1  -0.00117290  0.66754874  0.83557886  1
  Te  Te198  1  0.33105099  -0.00081729  0.16320619  1
  Te  Te199  1  0.33657483  -0.00031500  0.50020051  1
  Te  Te200  1  0.33655317  0.00179929  0.83867060  1
  Te  Te201  1  0.33232279  0.33342317  0.16570835  1
  Te  Te202  1  0.33408831  0.33228564  0.49938113  1
  Te  Te203  1  0.33578433  0.33318124  0.83430802  1
  Te  Te204  1  0.33278164  0.66689114  0.16667576  1
  Te  Te205  1  0.33676398  0.66731958  0.50154568  1
  Te  Te206  1  0.33508148  0.66468686  0.83438734  1
  Te  Te207  1  0.66710080  0.00049466  0.17253942  1
  Te  Te208  1  0.66831331  -0.00296541  0.49643062  1
  Te  Te209  1  0.66745830  -0.00023268  0.83244148  1
  Te  Te210  1  0.66828272  0.33561612  0.16724669  1
  Te  Te211  1  0.66558217  0.33575879  0.50036451  1
  Te  Te212  1  0.66791571  0.33232862  0.83085191  1
  Te  Te213  1  0.66672625  0.66485252  0.16411286  1
  Te  Te214  1  0.66533420  0.66381470  0.49992583  1
  Te  Te215  1  0.66259383  0.66650093  0.83442671  1
