# generated using pymatgen
data_AgSbTe2
_symmetry_space_group_name_H-M   'P 1'
_cell_length_a   18.32547692
_cell_length_b   18.32217831
_cell_length_c   18.32155086
_cell_angle_alpha   89.99750330
_cell_angle_beta   90.00017824
_cell_angle_gamma   90.00025906
_symmetry_Int_Tables_number   1
_chemical_formula_structural   AgSbTe2
_chemical_formula_sum   'Ag54 Sb54 Te108'
_cell_volume   6151.69256661
_cell_formula_units_Z   54
loop_
 _symmetry_equiv_pos_site_id
 _symmetry_equiv_pos_as_xyz
  1  'x, y, z'
loop_
 _atom_site_type_symbol
 _atom_site_label
 _atom_site_symmetry_multiplicity
 _atom_site_fract_x
 _atom_site_fract_y
 _atom_site_fract_z
 _atom_site_occupancy
  Ag  Ag0  1  0.83468148  0.83217596  -0.00400716  1
  Ag  Ag1  1  0.50726307  0.50251475  0.33922850  1
  Ag  Ag2  1  0.00003614  0.17301325  0.83107520  1
  Ag  Ag3  1  0.67107253  0.49195941  0.49906623  1
  Ag  Ag4  1  0.16913750  0.34015954  0.50386401  1
  Ag  Ag5  1  0.33458158  0.16444550  0.17567282  1
  Ag  Ag6  1  0.32683333  0.65961983  0.66600809  1
  Ag  Ag7  1  0.00048883  0.34061953  -0.00532259  1
  Ag  Ag8  1  0.00171766  0.83062793  0.17048165  1
  Ag  Ag9  1  0.83385278  0.34045317  0.82849303  1
  Ag  Ag10  1  0.00059276  0.66657316  0.34094700  1
  Ag  Ag11  1  0.16297467  0.67258461  0.17671735  1
  Ag  Ag12  1  0.50047573  0.83934915  0.66560764  1
  Ag  Ag13  1  0.65762266  0.32982127  0.66097527  1
  Ag  Ag14  1  0.00207240  0.82001864  0.49679296  1
  Ag  Ag15  1  0.50676213  0.33439440  0.50475099  1
  Ag  Ag16  1  0.33235616  0.00329739  0.33767903  1
  Ag  Ag17  1  0.33865335  0.32975765  0.66414064  1
  Ag  Ag18  1  0.16668846  -0.00342599  0.83164382  1
  Ag  Ag19  1  0.00819087  0.66273329  0.66707456  1
  Ag  Ag20  1  0.16231645  0.66076199  0.50543209  1
  Ag  Ag21  1  0.49779664  0.83254253  0.33955548  1
  Ag  Ag22  1  0.67138569  0.65856208  0.33493873  1
  Ag  Ag23  1  0.83984785  0.49825960  0.66469420  1
  Ag  Ag24  1  0.82757778  -0.00085412  0.16095660  1
  Ag  Ag25  1  0.00016865  0.50201488  0.50726774  1
  Ag  Ag26  1  0.33503227  0.17205331  0.50348583  1
  Ag  Ag27  1  0.15693098  0.66949658  0.82364099  1
  Ag  Ag28  1  0.17415865  0.17209604  0.66204620  1
  Ag  Ag29  1  0.50305541  0.66664590  0.82928304  1
  Ag  Ag30  1  -0.00451067  0.50212655  0.82582586  1
  Ag  Ag31  1  0.33028677  0.33243627  -0.00971835  1
  Ag  Ag32  1  0.50455024  -0.00060929  0.82599885  1
  Ag  Ag33  1  0.83661060  0.50185212  -0.01041694  1
  Ag  Ag34  1  0.65824083  0.17931719  0.50071784  1
  Ag  Ag35  1  0.16967946  -0.00212523  0.16804637  1
  Ag  Ag36  1  0.50456912  0.33264284  0.82209967  1
  Ag  Ag37  1  0.66892945  0.00018645  -0.01020252  1
  Ag  Ag38  1  0.82538625  -0.00309275  0.83552144  1
  Ag  Ag39  1  0.66573990  0.33792287  0.34788201  1
  Ag  Ag40  1  -0.00156653  0.66244838  -0.00930404  1
  Ag  Ag41  1  0.33805863  0.00695957  0.66478115  1
  Ag  Ag42  1  0.65954862  0.16309786  0.17350221  1
  Ag  Ag43  1  0.16977711  0.16090939  0.34013320  1
  Ag  Ag44  1  0.83928380  0.65845989  0.83392996  1
  Ag  Ag45  1  0.82134828  0.33930272  0.50920169  1
  Ag  Ag46  1  0.16101578  0.50102304  0.66310547  1
  Ag  Ag47  1  0.33060070  0.49078232  0.50331568  1
  Ag  Ag48  1  0.16719868  0.83420908  0.33397562  1
  Ag  Ag49  1  0.66731193  0.83643992  0.83058100  1
  Ag  Ag50  1  0.49965782  0.00163006  0.16542258  1
  Ag  Ag51  1  0.82951764  0.50147956  0.34394458  1
  Ag  Ag52  1  0.49557396  0.16692106  0.66592787  1
  Ag  Ag53  1  0.65757376  0.00616803  0.67140225  1
  Sb  Sb54  1  0.49639940  0.16586915  0.33932962  1
  Sb  Sb55  1  0.33732134  0.32883620  0.34376847  1
  Sb  Sb56  1  0.00234300  0.16148924  0.16330517  1
  Sb  Sb57  1  0.66874533  0.83184150  0.50319595  1
  Sb  Sb58  1  0.83925072  0.67050899  0.16317655  1
  Sb  Sb59  1  0.66536493  0.66257723  0.66368302  1
  Sb  Sb60  1  0.49580256  0.66053496  0.50397255  1
  Sb  Sb61  1  0.83989819  0.65836310  0.50494380  1
  Sb  Sb62  1  0.16752977  0.16648469  -0.00321768  1
  Sb  Sb63  1  -0.00406020  0.82789677  0.83281695  1
  Sb  Sb64  1  0.83193989  0.00492344  0.50348902  1
  Sb  Sb65  1  0.83008469  0.82910265  0.67185427  1
  Sb  Sb66  1  0.32828943  0.84014223  0.17014491  1
  Sb  Sb67  1  0.16063554  0.49976582  -0.00751115  1
  Sb  Sb68  1  0.33052731  0.83389427  0.50161570  1
  Sb  Sb69  1  0.49947159  0.00500971  0.50461831  1
  Sb  Sb70  1  0.66961677  0.83895397  0.16438415  1
  Sb  Sb71  1  0.67264029  0.50169573  0.82657863  1
  Sb  Sb72  1  0.33237467  0.49542628  0.17400149  1
  Sb  Sb73  1  0.32903318  0.49845625  0.82470118  1
  Sb  Sb74  1  0.66136966  0.00126662  0.33482087  1
  Sb  Sb75  1  0.16805668  0.33062013  0.17128994  1
  Sb  Sb76  1  -0.00504564  -0.00231257  -0.00237377  1
  Sb  Sb77  1  0.50634366  0.83560366  -0.00408769  1
  Sb  Sb78  1  0.83531252  0.82817142  0.33050616  1
  Sb  Sb79  1  0.83233467  0.17283451  0.66815807  1
  Sb  Sb80  1  0.49923171  0.49636847  0.66261153  1
  Sb  Sb81  1  0.83500696  0.17034199  0.33459553  1
  Sb  Sb82  1  0.66863339  0.16269676  0.82787875  1
  Sb  Sb83  1  0.00185491  -0.00464445  0.66960322  1
  Sb  Sb84  1  0.00008255  0.50655695  0.16638241  1
  Sb  Sb85  1  0.66883163  0.32878530  -0.00564797  1
  Sb  Sb86  1  0.16988398  0.83067458  0.66370256  1
  Sb  Sb87  1  0.49968825  0.16668707  -0.00613984  1
  Sb  Sb88  1  0.00386571  0.17222581  0.50551178  1
  Sb  Sb89  1  0.33700922  0.00510396  -0.00157622  1
  Sb  Sb90  1  0.33842071  0.83351840  0.83053363  1
  Sb  Sb91  1  0.83262994  0.33026745  0.16423579  1
  Sb  Sb92  1  0.67290809  0.66929822  -0.00015107  1
  Sb  Sb93  1  0.32978649  0.66919364  0.33950525  1
  Sb  Sb94  1  0.33036766  0.16727884  0.82650872  1
  Sb  Sb95  1  0.66834387  0.49506978  0.17553895  1
  Sb  Sb96  1  0.16799360  -0.00021993  0.50131767  1
  Sb  Sb97  1  0.50527436  0.49926592  -0.00020296  1
  Sb  Sb98  1  -0.00298525  0.33939061  0.33399391  1
  Sb  Sb99  1  0.83254778  0.16563353  -0.00271446  1
  Sb  Sb100  1  0.49531747  0.67285422  0.16713916  1
  Sb  Sb101  1  0.16480513  0.50296430  0.34276518  1
  Sb  Sb102  1  0.00587157  -0.00621781  0.33145551  1
  Sb  Sb103  1  0.15965969  0.83221200  0.00366083  1
  Sb  Sb104  1  0.32614685  0.66007500  -0.00743162  1
  Sb  Sb105  1  0.49950214  0.32694178  0.16956791  1
  Sb  Sb106  1  0.16389263  0.33321484  0.82521963  1
  Sb  Sb107  1  -0.00007542  0.34057306  0.66930761  1
  Te  Te108  1  0.16974785  0.16268046  0.17032176  1
  Te  Te109  1  0.16832527  0.16619201  0.50168702  1
  Te  Te110  1  0.16288198  0.16336500  0.82916482  1
  Te  Te111  1  0.16811420  0.50435981  0.16648056  1
  Te  Te112  1  0.16594196  0.50136208  0.50259527  1
  Te  Te113  1  0.16149367  0.50466351  0.82575431  1
  Te  Te114  1  0.16316368  0.83461829  0.16992113  1
  Te  Te115  1  0.16320898  0.82988168  0.49523791  1
  Te  Te116  1  0.16602858  0.83363647  0.83472821  1
  Te  Te117  1  0.49868358  0.16148116  0.16762544  1
  Te  Te118  1  0.49893571  0.17136094  0.50461610  1
  Te  Te119  1  0.50065091  0.16752095  0.82686568  1
  Te  Te120  1  0.49964426  0.50133877  0.17412322  1
  Te  Te121  1  0.49993206  0.49640167  0.49755992  1
  Te  Te122  1  0.50098733  0.49919575  0.83414329  1
  Te  Te123  1  0.49954591  0.83995968  0.16903430  1
  Te  Te124  1  0.50011791  0.83145645  0.49994965  1
  Te  Te125  1  0.50459805  0.83628292  0.83064279  1
  Te  Te126  1  0.83264706  0.15908217  0.16686943  1
  Te  Te127  1  0.83257461  0.17577388  0.49991011  1
  Te  Te128  1  0.83845831  0.16654715  0.83327852  1
  Te  Te129  1  0.83335723  0.49989284  0.16795130  1
  Te  Te130  1  0.83409844  0.49819213  0.50196213  1
  Te  Te131  1  0.83425359  0.49991396  0.83107978  1
  Te  Te132  1  0.83705800  0.83879983  0.16265785  1
  Te  Te133  1  0.83877007  0.83488916  0.49993843  1
  Te  Te134  1  0.83012021  0.83758026  0.83603237  1
  Te  Te135  1  0.16777507  -0.00015880  -0.00198495  1
  Te  Te136  1  0.17059997  -0.00184073  0.33218952  1
  Te  Te137  1  0.17003069  -0.00073702  0.67047311  1
  Te  Te138  1  0.16675526  0.33398690  -0.00018086  1
  Te  Te139  1  0.16604613  0.33025079  0.33907394  1
  Te  Te140  1  0.16898618  0.33323513  0.66421915  1
  Te  Te141  1  0.16031982  0.66541533  -0.00593879  1
  Te  Te142  1  0.16454600  0.66948101  0.33475371  1
  Te  Te143  1  0.16803372  0.66808509  0.66583195  1
  Te  Te144  1  0.50510185  -0.00018570  0.00003130  1
  Te  Te145  1  0.49523811  -0.00293301  0.33132912  1
  Te  Te146  1  0.49889227  0.00090470  0.66668860  1
  Te  Te147  1  0.49676827  0.33467421  -0.00378479  1
  Te  Te148  1  0.50456839  0.33503562  0.33656670  1
  Te  Te149  1  0.49853055  0.33421299  0.66494148  1
  Te  Te150  1  0.49893007  0.66701051  -0.00680974  1
  Te  Te151  1  0.49861788  0.66902281  0.33223650  1
  Te  Te152  1  0.49855971  0.66855790  0.67045591  1
  Te  Te153  1  0.82991215  -0.00140365  -0.00196736  1
  Te  Te154  1  0.83359225  -0.00011646  0.32959333  1
  Te  Te155  1  0.83154846  -0.00000055  0.67276114  1
  Te  Te156  1  0.83661161  0.33708611  -0.00424907  1
  Te  Te157  1  0.82870676  0.33838337  0.33225089  1
  Te  Te158  1  0.83392598  0.33693446  0.66780672  1
  Te  Te159  1  0.83674011  0.66593490  -0.00365011  1
  Te  Te160  1  0.83437500  0.66267261  0.33146179  1
  Te  Te161  1  0.83272606  0.66204294  0.67345983  1
  Te  Te162  1  0.00050757  0.17090960  -0.00573132  1
  Te  Te163  1  0.00741127  0.16732313  0.33356829  1
  Te  Te164  1  0.00550737  0.16401050  0.67102135  1
  Te  Te165  1  -0.00400380  0.50125629  -0.00022093  1
  Te  Te166  1  -0.00378870  0.50536020  0.33531160  1
  Te  Te167  1  0.00058042  0.50285834  0.66698395  1
  Te  Te168  1  -0.00602868  0.82819921  0.00291952  1
  Te  Te169  1  0.00224936  0.82806034  0.33401200  1
  Te  Te170  1  -0.00059001  0.82632894  0.66079337  1
  Te  Te171  1  0.33350238  0.17334614  0.00476289  1
  Te  Te172  1  0.33078260  0.16330780  0.33640118  1
  Te  Te173  1  0.33360953  0.16752398  0.66522831  1
  Te  Te174  1  0.33467504  0.49177469  0.00177244  1
  Te  Te175  1  0.33747339  0.50030709  0.34126805  1
  Te  Te176  1  0.33178419  0.49960523  0.66178339  1
  Te  Te177  1  0.33369393  0.83105055  0.00106839  1
  Te  Te178  1  0.33362281  0.83851329  0.33483565  1
  Te  Te179  1  0.34032152  0.83742291  0.66605808  1
  Te  Te180  1  0.66566913  0.16091667  0.00805291  1
  Te  Te181  1  0.66652037  0.16942093  0.33669336  1
  Te  Te182  1  0.66618222  0.16783154  0.66311444  1
  Te  Te183  1  0.67408313  0.49923187  0.00265796  1
  Te  Te184  1  0.66735139  0.49913469  0.33684345  1
  Te  Te185  1  0.66993384  0.49494102  0.66036051  1
  Te  Te186  1  0.67325350  0.83742243  -0.00433373  1
  Te  Te187  1  0.66292829  0.83116510  0.33404270  1
  Te  Te188  1  0.66200156  0.83518440  0.66976617  1
  Te  Te189  1  0.00491838  -0.00513403  0.16483496  1
  Te  Te190  1  -0.00149813  -0.00180351  0.50008418  1
  Te  Te191  1  0.00366700  0.00015254  0.83407959  1
  Te  Te192  1  0.00088832  0.33212208  0.15977177  1
  Te  Te193  1  0.00596060  0.33947229  0.49869493  1
  Te  Te194  1  -0.00164699  0.33608488  0.83505484  1
  Te  Te195  1  0.00467168  0.67125432  0.16814175  1
  Te  Te196  1  0.00033854  0.66268534  0.50124248  1
  Te  Te197  1  -0.00130427  0.66573801  0.83100618  1
  Te  Te198  1  0.33162905  0.00494823  0.16489556  1
  Te  Te199  1  0.33311408  0.00469126  0.50098684  1
  Te  Te200  1  0.33367626  0.00042845  0.83040661  1
  Te  Te201  1  0.33357843  0.32728255  0.16519911  1
  Te  Te202  1  0.32982028  0.33197363  0.50345340  1
  Te  Te203  1  0.33612018  0.33323275  0.83000803  1
  Te  Te204  1  0.32530001  0.66525451  0.16392783  1
  Te  Te205  1  0.32787746  0.66506302  0.50607281  1
  Te  Te206  1  0.33500172  0.66610730  0.82743207  1
  Te  Te207  1  0.66556761  0.00318588  0.16936509  1
  Te  Te208  1  0.66812220  0.00187127  0.50706510  1
  Te  Te209  1  0.66581181  0.00180212  0.83121820  1
  Te  Te210  1  0.66581728  0.32440537  0.16517257  1
  Te  Te211  1  0.66599128  0.33466514  0.50316980  1
  Te  Te212  1  0.66705795  0.33209954  0.82900571  1
  Te  Te213  1  0.66442827  0.66714583  0.17302903  1
  Te  Te214  1  0.66615028  0.66396910  0.49503463  1
  Te  Te215  1  0.66514727  0.67008951  0.83272333  1
