# generated using pymatgen
data_AgSbTe2
_symmetry_space_group_name_H-M   'P 1'
_cell_length_a   18.34878330
_cell_length_b   18.34685990
_cell_length_c   18.35196660
_cell_angle_alpha   90.00493525
_cell_angle_beta   89.99816899
_cell_angle_gamma   90.00650832
_symmetry_Int_Tables_number   1
_chemical_formula_structural   AgSbTe2
_chemical_formula_sum   'Ag54 Sb54 Te108'
_cell_volume   6178.05288962
_cell_formula_units_Z   54
loop_
 _symmetry_equiv_pos_site_id
 _symmetry_equiv_pos_as_xyz
  1  'x, y, z'
loop_
 _atom_site_type_symbol
 _atom_site_label
 _atom_site_symmetry_multiplicity
 _atom_site_fract_x
 _atom_site_fract_y
 _atom_site_fract_z
 _atom_site_occupancy
  Ag  Ag0  1  0.00192733  0.15509674  0.16613569  1
  Ag  Ag1  1  0.83807222  0.50181321  0.67269241  1
  Ag  Ag2  1  0.49345464  0.16020895  0.33032303  1
  Ag  Ag3  1  0.67677605  0.51152068  0.16126927  1
  Ag  Ag4  1  0.32332686  0.32971771  -0.00552936  1
  Ag  Ag5  1  0.33111360  0.34140309  0.67509269  1
  Ag  Ag6  1  0.50028170  0.33031474  0.50351847  1
  Ag  Ag7  1  -0.00724903  0.84035584  0.15637413  1
  Ag  Ag8  1  0.00207599  0.49323419  0.83499906  1
  Ag  Ag9  1  -0.00126966  -0.00288534  0.67523882  1
  Ag  Ag10  1  0.83536721  0.50761453  0.31706090  1
  Ag  Ag11  1  0.33478418  0.66897353  -0.00226387  1
  Ag  Ag12  1  -0.00342543  0.33873495  0.67702173  1
  Ag  Ag13  1  0.83669729  0.66771941  0.16445886  1
  Ag  Ag14  1  0.33002247  0.83064600  0.16142200  1
  Ag  Ag15  1  0.16027608  -0.00793897  0.16355300  1
  Ag  Ag16  1  0.66971786  0.66829826  0.32180692  1
  Ag  Ag17  1  0.00732475  0.16684332  0.49620583  1
  Ag  Ag18  1  0.32289415  0.49267434  0.83474262  1
  Ag  Ag19  1  -0.00131058  0.00064756  0.31776411  1
  Ag  Ag20  1  0.84044338  0.50292310  0.00009499  1
  Ag  Ag21  1  0.83088947  0.82705057  0.32100146  1
  Ag  Ag22  1  0.49777709  0.83512028  0.33316666  1
  Ag  Ag23  1  0.32307610  -0.00112698  -0.00084395  1
  Ag  Ag24  1  -0.00466375  0.66015989  0.66935932  1
  Ag  Ag25  1  0.32882659  0.16567029  0.50435876  1
  Ag  Ag26  1  0.33564680  0.83464842  0.50190865  1
  Ag  Ag27  1  0.67964010  0.34081428  0.67318528  1
  Ag  Ag28  1  0.32616623  0.83155291  0.83802688  1
  Ag  Ag29  1  0.67554422  0.34037613  -0.00423908  1
  Ag  Ag30  1  -0.00068641  0.83404081  0.83846646  1
  Ag  Ag31  1  0.83393882  0.33530483  0.51157619  1
  Ag  Ag32  1  0.84589334  -0.01625917  0.15736243  1
  Ag  Ag33  1  0.16642417  0.17224919  0.00340042  1
  Ag  Ag34  1  0.33137158  0.66552270  0.67157671  1
  Ag  Ag35  1  0.00234117  0.00352330  0.00137574  1
  Ag  Ag36  1  0.15931071  0.49520230  -0.00300251  1
  Ag  Ag37  1  0.15559896  0.49997918  0.67746713  1
  Ag  Ag38  1  0.83626372  0.82579038  0.00559168  1
  Ag  Ag39  1  0.67911253  0.82888703  0.16631125  1
  Ag  Ag40  1  0.16758795  0.16668510  0.32520918  1
  Ag  Ag41  1  0.33208228  0.17483299  0.84193045  1
  Ag  Ag42  1  0.15474689  0.67295534  0.16547759  1
  Ag  Ag43  1  0.84341658  0.33457437  0.83225754  1
  Ag  Ag44  1  0.00175051  0.34057049  -0.00259034  1
  Ag  Ag45  1  0.16248842  0.33587959  0.83515079  1
  Ag  Ag46  1  -0.00302022  0.50404265  0.15410979  1
  Ag  Ag47  1  0.48697179  0.16903009  0.00515562  1
  Ag  Ag48  1  0.67231239  0.66222132  0.00629514  1
  Ag  Ag49  1  0.67827825  0.66405621  0.66895618  1
  Ag  Ag50  1  0.33673195  0.67225900  0.32279122  1
  Ag  Ag51  1  0.83628177  0.82311836  0.66902906  1
  Ag  Ag52  1  0.49713454  0.83171940  0.66363294  1
  Ag  Ag53  1  0.83931221  -0.00240944  0.84002607  1
  Sb  Sb54  1  0.49659753  0.00200775  0.49977061  1
  Sb  Sb55  1  0.16502509  0.83618760  0.32878959  1
  Sb  Sb56  1  0.67121597  -0.00597359  0.33008649  1
  Sb  Sb57  1  0.16546818  0.00122357  0.49578455  1
  Sb  Sb58  1  0.00298321  0.16798718  0.83597689  1
  Sb  Sb59  1  0.16432148  0.82587339  0.66917122  1
  Sb  Sb60  1  0.32886831  -0.00325812  0.32783242  1
  Sb  Sb61  1  0.49845318  0.66475852  0.50101939  1
  Sb  Sb62  1  0.16398487  0.83080231  0.00139031  1
  Sb  Sb63  1  0.16357053  0.33273371  0.15869417  1
  Sb  Sb64  1  0.49932695  0.83582028  0.00130022  1
  Sb  Sb65  1  0.16785846  0.65972042  0.83968019  1
  Sb  Sb66  1  0.32789868  0.50680422  0.15855720  1
  Sb  Sb67  1  0.16260325  0.49793442  0.32760592  1
  Sb  Sb68  1  0.50086499  0.33101228  0.16535803  1
  Sb  Sb69  1  0.83474620  0.33820332  0.16145074  1
  Sb  Sb70  1  0.16496945  0.33099284  0.50756808  1
  Sb  Sb71  1  0.16468221  0.17042645  0.67107549  1
  Sb  Sb72  1  0.33300859  0.49969704  0.50569362  1
  Sb  Sb73  1  0.50064365  0.49612984  -0.00060597  1
  Sb  Sb74  1  0.83769449  0.66636885  0.83643735  1
  Sb  Sb75  1  0.67347410  -0.00296727  0.66852406  1
  Sb  Sb76  1  0.67160556  0.16458654  0.16422724  1
  Sb  Sb77  1  -0.00118728  0.67011003  0.33150731  1
  Sb  Sb78  1  0.67183682  -0.00132461  0.00147290  1
  Sb  Sb79  1  -0.00119592  0.33126928  0.33100729  1
  Sb  Sb80  1  0.00015692  0.66536686  -0.00084433  1
  Sb  Sb81  1  0.66824779  0.33824150  0.33093643  1
  Sb  Sb82  1  0.66969620  0.49965380  0.49884000  1
  Sb  Sb83  1  0.50437334  0.66892048  0.16691308  1
  Sb  Sb84  1  0.49960218  -0.00136875  0.83492556  1
  Sb  Sb85  1  0.16264623  0.00402143  0.83971076  1
  Sb  Sb86  1  0.49850240  -0.00182669  0.16446092  1
  Sb  Sb87  1  0.83807660  0.00292751  0.50063894  1
  Sb  Sb88  1  0.67320903  0.49998724  0.83641291  1
  Sb  Sb89  1  0.32738962  -0.00232808  0.67251953  1
  Sb  Sb90  1  0.50261279  0.50343449  0.33237537  1
  Sb  Sb91  1  0.66581848  0.17179025  0.49994534  1
  Sb  Sb92  1  0.49544954  0.66827320  0.83119193  1
  Sb  Sb93  1  0.49629011  0.16616805  0.66658038  1
  Sb  Sb94  1  0.00187928  0.83745573  0.50120994  1
  Sb  Sb95  1  0.84004537  0.16858946  0.00068649  1
  Sb  Sb96  1  0.66464193  0.83116635  0.49770529  1
  Sb  Sb97  1  0.67186602  0.83083576  0.83637512  1
  Sb  Sb98  1  0.33372579  0.33492157  0.33334345  1
  Sb  Sb99  1  0.83337101  0.66424124  0.49891078  1
  Sb  Sb100  1  0.32663010  0.16409558  0.16247555  1
  Sb  Sb101  1  0.16849427  0.66681220  0.49765203  1
  Sb  Sb102  1  0.50213150  0.50207952  0.66808873  1
  Sb  Sb103  1  0.83623557  0.16584841  0.33204252  1
  Sb  Sb104  1  0.49567263  0.33293771  0.83241536  1
  Sb  Sb105  1  0.66332381  0.16978773  0.83570719  1
  Sb  Sb106  1  0.83664668  0.17050288  0.66702125  1
  Sb  Sb107  1  -0.00260256  0.49429739  0.50593442  1
  Te  Te108  1  0.16185154  0.16743734  0.16512023  1
  Te  Te109  1  0.16787544  0.16680121  0.49507968  1
  Te  Te110  1  0.17297115  0.17167027  0.83849054  1
  Te  Te111  1  0.16005376  0.50406364  0.16116335  1
  Te  Te112  1  0.16672297  0.49926205  0.50134048  1
  Te  Te113  1  0.16454565  0.49950412  0.83474229  1
  Te  Te114  1  0.16850110  0.83185953  0.16714341  1
  Te  Te115  1  0.17560923  0.83410466  0.49945927  1
  Te  Te116  1  0.16296926  0.83471747  0.83388407  1
  Te  Te117  1  0.50245967  0.16538085  0.16896333  1
  Te  Te118  1  0.49610162  0.16861934  0.49635954  1
  Te  Te119  1  0.49320886  0.16535820  0.83732446  1
  Te  Te120  1  0.51016322  0.49781880  0.16783913  1
  Te  Te121  1  0.50057607  0.48959334  0.49952256  1
  Te  Te122  1  0.48588581  0.50014159  0.83338683  1
  Te  Te123  1  0.49054969  0.83459675  0.17053882  1
  Te  Te124  1  0.49605383  0.83230350  0.49903087  1
  Te  Te125  1  0.49702311  0.83504151  0.82887546  1
  Te  Te126  1  0.84017348  0.16332228  0.16817081  1
  Te  Te127  1  0.83540975  0.17247637  0.49952581  1
  Te  Te128  1  0.83063257  0.16722201  0.83368164  1
  Te  Te129  1  0.83417071  0.50108082  0.16201123  1
  Te  Te130  1  0.83307979  0.49443697  0.50901154  1
  Te  Te131  1  0.83837530  0.49794265  0.83592596  1
  Te  Te132  1  0.83552238  0.82874265  0.16621002  1
  Te  Te133  1  0.83295749  0.83406267  0.50858437  1
  Te  Te134  1  0.83680589  0.83338930  0.82999477  1
  Te  Te135  1  0.16403902  -0.00096585  0.00346992  1
  Te  Te136  1  0.16205057  0.00530425  0.32792305  1
  Te  Te137  1  0.15795503  0.00003068  0.66751633  1
  Te  Te138  1  0.16460939  0.33448247  -0.00242572  1
  Te  Te139  1  0.16698337  0.32805009  0.33336439  1
  Te  Te140  1  0.16955138  0.33659679  0.67222545  1
  Te  Te141  1  0.17230129  0.66231541  0.00686528  1
  Te  Te142  1  0.17167438  0.66432909  0.32663007  1
  Te  Te143  1  0.17046658  0.65812911  0.66376038  1
  Te  Te144  1  0.49857962  0.00717525  -0.00081702  1
  Te  Te145  1  0.49936803  -0.00165289  0.33276100  1
  Te  Te146  1  0.50262701  -0.00816315  0.66711325  1
  Te  Te147  1  0.50031684  0.32774492  -0.00059867  1
  Te  Te148  1  0.50152456  0.33084978  0.33792488  1
  Te  Te149  1  0.49323286  0.33126046  0.66345232  1
  Te  Te150  1  0.49897437  0.66767629  -0.00119770  1
  Te  Te151  1  0.49853918  0.67121762  0.33576974  1
  Te  Te152  1  0.49301604  0.67194054  0.66535340  1
  Te  Te153  1  0.83688406  0.00079184  0.00008744  1
  Te  Te154  1  0.83896414  -0.00336591  0.33274561  1
  Te  Te155  1  0.83829756  -0.00053545  0.66850346  1
  Te  Te156  1  0.83511327  0.33503310  -0.00357300  1
  Te  Te157  1  0.83117784  0.33731616  0.33556543  1
  Te  Te158  1  0.83567167  0.33449666  0.67013478  1
  Te  Te159  1  0.83225261  0.66675326  0.00135007  1
  Te  Te160  1  0.83217743  0.66675147  0.33369463  1
  Te  Te161  1  0.83564658  0.66309513  0.66612222  1
  Te  Te162  1  0.00365597  0.16410467  0.00243513  1
  Te  Te163  1  0.00075642  0.16443786  0.33162257  1
  Te  Te164  1  0.00119183  0.16906336  0.66529629  1
  Te  Te165  1  -0.00089769  0.50280762  -0.00432186  1
  Te  Te166  1  -0.00545704  0.50032987  0.33551587  1
  Te  Te167  1  -0.00020166  0.49881235  0.66821611  1
  Te  Te168  1  -0.00304425  0.83171044  -0.00148987  1
  Te  Te169  1  -0.00401082  0.83767264  0.33447032  1
  Te  Te170  1  -0.00285732  0.83340398  0.66569986  1
  Te  Te171  1  0.32929224  0.16867366  0.00210173  1
  Te  Te172  1  0.33259205  0.16638857  0.33178971  1
  Te  Te173  1  0.33226365  0.16469303  0.66375805  1
  Te  Te174  1  0.33334233  0.50217055  -0.00325263  1
  Te  Te175  1  0.33201586  0.50642004  0.33202538  1
  Te  Te176  1  0.33658113  0.50005433  0.66954551  1
  Te  Te177  1  0.33436417  0.83214767  -0.00098641  1
  Te  Te178  1  0.33306240  0.83223088  0.33371313  1
  Te  Te179  1  0.33224291  0.83336274  0.66796803  1
  Te  Te180  1  0.66306134  0.16978898  0.00094236  1
  Te  Te181  1  0.66083765  0.16704617  0.33247616  1
  Te  Te182  1  0.66460041  0.17133970  0.66717632  1
  Te  Te183  1  0.66672462  0.50081630  0.00070827  1
  Te  Te184  1  0.67150487  0.50690251  0.33056156  1
  Te  Te185  1  0.66964400  0.49976935  0.66915523  1
  Te  Te186  1  0.66870578  0.83058168  0.00354604  1
  Te  Te187  1  0.66848091  0.82884061  0.33128493  1
  Te  Te188  1  0.66862728  0.82959744  0.66799346  1
  Te  Te189  1  0.00263318  -0.00213839  0.16290705  1
  Te  Te190  1  0.00075290  0.00653565  0.50676988  1
  Te  Te191  1  -0.00207830  0.00050218  0.83514831  1
  Te  Te192  1  -0.00132459  0.34233006  0.16136675  1
  Te  Te193  1  -0.00301916  0.32765446  0.49963782  1
  Te  Te194  1  0.00139338  0.33147102  0.83554694  1
  Te  Te195  1  -0.00255617  0.66739112  0.16710920  1
  Te  Te196  1  0.00176923  0.66787319  0.50720808  1
  Te  Te197  1  0.00228853  0.67457442  0.82716042  1
  Te  Te198  1  0.33074493  -0.00423249  0.16024673  1
  Te  Te199  1  0.33237088  0.00116729  0.50157650  1
  Te  Te200  1  0.33386798  -0.00327128  0.83970829  1
  Te  Te201  1  0.33420986  0.33777461  0.16146863  1
  Te  Te202  1  0.33452436  0.32990136  0.49968645  1
  Te  Te203  1  0.33316696  0.33281399  0.83451484  1
  Te  Te204  1  0.33697646  0.66808897  0.16585806  1
  Te  Te205  1  0.33351146  0.66944401  0.50491006  1
  Te  Te206  1  0.33110220  0.67196448  0.83412856  1
  Te  Te207  1  0.67220614  -0.00687978  0.16635343  1
  Te  Te208  1  0.66604403  0.00232169  0.49962861  1
  Te  Te209  1  0.67706958  0.00071337  0.83358552  1
  Te  Te210  1  0.66731771  0.33347469  0.15962634  1
  Te  Te211  1  0.66849707  0.33393392  0.50516592  1
  Te  Te212  1  0.66834844  0.33510308  0.83404869  1
  Te  Te213  1  0.66825504  0.66873179  0.16575897  1
  Te  Te214  1  0.66523629  0.66637203  0.51071326  1
  Te  Te215  1  0.66406955  0.66569388  0.82810171  1
