# generated using pymatgen
data_AgSbTe2
_symmetry_space_group_name_H-M   'P 1'
_cell_length_a   18.32759520
_cell_length_b   18.32146224
_cell_length_c   18.32189400
_cell_angle_alpha   89.99890367
_cell_angle_beta   89.99688897
_cell_angle_gamma   90.00325038
_symmetry_Int_Tables_number   1
_chemical_formula_structural   AgSbTe2
_chemical_formula_sum   'Ag54 Sb54 Te108'
_cell_volume   6152.27841418
_cell_formula_units_Z   54
loop_
 _symmetry_equiv_pos_site_id
 _symmetry_equiv_pos_as_xyz
  1  'x, y, z'
loop_
 _atom_site_type_symbol
 _atom_site_label
 _atom_site_symmetry_multiplicity
 _atom_site_fract_x
 _atom_site_fract_y
 _atom_site_fract_z
 _atom_site_occupancy
  Ag  Ag0  1  0.66161148  0.50550078  0.83677252  1
  Ag  Ag1  1  0.66763769  0.16248117  0.50490737  1
  Ag  Ag2  1  -0.00018769  0.33621793  0.33413440  1
  Ag  Ag3  1  0.49556176  0.00727367  0.83471455  1
  Ag  Ag4  1  0.17134667  0.50261990  0.67007338  1
  Ag  Ag5  1  -0.00071571  0.17368398  0.83266231  1
  Ag  Ag6  1  0.66065446  0.16766724  0.16031770  1
  Ag  Ag7  1  0.50606785  0.16831005  0.67854181  1
  Ag  Ag8  1  0.32672012  -0.00637815  0.32449471  1
  Ag  Ag9  1  0.67309160  0.83318637  0.50557030  1
  Ag  Ag10  1  0.33163575  0.83146357  0.16858980  1
  Ag  Ag11  1  0.34064701  0.50155823  0.83681947  1
  Ag  Ag12  1  0.65927055  0.16845611  0.83438577  1
  Ag  Ag13  1  0.16992223  0.66471693  0.83811829  1
  Ag  Ag14  1  0.34194918  0.16897859  0.84128024  1
  Ag  Ag15  1  -0.00229148  0.33441736  0.67185708  1
  Ag  Ag16  1  0.82393695  0.65856709  0.83681192  1
  Ag  Ag17  1  0.65965368  0.65866568  -0.00221272  1
  Ag  Ag18  1  -0.00852144  0.83315234  0.49655473  1
  Ag  Ag19  1  0.82611053  0.16470873  0.67011108  1
  Ag  Ag20  1  0.66348604  0.82256974  0.82905546  1
  Ag  Ag21  1  0.34078200  0.33731630  -0.00159290  1
  Ag  Ag22  1  0.16802640  0.66531287  0.48578978  1
  Ag  Ag23  1  0.82697106  0.50043878  -0.00568512  1
  Ag  Ag24  1  0.00393921  0.66159744  -0.00266383  1
  Ag  Ag25  1  0.82759929  0.83598767  0.66051097  1
  Ag  Ag26  1  0.83691852  0.50463135  0.32851941  1
  Ag  Ag27  1  0.33765859  0.66403286  0.00333098  1
  Ag  Ag28  1  0.33017852  0.66527287  0.32449510  1
  Ag  Ag29  1  0.00796719  0.00089679  0.33230680  1
  Ag  Ag30  1  0.17160484  -0.00366821  0.17183479  1
  Ag  Ag31  1  0.83344212  0.33674370  0.16065786  1
  Ag  Ag32  1  0.49732044  0.50603893  0.32924344  1
  Ag  Ag33  1  0.50599808  0.82662892  0.67162344  1
  Ag  Ag34  1  0.16748641  0.15709005  0.33123366  1
  Ag  Ag35  1  0.66281456  0.34056022  -0.00248985  1
  Ag  Ag36  1  0.83438657  0.34212900  0.83768958  1
  Ag  Ag37  1  -0.00306320  0.50078624  0.83725120  1
  Ag  Ag38  1  0.83297698  -0.00597706  0.49851278  1
  Ag  Ag39  1  -0.00152313  0.50141812  0.16480708  1
  Ag  Ag40  1  0.83760226  0.82812812  0.33882840  1
  Ag  Ag41  1  0.16508353  0.82878292  0.33241774  1
  Ag  Ag42  1  0.49543941  0.50127174  0.67951081  1
  Ag  Ag43  1  0.33399522  0.00422423  0.00297798  1
  Ag  Ag44  1  0.50279076  0.65874918  0.83844260  1
  Ag  Ag45  1  0.50278351  0.50256783  -0.00220443  1
  Ag  Ag46  1  0.33546988  0.16055231  0.15758150  1
  Ag  Ag47  1  0.17390727  -0.00175626  0.83780552  1
  Ag  Ag48  1  0.16781830  0.50983027  0.33504195  1
  Ag  Ag49  1  0.33203582  0.50271763  0.50063238  1
  Ag  Ag50  1  0.66267902  0.66436645  0.32823951  1
  Ag  Ag51  1  0.17401083  0.66892854  0.16981432  1
  Ag  Ag52  1  0.49294857  0.66545203  0.15791734  1
  Ag  Ag53  1  0.49732631  0.17221858  -0.00372229  1
  Sb  Sb54  1  0.66999531  0.49858445  0.15854956  1
  Sb  Sb55  1  0.33186514  0.33682602  0.67616190  1
  Sb  Sb56  1  0.66281761  0.50199487  0.50263529  1
  Sb  Sb57  1  0.82577816  0.17445872  -0.00716503  1
  Sb  Sb58  1  0.66541980  -0.00359388  0.33313910  1
  Sb  Sb59  1  0.66018546  0.00160872  -0.00220996  1
  Sb  Sb60  1  0.00619909  -0.00251095  0.00255603  1
  Sb  Sb61  1  0.49955838  0.82692640  -0.00670462  1
  Sb  Sb62  1  0.83586426  0.16781734  0.33598094  1
  Sb  Sb63  1  0.33806509  0.83088043  0.83812386  1
  Sb  Sb64  1  0.32838819  0.33796259  0.32620762  1
  Sb  Sb65  1  0.33048488  0.50425660  0.16282227  1
  Sb  Sb66  1  0.49689315  0.16988344  0.32942768  1
  Sb  Sb67  1  0.16971894  0.82991151  0.00481374  1
  Sb  Sb68  1  0.00408596  0.50449318  0.49929033  1
  Sb  Sb69  1  0.33402611  0.82746463  0.49421990  1
  Sb  Sb70  1  0.49155576  -0.00399218  0.16073196  1
  Sb  Sb71  1  0.16364912  -0.00588541  0.49486517  1
  Sb  Sb72  1  0.50302220  -0.00202837  0.50502553  1
  Sb  Sb73  1  0.83280029  0.50060121  0.67172440  1
  Sb  Sb74  1  0.66307372  0.83262278  0.16551230  1
  Sb  Sb75  1  0.50128949  0.33409303  0.50032921  1
  Sb  Sb76  1  0.83163179  0.82435725  -0.00197545  1
  Sb  Sb77  1  0.33708138  0.17036672  0.50046098  1
  Sb  Sb78  1  0.50631411  0.33501714  0.83601627  1
  Sb  Sb79  1  -0.00392683  0.82967033  0.82860102  1
  Sb  Sb80  1  0.16704319  0.17120542  0.66784460  1
  Sb  Sb81  1  0.00456167  0.82745357  0.17213992  1
  Sb  Sb82  1  0.83402401  0.33142230  0.50226538  1
  Sb  Sb83  1  0.67069130  0.33125425  0.67517958  1
  Sb  Sb84  1  0.33430235  0.00048249  0.67070265  1
  Sb  Sb85  1  0.66594249  0.66824246  0.67094802  1
  Sb  Sb86  1  0.00199642  0.17180769  0.16327449  1
  Sb  Sb87  1  0.17468017  0.16545243  0.00142908  1
  Sb  Sb88  1  0.00064580  0.66185301  0.67251852  1
  Sb  Sb89  1  0.49955922  0.82741702  0.33628960  1
  Sb  Sb90  1  -0.00317911  0.16323004  0.50159805  1
  Sb  Sb91  1  0.16822099  0.50387667  -0.00169865  1
  Sb  Sb92  1  0.66627161  -0.00045929  0.66848626  1
  Sb  Sb93  1  0.16616456  0.82758469  0.66373068  1
  Sb  Sb94  1  0.00299274  0.66505299  0.32901729  1
  Sb  Sb95  1  0.16179147  0.33737484  0.83386004  1
  Sb  Sb96  1  0.50166638  0.33886447  0.16359171  1
  Sb  Sb97  1  0.83139453  0.00059969  0.83045845  1
  Sb  Sb98  1  0.49646795  0.66595564  0.50117401  1
  Sb  Sb99  1  0.83388108  0.66119990  0.16338171  1
  Sb  Sb100  1  0.67205211  0.33912098  0.32697639  1
  Sb  Sb101  1  -0.00295121  0.33924449  -0.00063352  1
  Sb  Sb102  1  -0.00018334  0.00292657  0.66486512  1
  Sb  Sb103  1  0.83885356  0.00388160  0.17219079  1
  Sb  Sb104  1  0.16443171  0.33672225  0.16735222  1
  Sb  Sb105  1  0.33416737  0.66448381  0.67148743  1
  Sb  Sb106  1  0.83581487  0.67117407  0.50127172  1
  Sb  Sb107  1  0.16627162  0.33963150  0.49848051  1
  Te  Te108  1  0.16900491  0.16435464  0.17080742  1
  Te  Te109  1  0.16760709  0.16581392  0.49519177  1
  Te  Te110  1  0.16541318  0.16415047  0.83170207  1
  Te  Te111  1  0.16196321  0.50415894  0.17012787  1
  Te  Te112  1  0.17031246  0.50549816  0.49906087  1
  Te  Te113  1  0.16378308  0.50225777  0.83173490  1
  Te  Te114  1  0.17015500  0.83203050  0.17129126  1
  Te  Te115  1  0.16610490  0.82691507  0.49605379  1
  Te  Te116  1  0.16615988  0.83205772  0.83112936  1
  Te  Te117  1  0.49943990  0.16625629  0.16363610  1
  Te  Te118  1  0.50666002  0.16615422  0.50156754  1
  Te  Te119  1  0.49824878  0.17054125  0.83525349  1
  Te  Te120  1  0.50078137  0.50528874  0.16687246  1
  Te  Te121  1  0.49497935  0.50059197  0.49679664  1
  Te  Te122  1  0.50039812  0.49926374  0.83665798  1
  Te  Te123  1  0.49484510  0.82713458  0.16759991  1
  Te  Te124  1  0.50657885  0.83348164  0.50949223  1
  Te  Te125  1  0.50333850  0.83141275  0.82936146  1
  Te  Te126  1  0.83180317  0.17207799  0.16574823  1
  Te  Te127  1  0.82887290  0.16301865  0.50456719  1
  Te  Te128  1  0.83481380  0.16469451  0.82905921  1
  Te  Te129  1  0.83583399  0.49742461  0.16861263  1
  Te  Te130  1  0.83223881  0.50077932  0.49544412  1
  Te  Te131  1  0.83470124  0.50131176  0.83278738  1
  Te  Te132  1  0.83279817  0.83450273  0.17345411  1
  Te  Te133  1  0.83144199  0.83339899  0.49921547  1
  Te  Te134  1  0.82781493  0.83229547  0.82951264  1
  Te  Te135  1  0.17249746  -0.00180785  -0.00143020  1
  Te  Te136  1  0.16749882  -0.00240740  0.33332062  1
  Te  Te137  1  0.16720433  -0.00102452  0.67267166  1
  Te  Te138  1  0.17469067  0.33357758  0.00110432  1
  Te  Te139  1  0.16079923  0.33700102  0.33289760  1
  Te  Te140  1  0.16013306  0.34026919  0.66554413  1
  Te  Te141  1  0.16957739  0.66694437  -0.00113388  1
  Te  Te142  1  0.16605711  0.66782316  0.32966251  1
  Te  Te143  1  0.16756208  0.66134396  0.67491986  1
  Te  Te144  1  0.49414905  0.00364752  -0.00523580  1
  Te  Te145  1  0.49282581  -0.00010876  0.33308882  1
  Te  Te146  1  0.49896149  0.00550203  0.67298362  1
  Te  Te147  1  0.50113188  0.33597298  0.00146568  1
  Te  Te148  1  0.50055690  0.34316786  0.33187747  1
  Te  Te149  1  0.49978862  0.33523784  0.66609132  1
  Te  Te150  1  0.49997721  0.66503568  -0.00112131  1
  Te  Te151  1  0.49831389  0.66428393  0.33451341  1
  Te  Te152  1  0.49984395  0.66325268  0.67230263  1
  Te  Te153  1  0.83569623  -0.00136845  0.00264766  1
  Te  Te154  1  0.83562992  -0.00241935  0.33761397  1
  Te  Te155  1  0.83475122  -0.00035511  0.66207470  1
  Te  Te156  1  0.83080640  0.33956860  -0.00029977  1
  Te  Te157  1  0.83810232  0.33667021  0.33113711  1
  Te  Te158  1  0.83776010  0.33008914  0.67032614  1
  Te  Te159  1  0.83077314  0.66106206  -0.00324204  1
  Te  Te160  1  0.83306714  0.66621944  0.33234873  1
  Te  Te161  1  0.83337404  0.67105387  0.67352660  1
  Te  Te162  1  -0.00080553  0.16694206  -0.00628377  1
  Te  Te163  1  0.00404814  0.16625260  0.33280421  1
  Te  Te164  1  -0.00120949  0.17076789  0.67028319  1
  Te  Te165  1  -0.00051935  0.50189292  -0.00175225  1
  Te  Te166  1  0.00017836  0.49924871  0.33412183  1
  Te  Te167  1  0.00062537  0.49514732  0.66912327  1
  Te  Te168  1  -0.00145317  0.82577303  -0.00011945  1
  Te  Te169  1  0.00007752  0.83307535  0.33546013  1
  Te  Te170  1  -0.00339162  0.83410326  0.66006514  1
  Te  Te171  1  0.33587085  0.16445065  -0.00192234  1
  Te  Te172  1  0.32918206  0.16925979  0.33379368  1
  Te  Te173  1  0.33785686  0.16898605  0.67015101  1
  Te  Te174  1  0.33546715  0.50180908  -0.00273972  1
  Te  Te175  1  0.33124877  0.50213824  0.33042820  1
  Te  Te176  1  0.33375776  0.49987105  0.67070929  1
  Te  Te177  1  0.33461214  0.83051776  0.00699315  1
  Te  Te178  1  0.33198086  0.83065999  0.33031546  1
  Te  Te179  1  0.33973996  0.83319251  0.66425706  1
  Te  Te180  1  0.66141892  0.16763691  -0.00184776  1
  Te  Te181  1  0.66591413  0.16818949  0.33228709  1
  Te  Te182  1  0.66623352  0.16670729  0.66945849  1
  Te  Te183  1  0.66597026  0.50048498  -0.00255254  1
  Te  Te184  1  0.66644812  0.50429988  0.33448349  1
  Te  Te185  1  0.66093485  0.49898393  0.67189425  1
  Te  Te186  1  0.66689910  0.82985870  -0.00452478  1
  Te  Te187  1  0.66878002  0.82921252  0.33375729  1
  Te  Te188  1  0.66689713  0.83304092  0.66778225  1
  Te  Te189  1  0.00772948  0.00010508  0.17089053  1
  Te  Te190  1  -0.00363116  -0.00424396  0.49437204  1
  Te  Te191  1  0.00452962  0.00051910  0.83475872  1
  Te  Te192  1  -0.00448928  0.33872321  0.16887794  1
  Te  Te193  1  -0.00035682  0.33221435  0.49628905  1
  Te  Te194  1  -0.00444823  0.33470329  0.83388334  1
  Te  Te195  1  0.00262261  0.66159383  0.15967459  1
  Te  Te196  1  0.00545699  0.67221079  0.50228781  1
  Te  Te197  1  0.00346115  0.66478070  0.83734000  1
  Te  Te198  1  0.33058399  0.00075641  0.16632316  1
  Te  Te199  1  0.33313445  0.00072208  0.49388023  1
  Te  Te200  1  0.33418123  -0.00120530  0.83612064  1
  Te  Te201  1  0.33334756  0.32467813  0.15944246  1
  Te  Te202  1  0.33369796  0.34137018  0.49928918  1
  Te  Te203  1  0.32934275  0.33457053  0.83891160  1
  Te  Te204  1  0.33357701  0.66502849  0.16484149  1
  Te  Te205  1  0.32913616  0.66186449  0.49523963  1
  Te  Te206  1  0.33380295  0.66481687  0.83754611  1
  Te  Te207  1  0.66677822  0.00620763  0.16623117  1
  Te  Te208  1  0.67033342  -0.00092880  0.49771174  1
  Te  Te209  1  0.66161660  0.00511212  0.83517300  1
  Te  Te210  1  0.67068803  0.32821232  0.16061234  1
  Te  Te211  1  0.66842009  0.32788616  0.49957249  1
  Te  Te212  1  0.67407524  0.33005719  0.83827649  1
  Te  Te213  1  0.66348963  0.66741829  0.16594793  1
  Te  Te214  1  0.66743728  0.67017483  0.49322812  1
  Te  Te215  1  0.66472380  0.66512125  0.83491791  1
