# generated using pymatgen
data_AgSbTe2
_symmetry_space_group_name_H-M   'P 1'
_cell_length_a   18.31684579
_cell_length_b   18.31334259
_cell_length_c   18.31262234
_cell_angle_alpha   89.99697173
_cell_angle_beta   90.00042652
_cell_angle_gamma   90.00042433
_symmetry_Int_Tables_number   1
_chemical_formula_structural   AgSbTe2
_chemical_formula_sum   'Ag54 Sb54 Te108'
_cell_volume   6142.83496373
_cell_formula_units_Z   54
loop_
 _symmetry_equiv_pos_site_id
 _symmetry_equiv_pos_as_xyz
  1  'x, y, z'
loop_
 _atom_site_type_symbol
 _atom_site_label
 _atom_site_symmetry_multiplicity
 _atom_site_fract_x
 _atom_site_fract_y
 _atom_site_fract_z
 _atom_site_occupancy
  Ag  Ag0  1  0.17472983  0.50231075  0.33249786  1
  Ag  Ag1  1  0.82726663  0.66612765  0.49389823  1
  Ag  Ag2  1  0.67254226  -0.00488252  0.00976229  1
  Ag  Ag3  1  0.32800726  -0.00543276  0.66136734  1
  Ag  Ag4  1  0.50132738  0.66925457  0.49253972  1
  Ag  Ag5  1  0.49138954  0.82939628  0.65752592  1
  Ag  Ag6  1  0.83074782  0.66485739  0.16592064  1
  Ag  Ag7  1  0.16437944  0.33166299  0.49260855  1
  Ag  Ag8  1  0.49596152  0.66593457  0.17404266  1
  Ag  Ag9  1  0.00297358  0.83687935  0.50021343  1
  Ag  Ag10  1  0.82203979  0.50312412  0.33126901  1
  Ag  Ag11  1  0.17537291  0.82966510  0.33808039  1
  Ag  Ag12  1  0.49974624  0.82865142  0.00446451  1
  Ag  Ag13  1  0.65908678  0.82528939  0.49778269  1
  Ag  Ag14  1  0.66640535  0.50739978  0.49005525  1
  Ag  Ag15  1  0.83363178  -0.00120257  0.17036716  1
  Ag  Ag16  1  0.49469007  0.82565539  0.33886246  1
  Ag  Ag17  1  0.17044144  0.16139143  0.67316770  1
  Ag  Ag18  1  0.66218292  0.34363681  0.33264869  1
  Ag  Ag19  1  0.83773906  0.33641331  0.49550906  1
  Ag  Ag20  1  0.33386304  0.83160523  0.49891565  1
  Ag  Ag21  1  0.00383420  0.32263120  0.00154097  1
  Ag  Ag22  1  0.33381125  0.49829369  0.83268648  1
  Ag  Ag23  1  0.00196831  0.16221001  0.50078682  1
  Ag  Ag24  1  0.48915821  0.33431861  0.83253922  1
  Ag  Ag25  1  0.83527514  -0.00344347  0.49260300  1
  Ag  Ag26  1  0.16946670  0.66216920  0.84151725  1
  Ag  Ag27  1  0.66412593  0.00079941  0.32909569  1
  Ag  Ag28  1  0.17296376  0.83877048  0.65931188  1
  Ag  Ag29  1  0.66626306  0.16488485  0.16748142  1
  Ag  Ag30  1  0.83938829  0.66348152  0.84698217  1
  Ag  Ag31  1  0.66922084  0.50195971  0.17241431  1
  Ag  Ag32  1  0.00851615  0.16352286  0.16111656  1
  Ag  Ag33  1  0.17062616  0.32972497  0.83532097  1
  Ag  Ag34  1  0.49691948  0.50578080  0.66047974  1
  Ag  Ag35  1  0.33214469  0.33897752  0.33293270  1
  Ag  Ag36  1  0.49030571  0.16458845  0.66749034  1
  Ag  Ag37  1  0.50084840  0.50583531  0.33705814  1
  Ag  Ag38  1  0.33147353  0.66798309  0.00268136  1
  Ag  Ag39  1  -0.00083460  0.66965709  0.00084654  1
  Ag  Ag40  1  0.16327388  0.01006795  0.16767296  1
  Ag  Ag41  1  0.33409557  -0.00852538  0.33611606  1
  Ag  Ag42  1  0.83310268  0.50651401  0.00890641  1
  Ag  Ag43  1  0.32475770  0.16618887  0.16537654  1
  Ag  Ag44  1  0.16445558  0.16792181  -0.00058158  1
  Ag  Ag45  1  0.17070079  0.66607745  0.16508342  1
  Ag  Ag46  1  0.00829521  0.16729931  0.84067803  1
  Ag  Ag47  1  0.16663138  0.32643034  0.16815649  1
  Ag  Ag48  1  0.32486537  0.17153190  0.83413626  1
  Ag  Ag49  1  0.33536713  0.66863908  0.33260248  1
  Ag  Ag50  1  -0.00036263  0.00337506  0.00331431  1
  Ag  Ag51  1  0.66725043  0.66953534  0.00414994  1
  Ag  Ag52  1  0.33447936  0.67392079  0.66344453  1
  Ag  Ag53  1  0.00822877  0.00181036  0.66261931  1
  Sb  Sb54  1  0.83662009  -0.00288007  0.83617760  1
  Sb  Sb55  1  0.00462498  0.66801896  0.32845404  1
  Sb  Sb56  1  0.66509000  0.83108444  0.17230241  1
  Sb  Sb57  1  0.66500580  0.16710337  0.83953199  1
  Sb  Sb58  1  0.66475535  -0.00172556  0.66265392  1
  Sb  Sb59  1  0.33430059  0.50122654  0.16751872  1
  Sb  Sb60  1  0.00111398  -0.00108620  0.33247588  1
  Sb  Sb61  1  0.49608596  0.33756821  0.16592653  1
  Sb  Sb62  1  0.49960631  -0.00472014  0.16838515  1
  Sb  Sb63  1  0.00658760  0.49731761  0.83671766  1
  Sb  Sb64  1  0.00386127  0.32583221  0.66777308  1
  Sb  Sb65  1  0.49820504  0.33954691  0.50061403  1
  Sb  Sb66  1  0.50270927  0.50633668  0.00278416  1
  Sb  Sb67  1  0.67121209  0.33487105  0.00720256  1
  Sb  Sb68  1  0.83048100  0.82751293  0.00211738  1
  Sb  Sb69  1  0.83726159  0.33455781  0.17123961  1
  Sb  Sb70  1  0.32764851  0.33602331  0.00069760  1
  Sb  Sb71  1  0.84161814  0.16772780  0.00330325  1
  Sb  Sb72  1  0.33346020  0.33164123  0.66546170  1
  Sb  Sb73  1  0.82957468  0.82906822  0.33603696  1
  Sb  Sb74  1  0.83220956  0.16916863  0.33249348  1
  Sb  Sb75  1  0.83718019  0.33831414  0.83273252  1
  Sb  Sb76  1  0.16656637  0.00396463  0.83367182  1
  Sb  Sb77  1  0.49814986  0.00250785  0.83217948  1
  Sb  Sb78  1  -0.00236933  0.49835488  0.16520352  1
  Sb  Sb79  1  0.00400056  0.33354375  0.33057122  1
  Sb  Sb80  1  0.33770033  0.50538743  0.49935840  1
  Sb  Sb81  1  0.66915201  0.16610305  0.49531220  1
  Sb  Sb82  1  0.32884775  0.16309081  0.50065468  1
  Sb  Sb83  1  0.49465687  0.16319344  -0.00125813  1
  Sb  Sb84  1  -0.00433502  0.50125375  0.49823521  1
  Sb  Sb85  1  0.16271119  0.00032663  0.49710272  1
  Sb  Sb86  1  0.16856372  0.66722540  0.49669732  1
  Sb  Sb87  1  0.17265346  0.50052543  0.66364191  1
  Sb  Sb88  1  0.33194672  0.83089193  0.82618275  1
  Sb  Sb89  1  0.33285835  0.83397369  0.17488491  1
  Sb  Sb90  1  0.66046678  0.66759144  0.66551746  1
  Sb  Sb91  1  0.82668007  0.50293537  0.66240757  1
  Sb  Sb92  1  0.17026298  0.83284014  0.00152237  1
  Sb  Sb93  1  0.66216841  0.50218066  0.83525263  1
  Sb  Sb94  1  0.33123208  -0.00364552  0.00136921  1
  Sb  Sb95  1  0.00627467  0.67305882  0.66951987  1
  Sb  Sb96  1  0.65917742  0.66464699  0.32971375  1
  Sb  Sb97  1  0.66514085  0.83119457  0.83116049  1
  Sb  Sb98  1  0.50277850  -0.00841976  0.49880871  1
  Sb  Sb99  1  0.49850917  0.16718520  0.33630965  1
  Sb  Sb100  1  0.00220851  0.83665037  0.16973148  1
  Sb  Sb101  1  0.16828284  0.16666229  0.33050084  1
  Sb  Sb102  1  0.00239219  0.83626684  0.83026344  1
  Sb  Sb103  1  0.83702996  0.16503933  0.66429845  1
  Sb  Sb104  1  0.16384683  0.49941819  0.00462719  1
  Sb  Sb105  1  0.49375970  0.66322273  0.83338289  1
  Sb  Sb106  1  0.66418804  0.33358389  0.65959771  1
  Sb  Sb107  1  0.83458197  0.83260573  0.66168703  1
  Te  Te108  1  0.16697281  0.16669145  0.16590046  1
  Te  Te109  1  0.16260626  0.17006779  0.50334822  1
  Te  Te110  1  0.16580100  0.16652370  0.83433947  1
  Te  Te111  1  0.16619903  0.50286851  0.17210929  1
  Te  Te112  1  0.16554995  0.49373799  0.49505049  1
  Te  Te113  1  0.17300632  0.49992371  0.83248495  1
  Te  Te114  1  0.16648385  0.82695312  0.17027713  1
  Te  Te115  1  0.16805423  0.83378876  0.49932345  1
  Te  Te116  1  0.16629048  0.82518087  0.82893685  1
  Te  Te117  1  0.50189256  0.16814420  0.16694601  1
  Te  Te118  1  0.50038935  0.16782634  0.50735600  1
  Te  Te119  1  0.49738834  0.17163144  0.83054245  1
  Te  Te120  1  0.50456824  0.50493439  0.17072443  1
  Te  Te121  1  0.50383846  0.50408349  0.49874154  1
  Te  Te122  1  0.49542057  0.49561023  0.83174804  1
  Te  Te123  1  0.49936933  0.82601633  0.16643617  1
  Te  Te124  1  0.49862391  0.83020997  0.49870800  1
  Te  Te125  1  0.49986765  0.83328155  0.83114817  1
  Te  Te126  1  0.83068744  0.16277197  0.16655451  1
  Te  Te127  1  0.83750490  0.16634164  0.49940735  1
  Te  Te128  1  0.83923789  0.16802807  0.83288438  1
  Te  Te129  1  0.83155467  0.50113773  0.16960247  1
  Te  Te130  1  0.82907694  0.50158221  0.49647055  1
  Te  Te131  1  0.83256450  0.50528257  0.83275421  1
  Te  Te132  1  0.83413217  0.83389423  0.16901373  1
  Te  Te133  1  0.83486678  0.83240104  0.49965380  1
  Te  Te134  1  0.83378805  0.82340542  0.83034341  1
  Te  Te135  1  0.16371916  0.00075964  0.00512595  1
  Te  Te136  1  0.17163377  -0.00332932  0.32842915  1
  Te  Te137  1  0.16730034  0.00061994  0.66677306  1
  Te  Te138  1  0.16319975  0.33275191  0.00105633  1
  Te  Te139  1  0.16996369  0.33427407  0.33161444  1
  Te  Te140  1  0.16733724  0.33077411  0.66970899  1
  Te  Te141  1  0.16812743  0.66648658  0.00181375  1
  Te  Te142  1  0.17103013  0.66573384  0.33059416  1
  Te  Te143  1  0.17309371  0.66898737  0.66701595  1
  Te  Te144  1  0.50320231  -0.00633028  0.00022386  1
  Te  Te145  1  0.49762078  -0.00273449  0.33302774  1
  Te  Te146  1  0.49598521  -0.00074796  0.66556205  1
  Te  Te147  1  0.50101218  0.33298683  -0.00642264  1
  Te  Te148  1  0.49769508  0.33756440  0.33303516  1
  Te  Te149  1  0.49979908  0.33401091  0.67016272  1
  Te  Te150  1  0.49956185  0.66975974  0.00056132  1
  Te  Te151  1  0.49751986  0.66621985  0.33313391  1
  Te  Te152  1  0.49526983  0.66739908  0.66667510  1
  Te  Te153  1  0.83419961  -0.00062196  0.00417332  1
  Te  Te154  1  0.83023065  -0.00179060  0.33140312  1
  Te  Te155  1  0.83654594  -0.00081296  0.66447098  1
  Te  Te156  1  0.84053299  0.34087010  -0.00046577  1
  Te  Te157  1  0.83106172  0.33863735  0.33720894  1
  Te  Te158  1  0.83328893  0.33395965  0.65824396  1
  Te  Te159  1  0.83400283  0.66633314  0.00428714  1
  Te  Te160  1  0.83585158  0.66330127  0.33210062  1
  Te  Te161  1  0.83357192  0.66680606  0.66059200  1
  Te  Te162  1  0.00327874  0.16462383  0.00170388  1
  Te  Te163  1  -0.00019611  0.16666416  0.33608661  1
  Te  Te164  1  0.00316490  0.16126315  0.66308919  1
  Te  Te165  1  -0.00559043  0.50795981  -0.00062265  1
  Te  Te166  1  0.00265679  0.50012303  0.33316984  1
  Te  Te167  1  -0.00094077  0.50115322  0.66743283  1
  Te  Te168  1  0.00029499  0.83412474  -0.00080949  1
  Te  Te169  1  0.00796726  0.83339203  0.34085068  1
  Te  Te170  1  0.00523004  0.84024489  0.66247038  1
  Te  Te171  1  0.32789363  0.16597407  0.00059090  1
  Te  Te172  1  0.33496479  0.16650134  0.32932296  1
  Te  Te173  1  0.33126927  0.16527185  0.66787321  1
  Te  Te174  1  0.33352795  0.50647962  -0.00439518  1
  Te  Te175  1  0.33435547  0.50070470  0.33304002  1
  Te  Te176  1  0.33811459  0.50330256  0.66887524  1
  Te  Te177  1  0.33840109  0.82816857  -0.00208504  1
  Te  Te178  1  0.33426957  0.83205583  0.33610026  1
  Te  Te179  1  0.33278701  0.83481980  0.66426349  1
  Te  Te180  1  0.66555057  0.16373872  0.00665401  1
  Te  Te181  1  0.66519766  0.16146625  0.32767530  1
  Te  Te182  1  0.66062894  0.16513887  0.66914950  1
  Te  Te183  1  0.67140078  0.50313362  0.00411241  1
  Te  Te184  1  0.66471181  0.50117125  0.33292670  1
  Te  Te185  1  0.65764043  0.49966726  0.66264073  1
  Te  Te186  1  0.66229095  0.83261540  -0.00150259  1
  Te  Te187  1  0.66251529  0.83848212  0.33900903  1
  Te  Te188  1  0.65885008  0.83510016  0.65913690  1
  Te  Te189  1  0.00011393  0.00281591  0.16541604  1
  Te  Te190  1  -0.00331410  -0.00038112  0.49963217  1
  Te  Te191  1  -0.00079737  0.00561656  0.83697833  1
  Te  Te192  1  0.00495784  0.32819348  0.16259537  1
  Te  Te193  1  0.00136055  0.33114259  0.49969785  1
  Te  Te194  1  0.00445227  0.32885096  0.83784970  1
  Te  Te195  1  -0.00021686  0.66777226  0.16115776  1
  Te  Te196  1  -0.00384176  0.67151677  0.50167552  1
  Te  Te197  1  0.00248499  0.66594588  0.83715072  1
  Te  Te198  1  0.33000069  0.00509762  0.16908914  1
  Te  Te199  1  0.33305733  -0.00446148  0.49863521  1
  Te  Te200  1  0.33285881  0.00794077  0.83038508  1
  Te  Te201  1  0.32900400  0.33047713  0.16914927  1
  Te  Te202  1  0.32835432  0.33303399  0.49402516  1
  Te  Te203  1  0.33081866  0.33271388  0.83340583  1
  Te  Te204  1  0.33292451  0.66641685  0.16794322  1
  Te  Te205  1  0.33501751  0.66985675  0.49852557  1
  Te  Te206  1  0.32980280  0.66519670  0.83411846  1
  Te  Te207  1  0.66734584  -0.00114843  0.16732066  1
  Te  Te208  1  0.67372498  -0.00041966  0.49530238  1
  Te  Te209  1  0.66895030  0.00015764  0.84157949  1
  Te  Te210  1  0.66638943  0.33359964  0.17250024  1
  Te  Te211  1  0.66903484  0.33463549  0.49250365  1
  Te  Te212  1  0.66678370  0.33355962  0.83368423  1
  Te  Te213  1  0.66938272  0.66547997  0.16393505  1
  Te  Te214  1  0.66584409  0.66642201  0.50031886  1
  Te  Te215  1  0.67274030  0.66590254  0.83898627  1
