# generated using pymatgen
data_AgSbTe2
_symmetry_space_group_name_H-M   'P 1'
_cell_length_a   18.33012930
_cell_length_b   18.33569996
_cell_length_c   18.32701708
_cell_angle_alpha   89.99802897
_cell_angle_beta   89.99686532
_cell_angle_gamma   89.99948866
_symmetry_Int_Tables_number   1
_chemical_formula_structural   AgSbTe2
_chemical_formula_sum   'Ag54 Sb54 Te108'
_cell_volume   6159.63255776
_cell_formula_units_Z   54
loop_
 _symmetry_equiv_pos_site_id
 _symmetry_equiv_pos_as_xyz
  1  'x, y, z'
loop_
 _atom_site_type_symbol
 _atom_site_label
 _atom_site_symmetry_multiplicity
 _atom_site_fract_x
 _atom_site_fract_y
 _atom_site_fract_z
 _atom_site_occupancy
  Ag  Ag0  1  -0.00905243  0.83623601  0.83716896  1
  Ag  Ag1  1  0.50862430  0.17133243  0.33183459  1
  Ag  Ag2  1  0.67221513  0.83159417  0.16918583  1
  Ag  Ag3  1  0.15960612  0.32879595  0.49547780  1
  Ag  Ag4  1  0.33323656  0.84155129  0.49632286  1
  Ag  Ag5  1  0.34144829  0.33305143  0.00186511  1
  Ag  Ag6  1  0.50790088  0.66458138  0.83502577  1
  Ag  Ag7  1  0.67425048  0.32340271  0.66960053  1
  Ag  Ag8  1  0.83766749  0.00401373  0.50055539  1
  Ag  Ag9  1  -0.00677929  0.00027245  0.00120748  1
  Ag  Ag10  1  0.82942657  0.33477723  0.16770215  1
  Ag  Ag11  1  0.16002471  0.00101538  0.17165047  1
  Ag  Ag12  1  0.16316310  0.66368038  0.83655459  1
  Ag  Ag13  1  0.32716711  0.16687418  0.49915862  1
  Ag  Ag14  1  0.83141232  0.49255960  0.00368521  1
  Ag  Ag15  1  0.50684813  0.00774824  0.16943585  1
  Ag  Ag16  1  -0.00053040  0.67100444  -0.00295520  1
  Ag  Ag17  1  0.16020646  0.33353063  0.17325485  1
  Ag  Ag18  1  -0.00999616  0.16677515  0.82276109  1
  Ag  Ag19  1  0.83245521  0.16560781  0.33842694  1
  Ag  Ag20  1  0.49887762  0.32879703  0.49017925  1
  Ag  Ag21  1  0.83552899  0.16427301  0.65913270  1
  Ag  Ag22  1  -0.00181905  0.32939974  0.33720758  1
  Ag  Ag23  1  0.16325359  0.66356962  0.16724058  1
  Ag  Ag24  1  0.66778194  0.66645044  0.66991041  1
  Ag  Ag25  1  0.50622923  0.49581815  0.33213948  1
  Ag  Ag26  1  0.50756702  0.32892041  0.17046122  1
  Ag  Ag27  1  0.51319954  0.16955547  0.00567747  1
  Ag  Ag28  1  0.83079073  0.83704431  0.33346060  1
  Ag  Ag29  1  0.83393162  0.49149729  0.33057205  1
  Ag  Ag30  1  0.15038630  0.16747912  0.66082286  1
  Ag  Ag31  1  0.67648701  0.16785682  0.50510620  1
  Ag  Ag32  1  -0.00621844  0.01018105  0.65765576  1
  Ag  Ag33  1  0.66453933  0.66545484  0.33424615  1
  Ag  Ag34  1  0.83186649  0.84653208  0.66159339  1
  Ag  Ag35  1  0.66707194  0.32686357  -0.00032310  1
  Ag  Ag36  1  0.33620303  0.50091668  0.83576660  1
  Ag  Ag37  1  0.34069013  0.66542629  0.33334121  1
  Ag  Ag38  1  0.67243062  0.83264108  0.83294779  1
  Ag  Ag39  1  -0.00599511  0.32200558  0.65611891  1
  Ag  Ag40  1  -0.00509588  0.83727949  0.16438695  1
  Ag  Ag41  1  0.66956674  0.49954002  0.16709617  1
  Ag  Ag42  1  0.15586198  0.01048646  0.49636954  1
  Ag  Ag43  1  0.67556407  0.01055903  -0.00228614  1
  Ag  Ag44  1  -0.00218273  0.16890909  0.50663875  1
  Ag  Ag45  1  0.67259055  0.16801530  0.83233422  1
  Ag  Ag46  1  0.51011882  0.83348783  0.33247645  1
  Ag  Ag47  1  -0.00398739  0.49934645  0.83265681  1
  Ag  Ag48  1  0.67527310  0.00671394  0.66963845  1
  Ag  Ag49  1  0.67011698  0.49912088  0.83816244  1
  Ag  Ag50  1  -0.00260592  0.00820651  0.33914511  1
  Ag  Ag51  1  0.83028869  0.16965309  -0.00207423  1
  Ag  Ag52  1  -0.00092241  0.48675401  0.49421525  1
  Ag  Ag53  1  0.15706761  0.49757707  0.33199128  1
  Sb  Sb54  1  0.50399874  0.33576858  0.83534345  1
  Sb  Sb55  1  0.83341791  0.00459485  0.17065562  1
  Sb  Sb56  1  0.33094517  0.00201070  0.66337427  1
  Sb  Sb57  1  0.83347043  0.67059247  0.49911123  1
  Sb  Sb58  1  0.51017435  0.16803082  0.66398985  1
  Sb  Sb59  1  0.83563738  0.32594335  0.49407915  1
  Sb  Sb60  1  0.50462545  0.49789180  0.66423148  1
  Sb  Sb61  1  0.67186731  0.49223808  0.49756813  1
  Sb  Sb62  1  0.50547951  0.83843290  0.00600595  1
  Sb  Sb63  1  0.33296797  0.33500184  0.33055534  1
  Sb  Sb64  1  -0.00310715  0.66551671  0.32977803  1
  Sb  Sb65  1  0.15713470  0.83823549  0.66556995  1
  Sb  Sb66  1  0.16270712  0.83140761  0.33246767  1
  Sb  Sb67  1  0.83253819  0.66587464  0.83338938  1
  Sb  Sb68  1  -0.00427649  0.50116325  0.16670208  1
  Sb  Sb69  1  0.16318028  0.33658752  0.83290196  1
  Sb  Sb70  1  0.33744151  0.66611414  0.66290089  1
  Sb  Sb71  1  0.32887707  0.66094976  0.00268023  1
  Sb  Sb72  1  0.16558782  0.66501686  0.49845015  1
  Sb  Sb73  1  -0.00515935  0.33074142  0.00238244  1
  Sb  Sb74  1  0.50271688  0.00678046  0.49386334  1
  Sb  Sb75  1  0.66691953  0.16800470  0.16485057  1
  Sb  Sb76  1  0.50215046  0.66339057  0.49796631  1
  Sb  Sb77  1  -0.00145680  0.16308997  0.16852993  1
  Sb  Sb78  1  0.32915176  -0.00079586  0.33490524  1
  Sb  Sb79  1  0.83301872  0.49339834  0.66441913  1
  Sb  Sb80  1  0.33387413  0.83245027  0.17219805  1
  Sb  Sb81  1  0.66554369  0.83913918  0.49941799  1
  Sb  Sb82  1  0.83225122  0.33149838  0.83832989  1
  Sb  Sb83  1  0.50735000  0.49436130  0.00366664  1
  Sb  Sb84  1  0.67132519  -0.00072590  0.33129950  1
  Sb  Sb85  1  0.49982692  0.66497087  0.16628374  1
  Sb  Sb86  1  0.33476681  0.82666670  0.82755259  1
  Sb  Sb87  1  0.83427221  0.00202981  0.82604365  1
  Sb  Sb88  1  0.16232357  0.49572129  0.66414841  1
  Sb  Sb89  1  0.33526761  0.17206479  0.82996819  1
  Sb  Sb90  1  0.83414163  0.83808839  0.00128715  1
  Sb  Sb91  1  -0.00567369  0.66756958  0.67304460  1
  Sb  Sb92  1  0.83603598  0.66356596  0.16718629  1
  Sb  Sb93  1  0.50679896  -0.00253103  0.83871823  1
  Sb  Sb94  1  0.15893687  -0.00202808  0.83265488  1
  Sb  Sb95  1  0.33351711  0.00714620  0.00224258  1
  Sb  Sb96  1  0.33581746  0.49773960  0.16561883  1
  Sb  Sb97  1  0.33567883  0.16824094  0.17374239  1
  Sb  Sb98  1  0.33058572  0.49605461  0.49917030  1
  Sb  Sb99  1  0.16212259  0.17020366  0.33863188  1
  Sb  Sb100  1  0.50888023  0.83402233  0.66173396  1
  Sb  Sb101  1  0.00091785  0.83898541  0.49864117  1
  Sb  Sb102  1  0.16068182  0.49802003  0.00332501  1
  Sb  Sb103  1  0.66964355  0.33432177  0.33089071  1
  Sb  Sb104  1  0.16151189  0.16807316  -0.00255136  1
  Sb  Sb105  1  0.33241223  0.33197857  0.66772262  1
  Sb  Sb106  1  0.16323940  0.83359731  0.00127321  1
  Sb  Sb107  1  0.67213566  0.66536613  0.00011855  1
  Te  Te108  1  0.16764808  0.16775778  0.16725853  1
  Te  Te109  1  0.16235219  0.16782184  0.49921992  1
  Te  Te110  1  0.16593338  0.16718719  0.82722921  1
  Te  Te111  1  0.16661155  0.49835010  0.17072823  1
  Te  Te112  1  0.16249452  0.49571598  0.49555490  1
  Te  Te113  1  0.15898928  0.50294802  0.83339818  1
  Te  Te114  1  0.16261542  0.83531645  0.16730147  1
  Te  Te115  1  0.17137543  0.83604164  0.50026092  1
  Te  Te116  1  0.16564754  0.82631574  0.83279599  1
  Te  Te117  1  0.50034000  0.16713419  0.16825057  1
  Te  Te118  1  0.50191944  0.16936888  0.49746595  1
  Te  Te119  1  0.50400386  0.16647249  0.83806302  1
  Te  Te120  1  0.50480876  0.49688931  0.17097335  1
  Te  Te121  1  0.49986509  0.49370831  0.49377069  1
  Te  Te122  1  0.50608515  0.50308230  0.83344346  1
  Te  Te123  1  0.50253644  0.83377601  0.17299050  1
  Te  Te124  1  0.49613914  0.83445282  0.49312632  1
  Te  Te125  1  0.50340326  0.82812563  0.83271662  1
  Te  Te126  1  0.83326228  0.17311040  0.16954243  1
  Te  Te127  1  0.83586792  0.16446294  0.49854410  1
  Te  Te128  1  0.83279798  0.16660864  0.83747935  1
  Te  Te129  1  0.82979700  0.49769723  0.16939921  1
  Te  Te130  1  0.84002509  0.50200287  0.49446912  1
  Te  Te131  1  0.83226361  0.49898314  0.83345483  1
  Te  Te132  1  0.83306870  0.83299891  0.16824926  1
  Te  Te133  1  0.83372923  0.83981908  0.49751527  1
  Te  Te134  1  0.83215840  0.83282901  0.83348601  1
  Te  Te135  1  0.16298694  0.00132692  0.00562967  1
  Te  Te136  1  0.16104472  0.00017407  0.33355060  1
  Te  Te137  1  0.16076687  0.00538395  0.66286939  1
  Te  Te138  1  0.16725851  0.33257637  0.00603973  1
  Te  Te139  1  0.16648744  0.33610380  0.33395586  1
  Te  Te140  1  0.16351475  0.32867764  0.66232024  1
  Te  Te141  1  0.16135667  0.66522282  0.00214253  1
  Te  Te142  1  0.16568259  0.66193357  0.33105939  1
  Te  Te143  1  0.16820987  0.66773964  0.67032296  1
  Te  Te144  1  0.50113464  0.00638926  0.00742542  1
  Te  Te145  1  0.49955007  -0.00041090  0.32844297  1
  Te  Te146  1  0.50594148  -0.00019012  0.66642123  1
  Te  Te147  1  0.50478968  0.33005015  0.00292081  1
  Te  Te148  1  0.49945392  0.33264887  0.33051144  1
  Te  Te149  1  0.50373193  0.33304899  0.66167435  1
  Te  Te150  1  0.49816900  0.66601927  -0.00395455  1
  Te  Te151  1  0.50281002  0.66629095  0.33181962  1
  Te  Te152  1  0.50643211  0.66595765  0.67095713  1
  Te  Te153  1  0.83313006  0.00436768  0.00392766  1
  Te  Te154  1  0.83667654  0.00180928  0.33630760  1
  Te  Te155  1  0.83313692  0.00282181  0.66342562  1
  Te  Te156  1  0.82965049  0.33197807  0.00604747  1
  Te  Te157  1  0.83594661  0.33245496  0.32855932  1
  Te  Te158  1  0.83364762  0.32784725  0.66481446  1
  Te  Te159  1  0.84009891  0.65980815  0.00076934  1
  Te  Te160  1  0.82797052  0.67243114  0.33271302  1
  Te  Te161  1  0.82613523  0.67037870  0.66549693  1
  Te  Te162  1  -0.00534429  0.16286454  -0.00231297  1
  Te  Te163  1  -0.00331577  0.16787554  0.33434174  1
  Te  Te164  1  -0.00475524  0.16598113  0.66696890  1
  Te  Te165  1  -0.00626834  0.49834950  -0.00314127  1
  Te  Te166  1  -0.00279062  0.49904798  0.33305573  1
  Te  Te167  1  -0.00183356  0.49864728  0.67120951  1
  Te  Te168  1  -0.00187186  0.83553485  -0.00134424  1
  Te  Te169  1  -0.00523013  0.83373932  0.33091846  1
  Te  Te170  1  -0.00763250  0.83558912  0.67036205  1
  Te  Te171  1  0.33360395  0.17352740  -0.00176895  1
  Te  Te172  1  0.34140560  0.16681797  0.34041526  1
  Te  Te173  1  0.33351481  0.16704965  0.66095681  1
  Te  Te174  1  0.33428583  0.49514573  -0.00477147  1
  Te  Te175  1  0.33718343  0.50420510  0.33389159  1
  Te  Te176  1  0.33279654  0.50011828  0.67450751  1
  Te  Te177  1  0.33551084  0.83349529  -0.00176102  1
  Te  Te178  1  0.33415616  0.82931183  0.33649717  1
  Te  Te179  1  0.33412309  0.83341759  0.65833767  1
  Te  Te180  1  0.66885345  0.16662392  0.00031262  1
  Te  Te181  1  0.66873629  0.16599306  0.33711879  1
  Te  Te182  1  0.67104033  0.16642631  0.67034275  1
  Te  Te183  1  0.67179085  0.49923068  0.00004704  1
  Te  Te184  1  0.66984647  0.50150818  0.33264573  1
  Te  Te185  1  0.66899102  0.50281022  0.67014619  1
  Te  Te186  1  0.66834702  0.83456544  -0.00140990  1
  Te  Te187  1  0.66899740  0.83268566  0.33265504  1
  Te  Te188  1  0.67199507  0.83335136  0.66724724  1
  Te  Te189  1  -0.00020962  -0.00238465  0.16584113  1
  Te  Te190  1  -0.00102754  0.00032756  0.49938242  1
  Te  Te191  1  0.00027474  -0.00168031  0.83836660  1
  Te  Te192  1  0.00131652  0.33351840  0.17068436  1
  Te  Te193  1  -0.00046405  0.33040332  0.49841212  1
  Te  Te194  1  0.00041396  0.33180148  0.83215929  1
  Te  Te195  1  0.00413109  0.67096095  0.16244757  1
  Te  Te196  1  0.00155456  0.66178605  0.50250999  1
  Te  Te197  1  0.00152584  0.66697942  0.83592899  1
  Te  Te198  1  0.32767200  -0.00044104  0.16646785  1
  Te  Te199  1  0.33032299  0.00314303  0.50055080  1
  Te  Te200  1  0.33267176  -0.00186976  0.83294943  1
  Te  Te201  1  0.33388403  0.33313259  0.16158410  1
  Te  Te202  1  0.33410256  0.32928298  0.50053263  1
  Te  Te203  1  0.33303477  0.33968658  0.83785315  1
  Te  Te204  1  0.32515225  0.66592552  0.17138598  1
  Te  Te205  1  0.33394186  0.66674554  0.49441213  1
  Te  Te206  1  0.32942593  0.66176629  0.83331907  1
  Te  Te207  1  0.66546668  -0.00492599  0.16407756  1
  Te  Te208  1  0.66959649  0.00637335  0.50273206  1
  Te  Te209  1  0.66740342  -0.00132511  0.83584214  1
  Te  Te210  1  0.66686244  0.33621678  0.16486498  1
  Te  Te211  1  0.66292271  0.32849963  0.50384582  1
  Te  Te212  1  0.66636733  0.33359382  0.83285063  1
  Te  Te213  1  0.66609654  0.66738102  0.16900276  1
  Te  Te214  1  0.66571040  0.66444802  0.49827845  1
  Te  Te215  1  0.66631647  0.66761623  0.83443386  1
