# generated using pymatgen
data_AgSbTe2
_symmetry_space_group_name_H-M   'P 1'
_cell_length_a   18.32872476
_cell_length_b   18.31931058
_cell_length_c   18.32475446
_cell_angle_alpha   90.00014297
_cell_angle_beta   90.00048066
_cell_angle_gamma   90.00135615
_symmetry_Int_Tables_number   1
_chemical_formula_structural   AgSbTe2
_chemical_formula_sum   'Ag54 Sb54 Te108'
_cell_volume   6152.89549875
_cell_formula_units_Z   54
loop_
 _symmetry_equiv_pos_site_id
 _symmetry_equiv_pos_as_xyz
  1  'x, y, z'
loop_
 _atom_site_type_symbol
 _atom_site_label
 _atom_site_symmetry_multiplicity
 _atom_site_fract_x
 _atom_site_fract_y
 _atom_site_fract_z
 _atom_site_occupancy
  Ag  Ag0  1  0.65995123  0.16868219  0.50275454  1
  Ag  Ag1  1  -0.00306068  0.83772085  0.49606297  1
  Ag  Ag2  1  0.50657466  0.17050301  0.34498957  1
  Ag  Ag3  1  0.33463389  -0.00505185  0.66048518  1
  Ag  Ag4  1  0.67119585  0.33181726  0.00087720  1
  Ag  Ag5  1  0.34487454  0.16356971  0.49944185  1
  Ag  Ag6  1  0.00416710  0.49552805  0.83132494  1
  Ag  Ag7  1  0.67394801  0.33518648  0.33090862  1
  Ag  Ag8  1  -0.00654642  0.33368584  -0.00957334  1
  Ag  Ag9  1  0.67174201  0.66122389  0.33727407  1
  Ag  Ag10  1  0.49771796  0.66762909  0.49940611  1
  Ag  Ag11  1  0.83777714  0.49407025  0.33257906  1
  Ag  Ag12  1  0.50110965  0.33014828  0.83071014  1
  Ag  Ag13  1  0.33553539  0.67078104  0.66686641  1
  Ag  Ag14  1  -0.00198682  0.00067699  0.65830553  1
  Ag  Ag15  1  0.17147424  0.66670996  0.17261070  1
  Ag  Ag16  1  -0.00019338  0.50057261  0.49403010  1
  Ag  Ag17  1  0.49851834  0.01051222  0.50130906  1
  Ag  Ag18  1  0.49955235  0.32265077  0.49879395  1
  Ag  Ag19  1  0.83049437  0.16276478  0.65923232  1
  Ag  Ag20  1  -0.00792768  0.17644335  0.82467066  1
  Ag  Ag21  1  0.16665873  0.66649037  0.49916909  1
  Ag  Ag22  1  -0.00232748  0.49915641  0.17708940  1
  Ag  Ag23  1  0.15737266  0.34321770  0.83343390  1
  Ag  Ag24  1  0.83885755  0.66348240  0.82920264  1
  Ag  Ag25  1  0.66943886  0.17347315  0.82284112  1
  Ag  Ag26  1  0.33172220  0.82597368  0.16600459  1
  Ag  Ag27  1  0.49341058  0.66666190  0.17413970  1
  Ag  Ag28  1  0.83498750  0.83241798  -0.00057612  1
  Ag  Ag29  1  -0.00425489  0.16032329  0.50100523  1
  Ag  Ag30  1  0.49785054  0.83472130  -0.00621315  1
  Ag  Ag31  1  0.66265425  0.66815444  0.66130645  1
  Ag  Ag32  1  0.84044722  0.83115072  0.33863092  1
  Ag  Ag33  1  0.33575808  0.33043042  0.33396266  1
  Ag  Ag34  1  0.83328488  0.83675769  0.66300434  1
  Ag  Ag35  1  0.49806923  0.83446109  0.66573510  1
  Ag  Ag36  1  0.83347749  0.33610342  0.17309678  1
  Ag  Ag37  1  -0.00071955  -0.00458873  0.34035623  1
  Ag  Ag38  1  0.50213155  0.16792130  -0.00362509  1
  Ag  Ag39  1  0.83242498  0.17292282  0.34193652  1
  Ag  Ag40  1  0.67441436  0.49831215  0.17113778  1
  Ag  Ag41  1  0.16517826  0.50326778  0.67060979  1
  Ag  Ag42  1  -0.00411596  0.66605566  0.33662197  1
  Ag  Ag43  1  0.50514641  0.16230426  0.65723125  1
  Ag  Ag44  1  0.16746629  0.82998686  0.00286493  1
  Ag  Ag45  1  0.16522132  0.66226835  0.82845700  1
  Ag  Ag46  1  0.33134870  0.50680192  0.16817173  1
  Ag  Ag47  1  0.32459313  0.50349826  0.83134350  1
  Ag  Ag48  1  0.84028425  0.33442272  0.83698701  1
  Ag  Ag49  1  0.84151797  0.00384341  0.49946858  1
  Ag  Ag50  1  -0.00730926  0.33740495  0.33402458  1
  Ag  Ag51  1  0.33312315  0.82635454  0.83109879  1
  Ag  Ag52  1  0.33145983  0.00222634  0.34082270  1
  Ag  Ag53  1  0.16174859  0.82919354  0.33283310  1
  Sb  Sb54  1  0.33312199  0.66868599  -0.00280570  1
  Sb  Sb55  1  0.16819198  -0.00888923  0.17021298  1
  Sb  Sb56  1  0.16913273  0.16529438  -0.00375293  1
  Sb  Sb57  1  0.32986511  0.49878285  0.49934068  1
  Sb  Sb58  1  0.50028173  0.50009198  0.00086722  1
  Sb  Sb59  1  0.66671672  0.17425960  0.17104340  1
  Sb  Sb60  1  0.49805958  0.66485104  0.83084598  1
  Sb  Sb61  1  0.66443028  0.83434649  0.83158007  1
  Sb  Sb62  1  0.50345005  0.49622475  0.33324389  1
  Sb  Sb63  1  0.66662665  0.00013974  0.66321168  1
  Sb  Sb64  1  -0.00108547  0.32904699  0.66599959  1
  Sb  Sb65  1  0.33488882  -0.00392589  -0.00054460  1
  Sb  Sb66  1  0.49866733  0.00433784  0.82501443  1
  Sb  Sb67  1  0.66577571  0.00567861  -0.00124004  1
  Sb  Sb68  1  0.16723466  -0.00369625  0.83100190  1
  Sb  Sb69  1  0.16145747  0.34310154  0.16357758  1
  Sb  Sb70  1  0.83527855  0.49871076  0.00348785  1
  Sb  Sb71  1  0.83445223  0.66255670  0.16899533  1
  Sb  Sb72  1  0.83508848  0.00093509  0.82519416  1
  Sb  Sb73  1  0.33603807  0.16862169  0.82614745  1
  Sb  Sb74  1  0.16419771  0.16432088  0.33579661  1
  Sb  Sb75  1  0.49617174  0.50098555  0.66632309  1
  Sb  Sb76  1  0.83783755  0.49996708  0.66387844  1
  Sb  Sb77  1  0.33480397  0.33342412  0.66413628  1
  Sb  Sb78  1  0.49942871  0.83507026  0.33785342  1
  Sb  Sb79  1  0.66874694  0.49587456  0.83537802  1
  Sb  Sb80  1  0.00006628  0.66285815  0.00263635  1
  Sb  Sb81  1  0.00173955  0.66959582  0.66120518  1
  Sb  Sb82  1  0.83505345  0.67147841  0.50131781  1
  Sb  Sb83  1  0.16509283  0.50559967  -0.00532654  1
  Sb  Sb84  1  0.16774410  0.82799837  0.66449432  1
  Sb  Sb85  1  0.67164879  0.49735556  0.49520176  1
  Sb  Sb86  1  0.66643468  0.33342693  0.66496243  1
  Sb  Sb87  1  0.33137021  0.83591830  0.50026122  1
  Sb  Sb88  1  0.16747538  0.33796224  0.50126423  1
  Sb  Sb89  1  0.49809753  -0.00422422  0.17329478  1
  Sb  Sb90  1  0.66841416  0.00311611  0.33746877  1
  Sb  Sb91  1  0.66972299  0.83531400  0.50088222  1
  Sb  Sb92  1  0.33674213  0.16825046  0.17523104  1
  Sb  Sb93  1  0.16475888  -0.00523871  0.49973037  1
  Sb  Sb94  1  0.50368122  0.33809676  0.16962203  1
  Sb  Sb95  1  0.66753567  0.66309038  0.00094353  1
  Sb  Sb96  1  -0.00194934  0.00296500  -0.00046876  1
  Sb  Sb97  1  0.33248577  0.66685285  0.33478842  1
  Sb  Sb98  1  0.83018926  0.16734745  -0.00295444  1
  Sb  Sb99  1  0.83594963  0.00264878  0.17593719  1
  Sb  Sb100  1  -0.00182402  0.17474731  0.17238493  1
  Sb  Sb101  1  0.16545587  0.16931006  0.66526292  1
  Sb  Sb102  1  0.83146235  0.32511036  0.49703470  1
  Sb  Sb103  1  0.00331504  0.82655360  0.17425633  1
  Sb  Sb104  1  0.66348271  0.82442110  0.16815356  1
  Sb  Sb105  1  0.33451598  0.33301723  0.00173700  1
  Sb  Sb106  1  0.16003432  0.50541516  0.33561074  1
  Sb  Sb107  1  0.00237373  0.83097882  0.82975748  1
  Te  Te108  1  0.16795123  0.16728447  0.16419668  1
  Te  Te109  1  0.15890358  0.16962458  0.50044507  1
  Te  Te110  1  0.16399112  0.17068496  0.83339798  1
  Te  Te111  1  0.16683986  0.50747682  0.16501567  1
  Te  Te112  1  0.16225644  0.50553000  0.50545252  1
  Te  Te113  1  0.16681099  0.50158970  0.83351123  1
  Te  Te114  1  0.16945857  0.82606652  0.16732501  1
  Te  Te115  1  0.16144193  0.82662878  0.49693346  1
  Te  Te116  1  0.17048842  0.82848992  0.83579045  1
  Te  Te117  1  0.50042125  0.16552422  0.16127602  1
  Te  Te118  1  0.50071272  0.16665099  0.50063999  1
  Te  Te119  1  0.50052947  0.16977525  0.83408949  1
  Te  Te120  1  0.49280469  0.50589666  0.16649729  1
  Te  Te121  1  0.49985017  0.50816822  0.50044614  1
  Te  Te122  1  0.49697551  0.49323225  0.83378643  1
  Te  Te123  1  0.49580240  0.82841496  0.16741563  1
  Te  Te124  1  0.50119736  0.82684520  0.50544361  1
  Te  Te125  1  0.49641546  0.83360172  0.83093505  1
  Te  Te126  1  0.83267170  0.17252127  0.17148521  1
  Te  Te127  1  0.83624651  0.16546732  0.50055697  1
  Te  Te128  1  0.83284035  0.16795752  0.83232103  1
  Te  Te129  1  0.83598542  0.49669458  0.16981313  1
  Te  Te130  1  0.83966079  0.49946380  0.49518532  1
  Te  Te131  1  0.83652727  0.49983942  0.83286622  1
  Te  Te132  1  0.83247176  0.83323327  0.16727664  1
  Te  Te133  1  0.83558463  0.83766420  0.50113231  1
  Te  Te134  1  0.83315972  0.83170475  0.82900413  1
  Te  Te135  1  0.16640048  -0.00953909  0.00047970  1
  Te  Te136  1  0.16627898  -0.00595642  0.33338363  1
  Te  Te137  1  0.16883811  -0.00005656  0.66675622  1
  Te  Te138  1  0.16262045  0.33237570  -0.00561005  1
  Te  Te139  1  0.16711191  0.33360020  0.33228743  1
  Te  Te140  1  0.16732564  0.33987957  0.67274859  1
  Te  Te141  1  0.16612722  0.67304375  -0.00260780  1
  Te  Te142  1  0.16543613  0.66953145  0.33512145  1
  Te  Te143  1  0.16852389  0.66441714  0.66783784  1
  Te  Te144  1  0.50011030  -0.00390921  0.00099465  1
  Te  Te145  1  0.49743831  0.00436466  0.34004948  1
  Te  Te146  1  0.49872865  -0.00180346  0.66122350  1
  Te  Te147  1  0.50229150  0.33135505  -0.00056555  1
  Te  Te148  1  0.49901744  0.32982795  0.33459680  1
  Te  Te149  1  0.50026987  0.32948237  0.66371890  1
  Te  Te150  1  0.50193728  0.67309450  0.00318342  1
  Te  Te151  1  0.50282376  0.66665220  0.33465028  1
  Te  Te152  1  0.49847866  0.66830876  0.66591533  1
  Te  Te153  1  0.83326559  -0.00685117  0.00237495  1
  Te  Te154  1  0.83633748  -0.00217484  0.33915004  1
  Te  Te155  1  0.83472290  -0.00006171  0.66079367  1
  Te  Te156  1  0.83315091  0.33224508  -0.00295512  1
  Te  Te157  1  0.83337798  0.33295500  0.33521381  1
  Te  Te158  1  0.83163532  0.32804505  0.67529740  1
  Te  Te159  1  0.83266664  0.67245585  -0.00600178  1
  Te  Te160  1  0.83407970  0.66855528  0.33393053  1
  Te  Te161  1  0.83202574  0.66842846  0.66881389  1
  Te  Te162  1  -0.00002003  0.17172450  -0.00226173  1
  Te  Te163  1  -0.00274271  0.16844155  0.33669271  1
  Te  Te164  1  -0.00147908  0.16260673  0.66535744  1
  Te  Te165  1  -0.00073405  0.49370206  -0.00574163  1
  Te  Te166  1  -0.00088528  0.50019015  0.33472148  1
  Te  Te167  1  0.00342833  0.50128559  0.66906599  1
  Te  Te168  1  -0.00257560  0.83508984  0.00026908  1
  Te  Te169  1  0.00029511  0.83173342  0.33456540  1
  Te  Te170  1  -0.00306245  0.83825166  0.66317734  1
  Te  Te171  1  0.33995420  0.16410270  0.00022642  1
  Te  Te172  1  0.33283341  0.16583680  0.33816342  1
  Te  Te173  1  0.33672823  0.16325811  0.66080786  1
  Te  Te174  1  0.33306806  0.49922015  0.00122983  1
  Te  Te175  1  0.33157900  0.49573433  0.33048079  1
  Te  Te176  1  0.32924306  0.50425182  0.66920646  1
  Te  Te177  1  0.33546203  0.83432482  0.00016497  1
  Te  Te178  1  0.33163772  0.83583002  0.33139622  1
  Te  Te179  1  0.33412823  0.83259279  0.66693664  1
  Te  Te180  1  0.66272407  0.17239388  0.00018804  1
  Te  Te181  1  0.66730917  0.16956339  0.33652365  1
  Te  Te182  1  0.66661401  0.16662089  0.66440319  1
  Te  Te183  1  0.66763378  0.49255249  0.00678909  1
  Te  Te184  1  0.67047000  0.49957529  0.33041990  1
  Te  Te185  1  0.66842345  0.50871176  0.66644821  1
  Te  Te186  1  0.66608261  0.83379287  -0.00018545  1
  Te  Te187  1  0.67200650  0.82781617  0.33310995  1
  Te  Te188  1  0.66669692  0.82805574  0.66771777  1
  Te  Te189  1  0.00115799  0.00161171  0.17369860  1
  Te  Te190  1  0.00112220  -0.00101872  0.49842400  1
  Te  Te191  1  0.00093924  0.00534043  0.83036495  1
  Te  Te192  1  -0.00364810  0.33937771  0.17145166  1
  Te  Te193  1  0.00053604  0.33633700  0.49600509  1
  Te  Te194  1  -0.00044263  0.33349601  0.83014282  1
  Te  Te195  1  0.00305024  0.65955801  0.17046293  1
  Te  Te196  1  0.00130356  0.66652142  0.49675215  1
  Te  Te197  1  0.00037136  0.66403226  0.83350682  1
  Te  Te198  1  0.33365682  -0.00427566  0.17359675  1
  Te  Te199  1  0.33221753  0.00140604  0.49996385  1
  Te  Te200  1  0.33284826  -0.00508078  0.82698822  1
  Te  Te201  1  0.33170999  0.33689759  0.17155225  1
  Te  Te202  1  0.33569274  0.33047488  0.49565342  1
  Te  Te203  1  0.33723206  0.33721192  0.83327045  1
  Te  Te204  1  0.33312346  0.66772981  0.16801152  1
  Te  Te205  1  0.33229140  0.66667945  0.50415149  1
  Te  Te206  1  0.33235658  0.66544266  0.83032352  1
  Te  Te207  1  0.66694259  -0.00121712  0.16749396  1
  Te  Te208  1  0.66129578  0.00662755  0.49972620  1
  Te  Te209  1  0.66694422  0.01135626  0.83306564  1
  Te  Te210  1  0.67028487  0.33860673  0.16971199  1
  Te  Te211  1  0.66095649  0.33066051  0.49529417  1
  Te  Te212  1  0.66303376  0.33179146  0.83335489  1
  Te  Te213  1  0.66435453  0.65825106  0.16969115  1
  Te  Te214  1  0.66544594  0.66570512  0.49882280  1
  Te  Te215  1  0.67058263  0.66516025  0.83091673  1
