# generated using pymatgen
data_AgSbTe2
_symmetry_space_group_name_H-M   'P 1'
_cell_length_a   18.32200459
_cell_length_b   18.32228028
_cell_length_c   18.32396170
_cell_angle_alpha   89.99933226
_cell_angle_beta   90.00399187
_cell_angle_gamma   90.00129476
_symmetry_Int_Tables_number   1
_chemical_formula_structural   AgSbTe2
_chemical_formula_sum   'Ag54 Sb54 Te108'
_cell_volume   6151.37047843
_cell_formula_units_Z   54
loop_
 _symmetry_equiv_pos_site_id
 _symmetry_equiv_pos_as_xyz
  1  'x, y, z'
loop_
 _atom_site_type_symbol
 _atom_site_label
 _atom_site_symmetry_multiplicity
 _atom_site_fract_x
 _atom_site_fract_y
 _atom_site_fract_z
 _atom_site_occupancy
  Ag  Ag0  1  0.50650469  0.66845353  0.49784714  1
  Ag  Ag1  1  0.33419499  0.16479216  0.83277282  1
  Ag  Ag2  1  -0.00897911  0.16047545  0.17213124  1
  Ag  Ag3  1  0.82353341  0.16362002  0.00777474  1
  Ag  Ag4  1  0.82896504  0.00031025  0.16749459  1
  Ag  Ag5  1  0.66844113  0.16988113  0.84470210  1
  Ag  Ag6  1  -0.00249084  0.00335755  0.33830415  1
  Ag  Ag7  1  0.50365170  0.49939780  0.00306872  1
  Ag  Ag8  1  -0.00447055  0.16687933  0.83408789  1
  Ag  Ag9  1  0.67273497  0.15933181  0.16029064  1
  Ag  Ag10  1  0.66656314  0.67043576  0.34181161  1
  Ag  Ag11  1  0.67128150  0.31994572  -0.00302816  1
  Ag  Ag12  1  -0.00660222  0.32880576  0.66505892  1
  Ag  Ag13  1  0.67115108  0.66491049  0.66017749  1
  Ag  Ag14  1  0.83097773  0.84020696  0.01052948  1
  Ag  Ag15  1  0.16256832  0.83083972  0.66510039  1
  Ag  Ag16  1  -0.00589913  0.00057250  0.65666565  1
  Ag  Ag17  1  0.83308066  0.16117564  0.32854450  1
  Ag  Ag18  1  0.50471997  0.50170597  0.33485243  1
  Ag  Ag19  1  0.15633705  -0.00342786  0.50014641  1
  Ag  Ag20  1  0.16489298  0.32991916  0.16733506  1
  Ag  Ag21  1  -0.00395973  0.67025592  0.66276338  1
  Ag  Ag22  1  0.66534140  0.66847690  -0.00131423  1
  Ag  Ag23  1  0.50920858  0.83782139  0.33611013  1
  Ag  Ag24  1  0.00047609  0.15778581  0.49470246  1
  Ag  Ag25  1  0.67163634  0.83949358  0.17356179  1
  Ag  Ag26  1  0.33747214  0.49862528  0.49520604  1
  Ag  Ag27  1  0.33494979  0.33151786  0.33443145  1
  Ag  Ag28  1  0.82758761  0.50027704  0.65764990  1
  Ag  Ag29  1  0.66792098  0.00803402  0.00837538  1
  Ag  Ag30  1  0.67293061  0.34149573  0.66871561  1
  Ag  Ag31  1  0.67327145  0.83097065  0.49208986  1
  Ag  Ag32  1  -0.01051912  0.84142631  0.17334970  1
  Ag  Ag33  1  0.34192255  0.66710158  -0.00149251  1
  Ag  Ag34  1  0.15990574  0.16640258  0.33571693  1
  Ag  Ag35  1  0.83404393  0.33783324  0.49978851  1
  Ag  Ag36  1  0.66553747  0.49774893  0.82953193  1
  Ag  Ag37  1  0.32923773  0.83236728  0.83519558  1
  Ag  Ag38  1  0.16123205  0.83198448  -0.00253481  1
  Ag  Ag39  1  0.51058350  0.00259129  0.17446710  1
  Ag  Ag40  1  0.33141777  0.16842146  0.49510923  1
  Ag  Ag41  1  -0.00455046  0.84016364  0.49797206  1
  Ag  Ag42  1  0.50196873  -0.00280188  0.49365203  1
  Ag  Ag43  1  0.82620019  0.50091183  0.33943528  1
  Ag  Ag44  1  0.82576992  0.66464533  0.49964040  1
  Ag  Ag45  1  0.67169034  -0.00059202  0.66665669  1
  Ag  Ag46  1  0.51087350  0.16824803  0.00742291  1
  Ag  Ag47  1  0.16312011  0.67478757  0.50281586  1
  Ag  Ag48  1  0.33774982  0.49855020  0.17468279  1
  Ag  Ag49  1  0.82702777  0.83676800  0.33049149  1
  Ag  Ag50  1  0.50887112  0.50192475  0.65895416  1
  Ag  Ag51  1  0.16700606  0.67103106  0.82619634  1
  Ag  Ag52  1  -0.00926525  0.32621723  -0.00067045  1
  Ag  Ag53  1  0.50474116  0.16084643  0.33030476  1
  Sb  Sb54  1  0.33232426  0.83282559  0.50181368  1
  Sb  Sb55  1  0.16602518  0.66554601  0.16972597  1
  Sb  Sb56  1  0.33944136  0.66176641  0.33284127  1
  Sb  Sb57  1  0.82518437  0.49653922  0.00124118  1
  Sb  Sb58  1  0.33644872  0.33549038  0.00400168  1
  Sb  Sb59  1  0.16279358  0.00323841  0.17134997  1
  Sb  Sb60  1  0.83326783  0.00166910  0.83775169  1
  Sb  Sb61  1  -0.00782522  0.67462099  0.34163802  1
  Sb  Sb62  1  0.66952245  -0.00456561  0.33089264  1
  Sb  Sb63  1  0.66316752  0.49970881  0.16437690  1
  Sb  Sb64  1  0.50568145  0.83430711  0.00552607  1
  Sb  Sb65  1  0.00044229  0.32521910  0.33524630  1
  Sb  Sb66  1  0.16417393  0.33485588  0.83712011  1
  Sb  Sb67  1  0.16403516  0.83733566  0.33533882  1
  Sb  Sb68  1  0.16774966  0.49610114  0.33539939  1
  Sb  Sb69  1  0.33469113  0.00509320  0.33509603  1
  Sb  Sb70  1  0.33570939  0.82915789  0.16409210  1
  Sb  Sb71  1  0.50076015  0.83064663  0.65982843  1
  Sb  Sb72  1  -0.00170276  0.50118327  0.49995734  1
  Sb  Sb73  1  0.83330616  -0.00246556  0.49365575  1
  Sb  Sb74  1  0.33944090  0.49970929  0.83171729  1
  Sb  Sb75  1  0.33912617  -0.00286419  0.00022698  1
  Sb  Sb76  1  0.50615043  0.33416028  0.49867760  1
  Sb  Sb77  1  0.16551492  0.16251916  0.00372850  1
  Sb  Sb78  1  0.16220538  0.16194636  0.66139690  1
  Sb  Sb79  1  0.66407365  0.50709533  0.50497573  1
  Sb  Sb80  1  -0.00602130  0.49641018  0.83091363  1
  Sb  Sb81  1  0.33431805  0.66654147  0.66736406  1
  Sb  Sb82  1  0.33539900  0.17012967  0.17014719  1
  Sb  Sb83  1  0.83073563  0.33122568  0.82811435  1
  Sb  Sb84  1  0.00227086  0.83801618  0.83027172  1
  Sb  Sb85  1  0.49964502  0.66691936  0.83016243  1
  Sb  Sb86  1  0.16537075  -0.00325479  0.82838311  1
  Sb  Sb87  1  0.16276659  0.33010209  0.49735687  1
  Sb  Sb88  1  0.50395053  0.16861818  0.66422316  1
  Sb  Sb89  1  -0.00001248  0.49691004  0.16729792  1
  Sb  Sb90  1  0.49994464  0.32931244  0.16747778  1
  Sb  Sb91  1  0.66859777  0.16012628  0.49695109  1
  Sb  Sb92  1  0.16458944  0.50489828  0.66486259  1
  Sb  Sb93  1  0.83538795  0.32567331  0.17119623  1
  Sb  Sb94  1  0.33458581  0.00014968  0.66392693  1
  Sb  Sb95  1  0.83079773  0.67377420  0.17297440  1
  Sb  Sb96  1  0.66420199  0.83370574  0.83429487  1
  Sb  Sb97  1  -0.00511686  0.00342971  0.00251905  1
  Sb  Sb98  1  0.50286673  0.33230624  0.83405444  1
  Sb  Sb99  1  0.66506437  0.33586758  0.33425766  1
  Sb  Sb100  1  -0.00388270  0.66714705  -0.00405750  1
  Sb  Sb101  1  0.17153396  0.50421812  0.00055056  1
  Sb  Sb102  1  0.50332539  0.66967544  0.17088704  1
  Sb  Sb103  1  0.83437343  0.66789394  0.82718218  1
  Sb  Sb104  1  0.33411952  0.33348724  0.66127854  1
  Sb  Sb105  1  0.50274688  0.00161363  0.83223575  1
  Sb  Sb106  1  0.83399227  0.16897910  0.66300436  1
  Sb  Sb107  1  0.83595086  0.83091066  0.66081347  1
  Te  Te108  1  0.16531874  0.16941794  0.17189579  1
  Te  Te109  1  0.16590485  0.16391426  0.49610748  1
  Te  Te110  1  0.16641750  0.16632790  0.83330941  1
  Te  Te111  1  0.17101603  0.49494151  0.16712313  1
  Te  Te112  1  0.17287867  0.50374551  0.50060361  1
  Te  Te113  1  0.16765932  0.50834408  0.83343564  1
  Te  Te114  1  0.16490387  0.83422004  0.16464163  1
  Te  Te115  1  0.16506230  0.83523690  0.50100182  1
  Te  Te116  1  0.16845750  0.83080160  0.83410528  1
  Te  Te117  1  0.50110399  0.16385657  0.16786167  1
  Te  Te118  1  0.49840102  0.16529843  0.49629516  1
  Te  Te119  1  0.50169049  0.16585163  0.83631025  1
  Te  Te120  1  0.49724691  0.49961200  0.16864482  1
  Te  Te121  1  0.49814001  0.49996098  0.49714677  1
  Te  Te122  1  0.50500509  0.50075482  0.83767847  1
  Te  Te123  1  0.50348615  0.83814896  0.17334493  1
  Te  Te124  1  0.49905874  0.83309817  0.49583863  1
  Te  Te125  1  0.49065114  0.83411472  0.83219541  1
  Te  Te126  1  0.83281791  0.16460083  0.16762542  1
  Te  Te127  1  0.83685216  0.16734406  0.49485166  1
  Te  Te128  1  0.83322563  0.16651318  0.84000836  1
  Te  Te129  1  0.83279679  0.50012849  0.17420342  1
  Te  Te130  1  0.83363465  0.50219971  0.49878991  1
  Te  Te131  1  0.82577008  0.50079414  0.82978166  1
  Te  Te132  1  0.83270200  0.83583836  0.16956161  1
  Te  Te133  1  0.83479405  0.83019040  0.49612064  1
  Te  Te134  1  0.83385836  0.83374718  0.84503583  1
  Te  Te135  1  0.16757890  -0.00800151  0.00081216  1
  Te  Te136  1  0.16344390  0.00518429  0.33865754  1
  Te  Te137  1  0.16380975  -0.00528319  0.66048685  1
  Te  Te138  1  0.16554231  0.33396857  0.00503799  1
  Te  Te139  1  0.17049168  0.32876145  0.33023772  1
  Te  Te140  1  0.15851544  0.33548692  0.66747925  1
  Te  Te141  1  0.16442918  0.67144919  0.00129635  1
  Te  Te142  1  0.16634452  0.66605205  0.33990432  1
  Te  Te143  1  0.16620193  0.66931771  0.66427286  1
  Te  Te144  1  0.50652365  0.00287022  0.00268068  1
  Te  Te145  1  0.49993287  0.00146201  0.33459617  1
  Te  Te146  1  0.50549081  -0.00041350  0.65915105  1
  Te  Te147  1  0.50508821  0.33283387  0.00079251  1
  Te  Te148  1  0.49708976  0.33682272  0.33351594  1
  Te  Te149  1  0.50618512  0.34027139  0.66642411  1
  Te  Te150  1  0.50082097  0.66638152  0.00032530  1
  Te  Te151  1  0.50403022  0.66349004  0.33699691  1
  Te  Te152  1  0.50401952  0.66276654  0.66147192  1
  Te  Te153  1  0.82906857  0.00124777  0.00410083  1
  Te  Te154  1  0.83623763  0.00077373  0.32867966  1
  Te  Te155  1  0.83308661  -0.00090774  0.66687190  1
  Te  Te156  1  0.83198623  0.33039848  0.00150896  1
  Te  Te157  1  0.83290559  0.33550664  0.33845835  1
  Te  Te158  1  0.83282991  0.33504325  0.66223308  1
  Te  Te159  1  0.83007864  0.66578545  -0.00084963  1
  Te  Te160  1  0.82792115  0.66823622  0.33876071  1
  Te  Te161  1  0.83286234  0.66478806  0.66183683  1
  Te  Te162  1  0.00122720  0.16781717  0.00033942  1
  Te  Te163  1  -0.00272611  0.16558868  0.33379449  1
  Te  Te164  1  -0.00142660  0.16611992  0.66520128  1
  Te  Te165  1  -0.00118463  0.49238277  -0.00069159  1
  Te  Te166  1  -0.00540529  0.50145325  0.33181247  1
  Te  Te167  1  -0.00593199  0.49924561  0.66707615  1
  Te  Te168  1  -0.00261275  0.83459285  0.00047585  1
  Te  Te169  1  -0.00138889  0.83880248  0.33482767  1
  Te  Te170  1  0.00178733  0.83288179  0.66411901  1
  Te  Te171  1  0.33497113  0.16649617  -0.00299827  1
  Te  Te172  1  0.33869772  0.17021644  0.33557026  1
  Te  Te173  1  0.33424362  0.16852508  0.66647989  1
  Te  Te174  1  0.33989287  0.50339781  0.00015917  1
  Te  Te175  1  0.33472078  0.49646433  0.33421632  1
  Te  Te176  1  0.34019871  0.49805125  0.66196912  1
  Te  Te177  1  0.33357105  0.82917811  -0.00306093  1
  Te  Te178  1  0.33902085  0.83164069  0.33248806  1
  Te  Te179  1  0.32697864  0.83344046  0.67246797  1
  Te  Te180  1  0.66703481  0.16369608  0.00050798  1
  Te  Te181  1  0.66641129  0.16918537  0.33003688  1
  Te  Te182  1  0.66777780  0.16394757  0.66772113  1
  Te  Te183  1  0.66250615  0.50684932  -0.00230914  1
  Te  Te184  1  0.66600448  0.50369736  0.33118066  1
  Te  Te185  1  0.66708873  0.50073317  0.66729110  1
  Te  Te186  1  0.66965484  0.82995590  -0.00064870  1
  Te  Te187  1  0.66672881  0.83142015  0.33304015  1
  Te  Te188  1  0.66768831  0.83142557  0.66588528  1
  Te  Te189  1  -0.00213342  0.00024991  0.16916578  1
  Te  Te190  1  -0.00262554  -0.00024475  0.49934406  1
  Te  Te191  1  0.00032383  0.00700681  0.82591354  1
  Te  Te192  1  0.00315959  0.32894848  0.16389947  1
  Te  Te193  1  -0.00400479  0.33210982  0.50337837  1
  Te  Te194  1  0.00022866  0.32845572  0.83330806  1
  Te  Te195  1  0.00006823  0.67263645  0.16655044  1
  Te  Te196  1  0.00235428  0.66738227  0.50508853  1
  Te  Te197  1  0.00515036  0.66619709  0.82680588  1
  Te  Te198  1  0.33815403  -0.00070189  0.16659293  1
  Te  Te199  1  0.33709989  0.00501529  0.50036565  1
  Te  Te200  1  0.33355479  0.00399281  0.83220320  1
  Te  Te201  1  0.32981673  0.33764043  0.17061724  1
  Te  Te202  1  0.33169581  0.33108855  0.49611730  1
  Te  Te203  1  0.33112382  0.32644711  0.83213561  1
  Te  Te204  1  0.33338089  0.66051704  0.16026164  1
  Te  Te205  1  0.33506898  0.66418506  0.49980039  1
  Te  Te206  1  0.32937769  0.66708396  0.83732173  1
  Te  Te207  1  0.66728621  -0.00119359  0.16722286  1
  Te  Te208  1  0.66471946  -0.00619326  0.50429762  1
  Te  Te209  1  0.66658782  0.00329011  0.82838316  1
  Te  Te210  1  0.66778202  0.32840746  0.16111077  1
  Te  Te211  1  0.67365254  0.32968367  0.50412305  1
  Te  Te212  1  0.66666366  0.33188211  0.83338342  1
  Te  Te213  1  0.66625715  0.67129341  0.16147120  1
  Te  Te214  1  0.66589262  0.67053952  0.50098492  1
  Te  Te215  1  0.66670023  0.66523365  0.83303699  1
