# generated using pymatgen
data_AgSbTe2
_symmetry_space_group_name_H-M   'P 1'
_cell_length_a   18.33659065
_cell_length_b   18.33897129
_cell_length_c   18.33426557
_cell_angle_alpha   90.00257229
_cell_angle_beta   89.99736876
_cell_angle_gamma   90.00147536
_symmetry_Int_Tables_number   1
_chemical_formula_structural   AgSbTe2
_chemical_formula_sum   'Ag54 Sb54 Te108'
_cell_volume   6165.34064510
_cell_formula_units_Z   54
loop_
 _symmetry_equiv_pos_site_id
 _symmetry_equiv_pos_as_xyz
  1  'x, y, z'
loop_
 _atom_site_type_symbol
 _atom_site_label
 _atom_site_symmetry_multiplicity
 _atom_site_fract_x
 _atom_site_fract_y
 _atom_site_fract_z
 _atom_site_occupancy
  Ag  Ag0  1  0.00230367  0.16072935  0.83269202  1
  Ag  Ag1  1  0.50029227  0.50298101  0.33531809  1
  Ag  Ag2  1  0.32655650  0.17715324  0.16917853  1
  Ag  Ag3  1  0.66560534  0.32979610  0.65701174  1
  Ag  Ag4  1  -0.00161249  -0.00126907  0.00279229  1
  Ag  Ag5  1  -0.00661023  0.17315445  0.48996523  1
  Ag  Ag6  1  0.67290824  0.17649396  0.50192372  1
  Ag  Ag7  1  0.00562760  0.50029533  0.17619468  1
  Ag  Ag8  1  0.16286783  0.50005731  0.01547776  1
  Ag  Ag9  1  0.49766756  0.33480919  0.83131738  1
  Ag  Ag10  1  0.16979008  0.50462721  0.66096197  1
  Ag  Ag11  1  0.00158546  0.17467781  0.17498622  1
  Ag  Ag12  1  0.16141311  0.65648657  0.17392744  1
  Ag  Ag13  1  0.16969587  0.82799798  0.66807450  1
  Ag  Ag14  1  0.15426935  0.50161008  0.32971069  1
  Ag  Ag15  1  0.32893373  0.82670914  0.16920664  1
  Ag  Ag16  1  0.83340944  0.82668539  0.33669480  1
  Ag  Ag17  1  0.83418152  0.66160941  0.49526873  1
  Ag  Ag18  1  -0.00094850  0.50045233  0.48869408  1
  Ag  Ag19  1  0.84073791  0.50054949  0.01676854  1
  Ag  Ag20  1  0.33310243  0.66885693  0.66422614  1
  Ag  Ag21  1  0.49811832  0.67556505  0.82369375  1
  Ag  Ag22  1  0.50774158  0.82664973  0.33676604  1
  Ag  Ag23  1  0.00195288  0.82532447  0.17059472  1
  Ag  Ag24  1  0.50208029  0.83407970  -0.01030426  1
  Ag  Ag25  1  0.65983420  0.83653627  0.82245662  1
  Ag  Ag26  1  0.84281236  0.49588010  0.33283422  1
  Ag  Ag27  1  0.66741443  0.83115703  0.50406647  1
  Ag  Ag28  1  -0.00146713  0.00082973  0.32794012  1
  Ag  Ag29  1  0.84476608  0.34054357  0.18018161  1
  Ag  Ag30  1  -0.00809605  0.34299823  0.33077713  1
  Ag  Ag31  1  0.66064513  -0.00608847  0.66878852  1
  Ag  Ag32  1  0.33140205  0.50009230  0.82925191  1
  Ag  Ag33  1  0.16704234  0.33834884  0.83422810  1
  Ag  Ag34  1  0.50231063  0.83563062  0.66945005  1
  Ag  Ag35  1  0.50227648  0.15998589  0.66658661  1
  Ag  Ag36  1  -0.00369347  0.65732000  0.33212491  1
  Ag  Ag37  1  0.32715417  0.50296313  0.49798224  1
  Ag  Ag38  1  0.34158043  -0.00897158  0.66816437  1
  Ag  Ag39  1  -0.00146316  0.83682719  0.83421154  1
  Ag  Ag40  1  0.84342431  0.65968622  0.17906353  1
  Ag  Ag41  1  0.83858997  0.18176397  0.33619005  1
  Ag  Ag42  1  0.32067240  0.50072524  0.17142620  1
  Ag  Ag43  1  0.16465744  0.66138821  0.49730668  1
  Ag  Ag44  1  0.16546173  -0.00023234  0.83097685  1
  Ag  Ag45  1  0.66874690  -0.00334318  -0.00816822  1
  Ag  Ag46  1  0.49705727  0.33618654  0.16895336  1
  Ag  Ag47  1  0.49928028  -0.00729675  0.82788233  1
  Ag  Ag48  1  0.67309884  0.49999244  0.49742761  1
  Ag  Ag49  1  0.67883841  0.33628341  0.33927093  1
  Ag  Ag50  1  0.83087686  0.34222866  0.49167863  1
  Ag  Ag51  1  0.50116423  0.66544707  0.50146290  1
  Ag  Ag52  1  0.82141341  0.83234374  0.65998718  1
  Ag  Ag53  1  0.16263923  0.34443590  0.16487088  1
  Sb  Sb54  1  0.66599532  0.67041834  -0.00132852  1
  Sb  Sb55  1  0.00015252  0.33213446  0.00833492  1
  Sb  Sb56  1  0.32957049  0.66298277  0.33741881  1
  Sb  Sb57  1  0.49890904  0.50371982  0.00272584  1
  Sb  Sb58  1  0.33564520  0.83013897  0.83106245  1
  Sb  Sb59  1  0.50479323  0.16944633  0.33681697  1
  Sb  Sb60  1  0.66796333  0.16188425  0.82603069  1
  Sb  Sb61  1  0.17041283  0.66484941  0.83043020  1
  Sb  Sb62  1  0.67488162  0.65962649  0.33699919  1
  Sb  Sb63  1  0.50132789  0.16313625  -0.00398614  1
  Sb  Sb64  1  0.83493630  0.33471725  0.83152564  1
  Sb  Sb65  1  0.83721752  -0.00055375  0.16844557  1
  Sb  Sb66  1  0.67177809  0.49783125  0.17482655  1
  Sb  Sb67  1  0.83206190  0.82938479  0.00234418  1
  Sb  Sb68  1  0.50185545  -0.00692416  0.50695016  1
  Sb  Sb69  1  0.15645682  0.17533721  0.33236072  1
  Sb  Sb70  1  -0.00169353  -0.00261943  0.66740077  1
  Sb  Sb71  1  0.33793261  0.82523160  0.49981023  1
  Sb  Sb72  1  0.49596541  0.50324119  0.66185595  1
  Sb  Sb73  1  0.16436063  0.17051978  0.00033135  1
  Sb  Sb74  1  0.66108848  0.50264765  0.82666013  1
  Sb  Sb75  1  0.16224637  0.82674529  0.33578565  1
  Sb  Sb76  1  0.66071679  0.66964202  0.66165671  1
  Sb  Sb77  1  0.33170848  0.16884367  0.83559251  1
  Sb  Sb78  1  0.83645704  0.17045564  0.00657406  1
  Sb  Sb79  1  0.82991910  0.16352704  0.66017697  1
  Sb  Sb80  1  -0.00275866  0.33319505  0.66126530  1
  Sb  Sb81  1  0.66688824  0.33085317  0.00110378  1
  Sb  Sb82  1  0.66833442  0.83299516  0.17083257  1
  Sb  Sb83  1  0.33255495  0.33539448  0.00197518  1
  Sb  Sb84  1  0.00554984  0.66795079  0.66020204  1
  Sb  Sb85  1  0.67101025  0.00138601  0.33680635  1
  Sb  Sb86  1  0.16789384  0.82946455  -0.00192192  1
  Sb  Sb87  1  0.33135733  -0.00307139  -0.00435169  1
  Sb  Sb88  1  0.49850099  0.00049367  0.16254475  1
  Sb  Sb89  1  0.33707590  0.33707430  0.66737882  1
  Sb  Sb90  1  -0.00562684  0.82968114  0.49692273  1
  Sb  Sb91  1  0.15915678  0.34253063  0.49733105  1
  Sb  Sb92  1  0.67060842  0.16909484  0.17290276  1
  Sb  Sb93  1  0.00021935  0.66898672  0.00797927  1
  Sb  Sb94  1  0.16325259  -0.00069670  0.16310093  1
  Sb  Sb95  1  0.33009603  -0.00357750  0.33636361  1
  Sb  Sb96  1  0.49766650  0.66366869  0.17227816  1
  Sb  Sb97  1  0.33109587  0.33766404  0.33125386  1
  Sb  Sb98  1  0.16348828  -0.00661613  0.50475549  1
  Sb  Sb99  1  0.83116669  0.66834680  0.82882471  1
  Sb  Sb100  1  0.16974215  0.16685096  0.66727699  1
  Sb  Sb101  1  0.83367444  -0.00109213  0.83331149  1
  Sb  Sb102  1  0.50836384  0.34139893  0.49894600  1
  Sb  Sb103  1  0.33269916  0.66645642  -0.00173987  1
  Sb  Sb104  1  0.33456642  0.17302636  0.49785343  1
  Sb  Sb105  1  0.83572635  0.50484784  0.65769986  1
  Sb  Sb106  1  0.00693518  0.50104376  0.83546270  1
  Sb  Sb107  1  0.83322739  -0.00099187  0.49899019  1
  Te  Te108  1  0.16481298  0.16916422  0.16560513  1
  Te  Te109  1  0.16383959  0.16784233  0.50044295  1
  Te  Te110  1  0.16390790  0.16789277  0.83337472  1
  Te  Te111  1  0.16577820  0.50015433  0.17082752  1
  Te  Te112  1  0.16522833  0.50197827  0.50018878  1
  Te  Te113  1  0.17048463  0.49834178  0.82453975  1
  Te  Te114  1  0.16472087  0.83192995  0.16652866  1
  Te  Te115  1  0.16659657  0.82543695  0.50530249  1
  Te  Te116  1  0.16628395  0.83368111  0.83102017  1
  Te  Te117  1  0.49841837  0.17053334  0.16662528  1
  Te  Te118  1  0.50202689  0.16703662  0.50534291  1
  Te  Te119  1  0.49928926  0.17065061  0.82898705  1
  Te  Te120  1  0.50141366  0.49733417  0.16883811  1
  Te  Te121  1  0.49943112  0.50485847  0.49717559  1
  Te  Te122  1  0.49572053  0.49581231  0.83466182  1
  Te  Te123  1  0.49956528  0.83211895  0.17372364  1
  Te  Te124  1  0.50241390  0.82790191  0.49916162  1
  Te  Te125  1  0.49833385  0.83436609  0.83110647  1
  Te  Te126  1  0.83873091  0.17200376  0.17340404  1
  Te  Te127  1  0.83366680  0.16608931  0.49673102  1
  Te  Te128  1  0.84113515  0.16789045  0.83392495  1
  Te  Te129  1  0.83303601  0.49960118  0.17208424  1
  Te  Te130  1  0.83466289  0.50149865  0.49725131  1
  Te  Te131  1  0.83332977  0.50146040  0.83235223  1
  Te  Te132  1  0.83770956  0.82862820  0.16972756  1
  Te  Te133  1  0.83117487  0.83071614  0.50031391  1
  Te  Te134  1  0.83505184  0.83163357  0.83193506  1
  Te  Te135  1  0.16231955  -0.00109241  -0.00835458  1
  Te  Te136  1  0.16133677  0.00014250  0.33522236  1
  Te  Te137  1  0.16868831  -0.00198557  0.67178973  1
  Te  Te138  1  0.16615538  0.33972891  -0.00189338  1
  Te  Te139  1  0.16234764  0.34070274  0.32874528  1
  Te  Te140  1  0.16660147  0.33507673  0.67010555  1
  Te  Te141  1  0.16698467  0.66078462  0.00466882  1
  Te  Te142  1  0.16243928  0.66274222  0.33465467  1
  Te  Te143  1  0.17108317  0.66676373  0.66481288  1
  Te  Te144  1  0.50145849  -0.00430298  -0.00593402  1
  Te  Te145  1  0.49990681  -0.00366209  0.33292490  1
  Te  Te146  1  0.50098230  -0.00209873  0.66883292  1
  Te  Te147  1  0.50154041  0.33229656  -0.00127766  1
  Te  Te148  1  0.50117196  0.33409335  0.32985174  1
  Te  Te149  1  0.50350593  0.33370251  0.66860396  1
  Te  Te150  1  0.50027656  0.67286827  -0.00292250  1
  Te  Te151  1  0.50113243  0.66750737  0.33702168  1
  Te  Te152  1  0.49578447  0.66927916  0.66471544  1
  Te  Te153  1  0.83457414  -0.00020739  0.00094850  1
  Te  Te154  1  0.83754352  -0.01098623  0.33255011  1
  Te  Te155  1  0.82657104  -0.00736563  0.66639445  1
  Te  Te156  1  0.83231047  0.33977697  0.00387471  1
  Te  Te157  1  0.83475950  0.33697662  0.33502949  1
  Te  Te158  1  0.82765126  0.33265499  0.66294164  1
  Te  Te159  1  0.83283563  0.66038347  0.00018347  1
  Te  Te160  1  0.83517056  0.66660615  0.33519278  1
  Te  Te161  1  0.83504967  0.67298686  0.66059288  1
  Te  Te162  1  -0.00067239  0.16018652  -0.00267528  1
  Te  Te163  1  -0.00254045  0.16384222  0.33264144  1
  Te  Te164  1  -0.00057257  0.16546666  0.66935165  1
  Te  Te165  1  0.00105934  0.49975973  0.00249433  1
  Te  Te166  1  -0.00129209  0.50185513  0.33296519  1
  Te  Te167  1  0.00528986  0.49995716  0.66607202  1
  Te  Te168  1  -0.00006817  0.83786872  0.00034550  1
  Te  Te169  1  -0.00176230  0.83792745  0.33093170  1
  Te  Te170  1  0.00598355  0.83393727  0.66859094  1
  Te  Te171  1  0.33319527  0.16422538  0.01041896  1
  Te  Te172  1  0.33310894  0.16497266  0.32861735  1
  Te  Te173  1  0.33924847  0.16484549  0.66662478  1
  Te  Te174  1  0.32972450  0.50087867  0.00295412  1
  Te  Te175  1  0.34070096  0.50040561  0.33207283  1
  Te  Te176  1  0.33056624  0.50246770  0.66646373  1
  Te  Te177  1  0.33883257  0.83328010  0.00857271  1
  Te  Te178  1  0.33602421  0.83331662  0.32919483  1
  Te  Te179  1  0.33335629  0.83155339  0.66595025  1
  Te  Te180  1  0.66894962  0.15832500  -0.00120386  1
  Te  Te181  1  0.67275544  0.16936838  0.34086605  1
  Te  Te182  1  0.66404024  0.16728586  0.66186049  1
  Te  Te183  1  0.66995785  0.50021371  -0.00356406  1
  Te  Te184  1  0.65963831  0.49527322  0.33893598  1
  Te  Te185  1  0.66738150  0.49454949  0.65994973  1
  Te  Te186  1  0.66394979  0.83775714  -0.00014764  1
  Te  Te187  1  0.66761706  0.83511245  0.33787524  1
  Te  Te188  1  0.66400720  0.83290828  0.66589248  1
  Te  Te189  1  0.00069521  0.00099190  0.16535717  1
  Te  Te190  1  0.00078953  0.00600918  0.49607665  1
  Te  Te191  1  0.00099643  -0.00235999  0.83300996  1
  Te  Te192  1  0.00202607  0.33467409  0.16872179  1
  Te  Te193  1  -0.00534930  0.33406441  0.49558867  1
  Te  Te194  1  0.00394950  0.33181645  0.83364807  1
  Te  Te195  1  0.00060366  0.66583100  0.16924220  1
  Te  Te196  1  -0.00006919  0.66377544  0.49521692  1
  Te  Te197  1  0.00072501  0.67381928  0.83378802  1
  Te  Te198  1  0.33127396  -0.00378043  0.16654080  1
  Te  Te199  1  0.33135244  0.00272927  0.50688645  1
  Te  Te200  1  0.33379725  0.00127387  0.82881420  1
  Te  Te201  1  0.33278300  0.33646152  0.16702611  1
  Te  Te202  1  0.33272046  0.34102605  0.49943875  1
  Te  Te203  1  0.33303690  0.33653948  0.83443277  1
  Te  Te204  1  0.33022803  0.66489370  0.16737675  1
  Te  Te205  1  0.33301373  0.66156176  0.50333889  1
  Te  Te206  1  0.33800449  0.66206464  0.82924762  1
  Te  Te207  1  0.66654448  0.00100943  0.16092800  1
  Te  Te208  1  0.66633243  -0.00473892  0.50429733  1
  Te  Te209  1  0.66443797  -0.00298908  0.83110506  1
  Te  Te210  1  0.66063301  0.33110003  0.16908066  1
  Te  Te211  1  0.66876551  0.33539601  0.49854047  1
  Te  Te212  1  0.66393115  0.33261833  0.83183079  1
  Te  Te213  1  0.67189003  0.66676451  0.16620422  1
  Te  Te214  1  0.66657526  0.66653084  0.50000304  1
  Te  Te215  1  0.65965449  0.67298182  0.83108952  1
