# generated using pymatgen
data_AgSbTe2
_symmetry_space_group_name_H-M   'P 1'
_cell_length_a   18.33253733
_cell_length_b   18.33260025
_cell_length_c   18.33464784
_cell_angle_alpha   89.99838437
_cell_angle_beta   90.00044018
_cell_angle_gamma   89.99701863
_symmetry_Int_Tables_number   1
_chemical_formula_structural   AgSbTe2
_chemical_formula_sum   'Ag54 Sb54 Te108'
_cell_volume   6161.96487563
_cell_formula_units_Z   54
loop_
 _symmetry_equiv_pos_site_id
 _symmetry_equiv_pos_as_xyz
  1  'x, y, z'
loop_
 _atom_site_type_symbol
 _atom_site_label
 _atom_site_symmetry_multiplicity
 _atom_site_fract_x
 _atom_site_fract_y
 _atom_site_fract_z
 _atom_site_occupancy
  Ag  Ag0  1  0.16598004  0.01138955  0.82986401  1
  Ag  Ag1  1  0.16755291  0.00110589  0.51142894  1
  Ag  Ag2  1  0.50209413  0.49999877  0.66584371  1
  Ag  Ag3  1  0.33414929  0.33940387  0.33588137  1
  Ag  Ag4  1  0.66393638  0.17460126  0.16093767  1
  Ag  Ag5  1  0.17236979  0.32394660  0.83092690  1
  Ag  Ag6  1  0.66295323  0.82937405  0.17128401  1
  Ag  Ag7  1  0.50036151  0.65904141  0.50309057  1
  Ag  Ag8  1  0.83491917  0.82338623  0.33427675  1
  Ag  Ag9  1  0.01064606  0.16482265  0.83887113  1
  Ag  Ag10  1  0.50052741  0.82129832  0.33311258  1
  Ag  Ag11  1  0.49902269  0.17921679  0.00106755  1
  Ag  Ag12  1  0.33000180  0.83287599  0.83143019  1
  Ag  Ag13  1  0.32521851  0.00064746  0.67024436  1
  Ag  Ag14  1  0.16769509  0.00029340  0.16347104  1
  Ag  Ag15  1  0.49864402  0.65681135  0.82901827  1
  Ag  Ag16  1  0.84817643  0.16852939  0.00115480  1
  Ag  Ag17  1  0.16575376  0.16476100  0.67919155  1
  Ag  Ag18  1  0.49092549  0.50160072  0.33677670  1
  Ag  Ag19  1  0.49655980  0.00703585  0.16588281  1
  Ag  Ag20  1  0.33648588  0.49884549  0.49438945  1
  Ag  Ag21  1  0.16459730  0.17229381  -0.00800361  1
  Ag  Ag22  1  0.33440778  0.49886737  0.17412010  1
  Ag  Ag23  1  0.17053675  0.34218215  0.50343671  1
  Ag  Ag24  1  0.66504461  0.82836898  0.49601662  1
  Ag  Ag25  1  0.83470023  0.50406174  0.33826967  1
  Ag  Ag26  1  0.65452778  0.49843063  0.16555628  1
  Ag  Ag27  1  0.82629583  0.34431275  0.50108746  1
  Ag  Ag28  1  0.16971676  0.50258089  0.32655557  1
  Ag  Ag29  1  0.00723236  -0.00261625  0.67723355  1
  Ag  Ag30  1  0.33295815  0.49799530  0.83362320  1
  Ag  Ag31  1  0.16730861  0.82027621  0.33267719  1
  Ag  Ag32  1  0.83451687  0.66232798  0.50024578  1
  Ag  Ag33  1  0.00853789  0.50104247  0.16289945  1
  Ag  Ag34  1  0.16805863  0.49678955  0.00236265  1
  Ag  Ag35  1  0.50130955  0.33989538  0.15913352  1
  Ag  Ag36  1  0.00882199  0.50197007  0.83782261  1
  Ag  Ag37  1  0.49288109  0.49748984  -0.00034227  1
  Ag  Ag38  1  0.00394048  0.66452755  0.33418611  1
  Ag  Ag39  1  0.66407266  0.83042597  0.83276073  1
  Ag  Ag40  1  0.00474083  0.00858452  -0.00357384  1
  Ag  Ag41  1  0.82860486  0.50186818  0.65936412  1
  Ag  Ag42  1  0.00210302  0.66261587  -0.00304315  1
  Ag  Ag43  1  0.00659141  0.83246592  0.83393578  1
  Ag  Ag44  1  0.49446602  0.34001705  0.84146786  1
  Ag  Ag45  1  0.49803557  0.34206625  0.49947503  1
  Ag  Ag46  1  0.66715128  0.66085832  0.66453892  1
  Ag  Ag47  1  0.66034312  0.33271250  -0.00170241  1
  Ag  Ag48  1  0.32219603  0.17533398  0.83355699  1
  Ag  Ag49  1  0.16271209  0.65697467  0.17409324  1
  Ag  Ag50  1  0.66318760  0.34217765  0.66842676  1
  Ag  Ag51  1  -0.00128499  0.66545859  0.66828198  1
  Ag  Ag52  1  0.16294464  0.66146051  0.49420279  1
  Ag  Ag53  1  0.00329912  0.16996467  0.15831723  1
  Sb  Sb54  1  0.83464222  0.17238482  0.32917080  1
  Sb  Sb55  1  0.33093979  0.17366149  0.50674750  1
  Sb  Sb56  1  0.00047486  0.82937910  0.50249301  1
  Sb  Sb57  1  0.49493034  0.17509486  0.67420787  1
  Sb  Sb58  1  0.66529247  0.16779410  0.49616755  1
  Sb  Sb59  1  0.49222053  0.00118374  0.83791867  1
  Sb  Sb60  1  0.17185699  0.33702290  0.16353499  1
  Sb  Sb61  1  0.50132605  0.82958857  0.00215225  1
  Sb  Sb62  1  0.00194456  0.50231895  0.49970081  1
  Sb  Sb63  1  0.66978284  0.66597357  0.33876902  1
  Sb  Sb64  1  0.33435528  0.82973610  0.16481418  1
  Sb  Sb65  1  0.16488856  0.83213500  0.00210803  1
  Sb  Sb66  1  0.66101765  0.50121845  0.83306320  1
  Sb  Sb67  1  0.66997079  0.66195992  -0.00339164  1
  Sb  Sb68  1  0.49811117  0.66018196  0.16867746  1
  Sb  Sb69  1  0.50086920  0.82631291  0.66508980  1
  Sb  Sb70  1  0.16550318  0.83689181  0.66450847  1
  Sb  Sb71  1  0.49987408  0.17310977  0.32606345  1
  Sb  Sb72  1  -0.00041129  0.83041741  0.16397396  1
  Sb  Sb73  1  -0.00057036  0.33802311  0.66850147  1
  Sb  Sb74  1  0.83541614  0.00059068  0.16673637  1
  Sb  Sb75  1  0.66185948  0.50459298  0.49876037  1
  Sb  Sb76  1  0.83326120  0.66427922  0.82703607  1
  Sb  Sb77  1  0.83274359  0.33588215  0.83177499  1
  Sb  Sb78  1  0.16813327  0.49734185  0.66682118  1
  Sb  Sb79  1  0.33610122  0.33468630  0.66654783  1
  Sb  Sb80  1  0.82808402  0.33574694  0.16952870  1
  Sb  Sb81  1  0.00436684  0.34249654  0.33227361  1
  Sb  Sb82  1  0.33434090  0.82756107  0.50200416  1
  Sb  Sb83  1  0.84410165  -0.00045492  0.83363686  1
  Sb  Sb84  1  0.00489131  -0.00643591  0.33066336  1
  Sb  Sb85  1  0.83941410  0.17339913  0.67177112  1
  Sb  Sb86  1  0.33213329  0.66690827  0.66729399  1
  Sb  Sb87  1  0.33789468  0.33555525  -0.00070545  1
  Sb  Sb88  1  0.00272482  0.16685501  0.50209432  1
  Sb  Sb89  1  0.16565351  0.17163571  0.32979216  1
  Sb  Sb90  1  0.83555927  0.49602061  0.00080406  1
  Sb  Sb91  1  0.66147785  0.33912547  0.33307270  1
  Sb  Sb92  1  0.66612306  -0.00194633  0.66887717  1
  Sb  Sb93  1  0.49460089  -0.00238375  0.49632870  1
  Sb  Sb94  1  0.83788247  0.66460709  0.17351989  1
  Sb  Sb95  1  -0.00071086  0.33284415  -0.00100930  1
  Sb  Sb96  1  0.83488786  0.83510850  0.00280934  1
  Sb  Sb97  1  0.32838195  0.66176069  -0.00141444  1
  Sb  Sb98  1  0.66550254  -0.00514056  0.33100333  1
  Sb  Sb99  1  0.33278758  0.17175144  0.16034857  1
  Sb  Sb100  1  0.33081886  0.00373481  0.33605983  1
  Sb  Sb101  1  0.16672910  0.66432721  0.83226997  1
  Sb  Sb102  1  0.66616923  0.16594274  0.83899095  1
  Sb  Sb103  1  0.32804276  0.66029667  0.33450676  1
  Sb  Sb104  1  0.32706842  0.00202411  -0.00380323  1
  Sb  Sb105  1  0.83411579  0.82626388  0.66259482  1
  Sb  Sb106  1  0.66878670  0.00479490  0.00102288  1
  Sb  Sb107  1  0.83960096  -0.00457850  0.50043800  1
  Te  Te108  1  0.16491006  0.16651042  0.16230206  1
  Te  Te109  1  0.16650567  0.16412452  0.49846704  1
  Te  Te110  1  0.16618613  0.16743773  0.83567287  1
  Te  Te111  1  0.16853323  0.49758218  0.16524804  1
  Te  Te112  1  0.16885471  0.50032326  0.50169620  1
  Te  Te113  1  0.16878981  0.50150467  0.83408115  1
  Te  Te114  1  0.16748364  0.83561317  0.17147441  1
  Te  Te115  1  0.16814156  0.82990245  0.49339968  1
  Te  Te116  1  0.16656185  0.83201254  0.83402172  1
  Te  Te117  1  0.50004624  0.16709367  0.16214897  1
  Te  Te118  1  0.50013579  0.16979690  0.50017201  1
  Te  Te119  1  0.49832575  0.16978502  0.84047484  1
  Te  Te120  1  0.49613890  0.49994268  0.16604382  1
  Te  Te121  1  0.50095454  0.50016818  0.49782313  1
  Te  Te122  1  0.50079826  0.49918208  0.83504581  1
  Te  Te123  1  0.50148322  0.83014784  0.17038096  1
  Te  Te124  1  0.50229012  0.83199417  0.49480554  1
  Te  Te125  1  0.49934116  0.83324494  0.83370438  1
  Te  Te126  1  0.83286604  0.16785082  0.16229588  1
  Te  Te127  1  0.83315862  0.17023552  0.49925185  1
  Te  Te128  1  0.83615061  0.16749393  0.84002009  1
  Te  Te129  1  0.83786666  0.49988456  0.16991991  1
  Te  Te130  1  0.83382704  0.50147876  0.49980692  1
  Te  Te131  1  0.84191348  0.49934449  0.83116120  1
  Te  Te132  1  0.82699060  0.83307174  0.17300967  1
  Te  Te133  1  0.82923805  0.82890801  0.49485594  1
  Te  Te134  1  0.83094240  0.83256213  0.83351018  1
  Te  Te135  1  0.16320261  -0.00150825  0.00214699  1
  Te  Te136  1  0.16721994  0.00110909  0.32680880  1
  Te  Te137  1  0.16453995  -0.00015085  0.66855818  1
  Te  Te138  1  0.16605484  0.33546858  -0.00450777  1
  Te  Te139  1  0.17090800  0.33884911  0.33723389  1
  Te  Te140  1  0.16670493  0.32908716  0.66622659  1
  Te  Te141  1  0.16167724  0.66235429  0.00251005  1
  Te  Te142  1  0.16506704  0.66346242  0.33395594  1
  Te  Te143  1  0.16195742  0.66699715  0.65972897  1
  Te  Te144  1  0.49959135  -0.00178572  0.00623692  1
  Te  Te145  1  0.49821755  -0.00020688  0.32701123  1
  Te  Te146  1  0.49673443  0.00302067  0.66637089  1
  Te  Te147  1  0.50108470  0.33717539  -0.00026101  1
  Te  Te148  1  0.49660071  0.33817180  0.33764316  1
  Te  Te149  1  0.50285877  0.33775540  0.66380526  1
  Te  Te150  1  0.50120991  0.66032137  -0.00461481  1
  Te  Te151  1  0.50092799  0.66302527  0.33603710  1
  Te  Te152  1  0.50007168  0.66192518  0.66588136  1
  Te  Te153  1  0.84058167  0.00690413  0.00086629  1
  Te  Te154  1  0.83543678  -0.00640514  0.33498066  1
  Te  Te155  1  0.84050471  0.00173046  0.66529492  1
  Te  Te156  1  0.82301609  0.32826094  -0.00013638  1
  Te  Te157  1  0.83396939  0.33966810  0.34124878  1
  Te  Te158  1  0.82843821  0.33873700  0.66204381  1
  Te  Te159  1  0.84101863  0.66608219  -0.00015027  1
  Te  Te160  1  0.83689021  0.66495395  0.33900595  1
  Te  Te161  1  0.83338878  0.66171471  0.66101129  1
  Te  Te162  1  0.00417796  0.16896075  -0.00029699  1
  Te  Te163  1  -0.00138665  0.16545066  0.32472701  1
  Te  Te164  1  0.00405949  0.16376237  0.67052138  1
  Te  Te165  1  0.00163311  0.50037375  0.00072585  1
  Te  Te166  1  0.00244012  0.50504084  0.33112633  1
  Te  Te167  1  -0.00213386  0.50405435  0.67036515  1
  Te  Te168  1  -0.00147624  0.82932868  -0.00495062  1
  Te  Te169  1  0.00141634  0.82646216  0.33262247  1
  Te  Te170  1  -0.00101417  0.83199150  0.67228865  1
  Te  Te171  1  0.33002318  0.16728576  -0.00594842  1
  Te  Te172  1  0.33326408  0.17487541  0.33329749  1
  Te  Te173  1  0.32825664  0.16167327  0.67333452  1
  Te  Te174  1  0.33154927  0.50006785  -0.00440307  1
  Te  Te175  1  0.33155350  0.49850629  0.33443505  1
  Te  Te176  1  0.33947557  0.50148426  0.67068727  1
  Te  Te177  1  0.33358202  0.83204745  -0.00786604  1
  Te  Te178  1  0.33356020  0.83508251  0.33335775  1
  Te  Te179  1  0.33367660  0.83863696  0.67127083  1
  Te  Te180  1  0.65771400  0.17010213  0.00342027  1
  Te  Te181  1  0.66847120  0.16598699  0.32280583  1
  Te  Te182  1  0.66854096  0.16840072  0.66668046  1
  Te  Te183  1  0.66749766  0.49593792  0.00418809  1
  Te  Te184  1  0.67037001  0.50062507  0.32578662  1
  Te  Te185  1  0.66536999  0.50151771  0.66698736  1
  Te  Te186  1  0.66891423  0.83268061  -0.00110579  1
  Te  Te187  1  0.66312036  0.83166276  0.33259439  1
  Te  Te188  1  0.66713370  0.82977690  0.66798294  1
  Te  Te189  1  0.00338439  0.00077887  0.16265686  1
  Te  Te190  1  0.00790269  -0.00146944  0.50279226  1
  Te  Te191  1  0.00493145  0.00014524  0.83553987  1
  Te  Te192  1  -0.00080545  0.33462383  0.16672187  1
  Te  Te193  1  0.00631992  0.33195548  0.50038509  1
  Te  Te194  1  0.00294900  0.33509929  0.83241303  1
  Te  Te195  1  0.00360331  0.66408183  0.16631123  1
  Te  Te196  1  0.00068409  0.66715410  0.50215019  1
  Te  Te197  1  0.00012790  0.66610703  0.83187719  1
  Te  Te198  1  0.33239590  0.00030207  0.16701834  1
  Te  Te199  1  0.32715659  0.00044391  0.50489365  1
  Te  Te200  1  0.32771269  -0.00234416  0.83096914  1
  Te  Te201  1  0.33929027  0.33816683  0.17210180  1
  Te  Te202  1  0.33289544  0.33808879  0.49996287  1
  Te  Te203  1  0.33366764  0.33542044  0.83265397  1
  Te  Te204  1  0.32472435  0.66104159  0.16541696  1
  Te  Te205  1  0.33627729  0.66039872  0.50153276  1
  Te  Te206  1  0.33794454  0.66533086  0.83246421  1
  Te  Te207  1  0.66275749  -0.00374055  0.16511599  1
  Te  Te208  1  0.66599756  -0.00679698  0.50150745  1
  Te  Te209  1  0.66582324  -0.00744463  0.83301916  1
  Te  Te210  1  0.66169703  0.33520129  0.16678693  1
  Te  Te211  1  0.66507482  0.33147976  0.50380322  1
  Te  Te212  1  0.66237552  0.33309646  0.83107969  1
  Te  Te213  1  0.66690938  0.66611914  0.16448004  1
  Te  Te214  1  0.66417504  0.66937771  0.50515697  1
  Te  Te215  1  0.66343832  0.66934396  0.82897603  1
