# generated using pymatgen
data_AgSbTe2
_symmetry_space_group_name_H-M   'P 1'
_cell_length_a   18.32619629
_cell_length_b   18.32599430
_cell_length_c   18.32084546
_cell_angle_alpha   90.00072678
_cell_angle_beta   90.00026289
_cell_angle_gamma   89.99806732
_symmetry_Int_Tables_number   1
_chemical_formula_structural   AgSbTe2
_chemical_formula_sum   'Ag54 Sb54 Te108'
_cell_volume   6152.97842453
_cell_formula_units_Z   54
loop_
 _symmetry_equiv_pos_site_id
 _symmetry_equiv_pos_as_xyz
  1  'x, y, z'
loop_
 _atom_site_type_symbol
 _atom_site_label
 _atom_site_symmetry_multiplicity
 _atom_site_fract_x
 _atom_site_fract_y
 _atom_site_fract_z
 _atom_site_occupancy
  Ag  Ag0  1  0.49413784  0.33177148  0.50336508  1
  Ag  Ag1  1  0.49796225  0.67381711  0.49927748  1
  Ag  Ag2  1  0.00370988  0.83877639  0.17018615  1
  Ag  Ag3  1  0.16436442  0.50406367  -0.00124732  1
  Ag  Ag4  1  0.49777942  -0.00451522  0.49647733  1
  Ag  Ag5  1  0.16190742  0.66504631  0.83507615  1
  Ag  Ag6  1  0.33187918  0.33422375  0.66294994  1
  Ag  Ag7  1  0.00217795  0.67637291  0.32390860  1
  Ag  Ag8  1  0.32856990  0.66996412  0.66348076  1
  Ag  Ag9  1  0.15945061  0.16125115  0.33701700  1
  Ag  Ag10  1  0.00065365  -0.00289711  0.32550346  1
  Ag  Ag11  1  0.16828635  0.50264639  0.66451246  1
  Ag  Ag12  1  0.82572332  0.34455390  0.83448286  1
  Ag  Ag13  1  0.67805045  0.66817358  0.00147578  1
  Ag  Ag14  1  0.33373053  0.32986864  -0.00396174  1
  Ag  Ag15  1  0.33377632  0.49608737  0.50423862  1
  Ag  Ag16  1  0.32621697  0.83567372  0.16784960  1
  Ag  Ag17  1  0.17546546  0.33022513  0.50198883  1
  Ag  Ag18  1  0.66078375  0.50185191  0.50491077  1
  Ag  Ag19  1  0.49793530  0.67348687  0.16868727  1
  Ag  Ag20  1  0.83207319  0.16420952  0.00604695  1
  Ag  Ag21  1  0.84440585  -0.00363661  0.16587389  1
  Ag  Ag22  1  0.67238030  0.16118046  0.16464196  1
  Ag  Ag23  1  0.33308773  -0.00738603  0.66056668  1
  Ag  Ag24  1  0.50219198  0.33353083  0.83025253  1
  Ag  Ag25  1  -0.00636686  0.15360703  0.17324650  1
  Ag  Ag26  1  0.67174814  0.00039654  0.00483581  1
  Ag  Ag27  1  0.00390885  0.66777238  0.66618518  1
  Ag  Ag28  1  0.49314204  0.83243613  0.66038650  1
  Ag  Ag29  1  0.84341325  0.67468592  0.16005677  1
  Ag  Ag30  1  0.16917695  0.17164339  0.65757009  1
  Ag  Ag31  1  0.16202397  0.83324225  0.32941763  1
  Ag  Ag32  1  0.33343772  0.83193099  0.82282817  1
  Ag  Ag33  1  0.83465545  0.50437572  -0.00555157  1
  Ag  Ag34  1  0.66376138  0.16557200  0.49851189  1
  Ag  Ag35  1  0.83603605  0.50699627  0.67584567  1
  Ag  Ag36  1  -0.00151768  -0.00288026  0.01169038  1
  Ag  Ag37  1  0.16585694  0.50323490  0.33574900  1
  Ag  Ag38  1  0.15564622  -0.00702671  0.16750465  1
  Ag  Ag39  1  0.65739610  0.83382838  0.50115854  1
  Ag  Ag40  1  0.67209177  0.49780839  0.83124898  1
  Ag  Ag41  1  0.83620109  0.66348973  0.84012078  1
  Ag  Ag42  1  0.49919118  -0.00189561  0.16859251  1
  Ag  Ag43  1  0.66915925  0.17209239  0.83858032  1
  Ag  Ag44  1  0.83994744  0.16036957  0.32524915  1
  Ag  Ag45  1  0.01169095  0.16487857  0.49130005  1
  Ag  Ag46  1  0.33233963  0.00090715  0.00448890  1
  Ag  Ag47  1  -0.00435211  0.67027443  0.00597055  1
  Ag  Ag48  1  0.16079167  0.67421622  0.16667651  1
  Ag  Ag49  1  0.84096399  0.83674217  0.33276764  1
  Ag  Ag50  1  0.49832043  0.32849065  0.16543115  1
  Ag  Ag51  1  0.33795250  0.83446647  0.50516399  1
  Ag  Ag52  1  0.83189323  0.82699343  0.66166484  1
  Ag  Ag53  1  0.32986058  0.16967991  0.50316718  1
  Sb  Sb54  1  -0.00396816  0.16510363  0.83467652  1
  Sb  Sb55  1  0.66051622  0.33389195  0.66809538  1
  Sb  Sb56  1  0.32960761  0.66860379  -0.00165603  1
  Sb  Sb57  1  0.83065134  0.33206731  0.50496516  1
  Sb  Sb58  1  0.00336584  0.82883928  0.83764786  1
  Sb  Sb59  1  0.49427287  0.16385594  0.66262619  1
  Sb  Sb60  1  0.16647640  0.82839039  0.00765181  1
  Sb  Sb61  1  0.83708674  0.16696043  0.66698705  1
  Sb  Sb62  1  0.83907755  0.50329135  0.33278472  1
  Sb  Sb63  1  0.00210363  0.33549192  0.00075480  1
  Sb  Sb64  1  0.32692935  0.66871940  0.33721158  1
  Sb  Sb65  1  0.16980872  0.83010333  0.66061925  1
  Sb  Sb66  1  0.33635330  0.16502048  0.82912146  1
  Sb  Sb67  1  0.16284610  0.16806948  0.00261256  1
  Sb  Sb68  1  0.00247644  0.83562686  0.49313203  1
  Sb  Sb69  1  0.67224010  0.66911311  0.32996363  1
  Sb  Sb70  1  0.50515513  0.16631828  0.00133207  1
  Sb  Sb71  1  0.83222121  -0.00392186  0.84019478  1
  Sb  Sb72  1  0.00201180  0.32719750  0.33395148  1
  Sb  Sb73  1  0.49856763  0.83389612  0.33708045  1
  Sb  Sb74  1  0.82882749  -0.00019765  0.49445089  1
  Sb  Sb75  1  0.00103499  0.50593688  0.16614345  1
  Sb  Sb76  1  0.83385511  0.83112567  0.00309995  1
  Sb  Sb77  1  -0.00574737  0.50268288  0.83321738  1
  Sb  Sb78  1  0.00328984  0.49815944  0.50037170  1
  Sb  Sb79  1  0.82999428  0.66775608  0.50118897  1
  Sb  Sb80  1  0.66631669  0.33176054  0.33420401  1
  Sb  Sb81  1  0.33222211  0.50400901  0.16884023  1
  Sb  Sb82  1  0.33173802  0.33270094  0.33838145  1
  Sb  Sb83  1  0.17229397  0.00440452  0.49406540  1
  Sb  Sb84  1  0.00530124  -0.00471613  0.66455217  1
  Sb  Sb85  1  0.66830003  0.83693512  0.17028797  1
  Sb  Sb86  1  0.83032876  0.32801618  0.16181862  1
  Sb  Sb87  1  0.49934489  0.16511107  0.33551615  1
  Sb  Sb88  1  0.49805677  0.83393260  -0.00026126  1
  Sb  Sb89  1  0.33346215  0.16134949  0.17040075  1
  Sb  Sb90  1  0.17151597  0.66296017  0.49846841  1
  Sb  Sb91  1  0.50084535  0.66401967  0.83220041  1
  Sb  Sb92  1  0.49551728  0.50137794  0.33701709  1
  Sb  Sb93  1  0.49764095  0.50347770  0.66376826  1
  Sb  Sb94  1  0.66281600  -0.00044547  0.66765270  1
  Sb  Sb95  1  0.32732641  -0.00176377  0.33305077  1
  Sb  Sb96  1  0.16957815  -0.00581622  0.83884165  1
  Sb  Sb97  1  0.66754212  0.49913560  0.16569780  1
  Sb  Sb98  1  0.33549967  0.50283802  0.82874747  1
  Sb  Sb99  1  0.00448766  0.33740254  0.66562263  1
  Sb  Sb100  1  0.67271377  0.00048493  0.32813820  1
  Sb  Sb101  1  0.16906725  0.33896709  0.82915948  1
  Sb  Sb102  1  0.49898259  0.00278381  0.83342304  1
  Sb  Sb103  1  0.66426449  0.83204496  0.83000505  1
  Sb  Sb104  1  0.66758320  0.66582216  0.66842007  1
  Sb  Sb105  1  0.17079851  0.33291651  0.17049662  1
  Sb  Sb106  1  0.66423240  0.33216166  -0.00189550  1
  Sb  Sb107  1  0.50077128  0.49946429  -0.00023856  1
  Te  Te108  1  0.16460759  0.16546910  0.17059652  1
  Te  Te109  1  0.16899221  0.16633233  0.49881473  1
  Te  Te110  1  0.16572177  0.16825999  0.82992261  1
  Te  Te111  1  0.16756926  0.50194273  0.16645556  1
  Te  Te112  1  0.16844293  0.49627638  0.50299569  1
  Te  Te113  1  0.16799885  0.50486770  0.83159729  1
  Te  Te114  1  0.16614841  0.83325645  0.16915278  1
  Te  Te115  1  0.17277876  0.83482009  0.49239651  1
  Te  Te116  1  0.17249660  0.82638132  0.83208064  1
  Te  Te117  1  0.50225285  0.16563911  0.16857656  1
  Te  Te118  1  0.50107232  0.16838063  0.49972568  1
  Te  Te119  1  0.50660669  0.17281888  0.83170214  1
  Te  Te120  1  0.50032950  0.50029703  0.16872265  1
  Te  Te121  1  0.49929605  0.49751278  0.50006675  1
  Te  Te122  1  0.50767086  0.49443245  0.83185014  1
  Te  Te123  1  0.49974519  0.83324030  0.16809158  1
  Te  Te124  1  0.49797664  0.83314048  0.49925488  1
  Te  Te125  1  0.49539452  0.83317055  0.82634337  1
  Te  Te126  1  0.83229568  0.16652598  0.16552301  1
  Te  Te127  1  0.82579400  0.16724646  0.49923252  1
  Te  Te128  1  0.82836403  0.16412298  0.83585879  1
  Te  Te129  1  0.83297199  0.50170540  0.16240555  1
  Te  Te130  1  0.82996616  0.49882473  0.50283384  1
  Te  Te131  1  0.83060439  0.50315137  0.83381170  1
  Te  Te132  1  0.83336626  0.83380811  0.16952946  1
  Te  Te133  1  0.83312271  0.83394455  0.49962623  1
  Te  Te134  1  0.83278717  0.82649548  0.82593988  1
  Te  Te135  1  0.16730587  0.00145353  0.00610601  1
  Te  Te136  1  0.16186218  0.00077909  0.32862184  1
  Te  Te137  1  0.17224260  0.00269683  0.66971465  1
  Te  Te138  1  0.17167304  0.33919779  -0.00071766  1
  Te  Te139  1  0.16629366  0.33765762  0.33872166  1
  Te  Te140  1  0.17060794  0.33550284  0.66420043  1
  Te  Te141  1  0.16493975  0.66273053  0.00084033  1
  Te  Te142  1  0.16221971  0.66695886  0.33119371  1
  Te  Te143  1  0.16722320  0.66491596  0.66605415  1
  Te  Te144  1  0.49623106  0.00044115  0.00304573  1
  Te  Te145  1  0.50141917  -0.00020421  0.33365014  1
  Te  Te146  1  0.49516666  -0.00497051  0.66332668  1
  Te  Te147  1  0.49437630  0.33286676  0.00107557  1
  Te  Te148  1  0.49890153  0.33323505  0.33095978  1
  Te  Te149  1  0.49323035  0.33344926  0.66490995  1
  Te  Te150  1  0.50164998  0.66599354  0.00362679  1
  Te  Te151  1  0.50173854  0.66703258  0.33139461  1
  Te  Te152  1  0.49682503  0.67105199  0.66389860  1
  Te  Te153  1  0.83285257  0.00029033  0.00514257  1
  Te  Te154  1  0.83817202  0.00047568  0.32809623  1
  Te  Te155  1  0.83512891  -0.00597653  0.66805730  1
  Te  Te156  1  0.83368775  0.33753771  -0.00541289  1
  Te  Te157  1  0.83433023  0.32948422  0.33289663  1
  Te  Te158  1  0.83484460  0.33654732  0.67376267  1
  Te  Te159  1  0.83499785  0.66736889  0.00078123  1
  Te  Te160  1  0.84015889  0.66886246  0.32830878  1
  Te  Te161  1  0.83368114  0.66608098  0.66699047  1
  Te  Te162  1  -0.00522941  0.16476795  0.00240784  1
  Te  Te163  1  -0.00040349  0.16504877  0.33336424  1
  Te  Te164  1  0.00666691  0.16499692  0.66357074  1
  Te  Te165  1  0.00118328  0.50384439  -0.00004640  1
  Te  Te166  1  0.00571562  0.50557302  0.33372796  1
  Te  Te167  1  0.00063023  0.50560335  0.66614818  1
  Te  Te168  1  0.00020816  0.83308775  0.00561696  1
  Te  Te169  1  -0.00006552  0.83455303  0.33126582  1
  Te  Te170  1  -0.00297842  0.82928387  0.66572470  1
  Te  Te171  1  0.33231505  0.16547196  -0.00117542  1
  Te  Te172  1  0.32629919  0.16560512  0.34039138  1
  Te  Te173  1  0.32933681  0.16727202  0.66401870  1
  Te  Te174  1  0.32983182  0.49667221  -0.00024689  1
  Te  Te175  1  0.32540538  0.50100316  0.34070763  1
  Te  Te176  1  0.33126326  0.50170815  0.66373707  1
  Te  Te177  1  0.33295434  0.83775995  0.00497161  1
  Te  Te178  1  0.32890234  0.83341147  0.32877395  1
  Te  Te179  1  0.33223047  0.83333870  0.66476286  1
  Te  Te180  1  0.67094202  0.16559200  0.00101982  1
  Te  Te181  1  0.67112460  0.16592872  0.33441115  1
  Te  Te182  1  0.66761615  0.16590220  0.66337940  1
  Te  Te183  1  0.66994225  0.50287423  -0.00189723  1
  Te  Te184  1  0.66911964  0.49999937  0.34115413  1
  Te  Te185  1  0.67096195  0.49999419  0.66560176  1
  Te  Te186  1  0.66571807  0.83427247  -0.00129571  1
  Te  Te187  1  0.67453193  0.83403650  0.34182363  1
  Te  Te188  1  0.66784405  0.83355251  0.66206000  1
  Te  Te189  1  0.00016052  -0.00154381  0.16725983  1
  Te  Te190  1  -0.00112672  0.00556436  0.49776386  1
  Te  Te191  1  0.00146865  -0.00271982  0.84098105  1
  Te  Te192  1  0.00054319  0.32573867  0.16579285  1
  Te  Te193  1  0.00210676  0.32568684  0.50077001  1
  Te  Te194  1  -0.00700158  0.33151348  0.83354665  1
  Te  Te195  1  0.00141131  0.66824901  0.16533554  1
  Te  Te196  1  -0.00008194  0.66713074  0.50496814  1
  Te  Te197  1  0.00111104  0.66748998  0.83293103  1
  Te  Te198  1  0.33931280  -0.00238440  0.16577903  1
  Te  Te199  1  0.33736382  -0.00086777  0.50022860  1
  Te  Te200  1  0.33387821  -0.00496485  0.83681413  1
  Te  Te201  1  0.33839980  0.33327105  0.16287127  1
  Te  Te202  1  0.33415289  0.33286016  0.50147085  1
  Te  Te203  1  0.33661111  0.33382089  0.83190927  1
  Te  Te204  1  0.33500626  0.67083363  0.16705760  1
  Te  Te205  1  0.33754719  0.66755023  0.50281323  1
  Te  Te206  1  0.33193494  0.67020181  0.82969216  1
  Te  Te207  1  0.65977222  0.00204538  0.16296244  1
  Te  Te208  1  0.66064382  -0.00050811  0.50024553  1
  Te  Te209  1  0.66550391  0.00428116  0.83995597  1
  Te  Te210  1  0.65991139  0.32879424  0.16605749  1
  Te  Te211  1  0.66192736  0.33260016  0.50102874  1
  Te  Te212  1  0.66546533  0.33326717  0.83298477  1
  Te  Te213  1  0.66269000  0.66666110  0.16269789  1
  Te  Te214  1  0.66093258  0.66642457  0.49945502  1
  Te  Te215  1  0.66948254  0.66422155  0.83827106  1
