# generated using pymatgen
data_AgSbTe2
_symmetry_space_group_name_H-M   'P 1'
_cell_length_a   18.33231419
_cell_length_b   18.33224823
_cell_length_c   18.33491293
_cell_angle_alpha   89.99973594
_cell_angle_beta   90.00162780
_cell_angle_gamma   89.99554597
_symmetry_Int_Tables_number   1
_chemical_formula_structural   AgSbTe2
_chemical_formula_sum   'Ag54 Sb54 Te108'
_cell_volume   6161.86063221
_cell_formula_units_Z   54
loop_
 _symmetry_equiv_pos_site_id
 _symmetry_equiv_pos_as_xyz
  1  'x, y, z'
loop_
 _atom_site_type_symbol
 _atom_site_label
 _atom_site_symmetry_multiplicity
 _atom_site_fract_x
 _atom_site_fract_y
 _atom_site_fract_z
 _atom_site_occupancy
  Ag  Ag0  1  0.32996168  0.49046099  0.15869609  1
  Ag  Ag1  1  0.16371665  0.65204796  0.83531602  1
  Ag  Ag2  1  0.67350678  0.33712289  -0.00568171  1
  Ag  Ag3  1  0.67153716  0.66879171  0.33731729  1
  Ag  Ag4  1  0.49594645  0.49764112  -0.00759529  1
  Ag  Ag5  1  0.16458307  0.16889217  0.32605728  1
  Ag  Ag6  1  0.50245998  0.49922014  0.67570923  1
  Ag  Ag7  1  0.83645047  0.49884264  0.66534810  1
  Ag  Ag8  1  0.33024353  0.49540210  0.51330151  1
  Ag  Ag9  1  0.83224351  0.33350195  0.15524045  1
  Ag  Ag10  1  0.33591755  0.83376140  0.50026083  1
  Ag  Ag11  1  0.83207654  0.83309715  0.00385687  1
  Ag  Ag12  1  0.66935982  -0.00155901  0.33395614  1
  Ag  Ag13  1  0.33571674  0.83468582  0.16269980  1
  Ag  Ag14  1  0.83285559  0.65652901  0.50040755  1
  Ag  Ag15  1  0.17048262  0.33418899  0.15532216  1
  Ag  Ag16  1  0.16412918  0.18193912  0.00206164  1
  Ag  Ag17  1  0.50178209  0.33815228  0.83757401  1
  Ag  Ag18  1  0.33386675  0.00308112  0.66997831  1
  Ag  Ag19  1  0.33818952  0.34160771  0.66968661  1
  Ag  Ag20  1  0.66482048  0.33887473  0.67565636  1
  Ag  Ag21  1  0.83306457  0.49482142  0.33994237  1
  Ag  Ag22  1  -0.00120153  0.33677332  -0.00292644  1
  Ag  Ag23  1  0.83542298  0.33620241  0.83822837  1
  Ag  Ag24  1  0.67461141  0.16868930  0.49477272  1
  Ag  Ag25  1  0.66547582  0.49655438  0.83185264  1
  Ag  Ag26  1  0.16484328  0.49799719  -0.00818088  1
  Ag  Ag27  1  0.67132134  0.65573334  0.66843236  1
  Ag  Ag28  1  0.83186318  0.00271711  0.49944448  1
  Ag  Ag29  1  0.82718534  0.83109196  0.33146946  1
  Ag  Ag30  1  0.00133202  -0.00296246  0.66811207  1
  Ag  Ag31  1  0.17106576  0.82951465  0.00035721  1
  Ag  Ag32  1  -0.00579163  0.65783701  0.67279851  1
  Ag  Ag33  1  0.50511355  0.83350172  0.33066260  1
  Ag  Ag34  1  0.83624882  0.17769877  0.00467944  1
  Ag  Ag35  1  0.33389102  0.16919150  0.49956273  1
  Ag  Ag36  1  0.00221297  0.49606627  0.15066917  1
  Ag  Ag37  1  0.33479007  -0.00139807  -0.00415993  1
  Ag  Ag38  1  0.83256519  0.33753519  0.50147086  1
  Ag  Ag39  1  0.15996284  0.33909916  0.83810935  1
  Ag  Ag40  1  -0.00801008  0.49977150  0.51120690  1
  Ag  Ag41  1  -0.00299388  0.65375570  -0.00643423  1
  Ag  Ag42  1  0.16481484  0.49933681  0.67958651  1
  Ag  Ag43  1  0.49831545  0.00372470  0.83375598  1
  Ag  Ag44  1  -0.00026843  0.18067641  0.83497740  1
  Ag  Ag45  1  0.66981722  0.17176358  0.16947370  1
  Ag  Ag46  1  0.49779293  0.33471703  0.15833917  1
  Ag  Ag47  1  0.49847088  0.82859491  0.66970459  1
  Ag  Ag48  1  0.83212070  0.17258534  0.33151731  1
  Ag  Ag49  1  0.32483968  0.49554861  0.83259997  1
  Ag  Ag50  1  0.01062521  0.49766886  0.83452712  1
  Ag  Ag51  1  0.33267162  0.17424512  0.16565926  1
  Ag  Ag52  1  0.49886551  0.82866971  -0.00112993  1
  Ag  Ag53  1  0.67177500  0.65553188  -0.00228825  1
  Sb  Sb54  1  0.16947950  0.00855387  0.16325793  1
  Sb  Sb55  1  0.50436603  0.16418619  0.33194695  1
  Sb  Sb56  1  0.83225154  0.00624346  0.16985570  1
  Sb  Sb57  1  0.16690068  0.17411838  0.66994832  1
  Sb  Sb58  1  0.83624472  0.65755805  0.83218947  1
  Sb  Sb59  1  0.33904095  0.00152966  0.33423515  1
  Sb  Sb60  1  0.00295887  0.00351936  -0.00513650  1
  Sb  Sb61  1  0.83340573  0.17550880  0.66609601  1
  Sb  Sb62  1  0.50496575  0.50303743  0.33274747  1
  Sb  Sb63  1  -0.00218997  0.17299602  0.50467442  1
  Sb  Sb64  1  0.67068260  0.49534378  0.50721854  1
  Sb  Sb65  1  0.16170999  0.66363561  0.50590830  1
  Sb  Sb66  1  0.67043909  0.33425050  0.33173227  1
  Sb  Sb67  1  0.17193707  0.82757072  0.67211229  1
  Sb  Sb68  1  0.66952441  0.17539431  0.83569731  1
  Sb  Sb69  1  0.50616699  0.66599433  0.50212622  1
  Sb  Sb70  1  0.00029461  0.17407902  0.16073039  1
  Sb  Sb71  1  0.50263644  0.33509793  0.50233404  1
  Sb  Sb72  1  0.82978792  0.00626324  0.83071526  1
  Sb  Sb73  1  -0.00261929  0.33933361  0.67472823  1
  Sb  Sb74  1  0.33142266  0.33376437  -0.00334209  1
  Sb  Sb75  1  0.50108047  0.66206723  0.16374458  1
  Sb  Sb76  1  0.66457966  0.00167994  0.66304404  1
  Sb  Sb77  1  -0.00800896  0.00178434  0.33953561  1
  Sb  Sb78  1  0.66350168  0.00367912  0.00242829  1
  Sb  Sb79  1  0.83231868  0.65842201  0.16707830  1
  Sb  Sb80  1  0.66819664  0.49328435  0.16112006  1
  Sb  Sb81  1  0.33573237  0.83033286  0.83475867  1
  Sb  Sb82  1  0.16257895  0.49561260  0.32975423  1
  Sb  Sb83  1  0.16923429  0.83856907  0.32749577  1
  Sb  Sb84  1  0.49751546  0.65876123  0.83399494  1
  Sb  Sb85  1  -0.00041511  0.82895275  0.50144998  1
  Sb  Sb86  1  0.33330908  0.33261726  0.33398078  1
  Sb  Sb87  1  -0.00311915  0.33447177  0.32662273  1
  Sb  Sb88  1  0.00157478  0.82487550  0.16320635  1
  Sb  Sb89  1  0.33548269  0.66108660  0.66746798  1
  Sb  Sb90  1  0.16515076  0.00127864  0.50121907  1
  Sb  Sb91  1  0.82918891  0.82788440  0.66657829  1
  Sb  Sb92  1  0.16697741  0.65853653  0.15812037  1
  Sb  Sb93  1  0.50186149  -0.00119457  0.50407731  1
  Sb  Sb94  1  0.00035759  0.82893622  0.83452482  1
  Sb  Sb95  1  0.33237187  0.66616155  -0.00082479  1
  Sb  Sb96  1  0.66503221  0.82580743  0.83476008  1
  Sb  Sb97  1  0.49875722  0.17277360  0.00071791  1
  Sb  Sb98  1  0.66506750  0.83467804  0.49811879  1
  Sb  Sb99  1  0.33891213  0.66677992  0.33453073  1
  Sb  Sb100  1  0.32978267  0.17291238  0.83593906  1
  Sb  Sb101  1  0.17018595  0.00395230  0.83404298  1
  Sb  Sb102  1  0.49854297  0.00259346  0.16206043  1
  Sb  Sb103  1  0.16393682  0.33549033  0.50345508  1
  Sb  Sb104  1  0.66370653  0.83555132  0.16754366  1
  Sb  Sb105  1  0.49830276  0.17148066  0.66763524  1
  Sb  Sb106  1  -0.00672085  0.66301829  0.33444961  1
  Sb  Sb107  1  0.83577630  0.49665494  -0.00355605  1
  Te  Te108  1  0.16764580  0.17315460  0.16360281  1
  Te  Te109  1  0.17023989  0.16785031  0.49755622  1
  Te  Te110  1  0.16238706  0.17167232  0.83892399  1
  Te  Te111  1  0.16757088  0.49341409  0.16575264  1
  Te  Te112  1  0.17137475  0.50049789  0.49796425  1
  Te  Te113  1  0.16797074  0.49603692  0.83529275  1
  Te  Te114  1  0.17209809  0.83256620  0.16234170  1
  Te  Te115  1  0.17382569  0.83277343  0.49742067  1
  Te  Te116  1  0.16792648  0.83289994  0.84060307  1
  Te  Te117  1  0.49539342  0.17233184  0.16687158  1
  Te  Te118  1  0.49350327  0.16688424  0.49868885  1
  Te  Te119  1  0.50006288  0.16815637  0.83382215  1
  Te  Te120  1  0.49681805  0.49528423  0.16553040  1
  Te  Te121  1  0.49009520  0.50015954  0.50024874  1
  Te  Te122  1  0.50297631  0.49882652  0.83396216  1
  Te  Te123  1  0.49682335  0.83390875  0.16400606  1
  Te  Te124  1  0.49560909  0.83281286  0.50176604  1
  Te  Te125  1  0.49951965  0.83376294  0.83493799  1
  Te  Te126  1  0.83385825  0.17180678  0.16619442  1
  Te  Te127  1  0.83420171  0.16814632  0.49896934  1
  Te  Te128  1  0.83697089  0.17235177  0.83759360  1
  Te  Te129  1  0.83601653  0.49348933  0.17117265  1
  Te  Te130  1  0.83176401  0.49888491  0.50182647  1
  Te  Te131  1  0.82635537  0.49551476  0.82954084  1
  Te  Te132  1  0.83269591  0.83413395  0.16658724  1
  Te  Te133  1  0.83346089  0.83691580  0.49737169  1
  Te  Te134  1  0.83190497  0.83669659  0.83954655  1
  Te  Te135  1  0.17145504  -0.00858767  -0.00057273  1
  Te  Te136  1  0.16535420  0.00761611  0.33271613  1
  Te  Te137  1  0.16996580  -0.00283537  0.66712125  1
  Te  Te138  1  0.16766803  0.33705423  -0.00181204  1
  Te  Te139  1  0.16504214  0.32743333  0.33024774  1
  Te  Te140  1  0.17251921  0.33895536  0.67074247  1
  Te  Te141  1  0.16387768  0.66375644  -0.00396576  1
  Te  Te142  1  0.16403575  0.66980598  0.33211098  1
  Te  Te143  1  0.16091196  0.66116449  0.67203797  1
  Te  Te144  1  0.49612595  -0.00268647  -0.00444586  1
  Te  Te145  1  0.50660353  -0.00628048  0.33309523  1
  Te  Te146  1  0.49658487  -0.00262191  0.67104536  1
  Te  Te147  1  0.50139222  0.33644219  -0.00080049  1
  Te  Te148  1  0.50193004  0.33357682  0.32630826  1
  Te  Te149  1  0.50001264  0.33757660  0.66835574  1
  Te  Te150  1  0.50654484  0.66686946  -0.00080775  1
  Te  Te151  1  0.50897300  0.67317065  0.33305440  1
  Te  Te152  1  0.50579066  0.66512318  0.66768458  1
  Te  Te153  1  0.83322428  -0.00230551  -0.00011487  1
  Te  Te154  1  0.82875917  0.00156916  0.33663954  1
  Te  Te155  1  0.83403430  -0.00261210  0.66280930  1
  Te  Te156  1  0.83349135  0.33411227  -0.00161994  1
  Te  Te157  1  0.83320287  0.33251671  0.33986087  1
  Te  Te158  1  0.83102556  0.33806334  0.66642894  1
  Te  Te159  1  0.83295598  0.66996252  -0.00010578  1
  Te  Te160  1  0.82961577  0.66850721  0.33499192  1
  Te  Te161  1  0.83239451  0.66427430  0.66496707  1
  Te  Te162  1  0.00008008  0.16854585  -0.00422758  1
  Te  Te163  1  -0.00241517  0.16639910  0.33449467  1
  Te  Te164  1  0.00117351  0.16091154  0.67261671  1
  Te  Te165  1  -0.00066889  0.49736881  -0.00486953  1
  Te  Te166  1  -0.00544231  0.50069906  0.34128197  1
  Te  Te167  1  -0.00061113  0.49924424  0.67034811  1
  Te  Te168  1  -0.00176974  0.83322015  0.00126998  1
  Te  Te169  1  -0.00612697  0.83273613  0.33214089  1
  Te  Te170  1  0.00130431  0.83290838  0.66628238  1
  Te  Te171  1  0.33051437  0.16106929  0.00305311  1
  Te  Te172  1  0.33204540  0.16570270  0.33143599  1
  Te  Te173  1  0.33146546  0.16356164  0.66432091  1
  Te  Te174  1  0.33528817  0.50150989  0.00033481  1
  Te  Te175  1  0.33427483  0.50111008  0.32836335  1
  Te  Te176  1  0.33408149  0.50049970  0.66959430  1
  Te  Te177  1  0.33612830  0.83300138  0.00053032  1
  Te  Te178  1  0.33657388  0.83418583  0.33216804  1
  Te  Te179  1  0.33689983  0.83339036  0.66485933  1
  Te  Te180  1  0.66981697  0.17121005  0.00356445  1
  Te  Te181  1  0.67038055  0.16732829  0.33357469  1
  Te  Te182  1  0.66632171  0.17078000  0.66095267  1
  Te  Te183  1  0.66583522  0.49804645  -0.00231216  1
  Te  Te184  1  0.67155839  0.50630921  0.33278624  1
  Te  Te185  1  0.66396465  0.49894673  0.66652050  1
  Te  Te186  1  0.66566622  0.83553949  0.00126973  1
  Te  Te187  1  0.66753564  0.83216611  0.33290091  1
  Te  Te188  1  0.65954701  0.83109096  0.66668283  1
  Te  Te189  1  0.00117120  -0.00262651  0.16731196  1
  Te  Te190  1  -0.00465950  0.00048531  0.50682929  1
  Te  Te191  1  -0.00092032  -0.00055961  0.82733061  1
  Te  Te192  1  -0.00289122  0.33780149  0.16015682  1
  Te  Te193  1  -0.00436195  0.33933415  0.50098622  1
  Te  Te194  1  -0.00068328  0.33702442  0.83515274  1
  Te  Te195  1  0.00003550  0.65686023  0.15911249  1
  Te  Te196  1  -0.00583393  0.66167903  0.50530926  1
  Te  Te197  1  0.00159018  0.66259640  0.83371760  1
  Te  Te198  1  0.33376537  -0.00128221  0.16358038  1
  Te  Te199  1  0.33315278  0.00114160  0.50283239  1
  Te  Te200  1  0.33703902  0.00041798  0.83291433  1
  Te  Te201  1  0.33320894  0.33274480  0.16808068  1
  Te  Te202  1  0.33309902  0.33268133  0.50387249  1
  Te  Te203  1  0.33907555  0.33575016  0.82990954  1
  Te  Te204  1  0.33373578  0.66979351  0.16778000  1
  Te  Te205  1  0.33230554  0.66779290  0.49955532  1
  Te  Te206  1  0.32562917  0.65841520  0.83311971  1
  Te  Te207  1  0.66549278  0.01012380  0.17210565  1
  Te  Te208  1  0.67042970  0.00578332  0.49629495  1
  Te  Te209  1  0.66010949  0.00138952  0.83257922  1
  Te  Te210  1  0.66942202  0.32998350  0.16481328  1
  Te  Te211  1  0.66920423  0.32855163  0.50210342  1
  Te  Te212  1  0.66519941  0.33506626  0.83394535  1
  Te  Te213  1  0.66677659  0.66703674  0.16021646  1
  Te  Te214  1  0.67286181  0.66706347  0.50151620  1
  Te  Te215  1  0.66724599  0.65990911  0.83405616  1
