# generated using pymatgen
data_AgSbTe2
_symmetry_space_group_name_H-M   'P 1'
_cell_length_a   18.33825798
_cell_length_b   18.33573035
_cell_length_c   18.33554869
_cell_angle_alpha   90.00191687
_cell_angle_beta   89.99905692
_cell_angle_gamma   89.99879589
_symmetry_Int_Tables_number   1
_chemical_formula_structural   AgSbTe2
_chemical_formula_sum   'Ag54 Sb54 Te108'
_cell_volume   6165.24304124
_cell_formula_units_Z   54
loop_
 _symmetry_equiv_pos_site_id
 _symmetry_equiv_pos_as_xyz
  1  'x, y, z'
loop_
 _atom_site_type_symbol
 _atom_site_label
 _atom_site_symmetry_multiplicity
 _atom_site_fract_x
 _atom_site_fract_y
 _atom_site_fract_z
 _atom_site_occupancy
  Ag  Ag0  1  0.83426837  -0.00599177  0.82913675  1
  Ag  Ag1  1  0.83704589  0.65896556  0.16128530  1
  Ag  Ag2  1  0.32263432  0.15829719  0.16777406  1
  Ag  Ag3  1  0.66680625  0.17109680  0.49818976  1
  Ag  Ag4  1  -0.00633335  0.66933394  0.00058592  1
  Ag  Ag5  1  -0.00639604  0.50400651  0.49186768  1
  Ag  Ag6  1  0.33290984  0.67430834  0.00049038  1
  Ag  Ag7  1  0.68037848  0.83204397  0.83327358  1
  Ag  Ag8  1  0.83832211  0.83758458  0.33357167  1
  Ag  Ag9  1  0.50641643  0.50082074  0.00349872  1
  Ag  Ag10  1  0.83427353  0.66058027  0.83900418  1
  Ag  Ag11  1  0.00368991  -0.00583587  0.00679954  1
  Ag  Ag12  1  0.32075812  0.00218013  0.31870631  1
  Ag  Ag13  1  0.67318112  0.49322008  0.15773291  1
  Ag  Ag14  1  -0.00100571  0.83323170  0.49839389  1
  Ag  Ag15  1  0.17225756  0.00698698  0.17212580  1
  Ag  Ag16  1  0.00287093  0.00126349  0.32557114  1
  Ag  Ag17  1  0.67511486  0.00567649  0.67119500  1
  Ag  Ag18  1  0.16231921  0.00321423  0.49189907  1
  Ag  Ag19  1  0.32964116  -0.00303228  0.00705696  1
  Ag  Ag20  1  0.66811511  0.34054264  -0.00583892  1
  Ag  Ag21  1  0.51289894  0.33197162  0.83489333  1
  Ag  Ag22  1  -0.00919807  0.49823029  0.16675605  1
  Ag  Ag23  1  0.50008778  0.66413777  0.49811133  1
  Ag  Ag24  1  0.50076185  0.00199822  0.83702242  1
  Ag  Ag25  1  0.67649979  0.49733812  0.49876846  1
  Ag  Ag26  1  0.48641851  0.00208465  0.16069792  1
  Ag  Ag27  1  0.83615468  0.83219884  0.67562309  1
  Ag  Ag28  1  0.33259981  0.84215553  0.83932394  1
  Ag  Ag29  1  0.15991422  0.33227023  0.83560245  1
  Ag  Ag30  1  0.32356973  0.84593355  0.16137975  1
  Ag  Ag31  1  -0.00342232  0.00148519  0.66976326  1
  Ag  Ag32  1  0.83465772  0.49856209  0.32509210  1
  Ag  Ag33  1  0.67585325  0.33271117  0.67426887  1
  Ag  Ag34  1  -0.01064518  0.49982291  0.83527836  1
  Ag  Ag35  1  -0.00052339  0.84166862  0.16436126  1
  Ag  Ag36  1  -0.00451859  0.33140107  0.67221009  1
  Ag  Ag37  1  0.51028663  0.50165847  0.32962603  1
  Ag  Ag38  1  0.67155772  0.49567914  0.84035185  1
  Ag  Ag39  1  -0.00470029  0.83637982  0.83506975  1
  Ag  Ag40  1  0.33076122  0.16225741  0.83684652  1
  Ag  Ag41  1  0.67228683  0.65814776  -0.00221566  1
  Ag  Ag42  1  0.15368788  0.49473334  0.33199195  1
  Ag  Ag43  1  0.16337808  0.66825018  0.49801965  1
  Ag  Ag44  1  0.00251515  0.16058594  0.16985398  1
  Ag  Ag45  1  0.83157607  0.34163626  0.83421863  1
  Ag  Ag46  1  0.32619945  0.16252329  0.49541460  1
  Ag  Ag47  1  0.16320495  0.16402999  0.33147562  1
  Ag  Ag48  1  0.83388046  0.49980924  0.67817511  1
  Ag  Ag49  1  0.15712506  0.32453343  0.16426225  1
  Ag  Ag50  1  0.16460143  0.16598559  0.66169330  1
  Ag  Ag51  1  0.84080723  0.16627030  0.32894550  1
  Ag  Ag52  1  0.67653767  0.17047887  0.17029850  1
  Ag  Ag53  1  0.83707748  0.34119884  0.16287956  1
  Sb  Sb54  1  0.33561393  0.49829885  0.83627790  1
  Sb  Sb55  1  -0.00253675  0.66774449  0.67060437  1
  Sb  Sb56  1  0.83790061  0.00002207  0.16325177  1
  Sb  Sb57  1  0.00252780  0.16621326  0.83671211  1
  Sb  Sb58  1  0.50405057  0.83180214  0.33209291  1
  Sb  Sb59  1  0.49722503  -0.00184507  0.50082362  1
  Sb  Sb60  1  0.67290543  0.83322940  0.16074983  1
  Sb  Sb61  1  0.50735167  0.83463037  0.66985939  1
  Sb  Sb62  1  0.16492532  0.00436054  0.83532353  1
  Sb  Sb63  1  0.83580101  0.66301203  0.49885108  1
  Sb  Sb64  1  0.33089839  0.32677241  0.33117264  1
  Sb  Sb65  1  0.67108536  0.00222725  0.33575553  1
  Sb  Sb66  1  0.33347710  0.49873465  0.16736431  1
  Sb  Sb67  1  0.49872822  0.16935889  0.33072159  1
  Sb  Sb68  1  0.66907853  0.33462633  0.33099856  1
  Sb  Sb69  1  0.50541432  0.66679228  0.83342108  1
  Sb  Sb70  1  0.16748552  0.49938925  0.00460669  1
  Sb  Sb71  1  0.66946326  0.66269478  0.32867159  1
  Sb  Sb72  1  0.49910789  0.16654383  0.66792320  1
  Sb  Sb73  1  0.15772015  0.83982345  0.66646105  1
  Sb  Sb74  1  0.83333891  0.16657960  0.00490872  1
  Sb  Sb75  1  0.67420287  0.83177575  0.50614942  1
  Sb  Sb76  1  0.16326973  0.32992904  0.49875524  1
  Sb  Sb77  1  0.33069635  0.67237784  0.32855977  1
  Sb  Sb78  1  -0.00100517  0.66892492  0.32828272  1
  Sb  Sb79  1  0.32645173  0.83826313  0.49851014  1
  Sb  Sb80  1  0.66589161  0.16915476  0.83390955  1
  Sb  Sb81  1  0.33692309  0.33060869  -0.00051439  1
  Sb  Sb82  1  -0.00148582  0.33227930  0.33233374  1
  Sb  Sb83  1  0.49973337  0.16807562  0.00012867  1
  Sb  Sb84  1  0.83406734  0.33553293  0.50175633  1
  Sb  Sb85  1  0.51109667  0.49846126  0.66829131  1
  Sb  Sb86  1  0.32951304  0.00221701  0.67113859  1
  Sb  Sb87  1  -0.00513762  0.33556516  -0.00079182  1
  Sb  Sb88  1  0.50352161  0.33644998  0.50370141  1
  Sb  Sb89  1  -0.00012801  0.16534568  0.49656024  1
  Sb  Sb90  1  0.15903921  0.83893823  0.33244997  1
  Sb  Sb91  1  0.16673940  0.16609042  0.00495329  1
  Sb  Sb92  1  0.82833765  0.50194995  0.00004199  1
  Sb  Sb93  1  0.16582524  0.83428847  0.00056919  1
  Sb  Sb94  1  0.83634393  0.83223521  -0.00420084  1
  Sb  Sb95  1  0.16031345  0.66259332  0.83081366  1
  Sb  Sb96  1  0.67075194  0.66305781  0.67174726  1
  Sb  Sb97  1  0.83599618  0.16839091  0.66410496  1
  Sb  Sb98  1  0.15471913  0.49342656  0.66238439  1
  Sb  Sb99  1  0.33220049  0.66911133  0.67140646  1
  Sb  Sb100  1  0.33083638  0.33118512  0.66907374  1
  Sb  Sb101  1  0.33157106  0.49711871  0.49701056  1
  Sb  Sb102  1  0.50343939  0.66809538  0.16665127  1
  Sb  Sb103  1  0.50355726  0.33039516  0.16212195  1
  Sb  Sb104  1  0.84021770  0.00006166  0.50361766  1
  Sb  Sb105  1  0.16074047  0.66699532  0.16994784  1
  Sb  Sb106  1  0.66754343  0.00077420  -0.00429878  1
  Sb  Sb107  1  0.49829649  0.83115544  -0.00052535  1
  Te  Te108  1  0.16411954  0.16654825  0.16926731  1
  Te  Te109  1  0.16642115  0.16464951  0.49565798  1
  Te  Te110  1  0.16975222  0.17079147  0.83058187  1
  Te  Te111  1  0.16544527  0.49839100  0.17219472  1
  Te  Te112  1  0.16358272  0.49920921  0.49449219  1
  Te  Te113  1  0.16546790  0.49381050  0.83156004  1
  Te  Te114  1  0.16411414  0.83530633  0.16795933  1
  Te  Te115  1  0.15975566  0.83410059  0.49966729  1
  Te  Te116  1  0.16600349  0.83208044  0.83095786  1
  Te  Te117  1  0.49860183  0.16235575  0.16676287  1
  Te  Te118  1  0.50493887  0.16635465  0.49930396  1
  Te  Te119  1  0.49459296  0.16586115  0.83390431  1
  Te  Te120  1  0.50341050  0.49910194  0.16771604  1
  Te  Te121  1  0.49995414  0.50285114  0.49772476  1
  Te  Te122  1  0.50483270  0.49792828  0.83552019  1
  Te  Te123  1  0.50129718  0.83976968  0.16781713  1
  Te  Te124  1  0.50008455  0.82742705  0.50042265  1
  Te  Te125  1  0.49329354  0.83736988  0.83283014  1
  Te  Te126  1  0.83483918  0.16635933  0.17069607  1
  Te  Te127  1  0.82811629  0.16812396  0.49202895  1
  Te  Te128  1  0.83361954  0.16689467  0.83269215  1
  Te  Te129  1  0.83239085  0.49886499  0.16534884  1
  Te  Te130  1  0.83481283  0.50025564  0.49534439  1
  Te  Te131  1  0.83170889  0.50033526  0.83497954  1
  Te  Te132  1  0.83709269  0.83191309  0.17207930  1
  Te  Te133  1  0.83947592  0.83065723  0.49717026  1
  Te  Te134  1  0.83633224  0.83574562  0.83225579  1
  Te  Te135  1  0.16553954  0.00020544  0.00556852  1
  Te  Te136  1  0.16318808  0.00115576  0.33198969  1
  Te  Te137  1  0.16169584  0.00584526  0.66448949  1
  Te  Te138  1  0.16656205  0.33364347  0.00009140  1
  Te  Te139  1  0.16564021  0.33189360  0.32788034  1
  Te  Te140  1  0.16259401  0.32738251  0.66975555  1
  Te  Te141  1  0.17010707  0.66523300  -0.00013721  1
  Te  Te142  1  0.16678392  0.65943196  0.33826960  1
  Te  Te143  1  0.16654569  0.66530921  0.65822081  1
  Te  Te144  1  0.49779298  -0.00031111  -0.00175114  1
  Te  Te145  1  0.49972658  -0.00028642  0.33161138  1
  Te  Te146  1  0.50604505  -0.00019746  0.67188327  1
  Te  Te147  1  0.50452645  0.33838936  -0.00486802  1
  Te  Te148  1  0.49857521  0.34224471  0.33410039  1
  Te  Te149  1  0.50364391  0.33357751  0.67490639  1
  Te  Te150  1  0.50077713  0.66135671  -0.00026607  1
  Te  Te151  1  0.49904129  0.66249673  0.33607017  1
  Te  Te152  1  0.49986100  0.66632781  0.65961605  1
  Te  Te153  1  0.83677776  0.00017235  -0.00964648  1
  Te  Te154  1  0.83842489  0.00090810  0.33452877  1
  Te  Te155  1  0.83541257  0.00074043  0.66874687  1
  Te  Te156  1  0.82842671  0.33167992  -0.00026822  1
  Te  Te157  1  0.83339139  0.33312352  0.32622874  1
  Te  Te158  1  0.83454246  0.33461279  0.66839685  1
  Te  Te159  1  0.83371448  0.66804707  -0.00027205  1
  Te  Te160  1  0.83387185  0.66168731  0.32813319  1
  Te  Te161  1  0.83367007  0.66600660  0.67273793  1
  Te  Te162  1  -0.00017890  0.16064720  0.00807001  1
  Te  Te163  1  0.00106710  0.16546684  0.33193457  1
  Te  Te164  1  0.00269099  0.16627827  0.66576978  1
  Te  Te165  1  0.00416982  0.50304853  0.00008132  1
  Te  Te166  1  -0.00325095  0.49971867  0.33136096  1
  Te  Te167  1  -0.00630247  0.49877824  0.67372062  1
  Te  Te168  1  0.00023892  0.83298995  0.00004886  1
  Te  Te169  1  -0.00329076  0.83573438  0.33319494  1
  Te  Te170  1  -0.00473880  0.83633381  0.66901278  1
  Te  Te171  1  0.33359366  0.16174827  0.00064583  1
  Te  Te172  1  0.33166405  0.16149207  0.33221546  1
  Te  Te173  1  0.32778128  0.16694074  0.66577525  1
  Te  Te174  1  0.34072184  0.50300977  0.00112007  1
  Te  Te175  1  0.33495787  0.50142511  0.33317040  1
  Te  Te176  1  0.33248497  0.50022870  0.66597450  1
  Te  Te177  1  0.33333157  0.83556044  0.00115154  1
  Te  Te178  1  0.33509939  0.84055015  0.32896722  1
  Te  Te179  1  0.33266484  0.83404890  0.67240567  1
  Te  Te180  1  0.66612926  0.16966040  0.00873180  1
  Te  Te181  1  0.66811394  0.16799763  0.33292494  1
  Te  Te182  1  0.66715809  0.16787096  0.66342615  1
  Te  Te183  1  0.66483263  0.50020838  -0.00001762  1
  Te  Te184  1  0.66963436  0.49955819  0.33742433  1
  Te  Te185  1  0.67365591  0.49621052  0.66529652  1
  Te  Te186  1  0.66513133  0.83018822  -0.00767009  1
  Te  Te187  1  0.67556146  0.83296911  0.33434826  1
  Te  Te188  1  0.67446479  0.83822309  0.67280621  1
  Te  Te189  1  -0.00114946  -0.00005694  0.16623584  1
  Te  Te190  1  0.00324294  -0.00054578  0.50238913  1
  Te  Te191  1  0.00038762  -0.00104522  0.83139824  1
  Te  Te192  1  -0.00186898  0.33689885  0.16532179  1
  Te  Te193  1  0.00053715  0.34121230  0.50934017  1
  Te  Te194  1  -0.00318575  0.33400209  0.83426067  1
  Te  Te195  1  -0.00263419  0.66354660  0.16154267  1
  Te  Te196  1  0.00182154  0.66515106  0.50069544  1
  Te  Te197  1  -0.00229791  0.66660922  0.83788683  1
  Te  Te198  1  0.33110151  0.00142518  0.16361423  1
  Te  Te199  1  0.32902682  0.00350192  0.50177047  1
  Te  Te200  1  0.33290451  0.00134800  0.83536096  1
  Te  Te201  1  0.32981806  0.32793805  0.16527819  1
  Te  Te202  1  0.33437497  0.32300696  0.50059589  1
  Te  Te203  1  0.32916205  0.32870919  0.83414204  1
  Te  Te204  1  0.33392962  0.67013816  0.16086769  1
  Te  Te205  1  0.33026778  0.66866178  0.49978971  1
  Te  Te206  1  0.33297885  0.66944255  0.83917264  1
  Te  Te207  1  0.66687816  0.00311154  0.16579926  1
  Te  Te208  1  0.66562296  0.00178337  0.50562517  1
  Te  Te209  1  0.66612583  0.00196337  0.83204012  1
  Te  Te210  1  0.66789959  0.33334136  0.16501716  1
  Te  Te211  1  0.66705744  0.33496188  0.50624510  1
  Te  Te212  1  0.67005588  0.33201330  0.83363459  1
  Te  Te213  1  0.67066070  0.66459453  0.15974773  1
  Te  Te214  1  0.66477854  0.66229558  0.50094403  1
  Te  Te215  1  0.66938085  0.66691528  0.83687070  1
