# generated using pymatgen
data_AgSbTe2
_symmetry_space_group_name_H-M   'P 1'
_cell_length_a   18.35171772
_cell_length_b   18.35486713
_cell_length_c   18.35286395
_cell_angle_alpha   89.99627981
_cell_angle_beta   90.00055444
_cell_angle_gamma   90.00377723
_symmetry_Int_Tables_number   1
_chemical_formula_structural   AgSbTe2
_chemical_formula_sum   'Ag54 Sb54 Te108'
_cell_volume   6182.03996874
_cell_formula_units_Z   54
loop_
 _symmetry_equiv_pos_site_id
 _symmetry_equiv_pos_as_xyz
  1  'x, y, z'
loop_
 _atom_site_type_symbol
 _atom_site_label
 _atom_site_symmetry_multiplicity
 _atom_site_fract_x
 _atom_site_fract_y
 _atom_site_fract_z
 _atom_site_occupancy
  Ag  Ag0  1  -0.01219960  0.00640523  0.33022825  1
  Ag  Ag1  1  0.83023855  0.33484715  0.49275218  1
  Ag  Ag2  1  0.00168867  0.33200143  0.33255015  1
  Ag  Ag3  1  0.16468814  0.49969413  0.01420530  1
  Ag  Ag4  1  0.83509729  0.33725866  0.17585094  1
  Ag  Ag5  1  0.15418302  0.33791419  0.17846043  1
  Ag  Ag6  1  0.82879581  -0.00258667  0.17030825  1
  Ag  Ag7  1  0.66791008  0.66716738  0.33510747  1
  Ag  Ag8  1  -0.00704275  0.49866523  0.17036616  1
  Ag  Ag9  1  -0.01192257  0.83137673  0.17212597  1
  Ag  Ag10  1  0.82563671  0.65707873  0.48535786  1
  Ag  Ag11  1  -0.00621742  0.17247299  0.17260222  1
  Ag  Ag12  1  -0.01169855  0.16921449  0.49069308  1
  Ag  Ag13  1  0.66775433  0.66867387  0.65154762  1
  Ag  Ag14  1  0.67214082  0.50855171  0.17777643  1
  Ag  Ag15  1  -0.01473131  0.66574724  0.33170565  1
  Ag  Ag16  1  0.66772092  0.82973447  0.83845505  1
  Ag  Ag17  1  0.66566180  -0.00217090  0.65783415  1
  Ag  Ag18  1  0.50973196  0.67430353  0.17496942  1
  Ag  Ag19  1  0.66881476  0.83214767  0.16929936  1
  Ag  Ag20  1  0.51071063  0.83159766  0.33235004  1
  Ag  Ag21  1  0.66685057  0.50006456  0.49680100  1
  Ag  Ag22  1  -0.01112880  0.50059230  0.84025266  1
  Ag  Ag23  1  0.50475914  0.00671093  0.49286110  1
  Ag  Ag24  1  0.16493869  0.83518155  0.65628711  1
  Ag  Ag25  1  0.83466932  0.50363281  0.32759300  1
  Ag  Ag26  1  0.15732970  0.17543690  0.33333997  1
  Ag  Ag27  1  0.33773671  0.66573655  0.01237422  1
  Ag  Ag28  1  0.51119105  0.32993181  0.49651284  1
  Ag  Ag29  1  0.50770771  0.66672988  0.49258587  1
  Ag  Ag30  1  0.31861916  0.33900642  0.33466138  1
  Ag  Ag31  1  0.50470108  0.83689807  0.01273353  1
  Ag  Ag32  1  0.15842417  0.83318820  0.33240359  1
  Ag  Ag33  1  0.82929899  0.65829170  0.83460856  1
  Ag  Ag34  1  0.82660196  0.16672230  0.66098117  1
  Ag  Ag35  1  0.67284075  0.33919393  0.33553416  1
  Ag  Ag36  1  0.83004542  0.66569165  0.17029931  1
  Ag  Ag37  1  0.83178422  0.33979530  0.83376990  1
  Ag  Ag38  1  0.34815840  0.00043256  0.66608407  1
  Ag  Ag39  1  0.34215850  0.66337832  0.33168591  1
  Ag  Ag40  1  0.50743643  0.16375364  0.65290962  1
  Ag  Ag41  1  0.66441654  0.00051843  0.01434245  1
  Ag  Ag42  1  0.50549821  0.16197695  0.33371086  1
  Ag  Ag43  1  0.50927368  -0.00729208  0.17705400  1
  Ag  Ag44  1  0.67074943  0.50668505  0.83169930  1
  Ag  Ag45  1  0.66776766  -0.00379987  0.33240765  1
  Ag  Ag46  1  0.82640237  0.16764831  0.00593140  1
  Ag  Ag47  1  0.16058810  0.33286522  0.49125838  1
  Ag  Ag48  1  0.50720213  0.49833089  0.66098066  1
  Ag  Ag49  1  0.15435639  0.48897809  0.33091375  1
  Ag  Ag50  1  0.66816426  0.17247729  0.49760757  1
  Ag  Ag51  1  0.83006159  0.82206103  0.33090608  1
  Ag  Ag52  1  0.50862491  0.15954576  0.01321340  1
  Ag  Ag53  1  0.16390150  -0.00236612  0.83196232  1
  Sb  Sb54  1  0.16108712  0.66933384  0.83350089  1
  Sb  Sb55  1  0.33425283  0.33732442  0.00862254  1
  Sb  Sb56  1  0.82656841  0.83561043  0.01014341  1
  Sb  Sb57  1  0.33454275  0.83338782  0.49709337  1
  Sb  Sb58  1  -0.00625496  0.82975273  0.83814722  1
  Sb  Sb59  1  0.67225462  0.16338341  0.17513056  1
  Sb  Sb60  1  0.33803749  0.83376192  0.83289130  1
  Sb  Sb61  1  0.50781718  0.33382763  0.82781966  1
  Sb  Sb62  1  0.82771975  0.49754019  0.66579383  1
  Sb  Sb63  1  -0.00330786  0.17019816  0.83381137  1
  Sb  Sb64  1  0.34146129  0.16714512  0.49626134  1
  Sb  Sb65  1  0.16450255  0.66291075  0.49370802  1
  Sb  Sb66  1  0.50616200  0.33295399  0.17594005  1
  Sb  Sb67  1  0.83396160  0.17270377  0.33162538  1
  Sb  Sb68  1  0.83397994  0.49765828  0.00574037  1
  Sb  Sb69  1  0.34127919  0.67068146  0.66142834  1
  Sb  Sb70  1  -0.00495174  0.00080507  0.66021188  1
  Sb  Sb71  1  0.15878524  0.33196272  0.83301535  1
  Sb  Sb72  1  0.50307874  0.00034540  0.83178536  1
  Sb  Sb73  1  0.17191249  0.82952034  0.00606803  1
  Sb  Sb74  1  -0.00813960  0.49522089  0.49217761  1
  Sb  Sb75  1  0.51054014  0.50176908  0.33642607  1
  Sb  Sb76  1  0.16926516  0.50454398  0.65984905  1
  Sb  Sb77  1  0.50077949  0.50092144  0.00013929  1
  Sb  Sb78  1  -0.00119407  0.83760842  0.48868328  1
  Sb  Sb79  1  0.34269880  0.49817667  0.49451079  1
  Sb  Sb80  1  -0.00871972  0.66666980  0.65962602  1
  Sb  Sb81  1  0.34031042  -0.00402530  -0.00295820  1
  Sb  Sb82  1  0.66485696  0.67024887  0.00727971  1
  Sb  Sb83  1  0.66956535  0.33428843  0.65775685  1
  Sb  Sb84  1  -0.00318792  0.33446442  0.01062304  1
  Sb  Sb85  1  0.66720065  0.16737166  0.82830509  1
  Sb  Sb86  1  0.16298826  0.66315020  0.17268530  1
  Sb  Sb87  1  0.16550973  0.17023426  0.00736053  1
  Sb  Sb88  1  0.50310041  0.83618463  0.66109117  1
  Sb  Sb89  1  0.33585082  0.32925945  0.65885046  1
  Sb  Sb90  1  0.34046804  -0.00188278  0.33543433  1
  Sb  Sb91  1  0.83244156  0.00025674  0.83715116  1
  Sb  Sb92  1  -0.00316171  0.33418834  0.65881507  1
  Sb  Sb93  1  0.17014832  0.00405751  0.49832346  1
  Sb  Sb94  1  0.83161972  0.83590683  0.66129422  1
  Sb  Sb95  1  0.66715740  0.83216630  0.49263723  1
  Sb  Sb96  1  0.00074447  0.66468932  0.00859558  1
  Sb  Sb97  1  0.33591755  0.50099722  0.83433307  1
  Sb  Sb98  1  0.66845466  0.32904173  0.00613575  1
  Sb  Sb99  1  0.33382969  0.16536186  0.83237202  1
  Sb  Sb100  1  0.33356494  0.16769333  0.17163969  1
  Sb  Sb101  1  0.33429946  0.50115009  0.17301098  1
  Sb  Sb102  1  0.16747118  0.16171061  0.65803392  1
  Sb  Sb103  1  0.33977545  0.83102761  0.17034131  1
  Sb  Sb104  1  -0.00510787  0.00139937  0.00742209  1
  Sb  Sb105  1  0.50732024  0.66805724  0.83350940  1
  Sb  Sb106  1  0.16298368  0.00215539  0.16979611  1
  Sb  Sb107  1  0.82753063  0.00347003  0.49115408  1
  Te  Te108  1  0.16225684  0.17069510  0.17069607  1
  Te  Te109  1  0.16559512  0.17100679  0.49513962  1
  Te  Te110  1  0.16521631  0.16233460  0.83310259  1
  Te  Te111  1  0.16779901  0.49840156  0.17121331  1
  Te  Te112  1  0.16435748  0.49442903  0.49605955  1
  Te  Te113  1  0.16657851  0.49999364  0.82981503  1
  Te  Te114  1  0.16471087  0.83314747  0.17061533  1
  Te  Te115  1  0.16599769  0.83345777  0.49926125  1
  Te  Te116  1  0.16550548  0.83762488  0.83822866  1
  Te  Te117  1  0.50136548  0.16580776  0.17038627  1
  Te  Te118  1  0.50399485  0.16708445  0.49537829  1
  Te  Te119  1  0.49876508  0.16852220  0.83216916  1
  Te  Te120  1  0.50628761  0.50175777  0.16420080  1
  Te  Te121  1  0.50635478  0.49900510  0.50175858  1
  Te  Te122  1  0.50450344  0.49931772  0.82759781  1
  Te  Te123  1  0.50252888  0.83321633  0.17091544  1
  Te  Te124  1  0.49868627  0.83146070  0.49317997  1
  Te  Te125  1  0.50653174  0.83420109  0.83400413  1
  Te  Te126  1  0.83421703  0.16767096  0.16375190  1
  Te  Te127  1  0.83003080  0.16804440  0.50271458  1
  Te  Te128  1  0.83479776  0.16755731  0.83475936  1
  Te  Te129  1  0.83241879  0.50048927  0.16483935  1
  Te  Te130  1  0.82805055  0.49789154  0.50104729  1
  Te  Te131  1  0.83162388  0.49873581  0.83198640  1
  Te  Te132  1  0.83031936  0.83334766  0.16946508  1
  Te  Te133  1  0.83529675  0.82560357  0.49392775  1
  Te  Te134  1  0.82890325  0.83235720  0.83215944  1
  Te  Te135  1  0.16855312  0.00119024  -0.00277875  1
  Te  Te136  1  0.17069348  -0.00597233  0.33266735  1
  Te  Te137  1  0.16034975  -0.00503819  0.66661408  1
  Te  Te138  1  0.16802549  0.33966434  0.00150837  1
  Te  Te139  1  0.16249978  0.33204642  0.33407007  1
  Te  Te140  1  0.16795207  0.33303203  0.66237305  1
  Te  Te141  1  0.16990554  0.66082324  0.00024535  1
  Te  Te142  1  0.17480214  0.67450697  0.33549513  1
  Te  Te143  1  0.16833369  0.67376842  0.66470139  1
  Te  Te144  1  0.50423276  0.00048536  -0.00179869  1
  Te  Te145  1  0.49959240  -0.00012349  0.33373615  1
  Te  Te146  1  0.50477177  0.00242456  0.66535343  1
  Te  Te147  1  0.49963690  0.32769429  0.00048827  1
  Te  Te148  1  0.51067893  0.33362528  0.33662565  1
  Te  Te149  1  0.49892306  0.32968898  0.65999474  1
  Te  Te150  1  0.49622935  0.66773257  0.00142353  1
  Te  Te151  1  0.50260479  0.66453247  0.33266903  1
  Te  Te152  1  0.50688625  0.66662781  0.66332416  1
  Te  Te153  1  0.82807520  0.00398938  0.00557173  1
  Te  Te154  1  0.83145834  -0.00205989  0.33064116  1
  Te  Te155  1  0.82767106  0.00449089  0.66511842  1
  Te  Te156  1  0.83304429  0.32826106  -0.00439658  1
  Te  Te157  1  0.83205126  0.33536215  0.33339910  1
  Te  Te158  1  0.83495970  0.32673333  0.66903610  1
  Te  Te159  1  0.83462970  0.66696168  -0.00361758  1
  Te  Te160  1  0.83004907  0.66343335  0.32831498  1
  Te  Te161  1  0.82616412  0.66739152  0.67238046  1
  Te  Te162  1  -0.00419459  0.16628120  0.00553430  1
  Te  Te163  1  -0.00199873  0.16564780  0.33281052  1
  Te  Te164  1  -0.00264839  0.16603720  0.66420540  1
  Te  Te165  1  0.00416908  0.50019854  0.00100033  1
  Te  Te166  1  -0.00410918  0.50025618  0.33228303  1
  Te  Te167  1  0.00198224  0.50246663  0.67325837  1
  Te  Te168  1  0.00120346  0.83321998  0.00866126  1
  Te  Te169  1  -0.00320187  0.83089368  0.33091691  1
  Te  Te170  1  0.00467882  0.83319037  0.66879044  1
  Te  Te171  1  0.33809115  0.16754308  0.00059058  1
  Te  Te172  1  0.33207613  0.16802913  0.33322594  1
  Te  Te173  1  0.33588678  0.15985729  0.66606140  1
  Te  Te174  1  0.33017012  0.50473840  0.00149738  1
  Te  Te175  1  0.32226104  0.50006013  0.33428677  1
  Te  Te176  1  0.34275944  0.49987978  0.66587289  1
  Te  Te177  1  0.34102500  0.82648371  -0.00053677  1
  Te  Te178  1  0.32999050  0.82864690  0.33339080  1
  Te  Te179  1  0.32882416  0.83857577  0.66746219  1
  Te  Te180  1  0.66633199  0.16289381  -0.00263987  1
  Te  Te181  1  0.66495154  0.16084101  0.33760866  1
  Te  Te182  1  0.66615599  0.16626916  0.66347516  1
  Te  Te183  1  0.66588809  0.49694789  -0.00662893  1
  Te  Te184  1  0.67030993  0.50278631  0.33538459  1
  Te  Te185  1  0.66495330  0.50141732  0.66542732  1
  Te  Te186  1  0.66309716  0.83681179  0.00299020  1
  Te  Te187  1  0.66856610  0.83373937  0.33129256  1
  Te  Te188  1  0.66750144  0.83372792  0.67176759  1
  Te  Te189  1  -0.00300010  -0.00089663  0.17165177  1
  Te  Te190  1  0.00023246  0.00796303  0.49221050  1
  Te  Te191  1  0.00348988  -0.00105797  0.83456455  1
  Te  Te192  1  -0.00294496  0.33552191  0.17081036  1
  Te  Te193  1  -0.00537219  0.32941541  0.49519280  1
  Te  Te194  1  -0.00456626  0.33794682  0.83288174  1
  Te  Te195  1  -0.00376556  0.66394726  0.17253714  1
  Te  Te196  1  -0.00574064  0.66657995  0.49268850  1
  Te  Te197  1  -0.00587899  0.66239281  0.83132213  1
  Te  Te198  1  0.34107436  -0.00036445  0.16350935  1
  Te  Te199  1  0.33973666  -0.00069838  0.50687405  1
  Te  Te200  1  0.32670873  -0.00032647  0.82848252  1
  Te  Te201  1  0.33006528  0.33427607  0.17479541  1
  Te  Te202  1  0.33180641  0.33319351  0.49309121  1
  Te  Te203  1  0.33206129  0.33343693  0.83394184  1
  Te  Te204  1  0.33820880  0.66594350  0.16923208  1
  Te  Te205  1  0.34019137  0.66588091  0.49546848  1
  Te  Te206  1  0.33155866  0.66683209  0.83133242  1
  Te  Te207  1  0.66689205  0.00125721  0.16959527  1
  Te  Te208  1  0.66400812  0.00023581  0.49830965  1
  Te  Te209  1  0.66817061  -0.00234620  0.82957650  1
  Te  Te210  1  0.67327584  0.33847456  0.17238039  1
  Te  Te211  1  0.66863321  0.33366659  0.49750941  1
  Te  Te212  1  0.67189375  0.33687855  0.83554494  1
  Te  Te213  1  0.66817103  0.66814488  0.16751636  1
  Te  Te214  1  0.66759097  0.66783624  0.49721605  1
  Te  Te215  1  0.66944880  0.66755723  0.84028589  1
