# generated using pymatgen
data_AgSbTe2
_symmetry_space_group_name_H-M   'P 1'
_cell_length_a   18.32748116
_cell_length_b   18.32895495
_cell_length_c   18.32516500
_cell_angle_alpha   89.99627024
_cell_angle_beta   90.00206592
_cell_angle_gamma   89.99911951
_symmetry_Int_Tables_number   1
_chemical_formula_structural   AgSbTe2
_chemical_formula_sum   'Ag54 Sb54 Te108'
_cell_volume   6155.85495020
_cell_formula_units_Z   54
loop_
 _symmetry_equiv_pos_site_id
 _symmetry_equiv_pos_as_xyz
  1  'x, y, z'
loop_
 _atom_site_type_symbol
 _atom_site_label
 _atom_site_symmetry_multiplicity
 _atom_site_fract_x
 _atom_site_fract_y
 _atom_site_fract_z
 _atom_site_occupancy
  Ag  Ag0  1  0.16771360  0.50172610  0.33925837  1
  Ag  Ag1  1  0.32744488  0.49918949  0.49836533  1
  Ag  Ag2  1  0.32117802  0.34015000  0.00272732  1
  Ag  Ag3  1  0.84391975  0.82826370  0.00704974  1
  Ag  Ag4  1  0.66720048  0.00272152  0.33665022  1
  Ag  Ag5  1  0.83814090  0.66335879  0.16795881  1
  Ag  Ag6  1  0.66335997  0.17184641  0.49987971  1
  Ag  Ag7  1  0.82955675  0.16693511  0.32608786  1
  Ag  Ag8  1  0.33546833  0.66342534  0.33003778  1
  Ag  Ag9  1  0.33367667  0.17489630  0.48966225  1
  Ag  Ag10  1  0.48911690  0.66289917  0.83141558  1
  Ag  Ag11  1  0.32479506  0.82680414  0.16778235  1
  Ag  Ag12  1  -0.00258820  0.66246432  0.32676249  1
  Ag  Ag13  1  0.50124656  0.17098611  0.33251221  1
  Ag  Ag14  1  0.66560436  0.49907170  0.49899308  1
  Ag  Ag15  1  0.49716983  0.50450353  0.33503780  1
  Ag  Ag16  1  0.32568435  0.66345864  0.67132284  1
  Ag  Ag17  1  0.83566080  0.50575194  0.32909879  1
  Ag  Ag18  1  0.16557241  0.32949369  0.15622371  1
  Ag  Ag19  1  0.84014096  0.33587731  0.16516706  1
  Ag  Ag20  1  0.32563845  0.16864354  0.17082675  1
  Ag  Ag21  1  0.16597438  0.49978925  0.66870351  1
  Ag  Ag22  1  0.16157181  0.83109003  0.00112117  1
  Ag  Ag23  1  0.00631803  0.50273863  0.83310360  1
  Ag  Ag24  1  0.83646736  0.00183918  0.83575021  1
  Ag  Ag25  1  0.00112510  -0.00400159  0.67209623  1
  Ag  Ag26  1  0.66609023  0.66316447  0.33679303  1
  Ag  Ag27  1  0.49634428  0.66230248  0.17314940  1
  Ag  Ag28  1  0.00565284  0.16498076  0.16316596  1
  Ag  Ag29  1  0.66853071  0.16690878  0.82519236  1
  Ag  Ag30  1  0.66736493  0.32957177  0.66482891  1
  Ag  Ag31  1  0.83433763  0.82203825  0.32562024  1
  Ag  Ag32  1  0.00429691  0.66729169  0.00274267  1
  Ag  Ag33  1  0.33443726  0.00109375  0.33038116  1
  Ag  Ag34  1  0.49872787  0.66047907  0.49208502  1
  Ag  Ag35  1  0.16644109  0.34075135  0.83864445  1
  Ag  Ag36  1  0.00443644  0.83316747  0.16229706  1
  Ag  Ag37  1  0.84455236  0.16919523  0.00751014  1
  Ag  Ag38  1  0.16868268  0.65847934  0.83172237  1
  Ag  Ag39  1  0.83860531  0.50084440  0.00742428  1
  Ag  Ag40  1  0.49512406  0.33651036  0.16865261  1
  Ag  Ag41  1  0.67316716  0.00383684  0.66058691  1
  Ag  Ag42  1  0.00090237  0.00038327  -0.00030213  1
  Ag  Ag43  1  0.16789026  0.33758494  0.50137036  1
  Ag  Ag44  1  0.32318210  0.50466329  0.83075889  1
  Ag  Ag45  1  0.16256277  0.17462946  0.00310932  1
  Ag  Ag46  1  0.16538332  0.00708651  0.16519587  1
  Ag  Ag47  1  0.66554863  0.66599981  0.65981018  1
  Ag  Ag48  1  0.16522421  0.17202298  0.67054276  1
  Ag  Ag49  1  0.01109982  0.50103542  0.49990752  1
  Ag  Ag50  1  0.00397309  0.33113130  0.00319071  1
  Ag  Ag51  1  0.00894393  0.66495934  0.66936983  1
  Ag  Ag52  1  0.16434922  0.81735935  0.67253550  1
  Ag  Ag53  1  0.32418955  0.66172971  -0.00024740  1
  Sb  Sb54  1  -0.00069087  -0.00340331  0.33038511  1
  Sb  Sb55  1  0.83636237  0.33527923  0.49431626  1
  Sb  Sb56  1  0.00230945  0.82528478  0.49690463  1
  Sb  Sb57  1  0.50237984  0.82696236  0.33119897  1
  Sb  Sb58  1  0.49885813  0.16763769  0.66057716  1
  Sb  Sb59  1  0.66942180  0.66612327  0.00161130  1
  Sb  Sb60  1  0.49539265  0.82810439  0.66732478  1
  Sb  Sb61  1  0.50019319  -0.00137414  0.49730225  1
  Sb  Sb62  1  0.66905501  0.50075217  0.17393241  1
  Sb  Sb63  1  0.16534683  0.66334790  0.16274492  1
  Sb  Sb64  1  0.50572579  -0.00121376  0.83248832  1
  Sb  Sb65  1  0.83879623  0.50233050  0.66389236  1
  Sb  Sb66  1  0.32352346  -0.00092204  0.00697848  1
  Sb  Sb67  1  0.83055820  0.66350265  0.49032528  1
  Sb  Sb68  1  0.66884811  0.16694597  0.17129167  1
  Sb  Sb69  1  0.16434168  0.82741287  0.32946570  1
  Sb  Sb70  1  0.00158070  0.33538848  0.67135309  1
  Sb  Sb71  1  0.83770307  0.66859768  0.83940155  1
  Sb  Sb72  1  0.16729702  0.17215104  0.32793896  1
  Sb  Sb73  1  0.50139932  0.50163814  0.00542394  1
  Sb  Sb74  1  0.66905849  0.83503099  0.83199895  1
  Sb  Sb75  1  0.32755443  -0.00356597  0.66072908  1
  Sb  Sb76  1  0.83291690  0.00203253  0.50075861  1
  Sb  Sb77  1  0.00150314  0.17204366  0.49556896  1
  Sb  Sb78  1  0.83982934  0.83187832  0.66725934  1
  Sb  Sb79  1  0.49500265  0.50358455  0.66103698  1
  Sb  Sb80  1  0.67853410  0.00241499  0.00161603  1
  Sb  Sb81  1  0.16184257  0.00086395  0.83689217  1
  Sb  Sb82  1  0.00122364  0.34120591  0.32484377  1
  Sb  Sb83  1  0.00008892  0.50128084  0.16470327  1
  Sb  Sb84  1  0.32946930  0.82417956  0.83922980  1
  Sb  Sb85  1  0.33086611  0.82575805  0.49464576  1
  Sb  Sb86  1  0.66840919  0.49774549  0.82548430  1
  Sb  Sb87  1  0.49666207  0.16864586  0.00728154  1
  Sb  Sb88  1  0.83983389  -0.00013687  0.16450178  1
  Sb  Sb89  1  0.00110244  0.82786891  0.84219452  1
  Sb  Sb90  1  0.33071666  0.49976316  0.16808670  1
  Sb  Sb91  1  0.33164832  0.33912312  0.66877723  1
  Sb  Sb92  1  0.49592693  0.33870002  0.83791691  1
  Sb  Sb93  1  0.16682277  0.00691169  0.49568295  1
  Sb  Sb94  1  0.66721785  0.83050206  0.49869977  1
  Sb  Sb95  1  0.67038019  0.33232937  -0.00208444  1
  Sb  Sb96  1  0.17060105  0.65800414  0.50501022  1
  Sb  Sb97  1  0.49685464  0.33783150  0.49507480  1
  Sb  Sb98  1  0.33274456  0.17127631  0.83536884  1
  Sb  Sb99  1  0.16105807  0.49893444  -0.00269326  1
  Sb  Sb100  1  0.83538919  0.16635177  0.66729901  1
  Sb  Sb101  1  0.67132464  0.83188917  0.16875946  1
  Sb  Sb102  1  0.66716121  0.33601187  0.33749600  1
  Sb  Sb103  1  0.49281812  0.00009287  0.16994265  1
  Sb  Sb104  1  0.49511736  0.82946867  0.00343286  1
  Sb  Sb105  1  0.33190802  0.33631418  0.32700935  1
  Sb  Sb106  1  0.83820671  0.33073036  0.83995695  1
  Sb  Sb107  1  -0.00124804  0.16938156  0.84118475  1
  Te  Te108  1  0.16593003  0.16924223  0.16576921  1
  Te  Te109  1  0.16931977  0.17345986  0.50064912  1
  Te  Te110  1  0.16743515  0.16953989  0.83488194  1
  Te  Te111  1  0.16552040  0.49100647  0.17707975  1
  Te  Te112  1  0.16781194  0.49834632  0.50022354  1
  Te  Te113  1  0.16691868  0.49992197  0.83367806  1
  Te  Te114  1  0.16515038  0.83039963  0.16406786  1
  Te  Te115  1  0.16676609  0.83737596  0.50874532  1
  Te  Te116  1  0.16663655  0.83236424  0.83391852  1
  Te  Te117  1  0.49616913  0.16899640  0.17228541  1
  Te  Te118  1  0.49828643  0.16745316  0.49356562  1
  Te  Te119  1  0.50602160  0.16797749  0.83393579  1
  Te  Te120  1  0.50119504  0.50069308  0.17260368  1
  Te  Te121  1  0.50072286  0.50183827  0.49536099  1
  Te  Te122  1  0.49854100  0.50461953  0.83405156  1
  Te  Te123  1  0.49269553  0.82751043  0.16657022  1
  Te  Te124  1  0.49921224  0.82294334  0.49981739  1
  Te  Te125  1  0.50038745  0.82421019  0.83526011  1
  Te  Te126  1  0.83441674  0.16685519  0.16569959  1
  Te  Te127  1  0.82918841  0.16905885  0.49485486  1
  Te  Te128  1  0.82977553  0.16429615  0.83488875  1
  Te  Te129  1  0.83373991  0.50057134  0.16777238  1
  Te  Te130  1  0.82787147  0.49835092  0.49419025  1
  Te  Te131  1  0.83765426  0.49944632  0.83634348  1
  Te  Te132  1  0.83669957  0.83264796  0.16618306  1
  Te  Te133  1  0.83472190  0.83425844  0.49098738  1
  Te  Te134  1  0.83411233  0.84028346  0.83856556  1
  Te  Te135  1  0.16060648  -0.00229164  0.00365197  1
  Te  Te136  1  0.17023228  -0.00261339  0.32795507  1
  Te  Te137  1  0.16337688  0.00921130  0.66736587  1
  Te  Te138  1  0.16488034  0.33499204  -0.00070089  1
  Te  Te139  1  0.16614590  0.33963023  0.33991381  1
  Te  Te140  1  0.16696707  0.33396369  0.66793119  1
  Te  Te141  1  0.16575580  0.66624906  -0.00302552  1
  Te  Te142  1  0.16562225  0.66253680  0.33371562  1
  Te  Te143  1  0.16603089  0.66160236  0.66837266  1
  Te  Te144  1  0.50168110  -0.00127251  -0.00021226  1
  Te  Te145  1  0.49985060  0.00400059  0.33374750  1
  Te  Te146  1  0.50631090  -0.00252053  0.66612317  1
  Te  Te147  1  0.49701087  0.33408822  0.00727326  1
  Te  Te148  1  0.50040135  0.33367063  0.32827085  1
  Te  Te149  1  0.50686558  0.33385685  0.66816566  1
  Te  Te150  1  0.49767192  0.66637921  0.00176018  1
  Te  Te151  1  0.50001219  0.66570172  0.33233788  1
  Te  Te152  1  0.50261722  0.66683146  0.66962125  1
  Te  Te153  1  0.84069789  0.00350295  -0.00182740  1
  Te  Te154  1  0.83081100  0.00561485  0.33271438  1
  Te  Te155  1  0.83472280  -0.00125144  0.67082080  1
  Te  Te156  1  0.83629305  0.33179851  0.00490282  1
  Te  Te157  1  0.83402360  0.33132188  0.32626343  1
  Te  Te158  1  0.82708320  0.33425305  0.66764076  1
  Te  Te159  1  0.83506758  0.66680679  0.00562417  1
  Te  Te160  1  0.83361485  0.66519233  0.32908569  1
  Te  Te161  1  0.83109542  0.66848124  0.66863159  1
  Te  Te162  1  0.00199533  0.16719583  0.00123376  1
  Te  Te163  1  -0.00466382  0.16584952  0.32805147  1
  Te  Te164  1  0.00351513  0.16551317  0.66452931  1
  Te  Te165  1  -0.00321193  0.50469604  -0.00128922  1
  Te  Te166  1  -0.00269222  0.50382598  0.33534472  1
  Te  Te167  1  0.00362924  0.50218861  0.66594057  1
  Te  Te168  1  0.00091763  0.83019398  0.00231497  1
  Te  Te169  1  -0.00385728  0.82804211  0.32918399  1
  Te  Te170  1  0.00442253  0.83164167  0.66477374  1
  Te  Te171  1  0.32868667  0.16801382  0.00384220  1
  Te  Te172  1  0.33265414  0.16826337  0.33186841  1
  Te  Te173  1  0.33010101  0.16525038  0.66466545  1
  Te  Te174  1  0.33592500  0.50189275  -0.00260057  1
  Te  Te175  1  0.33497578  0.50274909  0.33512394  1
  Te  Te176  1  0.32929999  0.50404234  0.66499934  1
  Te  Te177  1  0.32747562  0.83006066  0.00639520  1
  Te  Te178  1  0.33278860  0.83217953  0.32827477  1
  Te  Te179  1  0.32627005  0.82770490  0.66515616  1
  Te  Te180  1  0.66787908  0.16605283  -0.00290026  1
  Te  Te181  1  0.66643820  0.16744600  0.33621944  1
  Te  Te182  1  0.66653906  0.16389050  0.66297100  1
  Te  Te183  1  0.67571269  0.49938525  -0.00322368  1
  Te  Te184  1  0.66795722  0.50257059  0.33856069  1
  Te  Te185  1  0.66736754  0.50563311  0.66083649  1
  Te  Te186  1  0.67405073  0.83531930  0.00051231  1
  Te  Te187  1  0.67274024  0.83305413  0.33328828  1
  Te  Te188  1  0.66804997  0.83246791  0.66584372  1
  Te  Te189  1  0.00498351  -0.00011496  0.16533517  1
  Te  Te190  1  0.00044052  0.00084563  0.50612508  1
  Te  Te191  1  -0.00296537  0.00170486  0.83274060  1
  Te  Te192  1  -0.00032701  0.32939351  0.16189769  1
  Te  Te193  1  0.00477986  0.33995118  0.50121035  1
  Te  Te194  1  0.00479529  0.33826869  0.83887010  1
  Te  Te195  1  -0.00084448  0.66894088  0.16603368  1
  Te  Te196  1  -0.00134748  0.66025664  0.50238761  1
  Te  Te197  1  0.00172407  0.66257318  0.83173099  1
  Te  Te198  1  0.32767217  0.00376909  0.17100275  1
  Te  Te199  1  0.33408959  0.00492051  0.49231046  1
  Te  Te200  1  0.33664459  -0.00099547  0.83138528  1
  Te  Te201  1  0.33156765  0.33244729  0.16239125  1
  Te  Te202  1  0.33086593  0.33448779  0.50195929  1
  Te  Te203  1  0.32944133  0.33895422  0.83896668  1
  Te  Te204  1  0.33224428  0.66531438  0.16718928  1
  Te  Te205  1  0.33700287  0.66295045  0.49651262  1
  Te  Te206  1  0.33062961  0.66377135  0.83350262  1
  Te  Te207  1  0.66320472  -0.00091868  0.17493299  1
  Te  Te208  1  0.66625235  0.00349539  0.49869387  1
  Te  Te209  1  0.67088940  0.00474024  0.82973443  1
  Te  Te210  1  0.66481796  0.33327193  0.16555010  1
  Te  Te211  1  0.66621763  0.33322446  0.50467635  1
  Te  Te212  1  0.66573099  0.32923246  0.82825060  1
  Te  Te213  1  0.66450744  0.66742151  0.17105719  1
  Te  Te214  1  0.66413344  0.66491263  0.49769801  1
  Te  Te215  1  0.66538757  0.66653750  0.83171036  1
