# generated using pymatgen
data_AgSbTe2
_symmetry_space_group_name_H-M   'P 1'
_cell_length_a   18.32031410
_cell_length_b   18.32479370
_cell_length_c   18.32878025
_cell_angle_alpha   89.99966141
_cell_angle_beta   89.99818937
_cell_angle_gamma   90.00251556
_symmetry_Int_Tables_number   1
_chemical_formula_structural   AgSbTe2
_chemical_formula_sum   'Ag54 Sb54 Te108'
_cell_volume   6153.26434687
_cell_formula_units_Z   54
loop_
 _symmetry_equiv_pos_site_id
 _symmetry_equiv_pos_as_xyz
  1  'x, y, z'
loop_
 _atom_site_type_symbol
 _atom_site_label
 _atom_site_symmetry_multiplicity
 _atom_site_fract_x
 _atom_site_fract_y
 _atom_site_fract_z
 _atom_site_occupancy
  Ag  Ag0  1  0.83375057  -0.00363049  0.49996895  1
  Ag  Ag1  1  0.67037570  0.50344067  0.49466107  1
  Ag  Ag2  1  0.33560734  0.50441046  0.83344551  1
  Ag  Ag3  1  0.33076224  0.51088186  0.49814967  1
  Ag  Ag4  1  0.66376219  0.66202938  0.32822568  1
  Ag  Ag5  1  0.33573876  0.16448596  0.49813079  1
  Ag  Ag6  1  -0.00108650  0.66813627  0.00302734  1
  Ag  Ag7  1  0.17746694  0.82982583  0.33326640  1
  Ag  Ag8  1  0.33553600  0.66541500  0.65965729  1
  Ag  Ag9  1  0.66387833  0.17600923  0.15839757  1
  Ag  Ag10  1  0.16663072  -0.00937441  0.16360861  1
  Ag  Ag11  1  -0.00463201  -0.00299729  -0.00328561  1
  Ag  Ag12  1  0.50580276  0.33960411  0.16352658  1
  Ag  Ag13  1  0.16717913  0.50469457  0.66466566  1
  Ag  Ag14  1  0.66947305  0.66086274  0.00684135  1
  Ag  Ag15  1  0.66466391  0.34395635  0.32437173  1
  Ag  Ag16  1  -0.00297846  0.50612268  0.49768521  1
  Ag  Ag17  1  0.66290730  0.66565876  0.66281057  1
  Ag  Ag18  1  0.83511639  0.66535143  0.49629848  1
  Ag  Ag19  1  0.16792398  0.66736830  0.83382290  1
  Ag  Ag20  1  0.32881091  0.82536105  0.48920088  1
  Ag  Ag21  1  0.66493922  0.49556534  0.83814832  1
  Ag  Ag22  1  0.82957720  0.66389920  0.16848841  1
  Ag  Ag23  1  0.16226243  -0.00818877  0.83607502  1
  Ag  Ag24  1  0.66813553  0.33233529  0.00086330  1
  Ag  Ag25  1  0.33124552  0.66633045  0.01360507  1
  Ag  Ag26  1  0.50604924  0.16824007  0.00559036  1
  Ag  Ag27  1  0.49106371  0.83269111  0.33513288  1
  Ag  Ag28  1  0.33647818  0.50930270  0.16956202  1
  Ag  Ag29  1  0.00259379  0.82311030  0.50245752  1
  Ag  Ag30  1  0.00105313  0.83565053  0.83481867  1
  Ag  Ag31  1  0.17166957  0.66650826  0.49894805  1
  Ag  Ag32  1  0.33308009  -0.01638318  0.33402562  1
  Ag  Ag33  1  0.49290937  0.66199800  0.16705215  1
  Ag  Ag34  1  0.33655547  0.66964458  0.32897476  1
  Ag  Ag35  1  0.67124541  0.17461568  0.83781664  1
  Ag  Ag36  1  0.50042155  0.82836961  0.66150149  1
  Ag  Ag37  1  0.83118237  0.16655714  0.66556214  1
  Ag  Ag38  1  0.83479621  0.83060574  0.00019070  1
  Ag  Ag39  1  0.17842258  0.66942413  0.16752212  1
  Ag  Ag40  1  -0.00225841  0.50436741  0.16818007  1
  Ag  Ag41  1  0.66530598  0.50251315  0.17005150  1
  Ag  Ag42  1  0.66813247  0.00085016  0.66881992  1
  Ag  Ag43  1  0.67174317  0.00954049  -0.00235124  1
  Ag  Ag44  1  0.33261150  0.82098883  0.17822992  1
  Ag  Ag45  1  -0.00784043  0.33358655  -0.00580103  1
  Ag  Ag46  1  -0.00644502  0.16741951  0.83153385  1
  Ag  Ag47  1  0.82921746  0.33233960  0.83452182  1
  Ag  Ag48  1  -0.00233391  0.33232914  0.67165345  1
  Ag  Ag49  1  0.66991122  0.16992205  0.50091282  1
  Ag  Ag50  1  0.50325100  0.16342718  0.33068372  1
  Ag  Ag51  1  -0.00592634  0.16658295  0.50508057  1
  Ag  Ag52  1  0.51267065  0.33301649  0.83967964  1
  Ag  Ag53  1  0.82793442  0.50365697  0.33423593  1
  Sb  Sb54  1  0.83258979  0.82558339  0.33194857  1
  Sb  Sb55  1  0.50330410  0.33295434  0.49876164  1
  Sb  Sb56  1  0.50455398  -0.00091091  0.49914082  1
  Sb  Sb57  1  0.16157315  0.16992342  0.66528763  1
  Sb  Sb58  1  0.49882536  -0.00140961  0.16756541  1
  Sb  Sb59  1  0.49698005  0.66199886  0.83849433  1
  Sb  Sb60  1  -0.00435961  0.00366906  0.66990575  1
  Sb  Sb61  1  0.00187785  0.66615621  0.33100843  1
  Sb  Sb62  1  0.83555671  0.00375514  0.83144150  1
  Sb  Sb63  1  -0.00147132  0.49960416  0.83344567  1
  Sb  Sb64  1  0.49850756  0.50512041  0.66729262  1
  Sb  Sb65  1  0.33705503  -0.00606686  0.66173003  1
  Sb  Sb66  1  0.16990734  0.33981613  0.16557454  1
  Sb  Sb67  1  0.83482907  -0.00485923  0.16817999  1
  Sb  Sb68  1  0.66623462  0.82931537  0.50038683  1
  Sb  Sb69  1  0.33855954  0.33987736  -0.00043608  1
  Sb  Sb70  1  0.50615578  0.50431036  0.33088898  1
  Sb  Sb71  1  -0.00000832  0.66339362  0.66644205  1
  Sb  Sb72  1  0.16315392  0.33779992  0.83389465  1
  Sb  Sb73  1  0.16578911  0.50786097  0.33635475  1
  Sb  Sb74  1  0.82514781  0.33972286  0.16099660  1
  Sb  Sb75  1  0.83222387  0.33641584  0.50436432  1
  Sb  Sb76  1  0.33422884  0.17128788  0.82865951  1
  Sb  Sb77  1  0.16341393  -0.00659091  0.50030760  1
  Sb  Sb78  1  0.34253068  0.34040044  0.33299609  1
  Sb  Sb79  1  0.83448581  0.66266656  0.83394208  1
  Sb  Sb80  1  0.67002214  0.33491980  0.67087430  1
  Sb  Sb81  1  0.33265655  -0.00584559  0.00487559  1
  Sb  Sb82  1  0.16808023  0.16454077  -0.00018889  1
  Sb  Sb83  1  0.16181570  0.82992589  0.00445560  1
  Sb  Sb84  1  0.66276637  -0.00101660  0.33275999  1
  Sb  Sb85  1  0.66154839  0.82437601  0.16649963  1
  Sb  Sb86  1  0.82734376  0.16499542  -0.00364479  1
  Sb  Sb87  1  0.32804248  0.82497871  0.83345440  1
  Sb  Sb88  1  0.50442404  0.83360415  0.00189905  1
  Sb  Sb89  1  0.50775725  0.16416815  0.66521896  1
  Sb  Sb90  1  0.00404771  -0.00139511  0.33178516  1
  Sb  Sb91  1  0.16518069  0.34073414  0.49929743  1
  Sb  Sb92  1  0.34035074  0.16748578  0.17045418  1
  Sb  Sb93  1  0.16615091  0.50461236  -0.00256846  1
  Sb  Sb94  1  0.00474073  0.82573313  0.16596344  1
  Sb  Sb95  1  0.82498361  0.17158858  0.33986164  1
  Sb  Sb96  1  -0.00524873  0.17024671  0.16371298  1
  Sb  Sb97  1  0.67026274  0.83169297  0.83452326  1
  Sb  Sb98  1  0.16986916  0.82670897  0.66310835  1
  Sb  Sb99  1  0.17301071  0.15967895  0.33560422  1
  Sb  Sb100  1  0.49830153  0.66704173  0.49351495  1
  Sb  Sb101  1  0.83093734  0.83570394  0.66808707  1
  Sb  Sb102  1  0.83203062  0.50511378  0.00554883  1
  Sb  Sb103  1  0.50370543  0.49688276  0.00231150  1
  Sb  Sb104  1  0.49926519  0.00364375  0.83456968  1
  Sb  Sb105  1  -0.00829271  0.33578647  0.33301237  1
  Sb  Sb106  1  0.33065530  0.34089105  0.66583445  1
  Sb  Sb107  1  0.83466513  0.49812136  0.66211564  1
  Te  Te108  1  0.16630456  0.16416985  0.16803706  1
  Te  Te109  1  0.16489826  0.16599648  0.49989480  1
  Te  Te110  1  0.16348130  0.16509450  0.83279304  1
  Te  Te111  1  0.16680724  0.50628872  0.16777098  1
  Te  Te112  1  0.16779349  0.50584608  0.50217425  1
  Te  Te113  1  0.16881198  0.50518234  0.82836195  1
  Te  Te114  1  0.16937882  0.83097302  0.17028757  1
  Te  Te115  1  0.16591577  0.82906357  0.49711838  1
  Te  Te116  1  0.16114428  0.83009130  0.83198100  1
  Te  Te117  1  0.50446468  0.16618885  0.16754547  1
  Te  Te118  1  0.50242794  0.16584931  0.49744224  1
  Te  Te119  1  0.50303653  0.17106055  0.83405626  1
  Te  Te120  1  0.50129099  0.50063149  0.16698609  1
  Te  Te121  1  0.49939462  0.49843378  0.50015341  1
  Te  Te122  1  0.50165681  0.49453818  0.83390002  1
  Te  Te123  1  0.49437047  0.83008499  0.16971307  1
  Te  Te124  1  0.49537843  0.83399384  0.49917367  1
  Te  Te125  1  0.49923958  0.83489760  0.82947858  1
  Te  Te126  1  0.82602320  0.16520806  0.16953337  1
  Te  Te127  1  0.83279701  0.16855509  0.50365136  1
  Te  Te128  1  0.83326508  0.16887878  0.83074184  1
  Te  Te129  1  0.83255700  0.50404567  0.17107145  1
  Te  Te130  1  0.83257884  0.50307083  0.49707270  1
  Te  Te131  1  0.82798762  0.49473396  0.83132904  1
  Te  Te132  1  0.83447262  0.82675024  0.16331521  1
  Te  Te133  1  0.83768055  0.83099306  0.49996392  1
  Te  Te134  1  0.84038861  0.83338389  0.83710572  1
  Te  Te135  1  0.16407543  -0.00112241  -0.00064923  1
  Te  Te136  1  0.17191891  -0.00657725  0.33062113  1
  Te  Te137  1  0.16796009  0.00011947  0.67342871  1
  Te  Te138  1  0.15836554  0.33314810  0.00054484  1
  Te  Te139  1  0.16733449  0.33133922  0.33152338  1
  Te  Te140  1  0.15958949  0.34031421  0.66633302  1
  Te  Te141  1  0.16613637  0.66684321  0.00111284  1
  Te  Te142  1  0.16887242  0.67006686  0.33354883  1
  Te  Te143  1  0.16738697  0.66366427  0.66528701  1
  Te  Te144  1  0.50539891  0.00512695  -0.00034099  1
  Te  Te145  1  0.49406344  -0.00186583  0.33315518  1
  Te  Te146  1  0.50736347  -0.00694053  0.66732559  1
  Te  Te147  1  0.50341084  0.32874575  0.00089822  1
  Te  Te148  1  0.50753282  0.32707839  0.32985913  1
  Te  Te149  1  0.49874428  0.33236674  0.67434059  1
  Te  Te150  1  0.50373342  0.66867199  0.00583459  1
  Te  Te151  1  0.50125868  0.66962866  0.32783110  1
  Te  Te152  1  0.50224690  0.67004891  0.67073146  1
  Te  Te153  1  0.83331460  -0.00484689  0.00064682  1
  Te  Te154  1  0.83370202  -0.00120629  0.33921364  1
  Te  Te155  1  0.82733848  0.00363340  0.66178652  1
  Te  Te156  1  0.83268214  0.33174151  -0.00456099  1
  Te  Te157  1  0.82413644  0.33989821  0.33218654  1
  Te  Te158  1  0.83763222  0.32852484  0.67192315  1
  Te  Te159  1  0.83338810  0.66930704  -0.00086858  1
  Te  Te160  1  0.83046449  0.66366385  0.33555279  1
  Te  Te161  1  0.82747822  0.66683426  0.66137009  1
  Te  Te162  1  -0.00000994  0.16579911  -0.00231691  1
  Te  Te163  1  -0.00042112  0.16796616  0.33779675  1
  Te  Te164  1  -0.00348582  0.17011400  0.66747850  1
  Te  Te165  1  -0.00083212  0.50239199  0.00233874  1
  Te  Te166  1  -0.00453236  0.49881471  0.33552965  1
  Te  Te167  1  0.00244056  0.49610962  0.66294312  1
  Te  Te168  1  -0.00292230  0.83165501  -0.00034933  1
  Te  Te169  1  0.00132741  0.83400472  0.34127727  1
  Te  Te170  1  0.00008065  0.83441363  0.66434160  1
  Te  Te171  1  0.33997932  0.16688228  -0.00089867  1
  Te  Te172  1  0.33983690  0.17290448  0.33784494  1
  Te  Te173  1  0.33407175  0.16628643  0.66021508  1
  Te  Te174  1  0.33325975  0.50667166  0.00066534  1
  Te  Te175  1  0.33303158  0.50578522  0.33534395  1
  Te  Te176  1  0.33089642  0.50458268  0.66269725  1
  Te  Te177  1  0.33566772  0.82686267  0.00198421  1
  Te  Te178  1  0.33418750  0.82857575  0.33396263  1
  Te  Te179  1  0.33807669  0.82806516  0.66562862  1
  Te  Te180  1  0.66626372  0.16875388  -0.00183843  1
  Te  Te181  1  0.66235748  0.16376965  0.33915372  1
  Te  Te182  1  0.67003887  0.16600748  0.66444762  1
  Te  Te183  1  0.66860401  0.50053876  -0.00088111  1
  Te  Te184  1  0.66646392  0.50221823  0.33341718  1
  Te  Te185  1  0.66631782  0.50410652  0.66298752  1
  Te  Te186  1  0.67188557  0.83116311  -0.00031575  1
  Te  Te187  1  0.66195766  0.82803962  0.33354152  1
  Te  Te188  1  0.66290231  0.83258942  0.66767364  1
  Te  Te189  1  0.00414262  0.00096667  0.16071439  1
  Te  Te190  1  -0.00377304  0.00518497  0.50006199  1
  Te  Te191  1  0.00150479  0.00055281  0.83617262  1
  Te  Te192  1  0.00009118  0.33986571  0.16244949  1
  Te  Te193  1  -0.00052464  0.33300824  0.50095460  1
  Te  Te194  1  -0.00130492  0.33108656  0.83424372  1
  Te  Te195  1  -0.00590370  0.66304595  0.16396428  1
  Te  Te196  1  -0.00135205  0.66526174  0.49979160  1
  Te  Te197  1  0.00271649  0.66803689  0.83600156  1
  Te  Te198  1  0.32744597  0.00041857  0.17019704  1
  Te  Te199  1  0.33169141  0.00232663  0.49626577  1
  Te  Te200  1  0.32616898  -0.00000122  0.83384225  1
  Te  Te201  1  0.34047469  0.33957172  0.16520983  1
  Te  Te202  1  0.33381307  0.32977326  0.50006189  1
  Te  Te203  1  0.33347700  0.34169094  0.83358898  1
  Te  Te204  1  0.33423329  0.66479689  0.16869885  1
  Te  Te205  1  0.33437341  0.66773022  0.50119682  1
  Te  Te206  1  0.32997866  0.66194369  0.82661640  1
  Te  Te207  1  0.66780981  0.00317728  0.16171375  1
  Te  Te208  1  0.67187240  0.00050621  0.50137541  1
  Te  Te209  1  0.66741931  0.00227521  0.83495577  1
  Te  Te210  1  0.66477619  0.33551262  0.16352818  1
  Te  Te211  1  0.66674413  0.33479186  0.49907079  1
  Te  Te212  1  0.66857044  0.33404183  0.83350053  1
  Te  Te213  1  0.66984539  0.66372255  0.16666928  1
  Te  Te214  1  0.66581399  0.66496826  0.50079732  1
  Te  Te215  1  0.66631454  0.66331942  0.83464282  1
