# generated using pymatgen
data_AgSbTe2
_symmetry_space_group_name_H-M   'P 1'
_cell_length_a   18.32434904
_cell_length_b   18.32523888
_cell_length_c   18.32602780
_cell_angle_alpha   90.00231145
_cell_angle_beta   89.99820871
_cell_angle_gamma   89.99929156
_symmetry_Int_Tables_number   1
_chemical_formula_structural   AgSbTe2
_chemical_formula_sum   'Ag54 Sb54 Te108'
_cell_volume   6153.84482211
_cell_formula_units_Z   54
loop_
 _symmetry_equiv_pos_site_id
 _symmetry_equiv_pos_as_xyz
  1  'x, y, z'
loop_
 _atom_site_type_symbol
 _atom_site_label
 _atom_site_symmetry_multiplicity
 _atom_site_fract_x
 _atom_site_fract_y
 _atom_site_fract_z
 _atom_site_occupancy
  Ag  Ag0  1  0.66570544  0.17116686  0.16579760  1
  Ag  Ag1  1  0.50539243  0.17292362  0.00027982  1
  Ag  Ag2  1  0.49917040  0.34189738  0.83643089  1
  Ag  Ag3  1  0.16888011  0.49969102  0.67677228  1
  Ag  Ag4  1  0.66252345  0.16831522  0.49640128  1
  Ag  Ag5  1  0.16282414  0.33801453  0.16748823  1
  Ag  Ag6  1  -0.00196866  0.65581623  -0.00239652  1
  Ag  Ag7  1  0.00069420  0.34133439  0.00223930  1
  Ag  Ag8  1  0.33569387  0.17211196  0.16840951  1
  Ag  Ag9  1  0.84216812  0.50364354  0.00091466  1
  Ag  Ag10  1  0.49194297  0.83189192  0.33367643  1
  Ag  Ag11  1  0.00251862  0.33413792  0.32251589  1
  Ag  Ag12  1  0.83293323  0.16709447  0.67327468  1
  Ag  Ag13  1  0.49628351  0.00136661  0.50036512  1
  Ag  Ag14  1  0.33517676  0.16744819  0.49775644  1
  Ag  Ag15  1  0.32945985  0.66005154  0.67185369  1
  Ag  Ag16  1  -0.00105528  0.17669953  0.16251404  1
  Ag  Ag17  1  0.49637459  0.83392965  0.66297927  1
  Ag  Ag18  1  0.83752897  0.00664856  0.83646180  1
  Ag  Ag19  1  0.33393914  -0.00422777  0.33459235  1
  Ag  Ag20  1  0.32751864  0.50179428  0.16510577  1
  Ag  Ag21  1  0.66852414  0.66116662  0.00495913  1
  Ag  Ag22  1  0.83933705  0.33209479  0.83708264  1
  Ag  Ag23  1  0.66963526  0.33652260  0.32877297  1
  Ag  Ag24  1  0.00820740  0.49639352  0.15525106  1
  Ag  Ag25  1  0.17455905  0.82544384  0.33284979  1
  Ag  Ag26  1  0.00640898  0.83677874  0.50506053  1
  Ag  Ag27  1  0.83737144  0.82015501  -0.00026956  1
  Ag  Ag28  1  0.82154576  0.66408325  0.15935899  1
  Ag  Ag29  1  0.33777413  0.82163054  0.17292072  1
  Ag  Ag30  1  0.49518178  0.65970593  0.84205098  1
  Ag  Ag31  1  0.33086079  0.34045057  0.66519310  1
  Ag  Ag32  1  0.32960973  0.50077190  0.49827911  1
  Ag  Ag33  1  0.50089880  0.16488464  0.66640659  1
  Ag  Ag34  1  0.00520715  0.50312965  0.84329401  1
  Ag  Ag35  1  0.33158960  0.83248726  0.49310156  1
  Ag  Ag36  1  0.65870957  0.81848196  0.16661645  1
  Ag  Ag37  1  0.16708252  0.50050145  0.32455643  1
  Ag  Ag38  1  0.00072870  0.16628539  0.50057300  1
  Ag  Ag39  1  0.33816107  0.66280372  0.00066652  1
  Ag  Ag40  1  -0.00124531  -0.00204849  0.67070987  1
  Ag  Ag41  1  0.00560017  0.66928239  0.67987977  1
  Ag  Ag42  1  0.66820227  0.50022310  0.84493050  1
  Ag  Ag43  1  0.66456078  0.66202863  0.31889376  1
  Ag  Ag44  1  0.16769029  0.33617202  0.49808298  1
  Ag  Ag45  1  0.50183602  0.50267061  -0.00071243  1
  Ag  Ag46  1  0.83424046  0.17012183  -0.00248529  1
  Ag  Ag47  1  0.16199956  0.34172548  0.83560489  1
  Ag  Ag48  1  0.50772494  0.66514820  0.15958101  1
  Ag  Ag49  1  -0.00056255  0.82192584  0.83391500  1
  Ag  Ag50  1  -0.00372068  0.00111237  -0.00439136  1
  Ag  Ag51  1  0.16209502  0.66018650  0.83393335  1
  Ag  Ag52  1  0.66536158  0.50662213  0.16132131  1
  Ag  Ag53  1  0.15595267  0.50027332  -0.00099028  1
  Sb  Sb54  1  0.16326227  0.17557424  0.00212441  1
  Sb  Sb55  1  0.49867790  0.33693411  0.16177437  1
  Sb  Sb56  1  0.66276309  0.83693346  0.49448133  1
  Sb  Sb57  1  0.83793112  0.66280351  0.84084624  1
  Sb  Sb58  1  0.00775975  0.49800908  0.50047985  1
  Sb  Sb59  1  0.16887585  0.65846730  0.16024213  1
  Sb  Sb60  1  0.49926287  -0.00372322  0.16839262  1
  Sb  Sb61  1  0.16628225  0.00308520  0.16709845  1
  Sb  Sb62  1  0.32774344  0.50181853  0.83894098  1
  Sb  Sb63  1  0.33135647  0.33267769  0.33506874  1
  Sb  Sb64  1  0.66943091  0.00174841  0.66675791  1
  Sb  Sb65  1  0.33003146  0.82823900  0.83342295  1
  Sb  Sb66  1  0.16869299  0.66133438  0.50445517  1
  Sb  Sb67  1  0.67060091  0.82530010  0.84008720  1
  Sb  Sb68  1  0.66446489  0.66533805  0.67171751  1
  Sb  Sb69  1  0.16712777  0.17213214  0.33291314  1
  Sb  Sb70  1  0.83328911  0.16886954  0.32921966  1
  Sb  Sb71  1  0.83557975  0.83562024  0.67394366  1
  Sb  Sb72  1  0.49319334  0.32795441  0.50457161  1
  Sb  Sb73  1  0.17043555  0.00248592  0.49937567  1
  Sb  Sb74  1  0.15899001  -0.00145329  0.83329958  1
  Sb  Sb75  1  0.83742862  0.49881301  0.32350450  1
  Sb  Sb76  1  0.66168010  0.33322789  0.66634834  1
  Sb  Sb77  1  0.66842762  0.17386740  0.83633133  1
  Sb  Sb78  1  0.49581449  0.50457005  0.32571817  1
  Sb  Sb79  1  0.33539788  0.17031986  0.83435163  1
  Sb  Sb80  1  0.33043314  -0.00026278  0.66124529  1
  Sb  Sb81  1  0.49868440  0.16457433  0.33238698  1
  Sb  Sb82  1  0.32994976  0.34038812  -0.00166812  1
  Sb  Sb83  1  0.83506949  -0.00146108  0.15932255  1
  Sb  Sb84  1  0.83258164  0.00278080  0.50554398  1
  Sb  Sb85  1  0.50247558  0.82793926  0.00128287  1
  Sb  Sb86  1  0.16239973  0.82370394  0.00386600  1
  Sb  Sb87  1  0.50430143  -0.00062794  0.83075733  1
  Sb  Sb88  1  0.83845761  0.33162465  0.50579898  1
  Sb  Sb89  1  0.49721197  0.67025580  0.49995663  1
  Sb  Sb90  1  0.00179969  0.82837247  0.16364019  1
  Sb  Sb91  1  -0.00207939  0.17093825  0.83556950  1
  Sb  Sb92  1  0.16858615  0.82651626  0.66285413  1
  Sb  Sb93  1  0.33585692  0.66954984  0.32925961  1
  Sb  Sb94  1  0.83573564  0.66663775  0.49692884  1
  Sb  Sb95  1  0.67182497  0.34113015  0.00422202  1
  Sb  Sb96  1  -0.00020230  0.66254663  0.32850970  1
  Sb  Sb97  1  0.67111385  -0.00140338  0.00069174  1
  Sb  Sb98  1  0.66153135  -0.00004096  0.33206343  1
  Sb  Sb99  1  0.16733823  0.17342986  0.66512665  1
  Sb  Sb100  1  0.83796640  0.33687018  0.15916488  1
  Sb  Sb101  1  0.83355339  0.83121437  0.32749042  1
  Sb  Sb102  1  0.32968878  -0.00292119  0.00607268  1
  Sb  Sb103  1  0.84064684  0.49559757  0.67825510  1
  Sb  Sb104  1  0.00585432  0.00336568  0.33342516  1
  Sb  Sb105  1  0.65914447  0.49485242  0.49375275  1
  Sb  Sb106  1  0.49161054  0.50025170  0.67424230  1
  Sb  Sb107  1  0.00649330  0.33370979  0.67074459  1
  Te  Te108  1  0.16672218  0.17320132  0.16775241  1
  Te  Te109  1  0.16713282  0.17162214  0.49930043  1
  Te  Te110  1  0.16729015  0.17570101  0.83331406  1
  Te  Te111  1  0.16727208  0.49836709  0.16433742  1
  Te  Te112  1  0.17102025  0.49568116  0.49805157  1
  Te  Te113  1  0.16583855  0.49977595  0.83594043  1
  Te  Te114  1  0.17145397  0.83387502  0.17179674  1
  Te  Te115  1  0.16735772  0.83322190  0.49610517  1
  Te  Te116  1  0.15977018  0.82858212  0.83290771  1
  Te  Te117  1  0.49768861  0.16697936  0.16433749  1
  Te  Te118  1  0.49755408  0.16384769  0.50091323  1
  Te  Te119  1  0.50222870  0.16757437  0.83194213  1
  Te  Te120  1  0.50041520  0.50370087  0.16228817  1
  Te  Te121  1  0.49113450  0.49895312  0.50030548  1
  Te  Te122  1  0.50016452  0.50035951  0.83678511  1
  Te  Te123  1  0.49876276  0.83044888  0.16746741  1
  Te  Te124  1  0.49869449  0.83686175  0.49971230  1
  Te  Te125  1  0.50072844  0.83101933  0.82883877  1
  Te  Te126  1  0.83496642  0.16685280  0.16226119  1
  Te  Te127  1  0.83591243  0.16653801  0.50341090  1
  Te  Te128  1  0.83242522  0.17000475  0.83406671  1
  Te  Te129  1  0.82893014  0.50250518  0.16148094  1
  Te  Te130  1  0.83046844  0.49947564  0.50117941  1
  Te  Te131  1  0.83296408  0.49520396  0.83913338  1
  Te  Te132  1  0.83254344  0.82971985  0.16049834  1
  Te  Te133  1  0.83783661  0.83492904  0.50106455  1
  Te  Te134  1  0.83809374  0.83659826  0.83900859  1
  Te  Te135  1  0.15963536  -0.00004492  -0.00127965  1
  Te  Te136  1  0.17332921  -0.00812896  0.33367683  1
  Te  Te137  1  0.15820603  -0.00037527  0.66721370  1
  Te  Te138  1  0.16351003  0.33972532  0.00018605  1
  Te  Te139  1  0.16475359  0.33765086  0.33129041  1
  Te  Te140  1  0.17126076  0.33864554  0.66753284  1
  Te  Te141  1  0.16567784  0.66053485  -0.00547130  1
  Te  Te142  1  0.16609753  0.66411267  0.33425401  1
  Te  Te143  1  0.16669932  0.66177811  0.67084953  1
  Te  Te144  1  0.49909021  0.00826617  -0.00219964  1
  Te  Te145  1  0.49503822  -0.00603018  0.33700267  1
  Te  Te146  1  0.49916435  0.00151813  0.66386040  1
  Te  Te147  1  0.49862710  0.33115822  -0.00452679  1
  Te  Te148  1  0.50587591  0.33484157  0.33409790  1
  Te  Te149  1  0.49437068  0.32904650  0.67204372  1
  Te  Te150  1  0.49909417  0.66759363  0.00025541  1
  Te  Te151  1  0.50429883  0.67157815  0.33021597  1
  Te  Te152  1  0.49672059  0.66899242  0.66938881  1
  Te  Te153  1  0.83669867  0.00787285  -0.00407843  1
  Te  Te154  1  0.83429432  -0.00036918  0.33458953  1
  Te  Te155  1  0.83890530  0.00435775  0.67224396  1
  Te  Te156  1  0.83730381  0.33126866  -0.00442011  1
  Te  Te157  1  0.83484032  0.33352272  0.33670554  1
  Te  Te158  1  0.83306259  0.32735565  0.67394402  1
  Te  Te159  1  0.83496462  0.66362820  0.00029485  1
  Te  Te160  1  0.82726572  0.66605942  0.32614854  1
  Te  Te161  1  0.83891541  0.66613382  0.66648864  1
  Te  Te162  1  -0.00156805  0.16583388  0.00201552  1
  Te  Te163  1  0.00026019  0.17138185  0.33375951  1
  Te  Te164  1  -0.00078848  0.16578415  0.66416632  1
  Te  Te165  1  -0.00167661  0.49854654  -0.00034668  1
  Te  Te166  1  0.00442694  0.49429913  0.33253149  1
  Te  Te167  1  0.00585447  0.50497939  0.66772308  1
  Te  Te168  1  -0.00267253  0.83687337  -0.00063447  1
  Te  Te169  1  0.00252571  0.83330520  0.33601706  1
  Te  Te170  1  0.00023819  0.83102764  0.66652846  1
  Te  Te171  1  0.33517451  0.16590119  0.00446163  1
  Te  Te172  1  0.33287945  0.16294529  0.33304692  1
  Te  Te173  1  0.33629841  0.16717420  0.66294626  1
  Te  Te174  1  0.34150910  0.50328408  0.00537304  1
  Te  Te175  1  0.32892213  0.50076942  0.33205655  1
  Te  Te176  1  0.32970052  0.50073733  0.66427505  1
  Te  Te177  1  0.33230400  0.82841320  0.00624077  1
  Te  Te178  1  0.33409174  0.83164268  0.33350384  1
  Te  Te179  1  0.33580875  0.83154192  0.66401648  1
  Te  Te180  1  0.66685392  0.16663841  0.00232957  1
  Te  Te181  1  0.66640209  0.16891895  0.33322125  1
  Te  Te182  1  0.66574545  0.16718717  0.66400324  1
  Te  Te183  1  0.66196035  0.50039054  0.00115847  1
  Te  Te184  1  0.66644701  0.49939786  0.32856730  1
  Te  Te185  1  0.66789812  0.50013248  0.66633612  1
  Te  Te186  1  0.67120195  0.82964898  0.00630720  1
  Te  Te187  1  0.66495242  0.83134867  0.32672647  1
  Te  Te188  1  0.66111217  0.83306485  0.66554399  1
  Te  Te189  1  0.00051057  0.00624110  0.16379580  1
  Te  Te190  1  0.00080397  0.00174991  0.50176418  1
  Te  Te191  1  -0.00269634  0.00157896  0.83347821  1
  Te  Te192  1  -0.00043424  0.33573121  0.16500195  1
  Te  Te193  1  0.00567434  0.32973002  0.50106444  1
  Te  Te194  1  0.00095449  0.33743927  0.83566548  1
  Te  Te195  1  -0.00066125  0.66051261  0.16186073  1
  Te  Te196  1  0.00031164  0.67147335  0.49910246  1
  Te  Te197  1  -0.00066909  0.66465776  0.83645253  1
  Te  Te198  1  0.33302578  0.00538345  0.17161483  1
  Te  Te199  1  0.33603150  -0.00011410  0.49718588  1
  Te  Te200  1  0.33131136  -0.00113547  0.83481512  1
  Te  Te201  1  0.33002353  0.33407917  0.16716129  1
  Te  Te202  1  0.32883548  0.33096606  0.50154270  1
  Te  Te203  1  0.33537714  0.33341647  0.82873972  1
  Te  Te204  1  0.33401094  0.66371018  0.16414425  1
  Te  Te205  1  0.33383475  0.66834753  0.50518760  1
  Te  Te206  1  0.33494645  0.66776083  0.83272899  1
  Te  Te207  1  0.66728032  0.01139288  0.16721230  1
  Te  Te208  1  0.66072027  0.00731633  0.49929900  1
  Te  Te209  1  0.67514852  -0.00283356  0.83356414  1
  Te  Te210  1  0.66626041  0.32956493  0.17009567  1
  Te  Te211  1  0.66684646  0.32815438  0.49533396  1
  Te  Te212  1  0.66228245  0.34055836  0.83393541  1
  Te  Te213  1  0.66536273  0.66320905  0.16322349  1
  Te  Te214  1  0.66669666  0.66580996  0.49712239  1
  Te  Te215  1  0.66191815  0.66039376  0.83812269  1
