# generated using pymatgen
data_AgSbTe2
_symmetry_space_group_name_H-M   'P 1'
_cell_length_a   18.34948775
_cell_length_b   18.35660897
_cell_length_c   18.33950382
_cell_angle_alpha   90.00125641
_cell_angle_beta   89.99977706
_cell_angle_gamma   89.99855330
_symmetry_Int_Tables_number   1
_chemical_formula_structural   AgSbTe2
_chemical_formula_sum   'Ag54 Sb54 Te108'
_cell_volume   6177.37523797
_cell_formula_units_Z   54
loop_
 _symmetry_equiv_pos_site_id
 _symmetry_equiv_pos_as_xyz
  1  'x, y, z'
loop_
 _atom_site_type_symbol
 _atom_site_label
 _atom_site_symmetry_multiplicity
 _atom_site_fract_x
 _atom_site_fract_y
 _atom_site_fract_z
 _atom_site_occupancy
  Ag  Ag0  1  -0.00198812  0.66656989  0.00209956  1
  Ag  Ag1  1  0.67527412  0.83581251  0.83606728  1
  Ag  Ag2  1  0.00125426  0.65724584  0.33777634  1
  Ag  Ag3  1  0.83000579  -0.00582313  0.84548180  1
  Ag  Ag4  1  0.83871251  0.84301875  0.32628320  1
  Ag  Ag5  1  0.00241901  0.82939865  0.49222994  1
  Ag  Ag6  1  0.16064737  0.66988381  0.49648868  1
  Ag  Ag7  1  -0.00481491  0.67039846  0.66269940  1
  Ag  Ag8  1  0.33737479  0.16504485  0.83831940  1
  Ag  Ag9  1  0.67913417  0.32816021  0.32976434  1
  Ag  Ag10  1  0.84397316  0.49786050  0.32535672  1
  Ag  Ag11  1  0.83201400  0.16155550  0.00567346  1
  Ag  Ag12  1  -0.00268763  0.49693914  0.17398436  1
  Ag  Ag13  1  0.00217417  0.50839122  0.48773504  1
  Ag  Ag14  1  -0.00347384  0.34399402  0.33100234  1
  Ag  Ag15  1  -0.00654170  0.16643756  0.17039220  1
  Ag  Ag16  1  0.49599715  -0.00597096  0.49221181  1
  Ag  Ag17  1  -0.00633798  0.34315659  0.01323192  1
  Ag  Ag18  1  0.33053469  0.16361042  0.17210076  1
  Ag  Ag19  1  -0.00644777  -0.00522730  0.65809657  1
  Ag  Ag20  1  0.15180990  0.50315411  0.00426695  1
  Ag  Ag21  1  0.83680267  0.32200320  0.16619205  1
  Ag  Ag22  1  0.51581750  0.16015470  0.00133649  1
  Ag  Ag23  1  -0.00909614  0.83151808  0.84490100  1
  Ag  Ag24  1  0.67192425  -0.00413851  0.67774876  1
  Ag  Ag25  1  0.83231285  0.00381178  0.16608072  1
  Ag  Ag26  1  0.67604122  0.32297562  0.00190526  1
  Ag  Ag27  1  0.15716058  0.16665138  0.33465081  1
  Ag  Ag28  1  0.50962347  0.00157341  0.17178354  1
  Ag  Ag29  1  0.83611097  0.49720575  0.00427917  1
  Ag  Ag30  1  0.33079827  0.15535397  0.48782956  1
  Ag  Ag31  1  0.83312389  0.83699240  -0.00093826  1
  Ag  Ag32  1  0.33634185  0.50237939  0.83731757  1
  Ag  Ag33  1  0.33111564  -0.00016972  0.33689735  1
  Ag  Ag34  1  0.50944229  0.83867142  -0.00110772  1
  Ag  Ag35  1  0.32394580  0.83801381  0.49491227  1
  Ag  Ag36  1  0.84123863  0.16264997  0.32560064  1
  Ag  Ag37  1  0.16633860  -0.00288837  0.49452886  1
  Ag  Ag38  1  0.66778125  0.51131661  0.83582565  1
  Ag  Ag39  1  0.67666685  0.00404300  0.33148389  1
  Ag  Ag40  1  0.14932145  0.82983295  -0.00174597  1
  Ag  Ag41  1  0.51029466  0.66762225  0.83229477  1
  Ag  Ag42  1  0.66753892  0.16026952  0.84025851  1
  Ag  Ag43  1  0.67257174  0.00449135  -0.00391908  1
  Ag  Ag44  1  -0.00246212  0.83415760  0.17143769  1
  Ag  Ag45  1  0.49501980  0.67322790  0.49942485  1
  Ag  Ag46  1  -0.00472610  -0.00123399  0.33493381  1
  Ag  Ag47  1  -0.00067267  0.33628984  0.66045482  1
  Ag  Ag48  1  0.83211484  0.67434070  0.83639042  1
  Ag  Ag49  1  0.50133791  0.50285262  0.33311584  1
  Ag  Ag50  1  0.15661482  0.49722816  0.33392224  1
  Ag  Ag51  1  0.67223403  0.67276309  0.67286634  1
  Ag  Ag52  1  0.32065238  0.66994374  0.33845589  1
  Ag  Ag53  1  0.16182997  0.33650028  0.49464802  1
  Sb  Sb54  1  0.67506692  0.66946279  -0.00740595  1
  Sb  Sb55  1  0.83558077  0.16409676  0.66826054  1
  Sb  Sb56  1  0.33919202  0.00124338  0.00567504  1
  Sb  Sb57  1  0.83950087  0.66830523  0.50213994  1
  Sb  Sb58  1  0.50285201  0.83384561  0.66807612  1
  Sb  Sb59  1  0.67476143  0.33154847  0.66971689  1
  Sb  Sb60  1  0.50704450  -0.00344446  0.83655059  1
  Sb  Sb61  1  0.50222547  0.33621721  0.83525268  1
  Sb  Sb62  1  0.16216332  0.66582798  0.83067517  1
  Sb  Sb63  1  0.67134206  0.83457360  0.50270358  1
  Sb  Sb64  1  -0.00445648  0.16164188  0.83997685  1
  Sb  Sb65  1  0.16067478  0.83334224  0.66514463  1
  Sb  Sb66  1  0.50560427  0.50117623  0.00256540  1
  Sb  Sb67  1  0.32856072  0.83894128  0.17263513  1
  Sb  Sb68  1  0.32802356  0.66783117  0.00319016  1
  Sb  Sb69  1  0.32769515  0.49556643  0.16671232  1
  Sb  Sb70  1  0.00485480  0.16541344  0.48924793  1
  Sb  Sb71  1  0.67317423  0.66757437  0.33994658  1
  Sb  Sb72  1  0.32771168  0.33097202  0.33234444  1
  Sb  Sb73  1  0.67422843  0.83712780  0.16106805  1
  Sb  Sb74  1  0.33172318  0.66707899  0.66244694  1
  Sb  Sb75  1  0.67204304  0.16372736  0.16224654  1
  Sb  Sb76  1  0.15808996  0.83370347  0.33314632  1
  Sb  Sb77  1  0.33410064  0.83421463  0.83171680  1
  Sb  Sb78  1  0.32745420  0.50199718  0.49886246  1
  Sb  Sb79  1  0.50398177  0.83451403  0.33117617  1
  Sb  Sb80  1  0.15586111  0.33291765  0.17144603  1
  Sb  Sb81  1  0.50147450  0.16472705  0.32734763  1
  Sb  Sb82  1  0.83424486  0.33309443  0.84422839  1
  Sb  Sb83  1  0.15939115  0.00000666  0.82995302  1
  Sb  Sb84  1  0.83635997  -0.00045072  0.49490070  1
  Sb  Sb85  1  -0.00356394  0.50501266  0.83778659  1
  Sb  Sb86  1  0.16222562  0.66726352  0.17267467  1
  Sb  Sb87  1  0.16468723  0.16582026  0.65805663  1
  Sb  Sb88  1  0.16071602  0.16598859  0.00659640  1
  Sb  Sb89  1  0.50812610  0.32697132  0.16652531  1
  Sb  Sb90  1  -0.00772093  -0.00462127  0.00527676  1
  Sb  Sb91  1  0.83609367  0.83423990  0.67071015  1
  Sb  Sb92  1  0.32731275  0.33269443  0.66520049  1
  Sb  Sb93  1  0.83757870  0.66936810  0.16256889  1
  Sb  Sb94  1  0.84177065  0.33373045  0.48821137  1
  Sb  Sb95  1  0.67200165  0.50137171  0.50039826  1
  Sb  Sb96  1  0.49849100  0.67257151  0.16703971  1
  Sb  Sb97  1  0.50110332  0.50313639  0.66330583  1
  Sb  Sb98  1  0.83587174  0.50121199  0.67014892  1
  Sb  Sb99  1  0.49486764  0.33225579  0.49433960  1
  Sb  Sb100  1  0.66114482  0.16318309  0.50118407  1
  Sb  Sb101  1  0.33314702  0.00051228  0.65942718  1
  Sb  Sb102  1  0.15998882  0.00038524  0.17286157  1
  Sb  Sb103  1  0.33066241  0.33179458  0.00062535  1
  Sb  Sb104  1  0.16246665  0.50115026  0.66430794  1
  Sb  Sb105  1  0.50033331  0.16311443  0.67188818  1
  Sb  Sb106  1  0.16357751  0.33438623  0.83181159  1
  Sb  Sb107  1  0.67489116  0.49841379  0.16436750  1
  Te  Te108  1  0.16760657  0.16672841  0.17346884  1
  Te  Te109  1  0.17109338  0.16107865  0.49359691  1
  Te  Te110  1  0.17037156  0.16670232  0.83408489  1
  Te  Te111  1  0.16143900  0.49934466  0.16626480  1
  Te  Te112  1  0.16365733  0.50149858  0.49678049  1
  Te  Te113  1  0.17104652  0.49946188  0.83816214  1
  Te  Te114  1  0.16123029  0.83354936  0.15720942  1
  Te  Te115  1  0.16476799  0.83333498  0.49935628  1
  Te  Te116  1  0.16566543  0.83354977  0.83915482  1
  Te  Te117  1  0.49473330  0.16122514  0.16078769  1
  Te  Te118  1  0.49164615  0.16421892  0.50133209  1
  Te  Te119  1  0.50126171  0.16653227  0.83916795  1
  Te  Te120  1  0.49824480  0.50022952  0.17121801  1
  Te  Te121  1  0.49903317  0.50248552  0.49550392  1
  Te  Te122  1  0.50286941  0.50475062  0.83400904  1
  Te  Te123  1  0.49774706  0.84022835  0.16096966  1
  Te  Te124  1  0.50193935  0.83291465  0.49933072  1
  Te  Te125  1  0.49929301  0.82907617  0.83732242  1
  Te  Te126  1  0.83430058  0.16487454  0.16656147  1
  Te  Te127  1  0.83089883  0.16699182  0.49399929  1
  Te  Te128  1  0.82979775  0.16153454  0.83787498  1
  Te  Te129  1  0.83791201  0.50329088  0.16566030  1
  Te  Te130  1  0.83997854  0.50084231  0.49530654  1
  Te  Te131  1  0.82902129  0.50223638  0.83799548  1
  Te  Te132  1  0.83762876  0.83625164  0.16530848  1
  Te  Te133  1  0.84002163  0.83263332  0.48974107  1
  Te  Te134  1  0.83445926  0.83455541  0.83367825  1
  Te  Te135  1  0.16854054  -0.00394838  -0.00099342  1
  Te  Te136  1  0.17044343  0.00011880  0.33556819  1
  Te  Te137  1  0.16097722  -0.00029917  0.65955510  1
  Te  Te138  1  0.16022032  0.33859405  -0.00020478  1
  Te  Te139  1  0.16298284  0.33380601  0.33636576  1
  Te  Te140  1  0.15885738  0.33347783  0.65859041  1
  Te  Te141  1  0.16201884  0.66534345  -0.00111173  1
  Te  Te142  1  0.16313692  0.66666285  0.33769728  1
  Te  Te143  1  0.16046479  0.66684306  0.65861490  1
  Te  Te144  1  0.50448313  0.00044285  0.00174190  1
  Te  Te145  1  0.49719052  0.00012584  0.33236718  1
  Te  Te146  1  0.50540019  -0.00078184  0.66004492  1
  Te  Te147  1  0.50564343  0.32848804  0.00122008  1
  Te  Te148  1  0.50370682  0.33835016  0.33174574  1
  Te  Te149  1  0.50228415  0.33339757  0.66424120  1
  Te  Te150  1  0.49806516  0.66968616  -0.00276013  1
  Te  Te151  1  0.50463845  0.66619677  0.33579041  1
  Te  Te152  1  0.50174907  0.66729206  0.66742234  1
  Te  Te153  1  0.83197754  -0.00065371  0.00303804  1
  Te  Te154  1  0.83407359  0.00199872  0.33224584  1
  Te  Te155  1  0.83174344  0.00028068  0.66635387  1
  Te  Te156  1  0.83458088  0.33471812  0.00359721  1
  Te  Te157  1  0.83634479  0.33485021  0.32880900  1
  Te  Te158  1  0.84017096  0.33252343  0.66475179  1
  Te  Te159  1  0.83774850  0.66826303  -0.00388923  1
  Te  Te160  1  0.83885519  0.66131279  0.33406920  1
  Te  Te161  1  0.83373131  0.66694306  0.67263987  1
  Te  Te162  1  -0.00384718  0.17071406  0.00573899  1
  Te  Te163  1  0.00049545  0.15983036  0.32936731  1
  Te  Te164  1  0.00014852  0.16275818  0.66958039  1
  Te  Te165  1  -0.00413677  0.50136591  -0.00231766  1
  Te  Te166  1  0.00147673  0.50117644  0.33231108  1
  Te  Te167  1  -0.00016927  0.50236862  0.66603711  1
  Te  Te168  1  -0.00687482  0.83400400  0.00117050  1
  Te  Te169  1  -0.00108843  0.83894632  0.33133856  1
  Te  Te170  1  -0.00017866  0.83280218  0.65871305  1
  Te  Te171  1  0.32874088  0.16755100  -0.00217363  1
  Te  Te172  1  0.33546350  0.16508036  0.33181481  1
  Te  Te173  1  0.33238145  0.16750719  0.67557538  1
  Te  Te174  1  0.33494860  0.49955795  -0.00248165  1
  Te  Te175  1  0.33345543  0.50254208  0.33253980  1
  Te  Te176  1  0.33316170  0.49942604  0.67668661  1
  Te  Te177  1  0.33926564  0.83296625  0.00154789  1
  Te  Te178  1  0.33540746  0.83295960  0.33670737  1
  Te  Te179  1  0.33202020  0.83342158  0.65766931  1
  Te  Te180  1  0.67143958  0.16538068  -0.00068998  1
  Te  Te181  1  0.66841961  0.16687967  0.33487907  1
  Te  Te182  1  0.66757809  0.16215656  0.67370271  1
  Te  Te183  1  0.67088886  0.49877412  -0.00360914  1
  Te  Te184  1  0.66639307  0.49812634  0.33392738  1
  Te  Te185  1  0.66805422  0.50071941  0.67293146  1
  Te  Te186  1  0.66918978  0.83462436  -0.00411473  1
  Te  Te187  1  0.67475870  0.83754508  0.33313113  1
  Te  Te188  1  0.66846008  0.83474642  0.67207943  1
  Te  Te189  1  -0.00430661  0.00104883  0.17032158  1
  Te  Te190  1  0.00103478  0.00010933  0.49860523  1
  Te  Te191  1  -0.00526365  -0.00524959  0.82937075  1
  Te  Te192  1  -0.00414269  0.33449059  0.16987908  1
  Te  Te193  1  0.00382887  0.33143891  0.49621827  1
  Te  Te194  1  -0.00035052  0.33184662  0.82538948  1
  Te  Te195  1  0.00074281  0.66845287  0.16507359  1
  Te  Te196  1  0.00016267  0.66751961  0.49932803  1
  Te  Te197  1  -0.00221413  0.67119717  0.83258569  1
  Te  Te198  1  0.33218340  0.00377181  0.17288616  1
  Te  Te199  1  0.33374177  -0.00159459  0.49862398  1
  Te  Te200  1  0.33361732  0.00270764  0.83075402  1
  Te  Te201  1  0.33601913  0.32508274  0.16609069  1
  Te  Te202  1  0.32580633  0.32979267  0.50068343  1
  Te  Te203  1  0.33359206  0.33279224  0.83249058  1
  Te  Te204  1  0.33292287  0.66544430  0.17726208  1
  Te  Te205  1  0.33533259  0.66660082  0.49733813  1
  Te  Te206  1  0.33413937  0.66544015  0.83201061  1
  Te  Te207  1  0.66831363  -0.00110251  0.17000431  1
  Te  Te208  1  0.66154018  -0.00071197  0.49439924  1
  Te  Te209  1  0.66826737  -0.00239409  0.83584461  1
  Te  Te210  1  0.67443541  0.33375895  0.16752718  1
  Te  Te211  1  0.66497419  0.33315401  0.49718537  1
  Te  Te212  1  0.66761656  0.32798340  0.83605727  1
  Te  Te213  1  0.66459354  0.66754431  0.16799345  1
  Te  Te214  1  0.66023764  0.66636232  0.50894092  1
  Te  Te215  1  0.66913757  0.66966563  0.83142888  1
