# generated using pymatgen
data_AgSbTe2
_symmetry_space_group_name_H-M   'P 1'
_cell_length_a   18.35092695
_cell_length_b   18.35029835
_cell_length_c   18.34337438
_cell_angle_alpha   90.00130705
_cell_angle_beta   90.00193601
_cell_angle_gamma   89.99949269
_symmetry_Int_Tables_number   1
_chemical_formula_structural   AgSbTe2
_chemical_formula_sum   'Ag54 Sb54 Te108'
_cell_volume   6177.03931501
_cell_formula_units_Z   54
loop_
 _symmetry_equiv_pos_site_id
 _symmetry_equiv_pos_as_xyz
  1  'x, y, z'
loop_
 _atom_site_type_symbol
 _atom_site_label
 _atom_site_symmetry_multiplicity
 _atom_site_fract_x
 _atom_site_fract_y
 _atom_site_fract_z
 _atom_site_occupancy
  Ag  Ag0  1  0.16855031  0.17536422  0.00658520  1
  Ag  Ag1  1  0.34343583  0.49913419  0.15967025  1
  Ag  Ag2  1  0.17064855  0.00160175  0.83835640  1
  Ag  Ag3  1  -0.00761699  0.33550200  0.33190428  1
  Ag  Ag4  1  0.66438650  0.66007693  0.66278063  1
  Ag  Ag5  1  0.50349570  0.83618700  0.00339168  1
  Ag  Ag6  1  0.66887798  0.34208415  0.66860270  1
  Ag  Ag7  1  0.83277443  0.00470097  0.48996408  1
  Ag  Ag8  1  0.50246773  0.83663654  0.33159737  1
  Ag  Ag9  1  0.49732080  0.49117473  0.00176652  1
  Ag  Ag10  1  0.34016990  0.33781939  0.00469716  1
  Ag  Ag11  1  0.50153347  0.65867872  0.49905676  1
  Ag  Ag12  1  0.16884264  0.49380222  0.33503350  1
  Ag  Ag13  1  0.33923330  0.50016701  0.84533714  1
  Ag  Ag14  1  -0.00560445  0.83605167  0.16829922  1
  Ag  Ag15  1  0.50446963  -0.00018889  0.16495255  1
  Ag  Ag16  1  0.33563651  0.00738785  0.32903508  1
  Ag  Ag17  1  0.82164045  0.49717060  0.33621998  1
  Ag  Ag18  1  0.82822323  0.33745662  0.84099546  1
  Ag  Ag19  1  0.50751097  0.17115879  0.00690796  1
  Ag  Ag20  1  0.66760759  0.17920989  0.84707322  1
  Ag  Ag21  1  0.16894371  0.50278338  0.66505359  1
  Ag  Ag22  1  0.33865589  0.49902567  0.49801073  1
  Ag  Ag23  1  0.17313918  0.17642722  0.32737924  1
  Ag  Ag24  1  0.82894347  0.82534762  0.66581571  1
  Ag  Ag25  1  -0.00328716  0.17781356  0.49520561  1
  Ag  Ag26  1  0.34258526  0.66306637  0.67074707  1
  Ag  Ag27  1  0.67004752  0.49832374  0.83700978  1
  Ag  Ag28  1  0.82969736  0.83004081  0.33165685  1
  Ag  Ag29  1  0.82938825  0.33592057  0.49935243  1
  Ag  Ag30  1  0.66641823  0.49500578  0.16199535  1
  Ag  Ag31  1  0.66526277  0.65388955  0.33856683  1
  Ag  Ag32  1  0.33817173  0.65319776  -0.00558499  1
  Ag  Ag33  1  0.51035090  0.34090530  0.49530429  1
  Ag  Ag34  1  0.66710816  0.49717138  0.49872206  1
  Ag  Ag35  1  0.50550278  0.82858839  0.66205663  1
  Ag  Ag36  1  0.18053979  0.49283225  0.00040693  1
  Ag  Ag37  1  -0.01541336  0.33474966  0.00612662  1
  Ag  Ag38  1  0.82713620  0.49301988  -0.00675135  1
  Ag  Ag39  1  0.16909155  0.83244751  0.33561538  1
  Ag  Ag40  1  -0.01350548  0.49672284  0.49621972  1
  Ag  Ag41  1  0.66602711  0.33126620  -0.00186992  1
  Ag  Ag42  1  0.33539352  0.33664364  0.33094085  1
  Ag  Ag43  1  0.66126696  0.01455526  0.00224334  1
  Ag  Ag44  1  0.49795658  0.16944574  0.32833774  1
  Ag  Ag45  1  0.16586443  0.82449559  0.66232459  1
  Ag  Ag46  1  0.82567886  0.83446052  0.00436944  1
  Ag  Ag47  1  0.66654381  0.17490747  0.16310008  1
  Ag  Ag48  1  0.82608387  -0.00382172  0.16624025  1
  Ag  Ag49  1  0.82138138  0.17537295  0.00035858  1
  Ag  Ag50  1  0.34327446  0.00330763  0.00761286  1
  Ag  Ag51  1  0.82884378  0.65544088  0.83470982  1
  Ag  Ag52  1  0.66873535  0.33684543  0.33382172  1
  Ag  Ag53  1  0.82225896  0.50208816  0.66637977  1
  Sb  Sb54  1  0.50235977  0.49666550  0.33244956  1
  Sb  Sb55  1  -0.00297329  0.16908109  0.83370634  1
  Sb  Sb56  1  0.82934260  0.33343614  0.16568568  1
  Sb  Sb57  1  0.66741122  0.82944706  0.83419289  1
  Sb  Sb58  1  0.66746106  0.82927623  0.49879222  1
  Sb  Sb59  1  0.50749528  0.33574692  0.83461870  1
  Sb  Sb60  1  0.16845323  0.83265294  0.00183083  1
  Sb  Sb61  1  0.50305525  0.33011370  0.16896933  1
  Sb  Sb62  1  -0.00307929  0.83061238  0.49641226  1
  Sb  Sb63  1  0.16837315  0.33458478  0.16687616  1
  Sb  Sb64  1  0.33673867  0.17228933  0.83965318  1
  Sb  Sb65  1  0.83239511  0.00197213  0.83797714  1
  Sb  Sb66  1  0.16569287  0.66633065  0.83320688  1
  Sb  Sb67  1  0.33918901  0.17144877  0.16619549  1
  Sb  Sb68  1  0.66738527  -0.00133384  0.67046564  1
  Sb  Sb69  1  -0.00249889  0.00373289  0.00159197  1
  Sb  Sb70  1  0.16926516  0.00022382  0.16513576  1
  Sb  Sb71  1  0.50198833  0.16496655  0.66643837  1
  Sb  Sb72  1  0.50475821  0.00028351  0.49343147  1
  Sb  Sb73  1  -0.00139707  -0.00098843  0.66537205  1
  Sb  Sb74  1  0.83073935  0.17033468  0.66809005  1
  Sb  Sb75  1  -0.00469826  0.66181196  0.33386917  1
  Sb  Sb76  1  -0.00112854  0.83455657  0.83665245  1
  Sb  Sb77  1  0.50421802  0.50383248  0.66524710  1
  Sb  Sb78  1  0.50352989  0.66370166  0.83121010  1
  Sb  Sb79  1  0.16647591  0.16962371  0.66534074  1
  Sb  Sb80  1  0.66411559  0.65915124  0.00026788  1
  Sb  Sb81  1  0.50174596  0.66790032  0.16878708  1
  Sb  Sb82  1  0.16856448  0.66441050  0.16704555  1
  Sb  Sb83  1  -0.00329168  0.50009442  0.16985201  1
  Sb  Sb84  1  0.33105933  0.17213901  0.49457490  1
  Sb  Sb85  1  0.00233341  0.00346075  0.33282288  1
  Sb  Sb86  1  0.66811784  0.83293469  0.16597092  1
  Sb  Sb87  1  -0.00438504  0.49794484  0.83146520  1
  Sb  Sb88  1  0.66865288  0.17455624  0.49564820  1
  Sb  Sb89  1  0.33357301  -0.00800908  0.66670650  1
  Sb  Sb90  1  0.17343184  0.66172226  0.50087032  1
  Sb  Sb91  1  -0.00045454  0.66148726  0.00042552  1
  Sb  Sb92  1  0.16334231  0.33329972  0.83858689  1
  Sb  Sb93  1  0.83017423  0.66837984  0.16427789  1
  Sb  Sb94  1  0.33809938  0.34135369  0.66648578  1
  Sb  Sb95  1  0.83164584  0.16917869  0.32936703  1
  Sb  Sb96  1  0.33475969  0.83001241  0.49933979  1
  Sb  Sb97  1  0.33248660  0.83120847  0.16655358  1
  Sb  Sb98  1  -0.00578976  0.16429138  0.16731198  1
  Sb  Sb99  1  0.66415642  0.00401324  0.32866511  1
  Sb  Sb100  1  0.16351014  0.33839231  0.49661394  1
  Sb  Sb101  1  -0.00577385  0.33707646  0.66309998  1
  Sb  Sb102  1  0.16448627  -0.00037059  0.49894923  1
  Sb  Sb103  1  0.33822184  0.66268747  0.33280267  1
  Sb  Sb104  1  0.49715531  0.00005743  0.84245464  1
  Sb  Sb105  1  0.82739249  0.65991756  0.50227542  1
  Sb  Sb106  1  -0.00376522  0.66421539  0.66613707  1
  Sb  Sb107  1  0.33414147  0.82953450  0.83484168  1
  Te  Te108  1  0.16486740  0.16385683  0.16869772  1
  Te  Te109  1  0.16163015  0.16644260  0.49666142  1
  Te  Te110  1  0.16771968  0.16321430  0.83382765  1
  Te  Te111  1  0.16501305  0.50082116  0.16653943  1
  Te  Te112  1  0.17310286  0.50027383  0.49709111  1
  Te  Te113  1  0.16633685  0.50108185  0.83530016  1
  Te  Te114  1  0.16323311  0.83394057  0.17337810  1
  Te  Te115  1  0.16529895  0.83322660  0.50043113  1
  Te  Te116  1  0.16614362  0.83560081  0.82828196  1
  Te  Te117  1  0.50289466  0.16211465  0.16670209  1
  Te  Te118  1  0.49920522  0.16917978  0.49489376  1
  Te  Te119  1  0.50639889  0.16742743  0.83651314  1
  Te  Te120  1  0.50213993  0.50219367  0.16110191  1
  Te  Te121  1  0.50363760  0.49952933  0.49895709  1
  Te  Te122  1  0.49932111  0.50095855  0.83954610  1
  Te  Te123  1  0.49967505  0.83758430  0.16758691  1
  Te  Te124  1  0.50074083  0.83254182  0.49872763  1
  Te  Te125  1  0.49981620  0.83280544  0.83370898  1
  Te  Te126  1  0.82854234  0.15966586  0.16061821  1
  Te  Te127  1  0.83598647  0.16745612  0.49958539  1
  Te  Te128  1  0.82914856  0.17004149  0.83745826  1
  Te  Te129  1  0.83019269  0.50138174  0.17264768  1
  Te  Te130  1  0.82915026  0.49961377  0.49862113  1
  Te  Te131  1  0.83327768  0.49746559  0.83206703  1
  Te  Te132  1  0.83275740  0.83470277  0.16777232  1
  Te  Te133  1  0.83433235  0.83591159  0.49893743  1
  Te  Te134  1  0.83421595  0.83402799  0.82929843  1
  Te  Te135  1  0.16498642  -0.00021703  -0.00116111  1
  Te  Te136  1  0.17189149  -0.00380597  0.33304605  1
  Te  Te137  1  0.16709587  -0.00065287  0.66929189  1
  Te  Te138  1  0.17713044  0.33538055  -0.00022971  1
  Te  Te139  1  0.17255278  0.33402259  0.33407867  1
  Te  Te140  1  0.16696285  0.33909126  0.66878084  1
  Te  Te141  1  0.17157332  0.66160358  -0.00002675  1
  Te  Te142  1  0.16742810  0.66937112  0.33353970  1
  Te  Te143  1  0.16765587  0.66440514  0.66686946  1
  Te  Te144  1  0.50196638  -0.00021977  0.00265771  1
  Te  Te145  1  0.49742130  -0.00125806  0.33016692  1
  Te  Te146  1  0.49963975  -0.00875309  0.66539073  1
  Te  Te147  1  0.50095200  0.33162821  -0.00003689  1
  Te  Te148  1  0.49854923  0.33084287  0.33418792  1
  Te  Te149  1  0.50776851  0.32958668  0.65882850  1
  Te  Te150  1  0.49605880  0.67385775  -0.00071090  1
  Te  Te151  1  0.50356179  0.67388832  0.33716996  1
  Te  Te152  1  0.50207626  0.66972514  0.66533050  1
  Te  Te153  1  0.83338624  -0.00675591  0.00142399  1
  Te  Te154  1  0.83379262  0.00071231  0.33175699  1
  Te  Te155  1  0.83275029  -0.00520101  0.66748225  1
  Te  Te156  1  0.82962142  0.33363179  0.00224684  1
  Te  Te157  1  0.83249249  0.33501842  0.33409850  1
  Te  Te158  1  0.82879952  0.33670036  0.66258207  1
  Te  Te159  1  0.83376254  0.67179005  -0.00438507  1
  Te  Te160  1  0.82726210  0.66806211  0.33366064  1
  Te  Te161  1  0.82991701  0.66403585  0.66745616  1
  Te  Te162  1  0.00917780  0.17378064  -0.00023960  1
  Te  Te163  1  0.00087135  0.17234606  0.33474021  1
  Te  Te164  1  -0.00019970  0.16807126  0.65905282  1
  Te  Te165  1  -0.00778381  0.49502910  0.00135671  1
  Te  Te166  1  0.00601186  0.49651623  0.33490207  1
  Te  Te167  1  0.00741353  0.49873897  0.66079733  1
  Te  Te168  1  -0.00156388  0.83143344  0.00487918  1
  Te  Te169  1  -0.00334001  0.83239828  0.33137853  1
  Te  Te170  1  0.00244435  0.83169997  0.66601590  1
  Te  Te171  1  0.32842546  0.16274376  0.00104026  1
  Te  Te172  1  0.33321181  0.16820537  0.33174078  1
  Te  Te173  1  0.33355819  0.16637862  0.66826212  1
  Te  Te174  1  0.33592460  0.49697437  0.00208462  1
  Te  Te175  1  0.33318253  0.49853219  0.33650656  1
  Te  Te176  1  0.33384880  0.50361374  0.65860203  1
  Te  Te177  1  0.33614485  0.84441038  0.00005118  1
  Te  Te178  1  0.33350349  0.83092679  0.33297632  1
  Te  Te179  1  0.33060739  0.82614884  0.66732885  1
  Te  Te180  1  0.66592273  0.16902164  0.00279326  1
  Te  Te181  1  0.66221429  0.17088861  0.32814973  1
  Te  Te182  1  0.66613021  0.16848493  0.67044447  1
  Te  Te183  1  0.66675452  0.49974580  -0.00071212  1
  Te  Te184  1  0.66422137  0.49783741  0.33476647  1
  Te  Te185  1  0.66523170  0.49921283  0.66734548  1
  Te  Te186  1  0.66573010  0.82603915  0.00050184  1
  Te  Te187  1  0.66818488  0.83699514  0.33272068  1
  Te  Te188  1  0.66753825  0.83021955  0.66654177  1
  Te  Te189  1  -0.00610285  -0.00427982  0.16731662  1
  Te  Te190  1  -0.00695383  0.00029512  0.49992063  1
  Te  Te191  1  0.00987810  0.00145233  0.83294968  1
  Te  Te192  1  0.00043098  0.33261303  0.16883319  1
  Te  Te193  1  -0.00328403  0.33605607  0.49632984  1
  Te  Te194  1  -0.00734910  0.33140907  0.84061552  1
  Te  Te195  1  0.00079077  0.67704831  0.16684388  1
  Te  Te196  1  0.00236790  0.65740576  0.49935584  1
  Te  Te197  1  -0.00989125  0.66844909  0.83335625  1
  Te  Te198  1  0.33736519  -0.00061131  0.16967018  1
  Te  Te199  1  0.33413862  0.00199044  0.49414651  1
  Te  Te200  1  0.32887189  0.00171558  0.83357408  1
  Te  Te201  1  0.33341160  0.33905675  0.16674104  1
  Te  Te202  1  0.33570588  0.33762532  0.49918914  1
  Te  Te203  1  0.33225353  0.34110208  0.83447981  1
  Te  Te204  1  0.33472528  0.65993255  0.15912551  1
  Te  Te205  1  0.34020562  0.66359279  0.50332685  1
  Te  Te206  1  0.33056885  0.66018590  0.83284684  1
  Te  Te207  1  0.66592754  -0.00219940  0.16275794  1
  Te  Te208  1  0.67374859  0.00261885  0.50280305  1
  Te  Te209  1  0.66642664  0.00027001  0.84070902  1
  Te  Te210  1  0.66634621  0.33420796  0.16735386  1
  Te  Te211  1  0.66812863  0.33431981  0.49639530  1
  Te  Te212  1  0.66800836  0.33671677  0.83500874  1
  Te  Te213  1  0.66636619  0.65768650  0.17504923  1
  Te  Te214  1  0.66230399  0.66401134  0.50037767  1
  Te  Te215  1  0.67046164  0.66247827  0.82913236  1
