# generated using pymatgen
data_AgSbTe2
_symmetry_space_group_name_H-M   'P 1'
_cell_length_a   18.32713842
_cell_length_b   18.32227197
_cell_length_c   18.31900886
_cell_angle_alpha   89.99685142
_cell_angle_beta   89.99772231
_cell_angle_gamma   89.99970947
_symmetry_Int_Tables_number   1
_chemical_formula_structural   AgSbTe2
_chemical_formula_sum   'Ag54 Sb54 Te108'
_cell_volume   6151.42817082
_cell_formula_units_Z   54
loop_
 _symmetry_equiv_pos_site_id
 _symmetry_equiv_pos_as_xyz
  1  'x, y, z'
loop_
 _atom_site_type_symbol
 _atom_site_label
 _atom_site_symmetry_multiplicity
 _atom_site_fract_x
 _atom_site_fract_y
 _atom_site_fract_z
 _atom_site_occupancy
  Ag  Ag0  1  0.66931270  -0.00280569  0.66233453  1
  Ag  Ag1  1  0.66722211  0.83293136  0.82653169  1
  Ag  Ag2  1  0.66818096  0.49605764  0.49605702  1
  Ag  Ag3  1  0.50250060  0.17007370  0.33551465  1
  Ag  Ag4  1  0.83350262  0.16792827  -0.00059630  1
  Ag  Ag5  1  0.33501934  0.66833602  0.33598088  1
  Ag  Ag6  1  0.33700252  0.33465344  0.66395978  1
  Ag  Ag7  1  0.33114627  0.49599379  0.49901994  1
  Ag  Ag8  1  0.49850731  0.33727116  0.83280825  1
  Ag  Ag9  1  0.16361589  0.66099050  0.82383034  1
  Ag  Ag10  1  0.00044109  0.49888957  0.49691390  1
  Ag  Ag11  1  0.83079755  0.33265693  0.49709488  1
  Ag  Ag12  1  0.00060260  0.33592378  0.01354443  1
  Ag  Ag13  1  0.67028039  0.67105241  0.66395208  1
  Ag  Ag14  1  -0.00180983  0.49192740  0.17096115  1
  Ag  Ag15  1  0.66303408  0.65611982  0.34112340  1
  Ag  Ag16  1  0.67252362  0.17687125  0.17722386  1
  Ag  Ag17  1  0.16487708  0.50033829  -0.00670624  1
  Ag  Ag18  1  0.16535641  0.82743125  0.00488815  1
  Ag  Ag19  1  0.16533360  0.34202001  0.83451170  1
  Ag  Ag20  1  0.82369239  0.00768375  0.50270836  1
  Ag  Ag21  1  0.50352134  0.33655068  0.16948733  1
  Ag  Ag22  1  0.66591182  0.33440206  0.66316983  1
  Ag  Ag23  1  0.00035142  0.33245604  0.32670346  1
  Ag  Ag24  1  0.16620530  0.16092309  0.33545134  1
  Ag  Ag25  1  0.82814707  -0.00413799  0.82102193  1
  Ag  Ag26  1  0.49717936  0.49691928  0.00125863  1
  Ag  Ag27  1  0.66687626  0.16370945  0.49681499  1
  Ag  Ag28  1  0.16288701  0.50373055  0.66824600  1
  Ag  Ag29  1  0.83997852  0.33319221  0.17411260  1
  Ag  Ag30  1  0.66661166  0.00223152  0.34434907  1
  Ag  Ag31  1  0.00258946  0.00660593  0.33491896  1
  Ag  Ag32  1  0.83031748  0.16238148  0.66452154  1
  Ag  Ag33  1  0.16776594  0.83727613  0.33432407  1
  Ag  Ag34  1  0.50737085  -0.00432702  0.82441765  1
  Ag  Ag35  1  0.16613344  0.82274186  0.66314086  1
  Ag  Ag36  1  0.00465180  0.50087599  0.83051169  1
  Ag  Ag37  1  0.32478301  0.83311831  0.17281168  1
  Ag  Ag38  1  0.50196828  0.66368283  0.82878383  1
  Ag  Ag39  1  0.82477150  0.83599010  0.66819609  1
  Ag  Ag40  1  0.16664428  -0.00405605  0.49591241  1
  Ag  Ag41  1  0.00457388  0.83259504  0.16928326  1
  Ag  Ag42  1  0.00239389  0.66527678  0.66812102  1
  Ag  Ag43  1  0.33865428  0.16877187  0.49662665  1
  Ag  Ag44  1  0.82811413  0.49911469  0.33596336  1
  Ag  Ag45  1  0.66947206  0.49204062  0.17674699  1
  Ag  Ag46  1  0.16663675  0.66553829  0.50386290  1
  Ag  Ag47  1  0.15411085  0.33633853  0.16568385  1
  Ag  Ag48  1  0.32777972  -0.00191972  0.33788716  1
  Ag  Ag49  1  0.50930528  0.49481349  0.33284587  1
  Ag  Ag50  1  -0.00583972  0.17974564  0.17159464  1
  Ag  Ag51  1  0.83280150  0.66933600  0.82697351  1
  Ag  Ag52  1  0.50926305  0.83495550  0.66911895  1
  Ag  Ag53  1  0.50796298  0.00327275  0.50033710  1
  Sb  Sb54  1  0.50206708  0.00445924  0.17346134  1
  Sb  Sb55  1  0.83393609  0.00711819  0.17251427  1
  Sb  Sb56  1  0.32873846  0.33471931  -0.00264659  1
  Sb  Sb57  1  0.50063298  0.66120086  0.16603710  1
  Sb  Sb58  1  0.16180406  0.17076438  0.00751114  1
  Sb  Sb59  1  0.67033423  0.33392528  0.00062448  1
  Sb  Sb60  1  0.32817771  0.49986094  0.82658736  1
  Sb  Sb61  1  0.83427653  0.66016318  0.16504344  1
  Sb  Sb62  1  0.49688550  0.83457765  0.33832747  1
  Sb  Sb63  1  0.00204047  0.65989423  -0.00499079  1
  Sb  Sb64  1  0.49623278  0.82857037  -0.00641866  1
  Sb  Sb65  1  0.83872887  0.83823555  -0.00535633  1
  Sb  Sb66  1  0.83637247  0.83150628  0.33851916  1
  Sb  Sb67  1  -0.00211183  0.82827225  0.83324826  1
  Sb  Sb68  1  0.16545588  0.66470067  0.16998000  1
  Sb  Sb69  1  0.33300512  -0.00197012  0.00591639  1
  Sb  Sb70  1  0.00113851  0.66300121  0.33787335  1
  Sb  Sb71  1  0.66757808  0.00149769  -0.00281829  1
  Sb  Sb72  1  0.16294335  0.33618123  0.49919458  1
  Sb  Sb73  1  0.33502378  0.83209664  0.83322657  1
  Sb  Sb74  1  0.33168208  0.16551678  0.17650338  1
  Sb  Sb75  1  -0.00762196  -0.00703051  0.65905727  1
  Sb  Sb76  1  0.66849050  0.50304535  0.83010848  1
  Sb  Sb77  1  0.83188051  0.17163340  0.33581419  1
  Sb  Sb78  1  0.83391352  0.33509839  0.83105232  1
  Sb  Sb79  1  0.49822087  0.66880667  0.50239721  1
  Sb  Sb80  1  0.83461292  0.66498527  0.50507440  1
  Sb  Sb81  1  0.33208357  0.50110155  0.17366695  1
  Sb  Sb82  1  0.16512499  0.50043398  0.33569338  1
  Sb  Sb83  1  0.16463696  0.00009136  0.17531229  1
  Sb  Sb84  1  0.33123745  0.66485362  0.00304680  1
  Sb  Sb85  1  0.16525043  -0.00319590  0.82449803  1
  Sb  Sb86  1  0.83582226  0.50159735  0.66180833  1
  Sb  Sb87  1  -0.00182333  0.33880560  0.66430821  1
  Sb  Sb88  1  0.33103266  0.66372320  0.66169881  1
  Sb  Sb89  1  0.33052536  0.83472255  0.49659813  1
  Sb  Sb90  1  0.66761670  0.83580295  0.50612171  1
  Sb  Sb91  1  -0.00138307  0.17222205  0.83690038  1
  Sb  Sb92  1  0.16185632  0.16908641  0.66046292  1
  Sb  Sb93  1  0.83575113  0.49519675  0.00395733  1
  Sb  Sb94  1  0.50534504  0.17234558  0.00487569  1
  Sb  Sb95  1  0.66852564  0.83253153  0.16748478  1
  Sb  Sb96  1  0.66649943  0.66397915  -0.00370668  1
  Sb  Sb97  1  0.33529241  0.16874509  0.82391737  1
  Sb  Sb98  1  0.00015800  0.00344003  0.00536483  1
  Sb  Sb99  1  0.00279324  0.83049189  0.49803702  1
  Sb  Sb100  1  0.33905305  0.00214049  0.65773854  1
  Sb  Sb101  1  0.49838785  0.50155813  0.66464729  1
  Sb  Sb102  1  -0.00395356  0.17029452  0.49462588  1
  Sb  Sb103  1  0.66773796  0.16417235  0.82825270  1
  Sb  Sb104  1  0.32990853  0.33277329  0.33820314  1
  Sb  Sb105  1  0.50559000  0.33080391  0.49842782  1
  Sb  Sb106  1  0.50660522  0.16461372  0.66047240  1
  Sb  Sb107  1  0.67237288  0.33404679  0.33646941  1
  Te  Te108  1  0.16351246  0.17101946  0.17275830  1
  Te  Te109  1  0.16661752  0.16546758  0.49518718  1
  Te  Te110  1  0.16703631  0.17058847  0.83363431  1
  Te  Te111  1  0.16419830  0.49719937  0.16440707  1
  Te  Te112  1  0.16503913  0.50146333  0.50196584  1
  Te  Te113  1  0.16644352  0.50030398  0.83251786  1
  Te  Te114  1  0.16560480  0.83264632  0.16909481  1
  Te  Te115  1  0.16652323  0.83146121  0.49885741  1
  Te  Te116  1  0.16681309  0.83031533  0.82892088  1
  Te  Te117  1  0.50278605  0.17165217  0.17247032  1
  Te  Te118  1  0.50239249  0.16446314  0.49565282  1
  Te  Te119  1  0.50034031  0.17120919  0.83517621  1
  Te  Te120  1  0.49979521  0.49714060  0.17009027  1
  Te  Te121  1  0.50207629  0.49999221  0.49592274  1
  Te  Te122  1  0.50000098  0.49894268  0.83431604  1
  Te  Te123  1  0.49847757  0.83395175  0.16336262  1
  Te  Te124  1  0.49801929  0.84028396  0.50725113  1
  Te  Te125  1  0.50185136  0.83316387  0.82994309  1
  Te  Te126  1  0.83284310  0.17109060  0.16763006  1
  Te  Te127  1  0.83008730  0.16787471  0.50202327  1
  Te  Te128  1  0.83288627  0.16456758  0.83187603  1
  Te  Te129  1  0.83392272  0.49536883  0.16927726  1
  Te  Te130  1  0.83221419  0.49909628  0.49675191  1
  Te  Te131  1  0.83815494  0.50454693  0.83462463  1
  Te  Te132  1  0.83818678  0.83314062  0.16420067  1
  Te  Te133  1  0.83565700  0.83878540  0.50714064  1
  Te  Te134  1  0.83151245  0.83322580  0.82967116  1
  Te  Te135  1  0.16702074  -0.00445715  -0.00424200  1
  Te  Te136  1  0.16561084  -0.00102923  0.33573949  1
  Te  Te137  1  0.16589856  -0.00074438  0.65969007  1
  Te  Te138  1  0.16278512  0.33570762  -0.00082435  1
  Te  Te139  1  0.16226427  0.33110073  0.33018764  1
  Te  Te140  1  0.16732648  0.33516809  0.66996350  1
  Te  Te141  1  0.16715849  0.66521117  -0.00470832  1
  Te  Te142  1  0.16883637  0.67074218  0.33794059  1
  Te  Te143  1  0.16895773  0.66406555  0.66474959  1
  Te  Te144  1  0.49940993  -0.00023340  -0.00694223  1
  Te  Te145  1  0.50400359  0.00218016  0.33742720  1
  Te  Te146  1  0.50406020  -0.00137297  0.66586396  1
  Te  Te147  1  0.49940538  0.33775432  -0.00293795  1
  Te  Te148  1  0.49712915  0.33420080  0.33153596  1
  Te  Te149  1  0.50138123  0.33274291  0.66856233  1
  Te  Te150  1  0.49891506  0.65938774  -0.00631374  1
  Te  Te151  1  0.50168980  0.66538247  0.33402671  1
  Te  Te152  1  0.50200933  0.67010428  0.66968406  1
  Te  Te153  1  0.83444299  0.00672131  -0.00384807  1
  Te  Te154  1  0.83213032  -0.00220633  0.33935940  1
  Te  Te155  1  0.83115785  -0.00221379  0.66407126  1
  Te  Te156  1  0.83841390  0.32863864  -0.00028184  1
  Te  Te157  1  0.83808770  0.33778083  0.33380899  1
  Te  Te158  1  0.82908731  0.33112688  0.66298086  1
  Te  Te159  1  0.83373991  0.66807350  -0.00947640  1
  Te  Te160  1  0.82711080  0.66239878  0.33397171  1
  Te  Te161  1  0.83068788  0.66884183  0.66896574  1
  Te  Te162  1  -0.00409622  0.17155021  0.00682796  1
  Te  Te163  1  0.00074123  0.16644456  0.33089576  1
  Te  Te164  1  -0.00727152  0.16536107  0.66728304  1
  Te  Te165  1  0.00269664  0.49600955  0.00407910  1
  Te  Te166  1  -0.00187550  0.49874987  0.33311770  1
  Te  Te167  1  0.00228031  0.50392291  0.66599698  1
  Te  Te168  1  0.00619978  0.83441541  0.00450741  1
  Te  Te169  1  0.00327267  0.83280934  0.33052123  1
  Te  Te170  1  0.00569411  0.82644083  0.66635553  1
  Te  Te171  1  0.33392170  0.16538485  0.00074932  1
  Te  Te172  1  0.33358348  0.16386239  0.33873441  1
  Te  Te173  1  0.33172831  0.17216383  0.65714119  1
  Te  Te174  1  0.33286427  0.49938704  0.00187826  1
  Te  Te175  1  0.33442066  0.50285512  0.33914832  1
  Te  Te176  1  0.32945861  0.49584323  0.65968297  1
  Te  Te177  1  0.32570339  0.83268422  0.00748992  1
  Te  Te178  1  0.33122817  0.83421196  0.33173276  1
  Te  Te179  1  0.32738910  0.83338629  0.66596616  1
  Te  Te180  1  0.67298908  0.16677521  0.00824300  1
  Te  Te181  1  0.66567982  0.16557049  0.33576841  1
  Te  Te182  1  0.67068926  0.16612372  0.66220229  1
  Te  Te183  1  0.66232491  0.49992306  0.00606988  1
  Te  Te184  1  0.66645639  0.49807423  0.33446036  1
  Te  Te185  1  0.66713706  0.49939273  0.66228952  1
  Te  Te186  1  0.66643687  0.83275858  -0.00657970  1
  Te  Te187  1  0.66647064  0.83630459  0.33139620  1
  Te  Te188  1  0.66640874  0.83247864  0.66886208  1
  Te  Te189  1  -0.00114397  -0.00424114  0.17294667  1
  Te  Te190  1  0.00509053  0.00038650  0.49327581  1
  Te  Te191  1  -0.00539113  0.00159355  0.83348730  1
  Te  Te192  1  -0.00181873  0.33537570  0.16918299  1
  Te  Te193  1  -0.00552539  0.33856511  0.49718459  1
  Te  Te194  1  0.00338038  0.33933420  0.83219602  1
  Te  Te195  1  -0.00075585  0.66852702  0.16647853  1
  Te  Te196  1  0.00307386  0.66059959  0.50482245  1
  Te  Te197  1  0.00295821  0.66221417  0.82920784  1
  Te  Te198  1  0.33428088  -0.00454436  0.17465153  1
  Te  Te199  1  0.32953331  0.00341926  0.49509627  1
  Te  Te200  1  0.33871449  0.00103097  0.83217811  1
  Te  Te201  1  0.34048153  0.33232263  0.16603690  1
  Te  Te202  1  0.33315356  0.33362248  0.50372127  1
  Te  Te203  1  0.33415301  0.33312162  0.82764181  1
  Te  Te204  1  0.33339152  0.67174908  0.17455904  1
  Te  Te205  1  0.33068708  0.66214342  0.49527585  1
  Te  Te206  1  0.33564437  0.66670510  0.83376504  1
  Te  Te207  1  0.66748281  0.00243834  0.16976793  1
  Te  Te208  1  0.66719849  -0.00063512  0.50165221  1
  Te  Te209  1  0.66714546  -0.00168947  0.83052231  1
  Te  Te210  1  0.66369058  0.33443294  0.16532814  1
  Te  Te211  1  0.66964933  0.33424264  0.50283830  1
  Te  Te212  1  0.66356922  0.33386221  0.82783922  1
  Te  Te213  1  0.66773044  0.66289651  0.17118112  1
  Te  Te214  1  0.66638019  0.66343239  0.50131050  1
  Te  Te215  1  0.66548089  0.66847791  0.82977295  1
