# generated using pymatgen
data_AgSbTe2
_symmetry_space_group_name_H-M   'P 1'
_cell_length_a   18.32092645
_cell_length_b   18.32544633
_cell_length_c   18.32540884
_cell_angle_alpha   89.99983531
_cell_angle_beta   89.99367872
_cell_angle_gamma   89.99770102
_symmetry_Int_Tables_number   1
_chemical_formula_structural   AgSbTe2
_chemical_formula_sum   'Ag54 Sb54 Te108'
_cell_volume   6152.55722753
_cell_formula_units_Z   54
loop_
 _symmetry_equiv_pos_site_id
 _symmetry_equiv_pos_as_xyz
  1  'x, y, z'
loop_
 _atom_site_type_symbol
 _atom_site_label
 _atom_site_symmetry_multiplicity
 _atom_site_fract_x
 _atom_site_fract_y
 _atom_site_fract_z
 _atom_site_occupancy
  Ag  Ag0  1  0.66172462  0.48892048  0.50033272  1
  Ag  Ag1  1  0.65609144  0.83452493  0.82839566  1
  Ag  Ag2  1  -0.00005042  0.82866869  0.83463948  1
  Ag  Ag3  1  0.50082747  0.17369097  0.33559740  1
  Ag  Ag4  1  0.49389329  0.33514430  0.16108991  1
  Ag  Ag5  1  0.33068904  0.00266699  -0.00747251  1
  Ag  Ag6  1  0.66139573  0.17457311  0.49905830  1
  Ag  Ag7  1  0.49294177  -0.00134920  0.83079773  1
  Ag  Ag8  1  0.01049629  0.66832857  -0.00612035  1
  Ag  Ag9  1  0.33177341  0.49556009  0.15371099  1
  Ag  Ag10  1  0.49057879  0.83103019  -0.00582974  1
  Ag  Ag11  1  0.33268632  0.32988174  0.67299262  1
  Ag  Ag12  1  0.66129417  0.33626843  0.65986011  1
  Ag  Ag13  1  0.16096171  0.83629602  0.32123617  1
  Ag  Ag14  1  0.49960428  0.49197250  0.33217854  1
  Ag  Ag15  1  0.49604881  0.33432904  0.83740811  1
  Ag  Ag16  1  0.33900323  0.49238576  0.50329078  1
  Ag  Ag17  1  0.16937424  0.49367711  0.67742901  1
  Ag  Ag18  1  0.00866210  0.50426949  0.83168651  1
  Ag  Ag19  1  0.66911204  0.33313410  0.34120358  1
  Ag  Ag20  1  0.17074752  0.83169287  0.00273304  1
  Ag  Ag21  1  0.16868088  -0.00151686  0.15780802  1
  Ag  Ag22  1  0.17242202  0.17457725  0.67412022  1
  Ag  Ag23  1  0.49705895  0.00150935  0.50644838  1
  Ag  Ag24  1  0.49839524  0.67358012  0.83441953  1
  Ag  Ag25  1  0.48947618  0.49375970  -0.00267961  1
  Ag  Ag26  1  -0.00259304  0.83254400  0.49974789  1
  Ag  Ag27  1  0.84032133  0.16761848  0.00233219  1
  Ag  Ag28  1  0.33309385  0.00343776  0.33371933  1
  Ag  Ag29  1  0.00775632  0.83542893  0.16535405  1
  Ag  Ag30  1  0.33300007  0.16869970  0.83072999  1
  Ag  Ag31  1  0.33403495  0.01067007  0.67519809  1
  Ag  Ag32  1  0.16960238  0.16422464  -0.00188491  1
  Ag  Ag33  1  0.16689067  0.67168887  0.16040854  1
  Ag  Ag34  1  0.50088686  0.83504107  0.67798675  1
  Ag  Ag35  1  0.83938781  0.83732385  0.33550064  1
  Ag  Ag36  1  0.33766475  0.16937541  0.50630320  1
  Ag  Ag37  1  0.82905319  0.33240615  0.49673125  1
  Ag  Ag38  1  0.17616917  0.00072665  0.83909535  1
  Ag  Ag39  1  0.33161619  0.49227848  0.84030536  1
  Ag  Ag40  1  -0.00646814  0.33324352  0.33536607  1
  Ag  Ag41  1  0.32781635  0.65372938  -0.00158193  1
  Ag  Ag42  1  0.65321975  0.33372430  -0.00179565  1
  Ag  Ag43  1  0.66594695  0.66361346  0.66709329  1
  Ag  Ag44  1  0.66721943  0.83394769  0.50663285  1
  Ag  Ag45  1  0.00145847  0.66381034  0.67524474  1
  Ag  Ag46  1  0.83683794  -0.00022723  0.83487607  1
  Ag  Ag47  1  0.82918412  0.48706531  0.33584862  1
  Ag  Ag48  1  0.01233540  0.33792500  0.66631417  1
  Ag  Ag49  1  0.00472161  0.16679954  0.16531342  1
  Ag  Ag50  1  0.17692905  0.50197183  -0.00409374  1
  Ag  Ag51  1  0.33519131  0.33953395  -0.00820168  1
  Ag  Ag52  1  0.17101366  0.33279407  0.16390605  1
  Ag  Ag53  1  0.83008954  0.17047072  0.33236107  1
  Sb  Sb54  1  0.66059689  0.16493431  0.82888920  1
  Sb  Sb55  1  0.84087985  0.00257877  0.16316304  1
  Sb  Sb56  1  0.84176959  0.66775151  0.16672540  1
  Sb  Sb57  1  0.00836128  0.49871891  0.16291124  1
  Sb  Sb58  1  -0.00007577  0.50105783  0.50408358  1
  Sb  Sb59  1  0.33245195  0.66203983  0.67478195  1
  Sb  Sb60  1  0.49443871  0.17109626  0.00188525  1
  Sb  Sb61  1  0.01042005  -0.00420682  -0.00167535  1
  Sb  Sb62  1  0.16924455  0.50064692  0.33012765  1
  Sb  Sb63  1  0.50303824  0.32938509  0.50012115  1
  Sb  Sb64  1  0.66841462  0.17006357  0.16925010  1
  Sb  Sb65  1  0.49439116  0.49958175  0.66848239  1
  Sb  Sb66  1  0.16686584  0.66715893  0.49843233  1
  Sb  Sb67  1  0.66603035  0.66094683  0.34123071  1
  Sb  Sb68  1  0.32786638  0.17185257  0.16273790  1
  Sb  Sb69  1  0.16867701  0.16399344  0.33020605  1
  Sb  Sb70  1  0.82788762  0.00245500  0.50224963  1
  Sb  Sb71  1  0.00112391  0.66550149  0.33294090  1
  Sb  Sb72  1  0.83376130  0.67062209  0.83319773  1
  Sb  Sb73  1  0.50056524  0.66853945  0.50621807  1
  Sb  Sb74  1  0.50001711  0.83487781  0.33229814  1
  Sb  Sb75  1  0.17388872  0.00035964  0.50155957  1
  Sb  Sb76  1  0.83733092  0.16859252  0.66685025  1
  Sb  Sb77  1  0.82935382  0.83389659  0.66456223  1
  Sb  Sb78  1  0.17054890  0.66797115  0.84032113  1
  Sb  Sb79  1  0.66214619  0.66263877  -0.00677666  1
  Sb  Sb80  1  0.66238164  0.50138083  0.82820997  1
  Sb  Sb81  1  0.49024826  0.00450037  0.16394786  1
  Sb  Sb82  1  0.00077210  0.16536256  0.49716803  1
  Sb  Sb83  1  0.00380459  0.00035266  0.33283627  1
  Sb  Sb84  1  0.49257732  0.66073767  0.15778245  1
  Sb  Sb85  1  0.49267042  0.16466445  0.66248926  1
  Sb  Sb86  1  0.33437860  0.83632954  0.50066069  1
  Sb  Sb87  1  0.33468090  0.83697322  0.83624920  1
  Sb  Sb88  1  0.00677052  0.16823246  0.83669638  1
  Sb  Sb89  1  0.33581682  0.33062715  0.33380804  1
  Sb  Sb90  1  0.32692028  0.83145204  0.16192471  1
  Sb  Sb91  1  0.33353741  0.66729962  0.32810809  1
  Sb  Sb92  1  0.00695148  0.00012414  0.66910755  1
  Sb  Sb93  1  0.16626491  0.33311015  0.49968779  1
  Sb  Sb94  1  0.83758702  0.83935777  -0.00005335  1
  Sb  Sb95  1  0.17454508  0.33207115  0.83720496  1
  Sb  Sb96  1  0.83635269  0.49770363  0.66358062  1
  Sb  Sb97  1  0.66226785  0.00595382  0.33618429  1
  Sb  Sb98  1  0.65889763  0.49619439  0.17162765  1
  Sb  Sb99  1  0.00698513  0.33582714  -0.00187374  1
  Sb  Sb100  1  0.67062884  0.83205721  0.16565007  1
  Sb  Sb101  1  0.83278357  0.66330016  0.49993974  1
  Sb  Sb102  1  0.66052497  0.00469186  -0.00307943  1
  Sb  Sb103  1  0.83573363  0.33272621  0.17205373  1
  Sb  Sb104  1  0.83432538  0.49407286  0.00410407  1
  Sb  Sb105  1  0.65838673  0.00076907  0.66684594  1
  Sb  Sb106  1  0.82912775  0.32988265  0.83083632  1
  Sb  Sb107  1  0.16947872  0.83263113  0.67186278  1
  Te  Te108  1  0.16402608  0.16753874  0.16435392  1
  Te  Te109  1  0.17133902  0.16554175  0.50427105  1
  Te  Te110  1  0.17037466  0.16347582  0.83491883  1
  Te  Te111  1  0.17137461  0.49559263  0.16406288  1
  Te  Te112  1  0.17085489  0.50105476  0.50076602  1
  Te  Te113  1  0.16797398  0.50077284  0.83541950  1
  Te  Te114  1  0.16516484  0.83486742  0.16323524  1
  Te  Te115  1  0.16330746  0.83339874  0.49930067  1
  Te  Te116  1  0.16226702  0.83784822  0.83773940  1
  Te  Te117  1  0.49936542  0.17215115  0.17387807  1
  Te  Te118  1  0.49993978  0.16324381  0.49683223  1
  Te  Te119  1  0.49479286  0.16444263  0.83399212  1
  Te  Te120  1  0.49368211  0.49614250  0.16463151  1
  Te  Te121  1  0.50162664  0.50187908  0.49951659  1
  Te  Te122  1  0.49837486  0.49558559  0.83558430  1
  Te  Te123  1  0.50099643  0.83291860  0.15990234  1
  Te  Te124  1  0.50333655  0.83755926  0.49765979  1
  Te  Te125  1  0.49843233  0.83525403  0.83632045  1
  Te  Te126  1  0.83926089  0.16622174  0.16754528  1
  Te  Te127  1  0.83229893  0.16956758  0.49632528  1
  Te  Te128  1  0.83277815  0.16139591  0.83669286  1
  Te  Te129  1  0.83339324  0.50088376  0.17525385  1
  Te  Te130  1  0.83033541  0.49571507  0.49491596  1
  Te  Te131  1  0.83785427  0.49989695  0.83512587  1
  Te  Te132  1  0.84076114  0.83523919  0.17199327  1
  Te  Te133  1  0.83181838  0.83493209  0.49653787  1
  Te  Te134  1  0.83707779  0.83818226  0.83334492  1
  Te  Te135  1  0.17000738  0.00102806  -0.00106643  1
  Te  Te136  1  0.17099792  -0.00381425  0.33269239  1
  Te  Te137  1  0.17411938  0.00158660  0.67119368  1
  Te  Te138  1  0.17044072  0.33406394  0.00307594  1
  Te  Te139  1  0.16169504  0.33302567  0.32803085  1
  Te  Te140  1  0.16913501  0.33433605  0.66554148  1
  Te  Te141  1  0.16778271  0.66672194  0.00089926  1
  Te  Te142  1  0.16679193  0.67337851  0.32621880  1
  Te  Te143  1  0.16189302  0.66378727  0.66640424  1
  Te  Te144  1  0.49359093  -0.00175899  -0.00245643  1
  Te  Te145  1  0.49470705  0.00256471  0.33248829  1
  Te  Te146  1  0.49442410  -0.00286293  0.66760172  1
  Te  Te147  1  0.49610664  0.33323454  0.00018480  1
  Te  Te148  1  0.50183376  0.33400469  0.33352337  1
  Te  Te149  1  0.49800890  0.33311156  0.67167711  1
  Te  Te150  1  0.49742734  0.66779550  -0.00588965  1
  Te  Te151  1  0.50015653  0.66004697  0.33053142  1
  Te  Te152  1  0.50199605  0.67086262  0.67279874  1
  Te  Te153  1  0.82981076  0.00762548  -0.00390859  1
  Te  Te154  1  0.83260822  0.00127817  0.33302528  1
  Te  Te155  1  0.83343225  0.00168607  0.67313785  1
  Te  Te156  1  0.83353247  0.32745378  0.00007816  1
  Te  Te157  1  0.83247714  0.33090581  0.33379885  1
  Te  Te158  1  0.82636467  0.33237235  0.66231413  1
  Te  Te159  1  0.83601950  0.66538147  0.00112091  1
  Te  Te160  1  0.83327501  0.67318488  0.33282341  1
  Te  Te161  1  0.83460207  0.66596694  0.66672550  1
  Te  Te162  1  0.00313105  0.16758147  0.00321261  1
  Te  Te163  1  -0.00194909  0.17024612  0.33077061  1
  Te  Te164  1  0.00765676  0.17196054  0.66673272  1
  Te  Te165  1  0.00062884  0.50421328  -0.00441894  1
  Te  Te166  1  -0.00214229  0.49648050  0.33417712  1
  Te  Te167  1  0.00343246  0.49901215  0.66904957  1
  Te  Te168  1  0.00103793  0.82971334  -0.00080464  1
  Te  Te169  1  0.00127643  0.83270357  0.33284396  1
  Te  Te170  1  0.00047147  0.83161426  0.66842507  1
  Te  Te171  1  0.32961764  0.16560017  -0.00280885  1
  Te  Te172  1  0.33547123  0.16381005  0.33711469  1
  Te  Te173  1  0.33158540  0.16874094  0.66714250  1
  Te  Te174  1  0.33362474  0.49711816  -0.00220548  1
  Te  Te175  1  0.33764702  0.49964971  0.34233526  1
  Te  Te176  1  0.32931206  0.49753636  0.66410672  1
  Te  Te177  1  0.33166790  0.83834802  0.00025432  1
  Te  Te178  1  0.33024471  0.83738730  0.33250331  1
  Te  Te179  1  0.33903301  0.83234449  0.66575606  1
  Te  Te180  1  0.66736716  0.17265752  -0.00101606  1
  Te  Te181  1  0.66691531  0.17145264  0.33595808  1
  Te  Te182  1  0.66841923  0.17141013  0.66072556  1
  Te  Te183  1  0.66521791  0.49374068  -0.00087332  1
  Te  Te184  1  0.66523736  0.49589947  0.33800141  1
  Te  Te185  1  0.66668420  0.49942776  0.66152218  1
  Te  Te186  1  0.66702649  0.83242796  -0.00390413  1
  Te  Te187  1  0.66990740  0.83184485  0.33475028  1
  Te  Te188  1  0.66311022  0.83434202  0.66801465  1
  Te  Te189  1  0.00764833  0.00019128  0.16603402  1
  Te  Te190  1  -0.00188620  -0.00734562  0.50135358  1
  Te  Te191  1  -0.00267077  -0.00255034  0.83257006  1
  Te  Te192  1  0.00339451  0.33119037  0.16772738  1
  Te  Te193  1  -0.00457861  0.33313306  0.50125112  1
  Te  Te194  1  -0.00247333  0.33703484  0.82706028  1
  Te  Te195  1  0.00734559  0.66990404  0.16294453  1
  Te  Te196  1  -0.00052202  0.67259868  0.50454820  1
  Te  Te197  1  -0.00020827  0.66681438  0.83336202  1
  Te  Te198  1  0.32674341  0.00195081  0.16855536  1
  Te  Te199  1  0.33826729  0.00209690  0.49888360  1
  Te  Te200  1  0.33336269  0.00021882  0.83273440  1
  Te  Te201  1  0.33327494  0.33585030  0.16848862  1
  Te  Te202  1  0.33292722  0.33113961  0.50362023  1
  Te  Te203  1  0.33492998  0.33216448  0.83275326  1
  Te  Te204  1  0.32717474  0.65938179  0.16106261  1
  Te  Te205  1  0.33401807  0.66083043  0.50025121  1
  Te  Te206  1  0.33827913  0.65982371  0.83894917  1
  Te  Te207  1  0.66599990  0.00004837  0.16647308  1
  Te  Te208  1  0.66017856  -0.00383991  0.50012759  1
  Te  Te209  1  0.66253860  -0.00437674  0.83298853  1
  Te  Te210  1  0.66161858  0.33338848  0.16317434  1
  Te  Te211  1  0.66672952  0.33229397  0.50022504  1
  Te  Te212  1  0.66092321  0.33289925  0.83283697  1
  Te  Te213  1  0.66751665  0.66541311  0.16518892  1
  Te  Te214  1  0.66663262  0.67411695  0.50800803  1
  Te  Te215  1  0.66349515  0.67121417  0.82729815  1
