# generated using pymatgen
data_AgSbTe2
_symmetry_space_group_name_H-M   'P 1'
_cell_length_a   18.33336747
_cell_length_b   18.33311627
_cell_length_c   18.33546194
_cell_angle_alpha   89.99916662
_cell_angle_beta   90.00608496
_cell_angle_gamma   89.99692133
_symmetry_Int_Tables_number   1
_chemical_formula_structural   AgSbTe2
_chemical_formula_sum   'Ag54 Sb54 Te108'
_cell_volume   6162.69094843
_cell_formula_units_Z   54
loop_
 _symmetry_equiv_pos_site_id
 _symmetry_equiv_pos_as_xyz
  1  'x, y, z'
loop_
 _atom_site_type_symbol
 _atom_site_label
 _atom_site_symmetry_multiplicity
 _atom_site_fract_x
 _atom_site_fract_y
 _atom_site_fract_z
 _atom_site_occupancy
  Ag  Ag0  1  0.83371922  0.67475035  0.17566112  1
  Ag  Ag1  1  0.16746597  0.83148070  -0.00315235  1
  Ag  Ag2  1  0.66779446  0.33106686  -0.00121911  1
  Ag  Ag3  1  0.50152624  0.83585082  0.66882666  1
  Ag  Ag4  1  0.33812976  0.34438395  0.33338038  1
  Ag  Ag5  1  -0.00286715  0.83107754  0.16389949  1
  Ag  Ag6  1  0.51245117  0.33514601  0.50460291  1
  Ag  Ag7  1  0.82952120  0.33378293  0.17391199  1
  Ag  Ag8  1  -0.00640134  0.66967255  0.66321062  1
  Ag  Ag9  1  0.82961255  0.51064665  0.33587594  1
  Ag  Ag10  1  0.67339145  0.66432186  0.66841038  1
  Ag  Ag11  1  0.67048467  0.67480513  0.00042468  1
  Ag  Ag12  1  0.32062586  0.82934020  0.83967987  1
  Ag  Ag13  1  -0.00957990  0.66868800  0.33574946  1
  Ag  Ag14  1  0.00636137  0.83512342  0.83555842  1
  Ag  Ag15  1  0.17090985  0.33832866  0.83378675  1
  Ag  Ag16  1  0.16570229  0.67444416  0.83961784  1
  Ag  Ag17  1  0.50613827  0.83034918  0.33360488  1
  Ag  Ag18  1  0.83683662  -0.00309814  0.84108470  1
  Ag  Ag19  1  0.67471675  0.83101806  0.16243960  1
  Ag  Ag20  1  0.82947079  0.34300637  0.49612387  1
  Ag  Ag21  1  0.51061444  0.16706857  -0.00407504  1
  Ag  Ag22  1  0.67070262  0.16396547  0.16145341  1
  Ag  Ag23  1  0.83236393  0.82297682  0.32833374  1
  Ag  Ag24  1  0.33049982  0.50328510  0.83475012  1
  Ag  Ag25  1  0.16308707  0.83151333  0.68112564  1
  Ag  Ag26  1  0.32805788  0.51017480  0.17205798  1
  Ag  Ag27  1  0.50961767  0.16957959  0.67183540  1
  Ag  Ag28  1  0.16350759  0.67154407  0.16503413  1
  Ag  Ag29  1  0.83380385  -0.00208783  0.50005817  1
  Ag  Ag30  1  0.15739460  -0.01378883  0.83659989  1
  Ag  Ag31  1  0.33424292  0.49963913  0.49118481  1
  Ag  Ag32  1  0.33112862  0.66492692  0.33009358  1
  Ag  Ag33  1  0.50357549  0.33411447  0.82811823  1
  Ag  Ag34  1  -0.01150687  0.50244708  0.50027725  1
  Ag  Ag35  1  0.66905842  0.34090052  0.33837597  1
  Ag  Ag36  1  0.83012891  0.16634343  0.66881638  1
  Ag  Ag37  1  0.83248717  0.66063458  0.48852449  1
  Ag  Ag38  1  0.16791225  0.51376904  -0.00375613  1
  Ag  Ag39  1  -0.01001691  0.33401664  0.66723535  1
  Ag  Ag40  1  -0.00413400  -0.01079638  0.67394958  1
  Ag  Ag41  1  0.83120066  -0.00747827  0.16040440  1
  Ag  Ag42  1  0.67841227  0.66386033  0.33234057  1
  Ag  Ag43  1  -0.00728056  -0.00497346  -0.00677505  1
  Ag  Ag44  1  0.32816389  -0.00516900  -0.00141652  1
  Ag  Ag45  1  0.16487271  0.82872222  0.32528812  1
  Ag  Ag46  1  0.66595011  0.50297250  0.83123697  1
  Ag  Ag47  1  0.67315086  0.00014229  0.00056487  1
  Ag  Ag48  1  0.66933782  0.33754563  0.66556671  1
  Ag  Ag49  1  0.67248619  0.49838972  0.50115732  1
  Ag  Ag50  1  0.32496749  0.82887004  0.16416394  1
  Ag  Ag51  1  0.66824305  0.82798280  0.84046019  1
  Ag  Ag52  1  0.16799752  0.16379241  0.33133939  1
  Ag  Ag53  1  0.82782819  0.16201326  -0.00097877  1
  Sb  Sb54  1  0.49942695  0.66532423  0.83236724  1
  Sb  Sb55  1  0.83007391  0.33021476  0.83011702  1
  Sb  Sb56  1  0.50326342  0.50384105  0.33402749  1
  Sb  Sb57  1  0.33709617  0.16471573  0.16583239  1
  Sb  Sb58  1  0.32832607  -0.00323354  0.67301127  1
  Sb  Sb59  1  -0.00144161  0.15781203  0.83199951  1
  Sb  Sb60  1  0.50664985  0.66124573  0.49999944  1
  Sb  Sb61  1  -0.00206351  0.67286288  0.00062438  1
  Sb  Sb62  1  -0.00686634  0.15928541  0.16668402  1
  Sb  Sb63  1  0.16041194  -0.00286686  0.50453138  1
  Sb  Sb64  1  0.16589072  0.50514782  0.67228592  1
  Sb  Sb65  1  0.16513012  0.16086704  0.00225071  1
  Sb  Sb66  1  0.66962724  0.17511832  0.49796384  1
  Sb  Sb67  1  0.33318655  0.66902586  0.00229847  1
  Sb  Sb68  1  0.50575665  -0.00202587  0.16388777  1
  Sb  Sb69  1  0.67390845  0.00020007  0.67361682  1
  Sb  Sb70  1  0.33405723  0.82760612  0.49700461  1
  Sb  Sb71  1  0.83501454  0.49656780  0.00534359  1
  Sb  Sb72  1  0.50004537  0.83657778  -0.00114549  1
  Sb  Sb73  1  0.83505068  0.83869245  0.00624301  1
  Sb  Sb74  1  0.50790644  0.00328615  0.50250346  1
  Sb  Sb75  1  0.00131296  0.50818819  0.17075870  1
  Sb  Sb76  1  0.50190456  0.66914255  0.16795878  1
  Sb  Sb77  1  0.33527341  0.17230152  0.49864463  1
  Sb  Sb78  1  0.66978232  -0.00498813  0.32796851  1
  Sb  Sb79  1  -0.00419777  0.32827998  -0.00517526  1
  Sb  Sb80  1  0.16259240  0.33785285  0.16365867  1
  Sb  Sb81  1  0.49883978  0.49681098  -0.00129027  1
  Sb  Sb82  1  0.50084752  0.16699633  0.33280579  1
  Sb  Sb83  1  0.33100120  -0.00726929  0.32720502  1
  Sb  Sb84  1  0.50704862  0.33319232  0.16736411  1
  Sb  Sb85  1  0.66890508  0.82679869  0.49851166  1
  Sb  Sb86  1  0.16342300  0.33594476  0.50302484  1
  Sb  Sb87  1  -0.00325181  0.33972847  0.33654938  1
  Sb  Sb88  1  -0.00169986  0.50572653  0.82992229  1
  Sb  Sb89  1  -0.00198884  -0.00851176  0.33321537  1
  Sb  Sb90  1  0.16319638  0.16458189  0.66633614  1
  Sb  Sb91  1  0.66609722  0.50380501  0.16632663  1
  Sb  Sb92  1  0.83199851  0.49668966  0.66114679  1
  Sb  Sb93  1  0.33717537  0.33488659  0.66522059  1
  Sb  Sb94  1  -0.00374613  0.17082655  0.50023278  1
  Sb  Sb95  1  0.16116199  0.66601205  0.49794161  1
  Sb  Sb96  1  0.83431409  0.16765496  0.33225308  1
  Sb  Sb97  1  0.33315009  0.66751814  0.66488772  1
  Sb  Sb98  1  0.33439809  0.16567721  0.83494111  1
  Sb  Sb99  1  0.83457653  0.83591426  0.66475955  1
  Sb  Sb100  1  0.16001187  -0.00941364  0.16122480  1
  Sb  Sb101  1  0.33738499  0.33263794  0.00275181  1
  Sb  Sb102  1  0.50407559  0.49973214  0.66618428  1
  Sb  Sb103  1  0.83337027  0.67290086  0.83483166  1
  Sb  Sb104  1  0.16655860  0.50501232  0.33025256  1
  Sb  Sb105  1  -0.00257148  0.82813240  0.50092026  1
  Sb  Sb106  1  0.50250831  0.00105699  0.83457608  1
  Sb  Sb107  1  0.66722837  0.16846744  0.83991280  1
  Te  Te108  1  0.16617670  0.16677187  0.17060091  1
  Te  Te109  1  0.16710688  0.16596975  0.49347709  1
  Te  Te110  1  0.16702346  0.17493907  0.83315051  1
  Te  Te111  1  0.16964768  0.50505391  0.16055839  1
  Te  Te112  1  0.17489244  0.50034849  0.50155934  1
  Te  Te113  1  0.16568391  0.49965377  0.83657364  1
  Te  Te114  1  0.16605758  0.83104226  0.16596639  1
  Te  Te115  1  0.16766941  0.83362388  0.49346118  1
  Te  Te116  1  0.16526861  0.83103974  0.83634315  1
  Te  Te117  1  0.50739186  0.16539316  0.16176174  1
  Te  Te118  1  0.50124562  0.17310966  0.50496746  1
  Te  Te119  1  0.50020414  0.17148506  0.83223799  1
  Te  Te120  1  0.48690074  0.49937191  0.16627349  1
  Te  Te121  1  0.49637326  0.49365411  0.50022009  1
  Te  Te122  1  0.50122785  0.49560173  0.83287623  1
  Te  Te123  1  0.49869484  0.83419120  0.17035108  1
  Te  Te124  1  0.50033745  0.83458750  0.50174196  1
  Te  Te125  1  0.50759243  0.83317922  0.83012663  1
  Te  Te126  1  0.82971918  0.16931800  0.16514823  1
  Te  Te127  1  0.83330412  0.16355494  0.50391057  1
  Te  Te128  1  0.83362592  0.16060835  0.83305920  1
  Te  Te129  1  0.83397737  0.49755012  0.17264004  1
  Te  Te130  1  0.83079721  0.50079514  0.49767831  1
  Te  Te131  1  0.82735858  0.50099346  0.83643910  1
  Te  Te132  1  0.83465401  0.83296054  0.16780863  1
  Te  Te133  1  0.83343223  0.83320973  0.49281196  1
  Te  Te134  1  0.82805426  0.83767181  0.83201885  1
  Te  Te135  1  0.16714717  -0.00280558  -0.00436236  1
  Te  Te136  1  0.16595673  -0.00197545  0.33360520  1
  Te  Te137  1  0.15988932  -0.00348148  0.67222011  1
  Te  Te138  1  0.16594888  0.32933420  -0.00476874  1
  Te  Te139  1  0.16695698  0.33375824  0.33312754  1
  Te  Te140  1  0.16533015  0.33204387  0.67156007  1
  Te  Te141  1  0.16634609  0.67083317  0.00106745  1
  Te  Te142  1  0.17047066  0.66907453  0.33083662  1
  Te  Te143  1  0.16465764  0.67244873  0.66774513  1
  Te  Te144  1  0.50348111  0.00592961  -0.00088959  1
  Te  Te145  1  0.49990212  -0.00733377  0.33531204  1
  Te  Te146  1  0.50037460  0.00050080  0.66636110  1
  Te  Te147  1  0.50474394  0.32883884  -0.00240361  1
  Te  Te148  1  0.50134804  0.33251235  0.33677864  1
  Te  Te149  1  0.50324035  0.33230214  0.66675981  1
  Te  Te150  1  0.51219619  0.66581750  0.00002787  1
  Te  Te151  1  0.49310980  0.67177756  0.33451655  1
  Te  Te152  1  0.50628526  0.67464301  0.66562464  1
  Te  Te153  1  0.83296015  0.00030993  0.00091538  1
  Te  Te154  1  0.83382254  -0.00066470  0.33529268  1
  Te  Te155  1  0.83737429  0.00301261  0.66571376  1
  Te  Te156  1  0.82954347  0.32874223  0.00125699  1
  Te  Te157  1  0.83081036  0.33261011  0.33559622  1
  Te  Te158  1  0.83062684  0.33006214  0.66414554  1
  Te  Te159  1  0.82902942  0.66357913  0.00539458  1
  Te  Te160  1  0.83421176  0.66687679  0.33197241  1
  Te  Te161  1  0.83316716  0.66816959  0.66709450  1
  Te  Te162  1  -0.00573090  0.15870929  0.00036918  1
  Te  Te163  1  0.00630060  0.16720320  0.33257800  1
  Te  Te164  1  -0.00380758  0.17306671  0.66607083  1
  Te  Te165  1  0.00690030  0.49825092  -0.00034785  1
  Te  Te166  1  -0.00238574  0.50643564  0.33844745  1
  Te  Te167  1  -0.00032548  0.50318476  0.66216048  1
  Te  Te168  1  0.00367183  0.83586582  -0.00102220  1
  Te  Te169  1  0.00017692  0.82845897  0.33311449  1
  Te  Te170  1  0.00090221  0.83108769  0.66716162  1
  Te  Te171  1  0.33571461  0.16036452  0.00085072  1
  Te  Te172  1  0.33128112  0.16804228  0.33170859  1
  Te  Te173  1  0.33807341  0.16562876  0.66638968  1
  Te  Te174  1  0.32950421  0.49975886  -0.00546780  1
  Te  Te175  1  0.33347084  0.50181737  0.33180698  1
  Te  Te176  1  0.33462566  0.50089585  0.67464894  1
  Te  Te177  1  0.33387940  0.83383458  -0.00050727  1
  Te  Te178  1  0.33073553  0.82921137  0.33022075  1
  Te  Te179  1  0.33319635  0.83316558  0.66989501  1
  Te  Te180  1  0.66859956  0.16790163  0.00118044  1
  Te  Te181  1  0.66558734  0.17158977  0.32493901  1
  Te  Te182  1  0.66804629  0.16874451  0.66650529  1
  Te  Te183  1  0.66700842  0.49456135  -0.00302554  1
  Te  Te184  1  0.66788853  0.50086717  0.33340645  1
  Te  Te185  1  0.66662555  0.50095615  0.66776544  1
  Te  Te186  1  0.66511173  0.83350684  0.00181347  1
  Te  Te187  1  0.66725277  0.82909619  0.33139541  1
  Te  Te188  1  0.66577436  0.83234558  0.66662008  1
  Te  Te189  1  -0.00714559  -0.00769983  0.16478255  1
  Te  Te190  1  -0.00570380  0.00120000  0.50534759  1
  Te  Te191  1  -0.00138816  -0.00424047  0.83280934  1
  Te  Te192  1  -0.00693962  0.33285998  0.16612309  1
  Te  Te193  1  -0.00492784  0.33994873  0.50439576  1
  Te  Te194  1  0.00022683  0.33653113  0.82760251  1
  Te  Te195  1  0.00013375  0.67145257  0.16789618  1
  Te  Te196  1  -0.00445978  0.66272825  0.50148355  1
  Te  Te197  1  0.00282834  0.67251829  0.83105506  1
  Te  Te198  1  0.33220749  -0.00469713  0.15993036  1
  Te  Te199  1  0.33406686  0.00119111  0.49883092  1
  Te  Te200  1  0.33180376  -0.00495506  0.83833731  1
  Te  Te201  1  0.33248379  0.33322644  0.17169077  1
  Te  Te202  1  0.33083791  0.33887654  0.49517627  1
  Te  Te203  1  0.33549939  0.33633594  0.83388042  1
  Te  Te204  1  0.33335627  0.66880662  0.16675087  1
  Te  Te205  1  0.33486220  0.66056100  0.49656833  1
  Te  Te206  1  0.33005969  0.66731981  0.83323430  1
  Te  Te207  1  0.67140761  -0.00424530  0.16262425  1
  Te  Te208  1  0.67400080  0.00183880  0.49994675  1
  Te  Te209  1  0.66983422  -0.00494386  0.83912436  1
  Te  Te210  1  0.66943939  0.33661560  0.16551887  1
  Te  Te211  1  0.66910709  0.33729337  0.50051859  1
  Te  Te212  1  0.66579827  0.33547269  0.83078341  1
  Te  Te213  1  0.66851043  0.66937847  0.17049257  1
  Te  Te214  1  0.67124991  0.66036254  0.49853212  1
  Te  Te215  1  0.66642634  0.66548401  0.83153101  1
