# generated using pymatgen
data_AgSbTe2
_symmetry_space_group_name_H-M   'P 1'
_cell_length_a   18.33336326
_cell_length_b   18.33856307
_cell_length_c   18.33826874
_cell_angle_alpha   89.99789536
_cell_angle_beta   90.00172160
_cell_angle_gamma   90.00282840
_symmetry_Int_Tables_number   1
_chemical_formula_structural   AgSbTe2
_chemical_formula_sum   'Ag54 Sb54 Te108'
_cell_volume   6165.46417806
_cell_formula_units_Z   54
loop_
 _symmetry_equiv_pos_site_id
 _symmetry_equiv_pos_as_xyz
  1  'x, y, z'
loop_
 _atom_site_type_symbol
 _atom_site_label
 _atom_site_symmetry_multiplicity
 _atom_site_fract_x
 _atom_site_fract_y
 _atom_site_fract_z
 _atom_site_occupancy
  Ag  Ag0  1  -0.00995213  0.33645307  0.66042017  1
  Ag  Ag1  1  0.32778861  0.49664007  0.50132544  1
  Ag  Ag2  1  0.50457603  0.49748378  -0.00306716  1
  Ag  Ag3  1  0.16404429  0.00024577  0.50203447  1
  Ag  Ag4  1  0.00558124  0.82287438  0.49673302  1
  Ag  Ag5  1  0.67136515  0.65592356  0.33395142  1
  Ag  Ag6  1  0.16801570  0.83181912  0.66040740  1
  Ag  Ag7  1  0.00257567  -0.00521114  0.33744874  1
  Ag  Ag8  1  0.00065790  0.65473266  0.00852713  1
  Ag  Ag9  1  0.66648901  0.49509975  0.16538274  1
  Ag  Ag10  1  0.50825468  0.33561684  0.83301763  1
  Ag  Ag11  1  0.16065304  0.83622944  0.34539465  1
  Ag  Ag12  1  0.66342042  0.00730657  0.67133578  1
  Ag  Ag13  1  0.50790897  0.17560352  0.00264951  1
  Ag  Ag14  1  -0.00300012  0.33877315  0.34192196  1
  Ag  Ag15  1  0.50088624  0.66265973  0.17015332  1
  Ag  Ag16  1  0.33803636  0.49997725  0.17448723  1
  Ag  Ag17  1  0.82524503  0.17357536  -0.00495085  1
  Ag  Ag18  1  0.66438394  0.01496819  -0.00577471  1
  Ag  Ag19  1  0.67702427  0.33506647  0.67573628  1
  Ag  Ag20  1  0.00493480  0.17628421  0.49841068  1
  Ag  Ag21  1  0.16627648  0.16537276  -0.00084997  1
  Ag  Ag22  1  0.16526742  0.16790227  0.65770444  1
  Ag  Ag23  1  0.00348076  0.82303194  0.17950999  1
  Ag  Ag24  1  -0.00832906  0.33615183  -0.00195302  1
  Ag  Ag25  1  0.50161522  0.50130247  0.66686055  1
  Ag  Ag26  1  -0.00131325  0.50155446  0.17243387  1
  Ag  Ag27  1  0.33249743  0.16935590  0.82286937  1
  Ag  Ag28  1  0.16353819  0.83562046  -0.00158229  1
  Ag  Ag29  1  0.67026390  0.33192132  -0.00624948  1
  Ag  Ag30  1  0.67029566  0.33863910  0.33176509  1
  Ag  Ag31  1  0.84513453  0.65497196  0.49765669  1
  Ag  Ag32  1  0.83562349  0.17973172  0.66785937  1
  Ag  Ag33  1  0.49712625  0.82603058  0.66973673  1
  Ag  Ag34  1  0.16234806  0.49682012  0.66216391  1
  Ag  Ag35  1  0.66454390  0.82817464  0.83255847  1
  Ag  Ag36  1  0.16208324  0.66840299  0.50075561  1
  Ag  Ag37  1  0.32305743  0.17438046  0.50373173  1
  Ag  Ag38  1  0.83743220  0.49808821  0.34022732  1
  Ag  Ag39  1  0.50214661  0.82859051  -0.00629343  1
  Ag  Ag40  1  0.49684979  0.17050410  0.33234215  1
  Ag  Ag41  1  -0.00693290  0.49494716  0.82168420  1
  Ag  Ag42  1  0.82782410  0.33503091  0.82187108  1
  Ag  Ag43  1  0.66554525  0.17720926  0.16221805  1
  Ag  Ag44  1  0.16460491  0.16670757  0.34351762  1
  Ag  Ag45  1  0.83959152  0.49147695  0.65897819  1
  Ag  Ag46  1  -0.00214034  0.66019803  0.33649159  1
  Ag  Ag47  1  0.83558127  0.33830136  0.50913585  1
  Ag  Ag48  1  0.66768835  0.49599149  0.83189412  1
  Ag  Ag49  1  0.33386665  0.00035424  0.66416192  1
  Ag  Ag50  1  -0.00159312  0.49733952  0.49936485  1
  Ag  Ag51  1  0.49744357  0.66365758  0.50041265  1
  Ag  Ag52  1  0.33002951  0.33347918  0.33730607  1
  Ag  Ag53  1  0.33345840  0.66402808  0.66246649  1
  Sb  Sb54  1  0.49466542  0.83282856  0.33543362  1
  Sb  Sb55  1  0.33100280  0.66010558  0.33966521  1
  Sb  Sb56  1  0.33599700  0.33331576  0.00258239  1
  Sb  Sb57  1  0.16605460  0.66574262  0.17270691  1
  Sb  Sb58  1  -0.00214874  0.82475080  0.83023341  1
  Sb  Sb59  1  0.83364584  0.00197035  0.16663261  1
  Sb  Sb60  1  0.00442550  0.65747871  0.65870025  1
  Sb  Sb61  1  0.33238005  0.33410431  0.66135095  1
  Sb  Sb62  1  0.83313067  0.83594875  -0.00172139  1
  Sb  Sb63  1  0.15893429  0.33290566  0.50105920  1
  Sb  Sb64  1  0.49934851  0.17046700  0.66725152  1
  Sb  Sb65  1  0.16460872  0.33274813  0.83188479  1
  Sb  Sb66  1  0.83183946  0.49402683  -0.00173638  1
  Sb  Sb67  1  0.66302143  0.17454022  0.83684444  1
  Sb  Sb68  1  0.84140152  0.82606823  0.33518113  1
  Sb  Sb69  1  0.49342680  -0.00255619  0.50297318  1
  Sb  Sb70  1  0.16636865  0.00131981  0.82662291  1
  Sb  Sb71  1  0.82993079  0.00869686  0.83163618  1
  Sb  Sb72  1  0.50393159  0.33923608  0.16361948  1
  Sb  Sb73  1  0.67091434  0.00507045  0.33433406  1
  Sb  Sb74  1  0.16531679  0.33403729  0.16832675  1
  Sb  Sb75  1  0.50150749  0.66196683  0.83155371  1
  Sb  Sb76  1  0.83396801  0.65693203  0.82663173  1
  Sb  Sb77  1  0.16048168  0.49790396  0.34150462  1
  Sb  Sb78  1  0.50386073  0.49598682  0.33457537  1
  Sb  Sb79  1  0.83173830  0.33495679  0.16714467  1
  Sb  Sb80  1  0.00152793  0.00659619  0.65988097  1
  Sb  Sb81  1  0.00313688  0.17469911  0.82952004  1
  Sb  Sb82  1  -0.00280634  0.17227995  0.17064659  1
  Sb  Sb83  1  0.33717592  0.00288186  -0.00600785  1
  Sb  Sb84  1  0.16451874  0.49985996  -0.00427742  1
  Sb  Sb85  1  0.33703995  0.17287544  0.17036487  1
  Sb  Sb86  1  0.83619963  0.17606960  0.33771969  1
  Sb  Sb87  1  0.66811808  0.16912653  0.49959086  1
  Sb  Sb88  1  0.32565352  0.82895036  0.50273671  1
  Sb  Sb89  1  0.66326292  0.66053956  0.66102848  1
  Sb  Sb90  1  0.32612077  0.00781293  0.34201726  1
  Sb  Sb91  1  0.50446436  0.33799376  0.50230423  1
  Sb  Sb92  1  0.83397805  0.83079026  0.66521610  1
  Sb  Sb93  1  0.66893963  0.66041419  0.00399037  1
  Sb  Sb94  1  0.67070629  0.49949722  0.50082501  1
  Sb  Sb95  1  0.66978960  0.83083143  0.50312655  1
  Sb  Sb96  1  0.33596422  0.49445871  0.82818406  1
  Sb  Sb97  1  0.50101012  -0.00197876  0.16513137  1
  Sb  Sb98  1  0.16532044  -0.00100158  0.17256681  1
  Sb  Sb99  1  0.33132558  0.66516919  -0.00322173  1
  Sb  Sb100  1  0.66906226  0.82969524  0.16216553  1
  Sb  Sb101  1  0.83338443  0.66243185  0.17180583  1
  Sb  Sb102  1  0.32945168  0.82605663  0.16591575  1
  Sb  Sb103  1  0.33751281  0.83719085  0.82920668  1
  Sb  Sb104  1  0.16524260  0.66614871  0.82612710  1
  Sb  Sb105  1  0.50268403  0.00498488  0.83267368  1
  Sb  Sb106  1  -0.00176487  0.00427339  0.00555269  1
  Sb  Sb107  1  0.84014307  0.00338985  0.50135738  1
  Te  Te108  1  0.16736783  0.16606757  0.16100864  1
  Te  Te109  1  0.16533821  0.16969544  0.49989954  1
  Te  Te110  1  0.17125805  0.16653436  0.83763832  1
  Te  Te111  1  0.16481093  0.50122690  0.16531251  1
  Te  Te112  1  0.16744341  0.50214019  0.50340058  1
  Te  Te113  1  0.16381956  0.50004142  0.82555466  1
  Te  Te114  1  0.16221261  0.83238969  0.15822146  1
  Te  Te115  1  0.16514623  0.83284625  0.50275846  1
  Te  Te116  1  0.16686301  0.83388241  0.83565930  1
  Te  Te117  1  0.50344473  0.16541779  0.16425171  1
  Te  Te118  1  0.49734210  0.16584767  0.49620827  1
  Te  Te119  1  0.49504961  0.17205558  0.83652064  1
  Te  Te120  1  0.50303903  0.50377121  0.16828464  1
  Te  Te121  1  0.49590725  0.50341811  0.50238542  1
  Te  Te122  1  0.50201099  0.49651328  0.83407115  1
  Te  Te123  1  0.49903285  0.82611507  0.16481503  1
  Te  Te124  1  0.49898292  0.82872387  0.50496957  1
  Te  Te125  1  0.50341041  0.83257788  0.83235774  1
  Te  Te126  1  0.82799445  0.16678160  0.15997349  1
  Te  Te127  1  0.83785899  0.17070841  0.50517338  1
  Te  Te128  1  0.83531261  0.17422785  0.83174326  1
  Te  Te129  1  0.83244006  0.50075575  0.17189591  1
  Te  Te130  1  0.83393692  0.49918626  0.49986515  1
  Te  Te131  1  0.83199496  0.49456225  0.83078270  1
  Te  Te132  1  0.84270658  0.83323547  0.16586829  1
  Te  Te133  1  0.84180494  0.83156753  0.50048206  1
  Te  Te134  1  0.82636152  0.83178151  0.83222907  1
  Te  Te135  1  0.16781364  -0.00063450  -0.00048443  1
  Te  Te136  1  0.16201156  0.00197778  0.33845853  1
  Te  Te137  1  0.16814536  0.00363625  0.66216997  1
  Te  Te138  1  0.16492727  0.33062813  0.00014931  1
  Te  Te139  1  0.16397476  0.32789559  0.33288989  1
  Te  Te140  1  0.16399778  0.33124758  0.66751613  1
  Te  Te141  1  0.16300722  0.66954941  -0.00026961  1
  Te  Te142  1  0.16350999  0.67017075  0.33889346  1
  Te  Te143  1  0.16934455  0.66906501  0.66129705  1
  Te  Te144  1  0.50514607  -0.00303350  -0.00060393  1
  Te  Te145  1  0.49993492  0.00624441  0.33395151  1
  Te  Te146  1  0.50156905  -0.00374881  0.66670099  1
  Te  Te147  1  0.50160076  0.33485773  -0.00264122  1
  Te  Te148  1  0.50561109  0.32930034  0.33408470  1
  Te  Te149  1  0.50214855  0.33771241  0.67021404  1
  Te  Te150  1  0.49935865  0.66526499  0.00172372  1
  Te  Te151  1  0.49969326  0.66845535  0.33465968  1
  Te  Te152  1  0.49769597  0.66546477  0.66525711  1
  Te  Te153  1  0.82606222  0.00735739  -0.00086188  1
  Te  Te154  1  0.84079263  0.00200634  0.33422350  1
  Te  Te155  1  0.82657621  0.00239134  0.66664811  1
  Te  Te156  1  0.83160190  0.33129793  -0.00062233  1
  Te  Te157  1  0.83387611  0.33733714  0.33543215  1
  Te  Te158  1  0.83337677  0.33554906  0.66621000  1
  Te  Te159  1  0.84116835  0.66696252  -0.00065717  1
  Te  Te160  1  0.83338107  0.66147856  0.33787781  1
  Te  Te161  1  0.83250540  0.66158264  0.65889088  1
  Te  Te162  1  0.00314521  0.17032271  0.00147791  1
  Te  Te163  1  0.00190001  0.17549048  0.33490339  1
  Te  Te164  1  0.00249393  0.17071648  0.66391768  1
  Te  Te165  1  -0.00027088  0.49711463  0.00609994  1
  Te  Te166  1  0.00041877  0.49940541  0.33510662  1
  Te  Te167  1  0.00052048  0.49762705  0.66446890  1
  Te  Te168  1  0.00175835  0.83671297  -0.00318267  1
  Te  Te169  1  0.00367188  0.82862474  0.33636845  1
  Te  Te170  1  0.00510433  0.83454192  0.66370897  1
  Te  Te171  1  0.33147803  0.16626232  0.00259672  1
  Te  Te172  1  0.33171781  0.17187086  0.33548550  1
  Te  Te173  1  0.33261593  0.16711804  0.66349589  1
  Te  Te174  1  0.33779825  0.50033735  0.00119907  1
  Te  Te175  1  0.33228575  0.49537923  0.33484108  1
  Te  Te176  1  0.33364457  0.50127466  0.66411279  1
  Te  Te177  1  0.33594041  0.83392337  -0.00264276  1
  Te  Te178  1  0.32397190  0.83509565  0.33275466  1
  Te  Te179  1  0.33297464  0.83463482  0.66654931  1
  Te  Te180  1  0.66463914  0.17086394  -0.00070648  1
  Te  Te181  1  0.66582807  0.16824098  0.32803595  1
  Te  Te182  1  0.66782658  0.16927956  0.66740097  1
  Te  Te183  1  0.66526039  0.49581236  0.00154423  1
  Te  Te184  1  0.66836614  0.49917090  0.33283857  1
  Te  Te185  1  0.66217975  0.49643193  0.66828275  1
  Te  Te186  1  0.66400865  0.82982232  -0.00262505  1
  Te  Te187  1  0.66640722  0.83394377  0.33195448  1
  Te  Te188  1  0.66506789  0.83135642  0.67040551  1
  Te  Te189  1  -0.00017977  -0.00395531  0.17454132  1
  Te  Te190  1  0.00455473  0.00205986  0.49589867  1
  Te  Te191  1  -0.00232905  -0.00299473  0.83474846  1
  Te  Te192  1  -0.00042697  0.33916184  0.16238952  1
  Te  Te193  1  -0.00328337  0.33548465  0.50137605  1
  Te  Te194  1  -0.00150611  0.33779095  0.83759988  1
  Te  Te195  1  -0.00005578  0.66393049  0.16956247  1
  Te  Te196  1  0.00221517  0.66317433  0.49874395  1
  Te  Te197  1  -0.00117393  0.65720496  0.84232377  1
  Te  Te198  1  0.33366974  -0.00222698  0.16731386  1
  Te  Te199  1  0.32688295  0.00578412  0.50572004  1
  Te  Te200  1  0.33415899  0.00797627  0.82504195  1
  Te  Te201  1  0.33422728  0.34113382  0.17429372  1
  Te  Te202  1  0.33754891  0.33442784  0.49617184  1
  Te  Te203  1  0.33683903  0.32848845  0.83377145  1
  Te  Te204  1  0.33808426  0.65912421  0.16631767  1
  Te  Te205  1  0.33508324  0.66291720  0.50275745  1
  Te  Te206  1  0.33309001  0.66577099  0.82418097  1
  Te  Te207  1  0.66695856  0.00071595  0.16235394  1
  Te  Te208  1  0.66739834  -0.00027453  0.50565767  1
  Te  Te209  1  0.66654847  -0.00543142  0.83270120  1
  Te  Te210  1  0.66647866  0.33500458  0.16970255  1
  Te  Te211  1  0.67230008  0.33240296  0.49502387  1
  Te  Te212  1  0.66728220  0.33582589  0.83420181  1
  Te  Te213  1  0.66403515  0.66243493  0.17187487  1
  Te  Te214  1  0.66014207  0.66796901  0.49311544  1
  Te  Te215  1  0.66827305  0.66265654  0.83435075  1
