# generated using pymatgen
data_AgSbTe2
_symmetry_space_group_name_H-M   'P 1'
_cell_length_a   18.32497864
_cell_length_b   18.32243509
_cell_length_c   18.32603169
_cell_angle_alpha   89.99994799
_cell_angle_beta   90.00073359
_cell_angle_gamma   89.99963514
_symmetry_Int_Tables_number   1
_chemical_formula_structural   AgSbTe2
_chemical_formula_sum   'Ag54 Sb54 Te108'
_cell_volume   6153.11599128
_cell_formula_units_Z   54
loop_
 _symmetry_equiv_pos_site_id
 _symmetry_equiv_pos_as_xyz
  1  'x, y, z'
loop_
 _atom_site_type_symbol
 _atom_site_label
 _atom_site_symmetry_multiplicity
 _atom_site_fract_x
 _atom_site_fract_y
 _atom_site_fract_z
 _atom_site_occupancy
  Ag  Ag0  1  0.16673758  0.16002418  0.33093844  1
  Ag  Ag1  1  0.84028420  0.16176941  0.33915680  1
  Ag  Ag2  1  0.66543768  0.32537315  -0.01031629  1
  Ag  Ag3  1  -0.00159408  0.82849664  0.50596990  1
  Ag  Ag4  1  0.00251314  0.66942298  0.65890108  1
  Ag  Ag5  1  0.84165256  0.83709943  -0.01080220  1
  Ag  Ag6  1  0.49750719  0.15649624  0.33270820  1
  Ag  Ag7  1  0.50016828  0.83863768  0.00104535  1
  Ag  Ag8  1  0.84803392  0.66986277  0.50247443  1
  Ag  Ag9  1  0.16051043  0.67402608  0.50171810  1
  Ag  Ag10  1  0.67332840  0.83618148  0.51123888  1
  Ag  Ag11  1  0.83517455  0.15883425  0.66332253  1
  Ag  Ag12  1  0.00147092  0.34082851  0.66767740  1
  Ag  Ag13  1  0.66921999  0.33382865  0.67131212  1
  Ag  Ag14  1  0.00710219  0.50916430  0.17256764  1
  Ag  Ag15  1  0.00058774  0.15822511  0.50004505  1
  Ag  Ag16  1  0.66718107  -0.00218811  -0.01031639  1
  Ag  Ag17  1  0.83822975  0.83548437  0.66977587  1
  Ag  Ag18  1  0.32070561  0.66545891  0.66558952  1
  Ag  Ag19  1  0.32227016  0.66618869  0.33280943  1
  Ag  Ag20  1  0.16726301  0.15494014  0.00015750  1
  Ag  Ag21  1  0.32969261  0.16552344  0.16548482  1
  Ag  Ag22  1  0.50798602  -0.00025142  0.83540731  1
  Ag  Ag23  1  0.15765547  0.82999635  0.66853252  1
  Ag  Ag24  1  0.83030482  -0.00420745  0.83156783  1
  Ag  Ag25  1  0.00351312  0.83285266  0.16697449  1
  Ag  Ag26  1  -0.00064168  0.50578671  0.82338649  1
  Ag  Ag27  1  0.00716669  -0.00411093  -0.00063040  1
  Ag  Ag28  1  0.49572667  -0.00133385  0.17237865  1
  Ag  Ag29  1  0.50329506  -0.00207101  0.48907034  1
  Ag  Ag30  1  0.83720326  0.50074693  0.33496909  1
  Ag  Ag31  1  0.67118594  0.49958785  0.82981543  1
  Ag  Ag32  1  0.32948080  0.16673936  0.83544545  1
  Ag  Ag33  1  0.16040964  -0.00500833  0.50001973  1
  Ag  Ag34  1  0.32907115  0.66859625  0.00245681  1
  Ag  Ag35  1  0.67556643  0.67698222  0.66667792  1
  Ag  Ag36  1  -0.00301994  0.83409113  0.82897608  1
  Ag  Ag37  1  0.50163440  0.32824462  0.83212682  1
  Ag  Ag38  1  0.50243549  0.50290554  0.33247785  1
  Ag  Ag39  1  0.15950853  0.83742609  -0.00487290  1
  Ag  Ag40  1  0.66908357  -0.00724938  0.67174660  1
  Ag  Ag41  1  0.32722785  0.50345780  0.16830835  1
  Ag  Ag42  1  0.32386646  0.33565375  0.67187916  1
  Ag  Ag43  1  0.50336420  0.84124516  0.33166217  1
  Ag  Ag44  1  0.16825722  0.32750947  0.82986634  1
  Ag  Ag45  1  0.16313086  -0.00081964  0.83819616  1
  Ag  Ag46  1  0.66445823  -0.00104772  0.33594850  1
  Ag  Ag47  1  0.00455600  0.67404460  0.34550802  1
  Ag  Ag48  1  0.67408902  0.84126810  0.82820761  1
  Ag  Ag49  1  0.16638905  0.67334517  0.17159610  1
  Ag  Ag50  1  0.16597979  -0.00418098  0.16158365  1
  Ag  Ag51  1  0.00150564  -0.00615974  0.33545032  1
  Ag  Ag52  1  0.00016389  0.51525310  0.50343331  1
  Ag  Ag53  1  0.16128756  0.50937877  0.66802289  1
  Sb  Sb54  1  0.49439725  0.15874037  0.00129184  1
  Sb  Sb55  1  0.66998919  0.83575306  0.16368773  1
  Sb  Sb56  1  0.33467931  -0.00193158  0.66907956  1
  Sb  Sb57  1  0.00432801  0.16047077  0.82789464  1
  Sb  Sb58  1  0.66998251  0.67240795  0.33869082  1
  Sb  Sb59  1  0.16244568  0.50159598  0.33593228  1
  Sb  Sb60  1  0.16674383  0.33159467  0.16080227  1
  Sb  Sb61  1  0.83522597  0.50668280  0.00043611  1
  Sb  Sb62  1  0.32678079  0.83330835  0.16681724  1
  Sb  Sb63  1  0.33171125  -0.00443298  0.33204899  1
  Sb  Sb64  1  0.16523770  0.83506247  0.33428383  1
  Sb  Sb65  1  0.33028926  -0.00458032  0.00020528  1
  Sb  Sb66  1  0.00629551  0.16151686  0.17275595  1
  Sb  Sb67  1  0.49191268  0.67317217  0.16915825  1
  Sb  Sb68  1  0.49986347  0.50304634  0.00181884  1
  Sb  Sb69  1  0.00474906  0.67690982  -0.00073295  1
  Sb  Sb70  1  0.83758979  -0.00201661  0.16493066  1
  Sb  Sb71  1  0.16357944  0.33320710  0.50671653  1
  Sb  Sb72  1  0.49835877  0.32894108  0.16214840  1
  Sb  Sb73  1  -0.00146218  0.32902220  -0.00722224  1
  Sb  Sb74  1  0.33081918  0.49710690  0.83386420  1
  Sb  Sb75  1  0.67170113  0.50749802  0.50574509  1
  Sb  Sb76  1  0.50094406  0.32775207  0.50443573  1
  Sb  Sb77  1  0.32807259  0.50288680  0.49802109  1
  Sb  Sb78  1  0.67238337  0.15765759  0.50123596  1
  Sb  Sb79  1  0.84354420  0.66907822  0.17345752  1
  Sb  Sb80  1  0.66609606  0.50044483  0.16490519  1
  Sb  Sb81  1  0.50335116  0.83508567  0.66666484  1
  Sb  Sb82  1  0.66381655  0.67440759  -0.00842895  1
  Sb  Sb83  1  0.83472266  0.67512951  0.82744858  1
  Sb  Sb84  1  0.83562023  -0.00537594  0.50372168  1
  Sb  Sb85  1  0.50324372  0.16502112  0.66521227  1
  Sb  Sb86  1  0.33567949  0.33451930  -0.00550412  1
  Sb  Sb87  1  0.66319980  0.16282011  0.83191256  1
  Sb  Sb88  1  0.32855114  0.16542861  0.49984644  1
  Sb  Sb89  1  0.33264469  0.33605606  0.33688364  1
  Sb  Sb90  1  0.32944090  0.83319266  0.49940862  1
  Sb  Sb91  1  0.66617567  0.32905905  0.33621819  1
  Sb  Sb92  1  0.16518227  0.50354459  -0.00428177  1
  Sb  Sb93  1  0.00060466  0.33346822  0.33853659  1
  Sb  Sb94  1  0.83416544  0.83577197  0.33790560  1
  Sb  Sb95  1  0.33112878  0.83775611  0.83383116  1
  Sb  Sb96  1  0.66237551  0.16145202  0.16750136  1
  Sb  Sb97  1  0.49804602  0.49956477  0.66441294  1
  Sb  Sb98  1  0.83508489  0.33549802  0.50312789  1
  Sb  Sb99  1  0.16546546  0.67121865  0.82950835  1
  Sb  Sb100  1  0.84011565  0.50477109  0.66510919  1
  Sb  Sb101  1  -0.00297267  -0.00648073  0.66552534  1
  Sb  Sb102  1  0.83529515  0.33356119  0.16603677  1
  Sb  Sb103  1  0.83235044  0.32785989  0.83012985  1
  Sb  Sb104  1  0.16133987  0.16274652  0.66678043  1
  Sb  Sb105  1  0.49999041  0.67004281  0.83236600  1
  Sb  Sb106  1  0.49752576  0.67276559  0.49897075  1
  Sb  Sb107  1  0.83691635  0.15850997  -0.00158317  1
  Te  Te108  1  0.17018799  0.16522226  0.16615534  1
  Te  Te109  1  0.16240118  0.16238689  0.49656923  1
  Te  Te110  1  0.16859365  0.16309450  0.83384858  1
  Te  Te111  1  0.16646463  0.50001572  0.16616118  1
  Te  Te112  1  0.16053915  0.50208804  0.50448873  1
  Te  Te113  1  0.16311333  0.49718732  0.82872669  1
  Te  Te114  1  0.16281136  0.83537754  0.16665522  1
  Te  Te115  1  0.16362679  0.83447811  0.50072421  1
  Te  Te116  1  0.16555405  0.83703307  0.83390217  1
  Te  Te117  1  0.49398239  0.16186040  0.17040899  1
  Te  Te118  1  0.49941298  0.16004248  0.49368338  1
  Te  Te119  1  0.49340240  0.16517091  0.83368594  1
  Te  Te120  1  0.49723085  0.50020033  0.17050757  1
  Te  Te121  1  0.50180856  0.49820998  0.49300086  1
  Te  Te122  1  0.50381976  0.49670995  0.83324718  1
  Te  Te123  1  0.50098442  0.83916334  0.16647513  1
  Te  Te124  1  0.50183166  0.83944304  0.49731973  1
  Te  Te125  1  0.50132838  0.83751879  0.83624060  1
  Te  Te126  1  0.83495574  0.16691895  0.17340551  1
  Te  Te127  1  0.83853539  0.16708650  0.49955652  1
  Te  Te128  1  0.83526606  0.15758364  0.83005746  1
  Te  Te129  1  0.83741007  0.50118904  0.17200464  1
  Te  Te130  1  0.83834860  0.50507659  0.49623973  1
  Te  Te131  1  0.83391979  0.49942234  0.83413731  1
  Te  Te132  1  0.84175920  0.83301696  0.16150411  1
  Te  Te133  1  0.83468061  0.82981009  0.50310237  1
  Te  Te134  1  0.83394324  0.83644690  0.83071819  1
  Te  Te135  1  0.16687494  -0.00207114  0.00049637  1
  Te  Te136  1  0.16533688  0.00031653  0.33492942  1
  Te  Te137  1  0.16750504  -0.00509836  0.66423714  1
  Te  Te138  1  0.16656411  0.33154028  -0.00857958  1
  Te  Te139  1  0.16758374  0.32411222  0.33330474  1
  Te  Te140  1  0.16459836  0.33116770  0.67059954  1
  Te  Te141  1  0.17082250  0.67089771  0.00349768  1
  Te  Te142  1  0.16400941  0.66643725  0.33342807  1
  Te  Te143  1  0.16336955  0.66857344  0.66669250  1
  Te  Te144  1  0.50105408  -0.00263065  -0.00310570  1
  Te  Te145  1  0.49596628  -0.00077403  0.33238961  1
  Te  Te146  1  0.50490293  0.00068193  0.67252761  1
  Te  Te147  1  0.50517037  0.33325468  -0.00583093  1
  Te  Te148  1  0.50050141  0.33518397  0.33285183  1
  Te  Te149  1  0.50425843  0.33270330  0.67191541  1
  Te  Te150  1  0.49416874  0.67288697  0.00079656  1
  Te  Te151  1  0.50138718  0.66272672  0.33346036  1
  Te  Te152  1  0.49750122  0.66618994  0.66509709  1
  Te  Te153  1  0.83051900  -0.00344194  -0.00262788  1
  Te  Te154  1  0.83473354  0.00297304  0.33246724  1
  Te  Te155  1  0.83041711  -0.00189451  0.66914012  1
  Te  Te156  1  0.82597479  0.33176293  -0.00138692  1
  Te  Te157  1  0.83183003  0.33218836  0.33382003  1
  Te  Te158  1  0.83379743  0.32940168  0.66719021  1
  Te  Te159  1  0.83209562  0.67591955  0.00162518  1
  Te  Te160  1  0.83790560  0.66461338  0.33998801  1
  Te  Te161  1  0.83453225  0.67051398  0.66275349  1
  Te  Te162  1  0.00541867  0.16031571  0.00138978  1
  Te  Te163  1  0.00062972  0.16670230  0.33709841  1
  Te  Te164  1  -0.00444479  0.16878025  0.66242552  1
  Te  Te165  1  -0.00141136  0.49854548  -0.00062826  1
  Te  Te166  1  -0.00172012  0.49985873  0.33418375  1
  Te  Te167  1  0.00019785  0.50239249  0.66563589  1
  Te  Te168  1  0.00112685  0.83735799  -0.00405972  1
  Te  Te169  1  -0.00124837  0.83432250  0.33405338  1
  Te  Te170  1  -0.00150608  0.83221127  0.66720616  1
  Te  Te171  1  0.32756956  0.16858372  0.00053492  1
  Te  Te172  1  0.33273214  0.16845387  0.33138516  1
  Te  Te173  1  0.33335775  0.17077492  0.66978236  1
  Te  Te174  1  0.33349376  0.50589899  0.00566167  1
  Te  Te175  1  0.33396103  0.50350655  0.32999318  1
  Te  Te176  1  0.32851375  0.50143173  0.66668999  1
  Te  Te177  1  0.33570846  0.82735071  0.00059741  1
  Te  Te178  1  0.34209730  0.82461122  0.33287777  1
  Te  Te179  1  0.32652141  0.82804949  0.66652549  1
  Te  Te180  1  0.66731316  0.16203052  0.00069718  1
  Te  Te181  1  0.66352983  0.16217779  0.33429803  1
  Te  Te182  1  0.67243372  0.16772275  0.66577792  1
  Te  Te183  1  0.66707796  0.50126138  -0.00674917  1
  Te  Te184  1  0.66927556  0.49896238  0.33457935  1
  Te  Te185  1  0.66655448  0.49814747  0.67053535  1
  Te  Te186  1  0.66361567  0.83802012  -0.00375834  1
  Te  Te187  1  0.66464737  0.83822406  0.33306692  1
  Te  Te188  1  0.66556851  0.83369783  0.66854248  1
  Te  Te189  1  0.00451042  -0.00265647  0.17002169  1
  Te  Te190  1  0.00085801  -0.00151175  0.49749481  1
  Te  Te191  1  0.00313984  -0.00429486  0.83412358  1
  Te  Te192  1  0.00063698  0.34269594  0.16433084  1
  Te  Te193  1  0.00025428  0.33033181  0.50671237  1
  Te  Te194  1  0.00250567  0.33502214  0.82889314  1
  Te  Te195  1  0.00676741  0.66862151  0.16545966  1
  Te  Te196  1  0.00377690  0.67081543  0.50106238  1
  Te  Te197  1  -0.00003040  0.66667960  0.83113225  1
  Te  Te198  1  0.33081755  0.00361918  0.16615637  1
  Te  Te199  1  0.33305739  0.00054881  0.50116496  1
  Te  Te200  1  0.33039346  0.00578170  0.83339630  1
  Te  Te201  1  0.33368190  0.33459317  0.16614559  1
  Te  Te202  1  0.33333209  0.33425826  0.51088117  1
  Te  Te203  1  0.33313013  0.33084767  0.83021716  1
  Te  Te204  1  0.32779115  0.66581458  0.17002159  1
  Te  Te205  1  0.32778909  0.66625966  0.50092627  1
  Te  Te206  1  0.33342315  0.66540756  0.82945506  1
  Te  Te207  1  0.66152017  -0.00063969  0.17285361  1
  Te  Te208  1  0.66606569  -0.00481918  0.49784358  1
  Te  Te209  1  0.66729714  -0.00034196  0.83215414  1
  Te  Te210  1  0.66634194  0.33293054  0.16029982  1
  Te  Te211  1  0.66663067  0.33372446  0.50799062  1
  Te  Te212  1  0.66607094  0.33090169  0.83220543  1
  Te  Te213  1  0.66753335  0.66633923  0.16632046  1
  Te  Te214  1  0.66489560  0.67485960  0.50652181  1
  Te  Te215  1  0.66686695  0.66429171  0.82635221  1
