# generated using pymatgen
data_AgSbTe2
_symmetry_space_group_name_H-M   'P 1'
_cell_length_a   18.32727092
_cell_length_b   18.32231224
_cell_length_c   18.31857471
_cell_angle_alpha   89.99975464
_cell_angle_beta   90.00336125
_cell_angle_gamma   89.99967625
_symmetry_Int_Tables_number   1
_chemical_formula_structural   AgSbTe2
_chemical_formula_sum   'Ag54 Sb54 Te108'
_cell_volume   6151.34038151
_cell_formula_units_Z   54
loop_
 _symmetry_equiv_pos_site_id
 _symmetry_equiv_pos_as_xyz
  1  'x, y, z'
loop_
 _atom_site_type_symbol
 _atom_site_label
 _atom_site_symmetry_multiplicity
 _atom_site_fract_x
 _atom_site_fract_y
 _atom_site_fract_z
 _atom_site_occupancy
  Ag  Ag0  1  0.83063382  0.49345611  0.67402038  1
  Ag  Ag1  1  0.67388934  0.49930241  0.82921115  1
  Ag  Ag2  1  0.33627395  0.33479728  0.67322560  1
  Ag  Ag3  1  0.49913781  0.50357116  -0.00285899  1
  Ag  Ag4  1  0.32407821  0.83105300  0.83991787  1
  Ag  Ag5  1  0.49755971  0.49812398  0.33256908  1
  Ag  Ag6  1  0.17121381  0.83761139  -0.00336147  1
  Ag  Ag7  1  0.66790124  0.16677808  0.50658886  1
  Ag  Ag8  1  -0.00461982  0.49991773  0.83146702  1
  Ag  Ag9  1  -0.00370405  0.32348656  -0.00137577  1
  Ag  Ag10  1  0.67615076  0.32827296  -0.00497305  1
  Ag  Ag11  1  0.16176407  0.17122080  0.67195818  1
  Ag  Ag12  1  0.49999562  0.83196948  0.67281513  1
  Ag  Ag13  1  0.83479563  0.33560476  0.83612993  1
  Ag  Ag14  1  0.51045119  0.17088582  0.66445278  1
  Ag  Ag15  1  -0.00199312  0.00240052  0.67679694  1
  Ag  Ag16  1  0.83182508  0.17116123  0.67168357  1
  Ag  Ag17  1  0.16773907  0.49670812  0.66684980  1
  Ag  Ag18  1  0.84372082  0.16985864  0.00189852  1
  Ag  Ag19  1  0.83368304  0.00917171  0.16370483  1
  Ag  Ag20  1  0.00200113  0.66814289  0.33269482  1
  Ag  Ag21  1  0.50217008  0.17183048  0.33270056  1
  Ag  Ag22  1  0.50354295  0.49758921  0.67064614  1
  Ag  Ag23  1  0.00201457  0.16751160  0.15665269  1
  Ag  Ag24  1  0.32561436  0.82674141  0.50119683  1
  Ag  Ag25  1  0.00105900  0.16285462  0.84351790  1
  Ag  Ag26  1  0.83830448  0.49849461  0.33550787  1
  Ag  Ag27  1  0.49044095  0.82922572  -0.00155796  1
  Ag  Ag28  1  0.83686308  0.32540877  0.15788003  1
  Ag  Ag29  1  0.00509060  0.83918162  0.83278240  1
  Ag  Ag30  1  0.16679534  0.66816550  0.50404036  1
  Ag  Ag31  1  0.16040717  -0.00636569  0.83438481  1
  Ag  Ag32  1  -0.00125039  0.01074969  -0.00503240  1
  Ag  Ag33  1  0.84326670  0.83089284  0.33032034  1
  Ag  Ag34  1  0.33079858  0.33401568  -0.00344882  1
  Ag  Ag35  1  0.66443857  0.83371507  0.16361408  1
  Ag  Ag36  1  0.32364509  0.16567264  0.16480392  1
  Ag  Ag37  1  0.33067571  0.50326099  0.50380799  1
  Ag  Ag38  1  0.66626034  0.65718713  0.66900548  1
  Ag  Ag39  1  0.16360430  0.50573475  0.33797080  1
  Ag  Ag40  1  0.00745027  0.83239409  0.50369703  1
  Ag  Ag41  1  0.49916573  0.66813582  0.16356666  1
  Ag  Ag42  1  0.67328139  0.00588060  -0.00512387  1
  Ag  Ag43  1  0.67072033  0.00970074  0.67362826  1
  Ag  Ag44  1  0.16403248  0.32695550  0.16310259  1
  Ag  Ag45  1  0.33417831  0.67214093  -0.00055828  1
  Ag  Ag46  1  0.66619202  0.33267751  0.67353523  1
  Ag  Ag47  1  0.84040676  0.65908758  0.83265547  1
  Ag  Ag48  1  0.83868434  0.16908764  0.32313152  1
  Ag  Ag49  1  0.15615523  0.16594100  0.00217952  1
  Ag  Ag50  1  0.16163871  0.67076771  0.83140357  1
  Ag  Ag51  1  0.33315486  0.83584143  0.15687701  1
  Ag  Ag52  1  0.16310373  0.82957917  0.33157788  1
  Ag  Ag53  1  0.16192062  0.16822145  0.32362320  1
  Sb  Sb54  1  0.66676248  0.83720819  0.50021682  1
  Sb  Sb55  1  0.67520668  0.17099176  0.82904159  1
  Sb  Sb56  1  -0.00014430  0.33511754  0.32579145  1
  Sb  Sb57  1  0.67034204  0.16449021  0.16645594  1
  Sb  Sb58  1  0.50051285  0.33526583  0.16372529  1
  Sb  Sb59  1  0.33088703  0.00000656  0.33201011  1
  Sb  Sb60  1  0.00230971  0.83842589  0.16394633  1
  Sb  Sb61  1  0.33456507  0.66430847  0.67095653  1
  Sb  Sb62  1  0.66692031  0.50196862  0.16202115  1
  Sb  Sb63  1  -0.00046934  -0.00147170  0.33074660  1
  Sb  Sb64  1  0.66313281  0.49555341  0.50726989  1
  Sb  Sb65  1  0.83115591  0.83462218  0.66591803  1
  Sb  Sb66  1  0.66895561  0.33216267  0.33181297  1
  Sb  Sb67  1  0.33136811  0.50158537  0.83034285  1
  Sb  Sb68  1  0.00443876  0.66760080  -0.00036364  1
  Sb  Sb69  1  0.83964504  0.00302158  0.83640929  1
  Sb  Sb70  1  0.49432656  0.66507154  0.49903335  1
  Sb  Sb71  1  0.67009129  0.66556838  0.33786003  1
  Sb  Sb72  1  0.66969298  0.00156028  0.33163649  1
  Sb  Sb73  1  -0.00055047  0.49435067  0.16202735  1
  Sb  Sb74  1  0.16761508  0.33715076  0.49845448  1
  Sb  Sb75  1  0.00448723  0.50562492  0.50376191  1
  Sb  Sb76  1  0.50051448  0.00008881  0.50192275  1
  Sb  Sb77  1  0.66289694  0.66546199  -0.00495396  1
  Sb  Sb78  1  0.49650646  0.83199357  0.33056309  1
  Sb  Sb79  1  0.50621337  0.33439379  0.83273702  1
  Sb  Sb80  1  0.83558679  0.83921200  0.00249368  1
  Sb  Sb81  1  0.66911630  0.83041339  0.83561557  1
  Sb  Sb82  1  0.17014147  0.83267477  0.67061204  1
  Sb  Sb83  1  0.17030098  0.66659788  0.16573874  1
  Sb  Sb84  1  0.33211218  0.00267849  0.66825371  1
  Sb  Sb85  1  0.33448424  0.16868219  0.49909720  1
  Sb  Sb86  1  0.33188714  0.33406910  0.33045173  1
  Sb  Sb87  1  0.49752154  -0.00095662  0.83377849  1
  Sb  Sb88  1  0.83396618  0.00080937  0.49862063  1
  Sb  Sb89  1  0.16454908  -0.00452127  0.50553088  1
  Sb  Sb90  1  0.83318580  0.33283997  0.50336310  1
  Sb  Sb91  1  0.33332004  0.49929075  0.16770959  1
  Sb  Sb92  1  0.49957992  0.33401423  0.50315856  1
  Sb  Sb93  1  0.16105390  0.33387286  0.83739962  1
  Sb  Sb94  1  0.17033223  0.49825362  -0.00160160  1
  Sb  Sb95  1  0.82935966  0.49210428  -0.00489348  1
  Sb  Sb96  1  0.32477504  0.16449032  0.83612436  1
  Sb  Sb97  1  -0.00070854  0.66866347  0.66881530  1
  Sb  Sb98  1  0.83886913  0.66639679  0.50388782  1
  Sb  Sb99  1  0.49918505  0.16720771  -0.00109114  1
  Sb  Sb100  1  0.83042794  0.66567582  0.16348051  1
  Sb  Sb101  1  0.49852150  0.66643410  0.83555416  1
  Sb  Sb102  1  0.32961857  -0.00102572  -0.00026403  1
  Sb  Sb103  1  0.32846432  0.66637505  0.32970366  1
  Sb  Sb104  1  -0.00181327  0.32926260  0.67481419  1
  Sb  Sb105  1  0.16168913  0.00466220  0.16064145  1
  Sb  Sb106  1  -0.00191875  0.16120905  0.50196422  1
  Sb  Sb107  1  0.50507996  -0.00283712  0.16411797  1
  Te  Te108  1  0.16523864  0.16585738  0.16410272  1
  Te  Te109  1  0.16740149  0.16560865  0.50054238  1
  Te  Te110  1  0.16112048  0.16741422  0.83337384  1
  Te  Te111  1  0.16600266  0.49444691  0.17247719  1
  Te  Te112  1  0.16937620  0.50352678  0.49946643  1
  Te  Te113  1  0.16363926  0.50313194  0.83012621  1
  Te  Te114  1  0.17069438  0.83465632  0.16623051  1
  Te  Te115  1  0.16630543  0.83003788  0.50148076  1
  Te  Te116  1  0.16535278  0.83193645  0.83213192  1
  Te  Te117  1  0.49865365  0.16638481  0.17057923  1
  Te  Te118  1  0.50198096  0.16708425  0.50159944  1
  Te  Te119  1  0.49581903  0.16590593  0.82518822  1
  Te  Te120  1  0.50004688  0.50355959  0.16758454  1
  Te  Te121  1  0.49490303  0.50059788  0.49957518  1
  Te  Te122  1  0.50191855  0.50064410  0.83137984  1
  Te  Te123  1  0.49663924  0.83093193  0.16556189  1
  Te  Te124  1  0.49692684  0.83234253  0.50167751  1
  Te  Te125  1  0.49908901  0.83224077  0.83360909  1
  Te  Te126  1  0.83186992  0.16842888  0.16503378  1
  Te  Te127  1  0.83018607  0.16678050  0.50148703  1
  Te  Te128  1  0.83956689  0.16905247  0.83206978  1
  Te  Te129  1  0.83318134  0.49714098  0.17507057  1
  Te  Te130  1  0.83375041  0.50027511  0.49579282  1
  Te  Te131  1  0.83380406  0.49881562  0.83286273  1
  Te  Te132  1  0.83234050  0.83266829  0.17064629  1
  Te  Te133  1  0.83597987  0.83312491  0.49187267  1
  Te  Te134  1  0.83847012  0.82757480  0.83366737  1
  Te  Te135  1  0.16342741  0.00075262  -0.00436843  1
  Te  Te136  1  0.16458862  0.00088578  0.33419609  1
  Te  Te137  1  0.16418935  0.00485702  0.67243347  1
  Te  Te138  1  0.16979171  0.33216442  0.00272240  1
  Te  Te139  1  0.16645980  0.32952590  0.32861360  1
  Te  Te140  1  0.16724328  0.33500030  0.66709239  1
  Te  Te141  1  0.17156379  0.66830548  -0.00257407  1
  Te  Te142  1  0.16386314  0.66730509  0.33246667  1
  Te  Te143  1  0.16667422  0.66151394  0.66684230  1
  Te  Te144  1  0.50830917  -0.00601849  -0.00124606  1
  Te  Te145  1  0.50146602  0.00888851  0.33337499  1
  Te  Te146  1  0.50401405  0.00131438  0.66775814  1
  Te  Te147  1  0.49476169  0.33665733  -0.00074379  1
  Te  Te148  1  0.50045188  0.33372793  0.33222258  1
  Te  Te149  1  0.50047599  0.33469518  0.66839349  1
  Te  Te150  1  0.49704310  0.66783627  0.00161169  1
  Te  Te151  1  0.50094322  0.66203112  0.32860570  1
  Te  Te152  1  0.50301201  0.66497294  0.66654140  1
  Te  Te153  1  0.83359864  0.00416184  0.00201168  1
  Te  Te154  1  0.83370390  0.00363047  0.32779991  1
  Te  Te155  1  0.83270759  0.00317975  0.66662091  1
  Te  Te156  1  0.83364373  0.33133715  -0.00097254  1
  Te  Te157  1  0.83324485  0.33197477  0.33131465  1
  Te  Te158  1  0.83205320  0.33309701  0.66938195  1
  Te  Te159  1  0.83308133  0.66553651  -0.00549777  1
  Te  Te160  1  0.83715537  0.66611092  0.33319706  1
  Te  Te161  1  0.83084749  0.66433365  0.67088077  1
  Te  Te162  1  -0.00040308  0.16704813  0.00001931  1
  Te  Te163  1  -0.00040152  0.16649134  0.33380128  1
  Te  Te164  1  0.00097024  0.16345808  0.66589478  1
  Te  Te165  1  0.00089526  0.49886564  -0.00660051  1
  Te  Te166  1  0.00190572  0.50242483  0.33371740  1
  Te  Te167  1  -0.00194647  0.49976591  0.67052342  1
  Te  Te168  1  0.00462489  0.83441678  -0.00418696  1
  Te  Te169  1  0.00250364  0.83275311  0.33124140  1
  Te  Te170  1  -0.00053726  0.83671647  0.66852448  1
  Te  Te171  1  0.33418097  0.16883216  0.00393019  1
  Te  Te172  1  0.33058271  0.16760577  0.33051494  1
  Te  Te173  1  0.32943748  0.17099859  0.66676075  1
  Te  Te174  1  0.33805324  0.49775324  -0.00060074  1
  Te  Te175  1  0.33371603  0.49961396  0.33766331  1
  Te  Te176  1  0.33292675  0.49800470  0.66550270  1
  Te  Te177  1  0.33222716  0.83572069  -0.00077063  1
  Te  Te178  1  0.32795691  0.83294945  0.33633378  1
  Te  Te179  1  0.33827606  0.83331977  0.66546952  1
  Te  Te180  1  0.66578112  0.16729311  -0.00178981  1
  Te  Te181  1  0.66623169  0.16729237  0.33788321  1
  Te  Te182  1  0.66864606  0.16920161  0.66846510  1
  Te  Te183  1  0.66053962  0.49738487  -0.00536053  1
  Te  Te184  1  0.66451853  0.49940095  0.33501687  1
  Te  Te185  1  0.66790359  0.49687138  0.66825441  1
  Te  Te186  1  0.66758137  0.83360026  0.00326283  1
  Te  Te187  1  0.66816037  0.83383423  0.32929376  1
  Te  Te188  1  0.66252151  0.83576435  0.66640418  1
  Te  Te189  1  -0.00556513  0.00595989  0.16159249  1
  Te  Te190  1  -0.00074367  -0.00865744  0.50706602  1
  Te  Te191  1  0.00047057  -0.00021767  0.83467658  1
  Te  Te192  1  -0.00083473  0.32817252  0.16032319  1
  Te  Te193  1  0.00065712  0.33371010  0.50019921  1
  Te  Te194  1  -0.00479827  0.33302054  0.83838098  1
  Te  Te195  1  -0.00031410  0.66607012  0.17214984  1
  Te  Te196  1  0.00568819  0.67242545  0.49577540  1
  Te  Te197  1  0.00114063  0.66559372  0.83401180  1
  Te  Te198  1  0.33402812  -0.00073098  0.16622653  1
  Te  Te199  1  0.33273612  -0.00931391  0.50012129  1
  Te  Te200  1  0.32532954  -0.00762187  0.83320170  1
  Te  Te201  1  0.33078147  0.32995623  0.16271482  1
  Te  Te202  1  0.33272479  0.33805034  0.50895460  1
  Te  Te203  1  0.33183793  0.33313169  0.83415716  1
  Te  Te204  1  0.33722490  0.66969439  0.16089710  1
  Te  Te205  1  0.32732018  0.66589105  0.49936351  1
  Te  Te206  1  0.32893876  0.67053381  0.83820562  1
  Te  Te207  1  0.67223544  -0.00469333  0.16242393  1
  Te  Te208  1  0.66712719  0.00551504  0.50854633  1
  Te  Te209  1  0.66735422  -0.00109354  0.83417632  1
  Te  Te210  1  0.67215218  0.33351279  0.15974923  1
  Te  Te211  1  0.66672138  0.32683809  0.50721455  1
  Te  Te212  1  0.67173849  0.33682221  0.83443328  1
  Te  Te213  1  0.66188862  0.67146167  0.16779069  1
  Te  Te214  1  0.66681496  0.66758391  0.50841619  1
  Te  Te215  1  0.66952642  0.66261192  0.82826942  1
