# generated using pymatgen
data_AgSbTe2
_symmetry_space_group_name_H-M   'P 1'
_cell_length_a   18.34034378
_cell_length_b   18.33047993
_cell_length_c   18.33371672
_cell_angle_alpha   90.00049236
_cell_angle_beta   90.00070326
_cell_angle_gamma   90.00025513
_symmetry_Int_Tables_number   1
_chemical_formula_structural   AgSbTe2
_chemical_formula_sum   'Ag54 Sb54 Te108'
_cell_volume   6163.56278871
_cell_formula_units_Z   54
loop_
 _symmetry_equiv_pos_site_id
 _symmetry_equiv_pos_as_xyz
  1  'x, y, z'
loop_
 _atom_site_type_symbol
 _atom_site_label
 _atom_site_symmetry_multiplicity
 _atom_site_fract_x
 _atom_site_fract_y
 _atom_site_fract_z
 _atom_site_occupancy
  Ag  Ag0  1  0.32823891  0.82501613  0.49911420  1
  Ag  Ag1  1  0.00212954  0.66683332  0.66205050  1
  Ag  Ag2  1  0.17277605  0.81881504  0.00367196  1
  Ag  Ag3  1  0.49401028  0.50514334  -0.00735415  1
  Ag  Ag4  1  0.15757543  0.33714152  0.83851822  1
  Ag  Ag5  1  0.83937735  0.34482791  0.16272275  1
  Ag  Ag6  1  0.49699613  0.50611548  0.68018190  1
  Ag  Ag7  1  0.16247744  0.50085722  0.32122668  1
  Ag  Ag8  1  0.66528454  0.16295479  0.50033173  1
  Ag  Ag9  1  0.31944882  0.50807723  0.15641926  1
  Ag  Ag10  1  0.16754963  0.17151029  0.34086740  1
  Ag  Ag11  1  0.84086686  0.50002976  -0.00055267  1
  Ag  Ag12  1  0.16522111  0.16401212  0.65828685  1
  Ag  Ag13  1  0.33493109  0.66578371  0.66124460  1
  Ag  Ag14  1  0.33187465  0.50849497  0.50152091  1
  Ag  Ag15  1  0.48591683  0.66437306  0.50820432  1
  Ag  Ag16  1  0.34246330  0.50257476  0.83915087  1
  Ag  Ag17  1  -0.00001628  0.66333892  0.34123418  1
  Ag  Ag18  1  0.50123048  0.00045090  0.83418098  1
  Ag  Ag19  1  0.50020778  0.16785033  -0.00224273  1
  Ag  Ag20  1  0.00984627  0.16398312  0.50565293  1
  Ag  Ag21  1  0.66105177  0.66756262  0.66715324  1
  Ag  Ag22  1  0.16844478  0.66691502  0.49793998  1
  Ag  Ag23  1  0.83020172  -0.00527112  0.16634532  1
  Ag  Ag24  1  0.00589793  0.00068822  0.66360777  1
  Ag  Ag25  1  0.84060531  0.50203250  0.32267864  1
  Ag  Ag26  1  0.16708348  -0.00165430  0.50230666  1
  Ag  Ag27  1  0.33563273  0.66436186  0.00556481  1
  Ag  Ag28  1  0.32676015  0.16562365  0.50242171  1
  Ag  Ag29  1  0.66357906  -0.00152830  0.00076338  1
  Ag  Ag30  1  -0.00148890  0.49763700  0.84069326  1
  Ag  Ag31  1  0.84176253  0.66141673  0.50304200  1
  Ag  Ag32  1  0.66288574  -0.00296667  0.66677878  1
  Ag  Ag33  1  0.49943334  0.65859574  0.83364332  1
  Ag  Ag34  1  0.33408527  -0.00425972  0.66444715  1
  Ag  Ag35  1  0.66254148  0.83174691  0.16444349  1
  Ag  Ag36  1  0.17303045  0.65894776  0.16784348  1
  Ag  Ag37  1  0.49757502  0.16498430  0.33497101  1
  Ag  Ag38  1  0.84034203  0.34223800  0.83839551  1
  Ag  Ag39  1  0.00819769  0.82246309  0.50194390  1
  Ag  Ag40  1  0.00186451  0.17839520  0.82772485  1
  Ag  Ag41  1  0.83027037  0.65909143  0.83401579  1
  Ag  Ag42  1  0.33577537  0.82511911  0.16226826  1
  Ag  Ag43  1  0.16732317  0.50220886  0.00660421  1
  Ag  Ag44  1  0.83505730  0.34159308  0.50014635  1
  Ag  Ag45  1  0.65698064  0.50230914  0.83339811  1
  Ag  Ag46  1  0.16074639  0.34745078  0.16107746  1
  Ag  Ag47  1  0.00741526  0.50169408  0.16033741  1
  Ag  Ag48  1  0.83584990  0.66081576  0.16551171  1
  Ag  Ag49  1  -0.00020642  0.33905334  -0.00333809  1
  Ag  Ag50  1  0.48851813  0.66580222  0.15751215  1
  Ag  Ag51  1  0.66671653  0.00225151  0.33369393  1
  Ag  Ag52  1  0.50048157  0.34630182  0.83546859  1
  Ag  Ag53  1  0.49504364  0.82209298  0.00217232  1
  Sb  Sb54  1  0.16714012  0.82745019  0.33388028  1
  Sb  Sb55  1  0.49555730  -0.00365817  0.50399559  1
  Sb  Sb56  1  0.16916073  0.00462162  0.82798512  1
  Sb  Sb57  1  0.66352289  0.82775014  0.83788200  1
  Sb  Sb58  1  0.83010174  0.17242515  -0.00001937  1
  Sb  Sb59  1  -0.00300372  0.00440791  -0.00435453  1
  Sb  Sb60  1  0.00154485  0.82345303  0.16958496  1
  Sb  Sb61  1  0.16325903  -0.00376301  0.17248003  1
  Sb  Sb62  1  0.83820677  0.16671143  0.66538047  1
  Sb  Sb63  1  0.17042848  0.49893996  0.66959415  1
  Sb  Sb64  1  0.66980368  0.50700681  0.16072660  1
  Sb  Sb65  1  0.33530308  0.00094288  0.33900456  1
  Sb  Sb66  1  0.67007506  0.33377928  -0.00105899  1
  Sb  Sb67  1  0.49931851  0.34010029  0.16002203  1
  Sb  Sb68  1  0.00272339  0.50222955  0.50019695  1
  Sb  Sb69  1  0.16796762  0.83465222  0.66656856  1
  Sb  Sb70  1  0.49606097  0.16765207  0.66709100  1
  Sb  Sb71  1  0.50313278  -0.00609960  0.16218166  1
  Sb  Sb72  1  0.83249062  0.82481560  0.00269422  1
  Sb  Sb73  1  0.33104906  0.33478323  0.33315515  1
  Sb  Sb74  1  0.32884839  0.66517469  0.33318566  1
  Sb  Sb75  1  0.50205276  0.33588908  0.50372653  1
  Sb  Sb76  1  0.49967270  0.83385614  0.32917052  1
  Sb  Sb77  1  0.66791465  0.17000846  0.82992421  1
  Sb  Sb78  1  0.83351988  0.82705352  0.33292922  1
  Sb  Sb79  1  0.66723855  0.33570839  0.66847399  1
  Sb  Sb80  1  0.66626937  0.16149923  0.16925177  1
  Sb  Sb81  1  0.00220316  0.82768815  0.83001168  1
  Sb  Sb82  1  0.33480974  0.82419626  0.83273330  1
  Sb  Sb83  1  0.83159286  0.50319417  0.67370325  1
  Sb  Sb84  1  0.49850658  0.82652617  0.67130801  1
  Sb  Sb85  1  0.33165104  0.17221944  0.82983004  1
  Sb  Sb86  1  0.16897640  0.65877304  0.83344779  1
  Sb  Sb87  1  0.66820245  0.33071792  0.33335249  1
  Sb  Sb88  1  0.49803826  0.49965078  0.33080157  1
  Sb  Sb89  1  0.32868598  0.34321529  -0.00194902  1
  Sb  Sb90  1  0.00119368  0.33544005  0.67096186  1
  Sb  Sb91  1  0.83602257  0.17170793  0.33531147  1
  Sb  Sb92  1  -0.00259102  -0.00267492  0.33870279  1
  Sb  Sb93  1  0.33393983  0.16757521  0.16909059  1
  Sb  Sb94  1  0.33920829  -0.00777164  -0.00665082  1
  Sb  Sb95  1  0.16308019  0.33466754  0.49989710  1
  Sb  Sb96  1  0.65980102  0.66755637  -0.00305478  1
  Sb  Sb97  1  0.00403270  0.65994983  -0.00120685  1
  Sb  Sb98  1  0.83622230  -0.00152464  0.49775800  1
  Sb  Sb99  1  0.66570160  0.50117285  0.50476033  1
  Sb  Sb100  1  0.00075177  0.17318130  0.16807502  1
  Sb  Sb101  1  0.66476574  0.83364117  0.49745371  1
  Sb  Sb102  1  0.82958148  -0.00036827  0.83576546  1
  Sb  Sb103  1  0.33219464  0.33849309  0.66752523  1
  Sb  Sb104  1  0.17049908  0.17221157  0.00053610  1
  Sb  Sb105  1  0.00066624  0.34007926  0.33043802  1
  Sb  Sb106  1  0.83408598  0.82946437  0.66557737  1
  Sb  Sb107  1  0.67219080  0.66884541  0.33584581  1
  Te  Te108  1  0.16787850  0.16617201  0.17174337  1
  Te  Te109  1  0.16649051  0.17240258  0.49890122  1
  Te  Te110  1  0.16327213  0.17242559  0.83322368  1
  Te  Te111  1  0.16412957  0.50335120  0.16578185  1
  Te  Te112  1  0.17037242  0.50181732  0.50193885  1
  Te  Te113  1  0.16159209  0.49598620  0.83472375  1
  Te  Te114  1  0.16938255  0.82936321  0.16472047  1
  Te  Te115  1  0.16756299  0.83153392  0.49997679  1
  Te  Te116  1  0.16771163  0.83566645  0.84322817  1
  Te  Te117  1  0.49928874  0.16985237  0.16692909  1
  Te  Te118  1  0.50131377  0.16730111  0.49880076  1
  Te  Te119  1  0.49965596  0.16192350  0.83520027  1
  Te  Te120  1  0.50118270  0.50540676  0.16320776  1
  Te  Te121  1  0.49685278  0.50360411  0.49750938  1
  Te  Te122  1  0.49944663  0.50269430  0.83609440  1
  Te  Te123  1  0.49770223  0.82782824  0.16300248  1
  Te  Te124  1  0.49568095  0.82655163  0.49874846  1
  Te  Te125  1  0.49953280  0.83894734  0.84159233  1
  Te  Te126  1  0.83447739  0.16725269  0.16723463  1
  Te  Te127  1  0.82962329  0.16709662  0.49880334  1
  Te  Te128  1  0.83890860  0.17105650  0.83350905  1
  Te  Te129  1  0.83018045  0.50158086  0.16405212  1
  Te  Te130  1  0.83267747  0.50067283  0.50070909  1
  Te  Te131  1  0.83874552  0.50039963  0.83423585  1
  Te  Te132  1  0.83236133  0.83321324  0.16656240  1
  Te  Te133  1  0.83686788  0.82644255  0.49882054  1
  Te  Te134  1  0.83304488  0.82367119  0.83512264  1
  Te  Te135  1  0.16711795  0.00195284  0.00128959  1
  Te  Te136  1  0.16590248  0.00498121  0.34075293  1
  Te  Te137  1  0.16629153  0.00177113  0.66257956  1
  Te  Te138  1  0.16284793  0.33670474  0.00035609  1
  Te  Te139  1  0.16543623  0.33590079  0.32838973  1
  Te  Te140  1  0.16727533  0.32561865  0.67276203  1
  Te  Te141  1  0.16998160  0.66244034  0.00036520  1
  Te  Te142  1  0.16164274  0.66292767  0.33391576  1
  Te  Te143  1  0.16882168  0.66747754  0.66388088  1
  Te  Te144  1  0.50300617  0.00228039  -0.00254860  1
  Te  Te145  1  0.50462074  0.00475254  0.33320437  1
  Te  Te146  1  0.49958414  -0.00083292  0.66978080  1
  Te  Te147  1  0.50073217  0.33250521  -0.00375714  1
  Te  Te148  1  0.50065821  0.32622166  0.33212182  1
  Te  Te149  1  0.50019238  0.33966992  0.67254806  1
  Te  Te150  1  0.49838649  0.66554955  -0.00169120  1
  Te  Te151  1  0.50426452  0.66574025  0.33322786  1
  Te  Te152  1  0.49839753  0.66656783  0.66753477  1
  Te  Te153  1  0.82843482  -0.00085221  0.00383525  1
  Te  Te154  1  0.82908608  0.00103485  0.32871801  1
  Te  Te155  1  0.83019167  -0.00147484  0.66748081  1
  Te  Te156  1  0.83603234  0.33796463  -0.00066561  1
  Te  Te157  1  0.83410624  0.33963382  0.33232647  1
  Te  Te158  1  0.83338046  0.33414070  0.66498919  1
  Te  Te159  1  0.83282197  0.66079192  -0.00100705  1
  Te  Te160  1  0.83723484  0.66175214  0.33274840  1
  Te  Te161  1  0.83369358  0.66678675  0.66606815  1
  Te  Te162  1  0.00007471  0.17310345  -0.00373865  1
  Te  Te163  1  0.00492858  0.16592762  0.33698752  1
  Te  Te164  1  0.00325584  0.16569887  0.66662165  1
  Te  Te165  1  0.00128531  0.49935219  0.00117166  1
  Te  Te166  1  0.00081101  0.50389895  0.33291765  1
  Te  Te167  1  0.00238034  0.50576292  0.67082415  1
  Te  Te168  1  0.00600543  0.83563763  0.00008436  1
  Te  Te169  1  0.00043183  0.82761447  0.34063451  1
  Te  Te170  1  0.00105351  0.83336693  0.66202394  1
  Te  Te171  1  0.33984626  0.16425769  -0.00036939  1
  Te  Te172  1  0.33256720  0.16703779  0.33699279  1
  Te  Te173  1  0.32957962  0.16319544  0.66407360  1
  Te  Te174  1  0.33233339  0.50415613  -0.00043848  1
  Te  Te175  1  0.32906840  0.49897197  0.33880839  1
  Te  Te176  1  0.33625200  0.50400182  0.66264128  1
  Te  Te177  1  0.33371399  0.82748646  0.00038659  1
  Te  Te178  1  0.33337774  0.83504777  0.33667081  1
  Te  Te179  1  0.33300799  0.83238438  0.66177229  1
  Te  Te180  1  0.66185867  0.16096631  -0.00107591  1
  Te  Te181  1  0.66527715  0.16275906  0.33713167  1
  Te  Te182  1  0.66521415  0.16252598  0.66251651  1
  Te  Te183  1  0.66396303  0.50065122  -0.00614647  1
  Te  Te184  1  0.67207934  0.49908218  0.33478319  1
  Te  Te185  1  0.65967666  0.50489170  0.67113314  1
  Te  Te186  1  0.66494311  0.83793105  0.00423375  1
  Te  Te187  1  0.66671240  0.84104011  0.32699048  1
  Te  Te188  1  0.66548410  0.83397055  0.66651424  1
  Te  Te189  1  -0.00611044  -0.00093026  0.16661653  1
  Te  Te190  1  0.00251982  0.00410505  0.50344698  1
  Te  Te191  1  -0.00065935  0.00034043  0.82613840  1
  Te  Te192  1  -0.00034822  0.33796582  0.16349797  1
  Te  Te193  1  -0.00451747  0.32877785  0.50070426  1
  Te  Te194  1  -0.00194855  0.33520685  0.83368159  1
  Te  Te195  1  -0.00309730  0.66225411  0.16556291  1
  Te  Te196  1  0.00189976  0.66397699  0.50169141  1
  Te  Te197  1  -0.00201278  0.66356621  0.82823889  1
  Te  Te198  1  0.33270232  -0.00653748  0.16580529  1
  Te  Te199  1  0.32943412  0.00424255  0.50471528  1
  Te  Te200  1  0.33682225  0.00081434  0.82535439  1
  Te  Te201  1  0.32916699  0.33852660  0.16548564  1
  Te  Te202  1  0.33401981  0.32675987  0.50072760  1
  Te  Te203  1  0.33905836  0.34022458  0.83294762  1
  Te  Te204  1  0.33244392  0.66672216  0.16845657  1
  Te  Te205  1  0.33022318  0.66707722  0.49801666  1
  Te  Te206  1  0.33609723  0.66176074  0.82973882  1
  Te  Te207  1  0.66841119  -0.00379264  0.16550727  1
  Te  Te208  1  0.66648624  0.00015076  0.50210736  1
  Te  Te209  1  0.66555114  0.00093343  0.83093362  1
  Te  Te210  1  0.67343937  0.33229560  0.16629625  1
  Te  Te211  1  0.67188242  0.32809947  0.50101385  1
  Te  Te212  1  0.66601992  0.33819157  0.83304638  1
  Te  Te213  1  0.67357854  0.67269596  0.16790133  1
  Te  Te214  1  0.67138638  0.66861546  0.50478716  1
  Te  Te215  1  0.66505495  0.66390078  0.83017088  1
