# generated using pymatgen
data_AgSbTe2
_symmetry_space_group_name_H-M   'P 1'
_cell_length_a   18.31520399
_cell_length_b   18.31388286
_cell_length_c   18.30823610
_cell_angle_alpha   90.00067557
_cell_angle_beta   89.99910318
_cell_angle_gamma   89.99961415
_symmetry_Int_Tables_number   1
_chemical_formula_structural   AgSbTe2
_chemical_formula_sum   'Ag54 Sb54 Te108'
_cell_volume   6140.99432909
_cell_formula_units_Z   54
loop_
 _symmetry_equiv_pos_site_id
 _symmetry_equiv_pos_as_xyz
  1  'x, y, z'
loop_
 _atom_site_type_symbol
 _atom_site_label
 _atom_site_symmetry_multiplicity
 _atom_site_fract_x
 _atom_site_fract_y
 _atom_site_fract_z
 _atom_site_occupancy
  Ag  Ag0  1  0.33860727  0.49591653  0.49442604  1
  Ag  Ag1  1  0.66988292  0.00189382  0.00100042  1
  Ag  Ag2  1  0.16827825  0.16978306  0.33028375  1
  Ag  Ag3  1  0.15763115  0.00869654  0.16687272  1
  Ag  Ag4  1  0.66921822  0.33228530  0.66787233  1
  Ag  Ag5  1  0.50614305  0.83374084  0.66456913  1
  Ag  Ag6  1  0.66409760  0.50453380  0.49824937  1
  Ag  Ag7  1  0.66733784  0.49471183  0.83008102  1
  Ag  Ag8  1  -0.00664114  0.00472098  0.00797892  1
  Ag  Ag9  1  0.32707532  0.16908247  0.16726171  1
  Ag  Ag10  1  0.50062728  0.00063532  0.49900351  1
  Ag  Ag11  1  0.50029634  0.00731307  0.83704387  1
  Ag  Ag12  1  0.83742475  0.83899052  0.00344367  1
  Ag  Ag13  1  0.33299046  0.17565276  0.49593849  1
  Ag  Ag14  1  -0.00194428  0.49221636  0.16912689  1
  Ag  Ag15  1  0.49323379  0.33759439  0.49809012  1
  Ag  Ag16  1  0.82976196  0.83674832  0.65698667  1
  Ag  Ag17  1  0.84245472  0.00549194  0.16364719  1
  Ag  Ag18  1  -0.00176021  0.50365839  0.49263621  1
  Ag  Ag19  1  -0.00259066  0.33155502  0.00732937  1
  Ag  Ag20  1  0.50241053  0.16587376  -0.00279791  1
  Ag  Ag21  1  0.67286516  0.66364469  0.33831613  1
  Ag  Ag22  1  0.49962060  0.00823186  0.16422093  1
  Ag  Ag23  1  0.67116591  0.82384004  0.50081242  1
  Ag  Ag24  1  0.49957901  0.66597738  0.82887784  1
  Ag  Ag25  1  0.49714303  0.32764982  0.16846599  1
  Ag  Ag26  1  -0.00118802  -0.00341209  0.32660848  1
  Ag  Ag27  1  0.33009360  0.66025266  0.33496981  1
  Ag  Ag28  1  0.84435621  0.32993296  0.16452711  1
  Ag  Ag29  1  0.83644074  0.82411805  0.33854217  1
  Ag  Ag30  1  0.34116255  0.16617513  0.83679341  1
  Ag  Ag31  1  0.33297134  0.33629853  0.33595427  1
  Ag  Ag32  1  -0.00653640  0.49722364  0.83816750  1
  Ag  Ag33  1  -0.00048392  0.66628511  0.33628473  1
  Ag  Ag34  1  0.50201571  0.50046131  0.33674984  1
  Ag  Ag35  1  -0.00788082  0.82447434  0.49749140  1
  Ag  Ag36  1  0.83302089  0.66736468  0.49504987  1
  Ag  Ag37  1  -0.00372795  0.33250146  0.66809634  1
  Ag  Ag38  1  0.16387968  0.65992323  0.49281599  1
  Ag  Ag39  1  0.83221934  0.16383795  0.00148587  1
  Ag  Ag40  1  0.16611165  0.66567894  0.17490218  1
  Ag  Ag41  1  0.83599641  0.16765468  0.66979211  1
  Ag  Ag42  1  0.65976673  0.17117593  0.83554711  1
  Ag  Ag43  1  0.83419447  0.50556430  0.33369731  1
  Ag  Ag44  1  0.83581001  0.49567888  0.00632973  1
  Ag  Ag45  1  0.50258559  0.66176071  0.49803087  1
  Ag  Ag46  1  0.00436749  0.17001268  0.16541273  1
  Ag  Ag47  1  0.33382827  0.66710305  0.00441477  1
  Ag  Ag48  1  0.50209085  0.32821060  0.83295324  1
  Ag  Ag49  1  0.33825775  0.83524074  0.83565254  1
  Ag  Ag50  1  0.16132228  0.83409354  0.00257569  1
  Ag  Ag51  1  0.16130058  0.32680962  0.17270761  1
  Ag  Ag52  1  0.17176889  0.33572842  0.49325092  1
  Ag  Ag53  1  0.16371448  0.16905116  0.66005907  1
  Sb  Sb54  1  0.16111002  0.50240287  0.00274996  1
  Sb  Sb55  1  0.33158489  0.83669521  0.16354840  1
  Sb  Sb56  1  0.50078417  0.83938911  -0.00457356  1
  Sb  Sb57  1  0.67307843  0.49799321  0.16959808  1
  Sb  Sb58  1  0.00065951  0.82948585  0.83197932  1
  Sb  Sb59  1  0.16159254  0.83246116  0.33007008  1
  Sb  Sb60  1  0.49452472  0.17108168  0.32972725  1
  Sb  Sb61  1  0.17058865  0.66633814  0.83375029  1
  Sb  Sb62  1  0.83885474  0.16785450  0.32926251  1
  Sb  Sb63  1  0.33470996  0.33067304  0.65890099  1
  Sb  Sb64  1  0.66693777  0.16634055  0.16129696  1
  Sb  Sb65  1  0.66205891  0.16944973  0.50598642  1
  Sb  Sb66  1  0.82804919  0.00127948  0.84219957  1
  Sb  Sb67  1  0.66180311  0.83274730  0.82880373  1
  Sb  Sb68  1  -0.00294600  0.00480663  0.66498669  1
  Sb  Sb69  1  0.16928525  0.33090698  0.83261169  1
  Sb  Sb70  1  0.82920794  0.66503207  0.83028164  1
  Sb  Sb71  1  0.00387032  0.16975981  0.49553058  1
  Sb  Sb72  1  0.16913978  0.00268875  0.49338620  1
  Sb  Sb73  1  0.67015109  -0.00412556  0.32961570  1
  Sb  Sb74  1  0.00216920  0.66605617  0.00699816  1
  Sb  Sb75  1  0.66601203  0.00357185  0.67045552  1
  Sb  Sb76  1  0.83981577  0.66560327  0.17373490  1
  Sb  Sb77  1  0.66646218  0.66381338  0.65927174  1
  Sb  Sb78  1  0.67080643  0.32933826  -0.00299616  1
  Sb  Sb79  1  0.66180815  0.33886452  0.33776417  1
  Sb  Sb80  1  0.66884444  0.83396944  0.17014278  1
  Sb  Sb81  1  0.82984497  -0.00533565  0.49428009  1
  Sb  Sb82  1  0.83431300  0.33800434  0.49582371  1
  Sb  Sb83  1  0.50266786  0.50039908  0.65865604  1
  Sb  Sb84  1  0.33526952  0.66714924  0.66210601  1
  Sb  Sb85  1  0.83282653  0.49787042  0.66296593  1
  Sb  Sb86  1  -0.00162755  0.66144234  0.65777851  1
  Sb  Sb87  1  0.33461002  -0.00015248  0.00135649  1
  Sb  Sb88  1  0.17083729  0.00191706  0.84026718  1
  Sb  Sb89  1  0.16343391  0.49363493  0.66141959  1
  Sb  Sb90  1  0.33123697  0.00123275  0.33157081  1
  Sb  Sb91  1  0.66490568  0.66967693  0.00235908  1
  Sb  Sb92  1  0.49963492  0.16568072  0.67148278  1
  Sb  Sb93  1  -0.00047037  0.17017472  0.83897833  1
  Sb  Sb94  1  0.33571914  0.83051638  0.50170461  1
  Sb  Sb95  1  0.83031832  0.33382917  0.83719546  1
  Sb  Sb96  1  0.50497860  0.49540317  0.00335569  1
  Sb  Sb97  1  0.16569315  0.83765518  0.66714806  1
  Sb  Sb98  1  0.16558193  0.16415812  0.00585958  1
  Sb  Sb99  1  0.00468060  0.33641514  0.33090370  1
  Sb  Sb100  1  0.16336163  0.49820613  0.33458156  1
  Sb  Sb101  1  0.49370088  0.66448519  0.17093047  1
  Sb  Sb102  1  0.50450637  0.82925938  0.33908141  1
  Sb  Sb103  1  0.33494141  0.00160733  0.66662387  1
  Sb  Sb104  1  0.33085442  0.33452878  0.00627962  1
  Sb  Sb105  1  0.33822388  0.49795294  0.83084494  1
  Sb  Sb106  1  0.32852879  0.49461915  0.17399711  1
  Sb  Sb107  1  -0.00032402  0.83706355  0.17102518  1
  Te  Te108  1  0.16623321  0.16745857  0.16705324  1
  Te  Te109  1  0.17022551  0.16786095  0.49705233  1
  Te  Te110  1  0.17232029  0.16644014  0.82989731  1
  Te  Te111  1  0.16069511  0.49953661  0.16652167  1
  Te  Te112  1  0.16362360  0.49939626  0.50019503  1
  Te  Te113  1  0.16307546  0.49952295  0.83259810  1
  Te  Te114  1  0.16634743  0.83083035  0.16197930  1
  Te  Te115  1  0.16454540  0.83225345  0.50086829  1
  Te  Te116  1  0.17308559  0.83362586  0.83730964  1
  Te  Te117  1  0.50045754  0.16788914  0.16422735  1
  Te  Te118  1  0.49565601  0.16880645  0.50084173  1
  Te  Te119  1  0.49993192  0.16719007  0.83314984  1
  Te  Te120  1  0.49998190  0.49494714  0.17192354  1
  Te  Te121  1  0.50189028  0.49979218  0.49804927  1
  Te  Te122  1  0.50331521  0.49901600  0.83413499  1
  Te  Te123  1  0.50002342  0.83968536  0.16630324  1
  Te  Te124  1  0.50060373  0.83200228  0.50402899  1
  Te  Te125  1  0.49759039  0.83127054  0.82976422  1
  Te  Te126  1  0.83471106  0.16788342  0.16373842  1
  Te  Te127  1  0.83249708  0.16637346  0.50327074  1
  Te  Te128  1  0.83129915  0.16689512  0.83478014  1
  Te  Te129  1  0.83771379  0.49900780  0.16694523  1
  Te  Te130  1  0.83311967  0.50316284  0.49637230  1
  Te  Te131  1  0.83285552  0.50074111  0.83530256  1
  Te  Te132  1  0.83353963  0.83664461  0.16382157  1
  Te  Te133  1  0.83286504  0.83245266  0.49772217  1
  Te  Te134  1  0.83263980  0.83261484  0.83420853  1
  Te  Te135  1  0.16342821  -0.00464525  0.00658634  1
  Te  Te136  1  0.16280716  0.00256967  0.32688317  1
  Te  Te137  1  0.16480085  0.00780835  0.66656422  1
  Te  Te138  1  0.16058387  0.33362425  0.00448672  1
  Te  Te139  1  0.17017900  0.33143397  0.33326417  1
  Te  Te140  1  0.16320879  0.32726993  0.66415863  1
  Te  Te141  1  0.17058280  0.67092733  0.00129423  1
  Te  Te142  1  0.16613055  0.66701082  0.33500707  1
  Te  Te143  1  0.16653822  0.66885025  0.65975867  1
  Te  Te144  1  0.50093988  0.00459640  0.00001482  1
  Te  Te145  1  0.50105208  -0.00099271  0.33263944  1
  Te  Te146  1  0.50101916  -0.00439595  0.66516641  1
  Te  Te147  1  0.49961623  0.32846837  0.00092207  1
  Te  Te148  1  0.49601771  0.33677169  0.33550997  1
  Te  Te149  1  0.50315625  0.33287935  0.66598545  1
  Te  Te150  1  0.49642942  0.66647117  0.00128660  1
  Te  Te151  1  0.49678802  0.66293798  0.33570258  1
  Te  Te152  1  0.50077644  0.67119193  0.66612957  1
  Te  Te153  1  0.83361704  0.00189799  0.00333460  1
  Te  Te154  1  0.83743944  -0.00043823  0.32593956  1
  Te  Te155  1  0.83308076  0.00033253  0.66738023  1
  Te  Te156  1  0.83647049  0.33319763  0.00364894  1
  Te  Te157  1  0.83082558  0.33676647  0.32641721  1
  Te  Te158  1  0.83412568  0.33035440  0.66524384  1
  Te  Te159  1  0.83248519  0.66910296  0.00005276  1
  Te  Te160  1  0.83501648  0.66610661  0.33507808  1
  Te  Te161  1  0.83277495  0.67411858  0.65987333  1
  Te  Te162  1  -0.00225383  0.16778994  0.00349204  1
  Te  Te163  1  0.00504507  0.16306214  0.32771200  1
  Te  Te164  1  -0.00229562  0.17163865  0.66769618  1
  Te  Te165  1  -0.00495999  0.49933096  0.00182366  1
  Te  Te166  1  -0.00331871  0.50197031  0.33333828  1
  Te  Te167  1  -0.00214349  0.49295187  0.66660034  1
  Te  Te168  1  -0.00122971  0.83430446  -0.00206942  1
  Te  Te169  1  -0.00335464  0.83189299  0.33727871  1
  Te  Te170  1  -0.00416022  0.83545881  0.66229200  1
  Te  Te171  1  0.33625670  0.16775456  0.00089165  1
  Te  Te172  1  0.32937511  0.16802854  0.33278975  1
  Te  Te173  1  0.32925399  0.16676796  0.66567626  1
  Te  Te174  1  0.33467850  0.50642612  0.00023512  1
  Te  Te175  1  0.33633785  0.49986857  0.33673810  1
  Te  Te176  1  0.33188123  0.49909356  0.65742016  1
  Te  Te177  1  0.33239547  0.82954442  -0.00336658  1
  Te  Te178  1  0.33371091  0.82650369  0.33284067  1
  Te  Te179  1  0.33503398  0.83442474  0.67394688  1
  Te  Te180  1  0.66783858  0.16364805  -0.00463774  1
  Te  Te181  1  0.66812251  0.16601926  0.33561530  1
  Te  Te182  1  0.67210904  0.17102614  0.67276969  1
  Te  Te183  1  0.67387237  0.50075217  -0.00318249  1
  Te  Te184  1  0.66853985  0.50402536  0.33619208  1
  Te  Te185  1  0.66795654  0.49425146  0.66864362  1
  Te  Te186  1  0.67211475  0.83790664  -0.00139326  1
  Te  Te187  1  0.67297341  0.82860194  0.33934088  1
  Te  Te188  1  0.66800969  0.83420819  0.66164308  1
  Te  Te189  1  0.00012101  -0.00043717  0.16617721  1
  Te  Te190  1  -0.00044399  -0.00139506  0.49556437  1
  Te  Te191  1  0.00156400  -0.00039121  0.83968988  1
  Te  Te192  1  0.00107394  0.33212276  0.16785462  1
  Te  Te193  1  0.00325101  0.33674340  0.50038994  1
  Te  Te194  1  0.00120114  0.33728040  0.83309102  1
  Te  Te195  1  0.00629741  0.66329440  0.17266803  1
  Te  Te196  1  0.00025106  0.66517551  0.49750589  1
  Te  Te197  1  0.00047610  0.65975879  0.83233652  1
  Te  Te198  1  0.33660153  0.00661421  0.16658317  1
  Te  Te199  1  0.33950403  0.00331521  0.49882079  1
  Te  Te200  1  0.33883025  0.00239812  0.83420595  1
  Te  Te201  1  0.33489085  0.32898611  0.17115377  1
  Te  Te202  1  0.33250286  0.33393292  0.49729428  1
  Te  Te203  1  0.33898231  0.33025777  0.83437321  1
  Te  Te204  1  0.32740751  0.66580553  0.16868119  1
  Te  Te205  1  0.33521225  0.66482753  0.49618371  1
  Te  Te206  1  0.33825081  0.66575568  0.83478665  1
  Te  Te207  1  0.66208894  0.00010361  0.16173358  1
  Te  Te208  1  0.66044044  -0.00097699  0.49890375  1
  Te  Te209  1  0.66073295  0.00270255  0.83796580  1
  Te  Te210  1  0.65933851  0.33333115  0.16708809  1
  Te  Te211  1  0.66420433  0.33753038  0.50526020  1
  Te  Te212  1  0.66387276  0.33373315  0.83154716  1
  Te  Te213  1  0.66400523  0.66639791  0.17444720  1
  Te  Te214  1  0.66472862  0.66501650  0.49839156  1
  Te  Te215  1  0.66051351  0.66183827  0.83432819  1
