# generated using pymatgen
data_AgSbTe2
_symmetry_space_group_name_H-M   'P 1'
_cell_length_a   18.32575882
_cell_length_b   18.32210862
_cell_length_c   18.32391988
_cell_angle_alpha   90.00106755
_cell_angle_beta   90.00103832
_cell_angle_gamma   89.99757228
_symmetry_Int_Tables_number   1
_chemical_formula_structural   AgSbTe2
_chemical_formula_sum   'Ag54 Sb54 Te108'
_cell_volume   6152.55923262
_cell_formula_units_Z   54
loop_
 _symmetry_equiv_pos_site_id
 _symmetry_equiv_pos_as_xyz
  1  'x, y, z'
loop_
 _atom_site_type_symbol
 _atom_site_label
 _atom_site_symmetry_multiplicity
 _atom_site_fract_x
 _atom_site_fract_y
 _atom_site_fract_z
 _atom_site_occupancy
  Ag  Ag0  1  0.49877555  0.32916126  0.49603075  1
  Ag  Ag1  1  0.17018930  0.00017725  0.82565209  1
  Ag  Ag2  1  0.82409265  0.83435214  0.00032981  1
  Ag  Ag3  1  0.33814005  0.16495977  0.16231832  1
  Ag  Ag4  1  0.82686798  0.00355266  0.17028946  1
  Ag  Ag5  1  0.50402277  0.84030155  0.00633731  1
  Ag  Ag6  1  0.65842182  0.84383106  0.15975890  1
  Ag  Ag7  1  0.83553905  0.66314242  0.83494482  1
  Ag  Ag8  1  0.33874780  0.00362758  0.00492839  1
  Ag  Ag9  1  0.50343997  0.33141571  0.16588124  1
  Ag  Ag10  1  0.66023919  0.32842315  0.33160723  1
  Ag  Ag11  1  0.00640650  0.49720825  0.16219589  1
  Ag  Ag12  1  0.84566294  0.00175980  0.49424318  1
  Ag  Ag13  1  0.16407500  0.66627557  0.83520587  1
  Ag  Ag14  1  0.33184889  0.49532188  0.16331520  1
  Ag  Ag15  1  0.16367403  0.66963964  0.50533713  1
  Ag  Ag16  1  0.00183297  0.84603207  0.50009910  1
  Ag  Ag17  1  0.49329471  0.00817284  0.49652931  1
  Ag  Ag18  1  0.66518286  0.00389616  0.32693328  1
  Ag  Ag19  1  0.82748678  0.33004356  0.50048463  1
  Ag  Ag20  1  0.32975659  0.16557185  0.84043824  1
  Ag  Ag21  1  0.32840324  0.00692379  0.65946556  1
  Ag  Ag22  1  0.66100467  0.33655790  0.66083591  1
  Ag  Ag23  1  0.17603304  0.16693563  -0.00202090  1
  Ag  Ag24  1  0.32902149  0.67193624  0.00313694  1
  Ag  Ag25  1  0.66610006  0.32949388  0.00422622  1
  Ag  Ag26  1  0.50005343  0.83962580  0.32364391  1
  Ag  Ag27  1  0.16142709  0.00348350  0.50637981  1
  Ag  Ag28  1  0.33065463  0.16546896  0.49937385  1
  Ag  Ag29  1  0.00072699  -0.00013272  0.34295087  1
  Ag  Ag30  1  0.83009931  0.33642557  0.83851845  1
  Ag  Ag31  1  0.00584354  0.66373555  0.00051840  1
  Ag  Ag32  1  0.84003353  0.67032596  0.50491663  1
  Ag  Ag33  1  0.16809874  0.33174344  0.82984517  1
  Ag  Ag34  1  0.16975097  0.66596107  0.15511423  1
  Ag  Ag35  1  0.50000610  0.49311776  -0.00112680  1
  Ag  Ag36  1  0.34025096  0.32462375  0.33761235  1
  Ag  Ag37  1  0.16826747  0.84014821  0.66506183  1
  Ag  Ag38  1  0.82194049  0.32921342  0.16153551  1
  Ag  Ag39  1  0.34012973  0.84237803  0.16347858  1
  Ag  Ag40  1  0.33623295  0.00606079  0.33645034  1
  Ag  Ag41  1  0.33341549  0.32799443  0.66082322  1
  Ag  Ag42  1  0.00994317  0.15849364  0.49976980  1
  Ag  Ag43  1  0.65860386  -0.00262702  0.00888556  1
  Ag  Ag44  1  0.66592136  0.49704426  0.83100488  1
  Ag  Ag45  1  0.17218605  0.49859806  0.66645117  1
  Ag  Ag46  1  0.66138832  0.16354194  0.16379691  1
  Ag  Ag47  1  0.17490146  0.32616357  0.50710595  1
  Ag  Ag48  1  0.66555426  0.49005286  0.50580476  1
  Ag  Ag49  1  0.49751340  0.49438451  0.66874318  1
  Ag  Ag50  1  0.49525930  0.16587149  0.00371612  1
  Ag  Ag51  1  0.66795824  0.83162181  0.84103725  1
  Ag  Ag52  1  -0.00397420  0.33548778  0.00147956  1
  Ag  Ag53  1  0.01288559  -0.00080144  0.65461893  1
  Sb  Sb54  1  0.32882630  0.84298066  0.49513856  1
  Sb  Sb55  1  0.83720889  0.66657721  0.16233702  1
  Sb  Sb56  1  0.49675679  0.17248805  0.66849554  1
  Sb  Sb57  1  0.66364863  0.49473307  0.16487000  1
  Sb  Sb58  1  0.67015579  0.83516873  0.49939239  1
  Sb  Sb59  1  0.49710947  0.66390021  0.49984400  1
  Sb  Sb60  1  0.00308381  0.67006151  0.66913931  1
  Sb  Sb61  1  -0.00074369  0.32793999  0.33182516  1
  Sb  Sb62  1  0.82868016  0.49996469  -0.00097183  1
  Sb  Sb63  1  0.33194332  0.66854514  0.32925182  1
  Sb  Sb64  1  0.00726060  0.16784166  0.83086515  1
  Sb  Sb65  1  0.00139869  0.00087406  0.00105914  1
  Sb  Sb66  1  0.66701846  0.66704160  0.33379368  1
  Sb  Sb67  1  -0.00149681  0.49741358  0.49711192  1
  Sb  Sb68  1  0.00115886  0.16924924  0.16876644  1
  Sb  Sb69  1  0.17097221  0.16619292  0.33299436  1
  Sb  Sb70  1  0.83291357  0.16768829  0.66523999  1
  Sb  Sb71  1  0.33518931  0.49505231  0.83625300  1
  Sb  Sb72  1  0.16891673  0.83424638  -0.00323246  1
  Sb  Sb73  1  0.00368724  0.32909467  0.66797230  1
  Sb  Sb74  1  0.83159306  0.16530468  0.33342911  1
  Sb  Sb75  1  0.00082048  0.67151787  0.33151169  1
  Sb  Sb76  1  0.66707718  0.66059300  0.66799689  1
  Sb  Sb77  1  0.16811037  0.49866375  0.33681954  1
  Sb  Sb78  1  0.82841960  0.83731704  0.32927313  1
  Sb  Sb79  1  0.49881575  0.16326147  0.32713334  1
  Sb  Sb80  1  0.83223291  0.49745976  0.33354780  1
  Sb  Sb81  1  0.83606583  0.00120036  0.83407037  1
  Sb  Sb82  1  -0.00114689  0.83285287  0.83144802  1
  Sb  Sb83  1  0.66580327  0.66932693  -0.00098737  1
  Sb  Sb84  1  0.49484601  0.66559859  0.16336709  1
  Sb  Sb85  1  0.17141914  0.33573948  0.16542381  1
  Sb  Sb86  1  0.66331810  0.17094344  0.49337146  1
  Sb  Sb87  1  0.17119888  0.49814420  -0.00315866  1
  Sb  Sb88  1  0.66116184  0.16951226  0.84140249  1
  Sb  Sb89  1  0.33530514  0.49213456  0.49834384  1
  Sb  Sb90  1  0.66336936  0.00479979  0.66434442  1
  Sb  Sb91  1  0.16877481  -0.00275058  0.16737524  1
  Sb  Sb92  1  0.00091382  0.83233220  0.16900877  1
  Sb  Sb93  1  0.17126957  0.83621204  0.33766180  1
  Sb  Sb94  1  0.83624108  0.83433312  0.66900546  1
  Sb  Sb95  1  0.49488309  0.83296702  0.66799537  1
  Sb  Sb96  1  0.50370582  0.00465316  0.16927516  1
  Sb  Sb97  1  0.49787287  0.66622550  0.83644053  1
  Sb  Sb98  1  0.17027822  0.16428775  0.66808965  1
  Sb  Sb99  1  0.33446243  0.83823330  0.83905842  1
  Sb  Sb100  1  0.83138195  0.16641051  0.00138108  1
  Sb  Sb101  1  -0.00098963  0.49910929  0.83742996  1
  Sb  Sb102  1  0.49442807  0.00103018  0.83436557  1
  Sb  Sb103  1  0.49928402  0.49740274  0.33160038  1
  Sb  Sb104  1  0.50019799  0.33366906  0.83467143  1
  Sb  Sb105  1  0.33618559  0.32801369  0.00091087  1
  Sb  Sb106  1  0.83392477  0.49775589  0.66654716  1
  Sb  Sb107  1  0.32888700  0.66516666  0.67083824  1
  Te  Te108  1  0.17030708  0.16647078  0.15978928  1
  Te  Te109  1  0.16950572  0.16700017  0.49905561  1
  Te  Te110  1  0.17059286  0.16883852  0.83673380  1
  Te  Te111  1  0.16904770  0.50381399  0.16621599  1
  Te  Te112  1  0.16668936  0.49967013  0.50441344  1
  Te  Te113  1  0.16666883  0.49901179  0.82910537  1
  Te  Te114  1  0.17088767  0.82748576  0.16681616  1
  Te  Te115  1  0.16376724  0.83435383  0.50361647  1
  Te  Te116  1  0.16674640  0.83255717  0.82809934  1
  Te  Te117  1  0.49916153  0.17094514  0.16208413  1
  Te  Te118  1  0.49559881  0.16883422  0.50179158  1
  Te  Te119  1  0.49104025  0.16660910  0.84298865  1
  Te  Te120  1  0.49624602  0.49566101  0.16366413  1
  Te  Te121  1  0.50422611  0.49648302  0.50234854  1
  Te  Te122  1  0.50470912  0.50051219  0.83408614  1
  Te  Te123  1  0.49955418  0.83103119  0.16400553  1
  Te  Te124  1  0.50046121  0.83381839  0.50045914  1
  Te  Te125  1  0.50686030  0.83305043  0.83684725  1
  Te  Te126  1  0.83219801  0.16833857  0.16652232  1
  Te  Te127  1  0.83290163  0.16651721  0.50008045  1
  Te  Te128  1  0.83450458  0.17466386  0.83307992  1
  Te  Te129  1  0.83604916  0.49611091  0.16629507  1
  Te  Te130  1  0.82989140  0.49618465  0.50044179  1
  Te  Te131  1  0.82877503  0.49926305  0.83265134  1
  Te  Te132  1  0.83222302  0.83511965  0.16195191  1
  Te  Te133  1  0.83743345  0.83432367  0.50051909  1
  Te  Te134  1  0.82969712  0.83202633  0.83681977  1
  Te  Te135  1  0.16878604  0.00242641  -0.00123483  1
  Te  Te136  1  0.17103777  -0.00038900  0.33794178  1
  Te  Te137  1  0.17043118  0.00068116  0.66672780  1
  Te  Te138  1  0.16465714  0.33187644  -0.00252404  1
  Te  Te139  1  0.17059207  0.33339499  0.34048659  1
  Te  Te140  1  0.16809080  0.33381653  0.66721526  1
  Te  Te141  1  0.16712303  0.66582253  -0.00311237  1
  Te  Te142  1  0.16599664  0.66737914  0.34134494  1
  Te  Te143  1  0.16659343  0.66492886  0.66801502  1
  Te  Te144  1  0.50041711  -0.00047959  -0.00047090  1
  Te  Te145  1  0.49893867  -0.00118716  0.33567219  1
  Te  Te146  1  0.49402435  0.00036439  0.66048248  1
  Te  Te147  1  0.50217342  0.33337611  0.00128676  1
  Te  Te148  1  0.49980602  0.33408428  0.33444342  1
  Te  Te149  1  0.49931188  0.33611918  0.66618659  1
  Te  Te150  1  0.49326438  0.66651226  -0.00029756  1
  Te  Te151  1  0.49999944  0.67630355  0.33383159  1
  Te  Te152  1  0.49777316  0.65742841  0.66756634  1
  Te  Te153  1  0.83237316  -0.00345547  0.00133659  1
  Te  Te154  1  0.82788219  -0.00049212  0.33387654  1
  Te  Te155  1  0.83330239  0.00017422  0.66182640  1
  Te  Te156  1  0.83190248  0.33352288  0.00085457  1
  Te  Te157  1  0.83030834  0.33262080  0.33501698  1
  Te  Te158  1  0.83201708  0.33389541  0.66455450  1
  Te  Te159  1  0.83724300  0.66931058  -0.00340431  1
  Te  Te160  1  0.83396372  0.66781893  0.34298716  1
  Te  Te161  1  0.83501832  0.66618076  0.66743112  1
  Te  Te162  1  0.00361365  0.17154606  0.00009967  1
  Te  Te163  1  0.00185541  0.15945395  0.33850555  1
  Te  Te164  1  -0.00069280  0.16047596  0.66015703  1
  Te  Te165  1  0.00012969  0.49850966  0.00351840  1
  Te  Te166  1  0.00032911  0.49975131  0.32318719  1
  Te  Te167  1  0.00854524  0.49878969  0.66646988  1
  Te  Te168  1  -0.00229485  0.83009282  0.00051180  1
  Te  Te169  1  -0.00059086  0.83957539  0.33814242  1
  Te  Te170  1  0.00411268  0.83766877  0.66228114  1
  Te  Te171  1  0.33419528  0.16601556  0.00177233  1
  Te  Te172  1  0.33400619  0.16651732  0.33270324  1
  Te  Te173  1  0.33510984  0.16698282  0.66327190  1
  Te  Te174  1  0.33797493  0.50142622  0.00284576  1
  Te  Te175  1  0.33414123  0.49660513  0.32526338  1
  Te  Te176  1  0.33429845  0.49595206  0.66738770  1
  Te  Te177  1  0.33574375  0.83550303  0.00346219  1
  Te  Te178  1  0.33838539  0.83694511  0.32685391  1
  Te  Te179  1  0.32953968  0.83720193  0.66792343  1
  Te  Te180  1  0.66489993  0.16625157  0.00507553  1
  Te  Te181  1  0.66506089  0.16659757  0.32485532  1
  Te  Te182  1  0.66436230  0.17559051  0.67050146  1
  Te  Te183  1  0.66157186  0.49881889  -0.00246375  1
  Te  Te184  1  0.66519820  0.49429832  0.33770176  1
  Te  Te185  1  0.66596166  0.49484049  0.66723676  1
  Te  Te186  1  0.66503178  0.83281320  0.00070452  1
  Te  Te187  1  0.66144126  0.83781466  0.33104560  1
  Te  Te188  1  0.66426134  0.83374949  0.67236128  1
  Te  Te189  1  -0.00540281  0.00085979  0.17096541  1
  Te  Te190  1  0.00131397  0.00232859  0.49931589  1
  Te  Te191  1  0.00643487  0.00063285  0.83051521  1
  Te  Te192  1  0.00021260  0.33556971  0.16434218  1
  Te  Te193  1  -0.00301789  0.33087958  0.49888211  1
  Te  Te194  1  -0.00104811  0.33357162  0.83717330  1
  Te  Te195  1  0.00519143  0.66385619  0.16340382  1
  Te  Te196  1  0.00029193  0.66527073  0.49956506  1
  Te  Te197  1  -0.00019540  0.66579858  0.83851422  1
  Te  Te198  1  0.33228037  0.00178112  0.16547856  1
  Te  Te199  1  0.33419864  0.00305904  0.49818323  1
  Te  Te200  1  0.32921108  0.00317764  0.83608140  1
  Te  Te201  1  0.33493131  0.33094105  0.16816495  1
  Te  Te202  1  0.33432279  0.33136584  0.49918918  1
  Te  Te203  1  0.32908232  0.32902476  0.82950438  1
  Te  Te204  1  0.32920854  0.66464072  0.16418694  1
  Te  Te205  1  0.32717529  0.66635684  0.49948636  1
  Te  Te206  1  0.32685770  0.66692241  0.83919692  1
  Te  Te207  1  0.66715041  0.00066633  0.16623649  1
  Te  Te208  1  0.66217430  0.00200063  0.49813662  1
  Te  Te209  1  0.66769030  -0.00073988  0.83412290  1
  Te  Te210  1  0.66478134  0.33430709  0.16589961  1
  Te  Te211  1  0.66619007  0.33123178  0.49847103  1
  Te  Te212  1  0.66808368  0.33412050  0.83788687  1
  Te  Te213  1  0.66905807  0.67083275  0.16813612  1
  Te  Te214  1  0.67021734  0.66313241  0.50027729  1
  Te  Te215  1  0.67151163  0.66470048  0.83363384  1
