# generated using pymatgen
data_AgSbTe2
_symmetry_space_group_name_H-M   'P 1'
_cell_length_a   18.32802901
_cell_length_b   18.32752944
_cell_length_c   18.32014193
_cell_angle_alpha   89.99801206
_cell_angle_beta   89.99937483
_cell_angle_gamma   90.00019668
_symmetry_Int_Tables_number   1
_chemical_formula_structural   AgSbTe2
_chemical_formula_sum   'Ag54 Sb54 Te108'
_cell_volume   6153.87291017
_cell_formula_units_Z   54
loop_
 _symmetry_equiv_pos_site_id
 _symmetry_equiv_pos_as_xyz
  1  'x, y, z'
loop_
 _atom_site_type_symbol
 _atom_site_label
 _atom_site_symmetry_multiplicity
 _atom_site_fract_x
 _atom_site_fract_y
 _atom_site_fract_z
 _atom_site_occupancy
  Ag  Ag0  1  0.32276493  0.83378045  0.49269316  1
  Ag  Ag1  1  0.16596712  0.66712730  0.17167651  1
  Ag  Ag2  1  0.33739380  0.50309704  0.16591249  1
  Ag  Ag3  1  0.49506474  0.49430100  0.00798285  1
  Ag  Ag4  1  -0.00434054  -0.00277100  0.66460059  1
  Ag  Ag5  1  0.16112444  0.15721927  0.66658818  1
  Ag  Ag6  1  0.83269388  0.49650234  0.33281615  1
  Ag  Ag7  1  -0.00424079  0.17052719  0.16626234  1
  Ag  Ag8  1  0.32845204  0.66968037  0.66481674  1
  Ag  Ag9  1  0.33699960  0.33123955  0.00504642  1
  Ag  Ag10  1  0.00208371  0.33733219  0.00787719  1
  Ag  Ag11  1  0.82120551  0.33323763  0.16943237  1
  Ag  Ag12  1  0.83424391  -0.00117802  0.82755825  1
  Ag  Ag13  1  0.49555732  0.83534999  0.00054590  1
  Ag  Ag14  1  0.67170077  0.65868864  0.33310863  1
  Ag  Ag15  1  0.50776001  0.17563306  0.32188484  1
  Ag  Ag16  1  0.66924502  0.33904310  0.32411236  1
  Ag  Ag17  1  0.16164228  0.82708248  0.34203534  1
  Ag  Ag18  1  0.66389129  0.67097809  0.66164551  1
  Ag  Ag19  1  0.16946248  0.16636813  0.00211596  1
  Ag  Ag20  1  -0.00781901  0.33999581  0.32657416  1
  Ag  Ag21  1  0.49889167  0.16726764  0.00588670  1
  Ag  Ag22  1  0.66168188  0.33039778  0.01187471  1
  Ag  Ag23  1  0.66090098  0.00217549  0.00171371  1
  Ag  Ag24  1  0.50790609  0.33072169  0.16679417  1
  Ag  Ag25  1  0.16630154  0.83125194  0.00298089  1
  Ag  Ag26  1  0.16781040  0.83072319  0.65379998  1
  Ag  Ag27  1  0.00379669  0.66447596  0.32858754  1
  Ag  Ag28  1  0.33370716  -0.00329423  0.32568167  1
  Ag  Ag29  1  0.16575807  0.67608289  0.49306508  1
  Ag  Ag30  1  0.49915881  0.00775467  0.16357224  1
  Ag  Ag31  1  0.67645938  -0.00392346  0.66986643  1
  Ag  Ag32  1  0.50027611  0.33349672  0.48398137  1
  Ag  Ag33  1  0.16242404  0.50998467  0.66485561  1
  Ag  Ag34  1  0.00075505  0.50627138  0.83627281  1
  Ag  Ag35  1  0.65919967  0.49020784  0.16820993  1
  Ag  Ag36  1  0.00010271  0.83023950  0.83217546  1
  Ag  Ag37  1  0.82998925  0.16947122  0.33070570  1
  Ag  Ag38  1  0.16341386  0.50917730  0.32628597  1
  Ag  Ag39  1  0.16269141  -0.01166829  0.50112794  1
  Ag  Ag40  1  0.83867697  -0.00118506  0.50311064  1
  Ag  Ag41  1  0.50132967  0.66873401  0.83607219  1
  Ag  Ag42  1  0.00463224  0.66555371  0.00410070  1
  Ag  Ag43  1  0.33868967  -0.00196855  0.00592308  1
  Ag  Ag44  1  0.33138428  0.83157667  0.16690506  1
  Ag  Ag45  1  0.49481102  0.83095694  0.66975780  1
  Ag  Ag46  1  0.00966372  0.83496447  0.50226497  1
  Ag  Ag47  1  0.83683334  0.15674139  0.66121533  1
  Ag  Ag48  1  0.84082412  0.83190299  0.33042368  1
  Ag  Ag49  1  0.83807167  0.49882265  0.66202366  1
  Ag  Ag50  1  0.16631536  0.50261811  0.00669818  1
  Ag  Ag51  1  0.50580763  0.49441142  0.32466879  1
  Ag  Ag52  1  0.66422597  0.17727252  0.16692869  1
  Ag  Ag53  1  0.83969803  0.83547180  0.00540999  1
  Sb  Sb54  1  0.49609017  0.66291546  0.16482848  1
  Sb  Sb55  1  0.49695365  0.83078858  0.33108438  1
  Sb  Sb56  1  0.16820656  0.33802573  0.16486220  1
  Sb  Sb57  1  0.32853523  0.50309374  0.84029062  1
  Sb  Sb58  1  0.83060554  0.33028558  0.49044072  1
  Sb  Sb59  1  0.17230935  -0.00527816  0.16792117  1
  Sb  Sb60  1  0.00494847  0.83562524  0.16747036  1
  Sb  Sb61  1  0.00160684  0.67132343  0.66657845  1
  Sb  Sb62  1  0.67092260  0.50149620  0.83741654  1
  Sb  Sb63  1  0.33741173  0.16543640  0.16518633  1
  Sb  Sb64  1  0.50448431  -0.00596307  0.84197455  1
  Sb  Sb65  1  0.66827455  0.33334299  0.66394225  1
  Sb  Sb66  1  0.33200229  0.16040713  0.49830603  1
  Sb  Sb67  1  0.33226835  0.33834752  0.66962222  1
  Sb  Sb68  1  0.67097953  0.83350654  0.83350233  1
  Sb  Sb69  1  0.83251709  0.67049721  0.83284532  1
  Sb  Sb70  1  0.00172805  -0.00328027  0.33659434  1
  Sb  Sb71  1  0.00180922  0.49525080  0.16606852  1
  Sb  Sb72  1  0.49562137  0.66509864  0.50026255  1
  Sb  Sb73  1  0.83862463  0.67171071  0.49759256  1
  Sb  Sb74  1  0.50007459  0.50653439  0.66751492  1
  Sb  Sb75  1  0.66749504  0.66700586  0.00347740  1
  Sb  Sb76  1  -0.00063410  0.33141419  0.66562989  1
  Sb  Sb77  1  0.66816748  0.83412883  0.50009919  1
  Sb  Sb78  1  0.33259725  0.16542586  0.83707483  1
  Sb  Sb79  1  0.66861001  0.16468846  0.84094577  1
  Sb  Sb80  1  0.66196370  0.83261640  0.16597028  1
  Sb  Sb81  1  0.66666115  0.50049416  0.49099647  1
  Sb  Sb82  1  0.33169253  0.50525147  0.49394334  1
  Sb  Sb83  1  0.32870943  0.67018448  0.33413927  1
  Sb  Sb84  1  0.16451698  0.16530225  0.32953639  1
  Sb  Sb85  1  0.00131580  0.50586216  0.49850239  1
  Sb  Sb86  1  0.83326938  0.16360539  0.00527074  1
  Sb  Sb87  1  0.33067825  -0.00677327  0.66665344  1
  Sb  Sb88  1  0.83801365  0.66235126  0.16940330  1
  Sb  Sb89  1  0.83515407  0.33052737  0.83881148  1
  Sb  Sb90  1  0.16966809  0.33439830  0.49733846  1
  Sb  Sb91  1  0.83619751  0.50133528  0.00439529  1
  Sb  Sb92  1  0.49936856  0.00083861  0.49565156  1
  Sb  Sb93  1  0.00056926  -0.00271202  -0.00268139  1
  Sb  Sb94  1  0.66513251  0.00057400  0.33058925  1
  Sb  Sb95  1  0.33710723  0.33230142  0.32674439  1
  Sb  Sb96  1  0.66758743  0.16597248  0.49289711  1
  Sb  Sb97  1  0.32959182  0.66834086  -0.00052405  1
  Sb  Sb98  1  0.82908751  0.00305392  0.16796371  1
  Sb  Sb99  1  0.50240953  0.15983256  0.66711258  1
  Sb  Sb100  1  -0.00089400  0.16140978  0.49584008  1
  Sb  Sb101  1  0.83668231  0.83582703  0.66492076  1
  Sb  Sb102  1  0.16190279  -0.00295464  0.83037254  1
  Sb  Sb103  1  0.32909231  0.83124372  0.83591669  1
  Sb  Sb104  1  -0.00166332  0.16527208  0.83662377  1
  Sb  Sb105  1  0.16406116  0.33486193  0.83793519  1
  Sb  Sb106  1  0.50091027  0.33916306  0.84347297  1
  Sb  Sb107  1  0.16739227  0.66759808  0.83352976  1
  Te  Te108  1  0.16406613  0.16538076  0.16206653  1
  Te  Te109  1  0.16644052  0.16470181  0.50458952  1
  Te  Te110  1  0.16483034  0.16585572  0.83319566  1
  Te  Te111  1  0.16779451  0.50405851  0.16645142  1
  Te  Te112  1  0.16722257  0.50255189  0.50232653  1
  Te  Te113  1  0.16123205  0.50090513  0.83270821  1
  Te  Te114  1  0.17024909  0.83003790  0.16231515  1
  Te  Te115  1  0.16696935  0.83283341  0.49774722  1
  Te  Te116  1  0.16017574  0.83302343  0.84378010  1
  Te  Te117  1  0.49920861  0.16701508  0.16412623  1
  Te  Te118  1  0.49947928  0.17092067  0.49783428  1
  Te  Te119  1  0.50050342  0.16780311  0.84053474  1
  Te  Te120  1  0.49879080  0.50188725  0.16542380  1
  Te  Te121  1  0.49854738  0.49432049  0.49743649  1
  Te  Te122  1  0.50060006  0.50597163  0.83821037  1
  Te  Te123  1  0.49421429  0.83341502  0.16314634  1
  Te  Te124  1  0.49506242  0.83378618  0.50391591  1
  Te  Te125  1  0.49993599  0.82934148  0.83328913  1
  Te  Te126  1  0.83173048  0.16978789  0.17022642  1
  Te  Te127  1  0.83366865  0.16187690  0.50012751  1
  Te  Te128  1  0.83395572  0.16131352  0.82468164  1
  Te  Te129  1  0.82945425  0.49543030  0.17203819  1
  Te  Te130  1  0.83390117  0.49932843  0.49937651  1
  Te  Te131  1  0.83867608  0.49948436  0.83081489  1
  Te  Te132  1  0.83365875  0.83417828  0.16848056  1
  Te  Te133  1  0.83589526  0.83833470  0.49432995  1
  Te  Te134  1  0.83917310  0.83691613  0.83710370  1
  Te  Te135  1  0.16888807  0.00063941  -0.00068005  1
  Te  Te136  1  0.17019404  -0.00257667  0.33716352  1
  Te  Te137  1  0.16631326  -0.00282775  0.66408625  1
  Te  Te138  1  0.16328201  0.33402206  0.00047572  1
  Te  Te139  1  0.16436345  0.33573952  0.33366068  1
  Te  Te140  1  0.16704859  0.33448865  0.66647400  1
  Te  Te141  1  0.16509486  0.66495242  -0.00082279  1
  Te  Te142  1  0.16715737  0.66743301  0.33281983  1
  Te  Te143  1  0.16596124  0.66899439  0.66761765  1
  Te  Te144  1  0.50058548  -0.00151244  0.00167779  1
  Te  Te145  1  0.49667781  0.00052423  0.32890995  1
  Te  Te146  1  0.50173343  -0.00501643  0.66768862  1
  Te  Te147  1  0.50067548  0.33462562  0.00418520  1
  Te  Te148  1  0.49904141  0.33408024  0.32768837  1
  Te  Te149  1  0.50036347  0.33166330  0.67006735  1
  Te  Te150  1  0.50080107  0.67006795  -0.00267864  1
  Te  Te151  1  0.50520392  0.66110547  0.33372314  1
  Te  Te152  1  0.50343800  0.67052184  0.66573016  1
  Te  Te153  1  0.83130003  -0.00412611  -0.00069376  1
  Te  Te154  1  0.83262874  0.00055649  0.33685026  1
  Te  Te155  1  0.83450359  -0.00237053  0.66508038  1
  Te  Te156  1  0.83616725  0.33249828  0.00635144  1
  Te  Te157  1  0.83270881  0.33323384  0.33075683  1
  Te  Te158  1  0.83262230  0.33634203  0.66556996  1
  Te  Te159  1  0.83724533  0.67377651  0.00085755  1
  Te  Te160  1  0.83459594  0.66714104  0.33417673  1
  Te  Te161  1  0.82996836  0.66223887  0.66542925  1
  Te  Te162  1  0.00208633  0.16940511  0.00261946  1
  Te  Te163  1  -0.00274397  0.16926855  0.32934861  1
  Te  Te164  1  0.00047956  0.16390193  0.66703054  1
  Te  Te165  1  0.00136216  0.50136785  -0.00019867  1
  Te  Te166  1  0.00116777  0.50220004  0.33311948  1
  Te  Te167  1  0.00115034  0.50025672  0.66859097  1
  Te  Te168  1  0.00103198  0.83179491  0.00040748  1
  Te  Te169  1  0.00134059  0.83061723  0.33377544  1
  Te  Te170  1  0.00333347  0.83565915  0.66638630  1
  Te  Te171  1  0.33099077  0.16672419  0.00004760  1
  Te  Te172  1  0.33511990  0.16036157  0.33313522  1
  Te  Te173  1  0.32815784  0.16780739  0.66776056  1
  Te  Te174  1  0.33140577  0.50087969  0.00412569  1
  Te  Te175  1  0.32940789  0.50061237  0.32760244  1
  Te  Te176  1  0.32860298  0.50482511  0.66713177  1
  Te  Te177  1  0.33358089  0.83420969  0.00194750  1
  Te  Te178  1  0.33152271  0.83560161  0.33096817  1
  Te  Te179  1  0.33056463  0.83059004  0.66932037  1
  Te  Te180  1  0.66586365  0.16552186  0.00582385  1
  Te  Te181  1  0.66641966  0.16756885  0.32750281  1
  Te  Te182  1  0.66967333  0.16292898  0.66714169  1
  Te  Te183  1  0.66642323  0.49855790  0.00483953  1
  Te  Te184  1  0.66771870  0.49908962  0.32997836  1
  Te  Te185  1  0.66998906  0.50242988  0.66802075  1
  Te  Te186  1  0.66341315  0.83621096  -0.00037009  1
  Te  Te187  1  0.67026950  0.83028387  0.33397525  1
  Te  Te188  1  0.66525665  0.83364257  0.66686049  1
  Te  Te189  1  -0.00093071  0.00888544  0.16661815  1
  Te  Te190  1  0.00111542  -0.00410772  0.50314258  1
  Te  Te191  1  -0.00503042  -0.00326972  0.82873152  1
  Te  Te192  1  0.00268416  0.33061338  0.16747881  1
  Te  Te193  1  -0.00012737  0.33320758  0.49253750  1
  Te  Te194  1  -0.00137511  0.33928577  0.83853043  1
  Te  Te195  1  0.00507472  0.66822792  0.16677194  1
  Te  Te196  1  0.00562048  0.67278978  0.49560823  1
  Te  Te197  1  -0.00060616  0.66765382  0.83763390  1
  Te  Te198  1  0.33760306  -0.00223302  0.16561642  1
  Te  Te199  1  0.33079694  -0.00640719  0.49887296  1
  Te  Te200  1  0.33465020  -0.00118323  0.84246158  1
  Te  Te201  1  0.33740950  0.33865146  0.16211157  1
  Te  Te202  1  0.33992407  0.33288261  0.50058278  1
  Te  Te203  1  0.33302159  0.33492193  0.84407903  1
  Te  Te204  1  0.32706175  0.66780090  0.16643674  1
  Te  Te205  1  0.32792555  0.67200532  0.50460499  1
  Te  Te206  1  0.34103813  0.66646697  0.82448661  1
  Te  Te207  1  0.66108712  0.00031260  0.16273972  1
  Te  Te208  1  0.66934105  0.00038839  0.50518207  1
  Te  Te209  1  0.67298364  -0.00039034  0.83309729  1
  Te  Te210  1  0.66557580  0.33353835  0.16782174  1
  Te  Te211  1  0.65990574  0.33310792  0.49508307  1
  Te  Te212  1  0.66869675  0.33321439  0.84171850  1
  Te  Te213  1  0.66806989  0.66364315  0.17247596  1
  Te  Te214  1  0.66719131  0.66705911  0.50021373  1
  Te  Te215  1  0.66227616  0.66641391  0.82894388  1
