# generated using pymatgen
data_AgSbTe2
_symmetry_space_group_name_H-M   'P 1'
_cell_length_a   18.33642738
_cell_length_b   18.33338306
_cell_length_c   18.33971550
_cell_angle_alpha   89.99948138
_cell_angle_beta   89.99841257
_cell_angle_gamma   89.99644367
_symmetry_Int_Tables_number   1
_chemical_formula_structural   AgSbTe2
_chemical_formula_sum   'Ag54 Sb54 Te108'
_cell_volume   6165.23916749
_cell_formula_units_Z   54
loop_
 _symmetry_equiv_pos_site_id
 _symmetry_equiv_pos_as_xyz
  1  'x, y, z'
loop_
 _atom_site_type_symbol
 _atom_site_label
 _atom_site_symmetry_multiplicity
 _atom_site_fract_x
 _atom_site_fract_y
 _atom_site_fract_z
 _atom_site_occupancy
  Ag  Ag0  1  0.82908545  0.17259786  0.33256837  1
  Ag  Ag1  1  0.01240341  -0.00067743  -0.01195463  1
  Ag  Ag2  1  0.33066334  0.49843071  0.16511375  1
  Ag  Ag3  1  0.16744186  0.66010131  0.50382077  1
  Ag  Ag4  1  0.17198351  0.34142711  0.16564089  1
  Ag  Ag5  1  0.83600117  0.16241792  0.67147229  1
  Ag  Ag6  1  0.67861246  0.00118448  0.66899683  1
  Ag  Ag7  1  0.01237651  0.49709098  0.16455369  1
  Ag  Ag8  1  0.16709148  0.50956005  0.00446403  1
  Ag  Ag9  1  0.00609379  0.84286827  0.83304302  1
  Ag  Ag10  1  0.65641785  0.33214670  0.01166971  1
  Ag  Ag11  1  0.84748301  0.00432520  0.82958520  1
  Ag  Ag12  1  0.66409912  0.17484805  0.16505672  1
  Ag  Ag13  1  0.49919937  0.49752548  0.66350466  1
  Ag  Ag14  1  0.83104984  0.16638824  -0.00485709  1
  Ag  Ag15  1  0.33073364  0.49796747  0.49697874  1
  Ag  Ag16  1  0.84312676  0.00234947  0.51081382  1
  Ag  Ag17  1  0.32741220  -0.00577182  -0.00233785  1
  Ag  Ag18  1  0.00569081  0.66176250  0.67567528  1
  Ag  Ag19  1  -0.00354883  0.33670357  0.33535263  1
  Ag  Ag20  1  0.82958129  0.49144386  0.33382618  1
  Ag  Ag21  1  0.50417778  0.49332620  0.33692681  1
  Ag  Ag22  1  0.16555964  0.83306832  0.67918038  1
  Ag  Ag23  1  0.48805535  0.83823775  -0.00123964  1
  Ag  Ag24  1  0.66653431  0.49952590  0.83460280  1
  Ag  Ag25  1  0.32992713  0.16472941  0.83756006  1
  Ag  Ag26  1  0.00005373  0.00262813  0.67646900  1
  Ag  Ag27  1  0.16932454  0.34112890  0.49865578  1
  Ag  Ag28  1  0.49607893  0.83332098  0.32819657  1
  Ag  Ag29  1  0.00118498  0.50211041  0.83257310  1
  Ag  Ag30  1  0.17060736  0.82351634  -0.00295620  1
  Ag  Ag31  1  0.65621193  0.49751563  0.49415749  1
  Ag  Ag32  1  0.32953347  0.33568767  0.66749275  1
  Ag  Ag33  1  0.32444718  0.67199090  0.00000868  1
  Ag  Ag34  1  0.16502829  0.67108323  0.84080251  1
  Ag  Ag35  1  0.33519892  0.33401298  0.00040881  1
  Ag  Ag36  1  0.50037763  0.33515607  0.17092495  1
  Ag  Ag37  1  0.33062882  0.82796112  0.15747643  1
  Ag  Ag38  1  0.16826142  -0.00115062  0.15153421  1
  Ag  Ag39  1  0.49475706  0.33833538  0.49188175  1
  Ag  Ag40  1  0.65904860  0.49210338  0.16854459  1
  Ag  Ag41  1  0.00195682  0.15600881  0.83323667  1
  Ag  Ag42  1  0.16937409  0.65703863  0.15276019  1
  Ag  Ag43  1  0.50442398  0.17769890  0.32479179  1
  Ag  Ag44  1  0.49984626  0.16801642  0.00196063  1
  Ag  Ag45  1  0.00674778  0.49624644  0.50109054  1
  Ag  Ag46  1  0.00660924  0.33522796  0.66394799  1
  Ag  Ag47  1  0.48879417  0.66737077  0.83611033  1
  Ag  Ag48  1  0.01189198  0.66636645  -0.00787685  1
  Ag  Ag49  1  0.49765851  -0.00131947  0.83602561  1
  Ag  Ag50  1  0.66289644  0.33447452  0.32806019  1
  Ag  Ag51  1  0.15936025  -0.00757348  0.83653881  1
  Ag  Ag52  1  0.32979860  0.82629745  0.49672897  1
  Ag  Ag53  1  0.16538923  -0.00282035  0.50625429  1
  Sb  Sb54  1  0.33120227  0.49794835  0.83530466  1
  Sb  Sb55  1  0.32671718  0.66312240  0.67134588  1
  Sb  Sb56  1  0.66908770  0.66673145  0.66885782  1
  Sb  Sb57  1  0.33254712  0.66461924  0.32778000  1
  Sb  Sb58  1  0.65940355  0.82978607  0.50047132  1
  Sb  Sb59  1  0.00198043  0.65802096  0.33179042  1
  Sb  Sb60  1  0.49251398  0.65872423  0.50311576  1
  Sb  Sb61  1  0.66523693  0.00824589  0.33763115  1
  Sb  Sb62  1  0.00037398  0.00648654  0.33440736  1
  Sb  Sb63  1  0.82997676  0.33362300  0.16830135  1
  Sb  Sb64  1  0.66784614  0.16885637  0.83790159  1
  Sb  Sb65  1  0.82769455  0.83760431  0.33483741  1
  Sb  Sb66  1  -0.00137100  0.17096273  0.50528334  1
  Sb  Sb67  1  0.49158021  0.83039990  0.67047191  1
  Sb  Sb68  1  0.33679001  0.33511876  0.33158356  1
  Sb  Sb69  1  0.16661361  0.33445238  0.83416294  1
  Sb  Sb70  1  0.50316424  0.17006121  0.66977557  1
  Sb  Sb71  1  0.83547815  0.32880924  0.83292442  1
  Sb  Sb72  1  0.17035794  0.83384638  0.32945147  1
  Sb  Sb73  1  0.00378018  0.33271980  -0.00071583  1
  Sb  Sb74  1  0.01010097  0.82921904  0.15951221  1
  Sb  Sb75  1  0.32573880  0.83795659  0.83703010  1
  Sb  Sb76  1  0.65425079  0.83229754  0.16537819  1
  Sb  Sb77  1  0.33279021  -0.00018813  0.32757375  1
  Sb  Sb78  1  0.66477710  0.00570008  -0.00406597  1
  Sb  Sb79  1  0.49912668  0.33463077  0.83596619  1
  Sb  Sb80  1  0.66368350  0.65814418  -0.00123567  1
  Sb  Sb81  1  0.16947586  0.16545653  -0.00094656  1
  Sb  Sb82  1  0.83875224  0.00318273  0.16303439  1
  Sb  Sb83  1  0.84079377  0.66666838  0.50109095  1
  Sb  Sb84  1  0.66650028  0.33164751  0.66441954  1
  Sb  Sb85  1  0.16791626  0.17070711  0.33241675  1
  Sb  Sb86  1  0.49296070  0.65964055  0.16203574  1
  Sb  Sb87  1  0.33268377  0.17180795  0.50492688  1
  Sb  Sb88  1  0.16730123  0.49807807  0.33061699  1
  Sb  Sb89  1  0.01082235  0.83077196  0.50637788  1
  Sb  Sb90  1  0.84148728  0.66241639  0.16523439  1
  Sb  Sb91  1  0.83469151  0.49427332  0.66377337  1
  Sb  Sb92  1  0.84189613  0.84058516  0.66705344  1
  Sb  Sb93  1  -0.00219497  0.17251177  0.16177508  1
  Sb  Sb94  1  0.83759046  0.49441204  0.00295641  1
  Sb  Sb95  1  0.16104620  0.16394870  0.66875607  1
  Sb  Sb96  1  0.83913637  0.84002070  -0.00135450  1
  Sb  Sb97  1  0.83598913  0.33144556  0.49735953  1
  Sb  Sb98  1  0.49369637  0.49751631  0.00064931  1
  Sb  Sb99  1  0.49584997  0.00325495  0.50378150  1
  Sb  Sb100  1  0.33708955  0.17136786  0.15989655  1
  Sb  Sb101  1  0.66368239  0.65441014  0.33297865  1
  Sb  Sb102  1  0.49461174  0.00500446  0.16077895  1
  Sb  Sb103  1  0.66793120  0.83221052  0.83437917  1
  Sb  Sb104  1  0.66800221  0.17248253  0.49618796  1
  Sb  Sb105  1  0.84271729  0.66958384  0.83347680  1
  Sb  Sb106  1  0.16688537  0.50296740  0.66808740  1
  Sb  Sb107  1  0.32762242  0.00343254  0.67350322  1
  Te  Te108  1  0.16678599  0.16379119  0.16791660  1
  Te  Te109  1  0.16633910  0.16435548  0.50042301  1
  Te  Te110  1  0.16461344  0.16341858  0.83273002  1
  Te  Te111  1  0.16909999  0.49875032  0.16778060  1
  Te  Te112  1  0.16793104  0.49863657  0.49995433  1
  Te  Te113  1  0.16347695  0.50330175  0.83688035  1
  Te  Te114  1  0.17266308  0.83714001  0.16319544  1
  Te  Te115  1  0.17190854  0.83660895  0.49590592  1
  Te  Te116  1  0.16479013  0.83223717  0.83629454  1
  Te  Te117  1  0.50279992  0.17067952  0.16492216  1
  Te  Te118  1  0.50054949  0.17291899  0.49783384  1
  Te  Te119  1  0.49944627  0.16430162  0.83675771  1
  Te  Te120  1  0.49874883  0.49603244  0.16761948  1
  Te  Te121  1  0.49744671  0.49836188  0.49988672  1
  Te  Te122  1  0.50122804  0.50235455  0.83176665  1
  Te  Te123  1  0.49128129  0.83279699  0.16329302  1
  Te  Te124  1  0.49209594  0.83236179  0.50039331  1
  Te  Te125  1  0.50080047  0.83099448  0.83691402  1
  Te  Te126  1  0.82885287  0.16557299  0.16890986  1
  Te  Te127  1  0.83257710  0.16161098  0.49654317  1
  Te  Te128  1  0.83473701  0.16336388  0.83394752  1
  Te  Te129  1  0.83213638  0.50039214  0.17188788  1
  Te  Te130  1  0.83867559  0.50027749  0.49570691  1
  Te  Te131  1  0.83366564  0.50078312  0.83316139  1
  Te  Te132  1  0.83005104  0.83285294  0.16796929  1
  Te  Te133  1  0.83076430  0.84074205  0.49910360  1
  Te  Te134  1  0.83922912  0.84109720  0.83395375  1
  Te  Te135  1  0.16797795  0.00416632  -0.00391715  1
  Te  Te136  1  0.16585349  0.00217302  0.34230610  1
  Te  Te137  1  0.16323946  -0.00249000  0.66827660  1
  Te  Te138  1  0.17118529  0.33425158  0.00339468  1
  Te  Te139  1  0.16155364  0.33294498  0.33454546  1
  Te  Te140  1  0.16760566  0.33311359  0.66379249  1
  Te  Te141  1  0.16717844  0.66612073  -0.00178991  1
  Te  Te142  1  0.16632120  0.66734667  0.34368219  1
  Te  Te143  1  0.16319093  0.66975897  0.66405133  1
  Te  Te144  1  0.49848482  0.00022840  -0.00255474  1
  Te  Te145  1  0.50008937  -0.00405058  0.33325163  1
  Te  Te146  1  0.49811586  0.00023451  0.67230825  1
  Te  Te147  1  0.49769108  0.33148951  0.00236882  1
  Te  Te148  1  0.50002845  0.33437766  0.33246492  1
  Te  Te149  1  0.49847146  0.33713631  0.66421093  1
  Te  Te150  1  0.49705043  0.66875627  -0.00447504  1
  Te  Te151  1  0.49964521  0.67201544  0.33377776  1
  Te  Te152  1  0.49993123  0.66175561  0.67411983  1
  Te  Te153  1  0.83328179  0.00607806  -0.00445305  1
  Te  Te154  1  0.83283562  0.00580614  0.33613275  1
  Te  Te155  1  0.83691669  0.00223839  0.66827826  1
  Te  Te156  1  0.82940619  0.32618167  0.00033123  1
  Te  Te157  1  0.83404439  0.33310786  0.33380897  1
  Te  Te158  1  0.83831336  0.32557704  0.66507087  1
  Te  Te159  1  0.83833581  0.66859892  -0.00034519  1
  Te  Te160  1  0.83288916  0.66285707  0.33382329  1
  Te  Te161  1  0.84269737  0.66783014  0.66619820  1
  Te  Te162  1  -0.00437490  0.16470779  -0.00416624  1
  Te  Te163  1  -0.00446140  0.17408416  0.33246975  1
  Te  Te164  1  -0.00405888  0.16689683  0.67118603  1
  Te  Te165  1  0.00187301  0.49975172  0.00210097  1
  Te  Te166  1  -0.00097755  0.49587346  0.33340695  1
  Te  Te167  1  -0.00061667  0.49749052  0.66448360  1
  Te  Te168  1  0.00430394  0.83492384  -0.00435257  1
  Te  Te169  1  -0.00445539  0.83376518  0.33177152  1
  Te  Te170  1  0.00653967  0.83556850  0.67072557  1
  Te  Te171  1  0.33753705  0.16992548  -0.00274895  1
  Te  Te172  1  0.34227152  0.16618775  0.33311937  1
  Te  Te173  1  0.33455024  0.17428073  0.67306512  1
  Te  Te174  1  0.32919837  0.49627405  0.00190269  1
  Te  Te175  1  0.34116819  0.50059950  0.33346117  1
  Te  Te176  1  0.33643885  0.49591996  0.66500461  1
  Te  Te177  1  0.33158444  0.83386474  -0.00151851  1
  Te  Te178  1  0.33756562  0.83259415  0.33496657  1
  Te  Te179  1  0.32599393  0.83299032  0.65928352  1
  Te  Te180  1  0.66398723  0.17087524  0.00326871  1
  Te  Te181  1  0.66558644  0.17243286  0.32972595  1
  Te  Te182  1  0.67209720  0.16263493  0.66737775  1
  Te  Te183  1  0.66848129  0.49364495  0.00098200  1
  Te  Te184  1  0.66548287  0.49457866  0.33329103  1
  Te  Te185  1  0.66539045  0.50002000  0.66822713  1
  Te  Te186  1  0.66274186  0.83081993  0.00083786  1
  Te  Te187  1  0.65858796  0.83324380  0.33300541  1
  Te  Te188  1  0.66530038  0.83951339  0.66645897  1
  Te  Te189  1  0.00739219  -0.00039987  0.16557898  1
  Te  Te190  1  0.00159855  -0.00055902  0.50136891  1
  Te  Te191  1  0.00269078  0.00038584  0.83293540  1
  Te  Te192  1  0.00575464  0.33749569  0.16737132  1
  Te  Te193  1  0.00255375  0.33582010  0.50114881  1
  Te  Te194  1  0.00126919  0.34159598  0.82978505  1
  Te  Te195  1  0.00865217  0.66140566  0.16313140  1
  Te  Te196  1  0.00565017  0.66290096  0.50201739  1
  Te  Te197  1  0.00287761  0.66141279  0.83329245  1
  Te  Te198  1  0.32831815  -0.00136995  0.16048768  1
  Te  Te199  1  0.32912708  0.00170932  0.50082974  1
  Te  Te200  1  0.33651778  0.00340945  0.83742077  1
  Te  Te201  1  0.33285997  0.33618549  0.16542767  1
  Te  Te202  1  0.33117167  0.33636578  0.50092723  1
  Te  Te203  1  0.33290381  0.32867463  0.83328051  1
  Te  Te204  1  0.32865422  0.66450022  0.16161122  1
  Te  Te205  1  0.32860605  0.66293535  0.50170562  1
  Te  Te206  1  0.33001753  0.66573127  0.83809230  1
  Te  Te207  1  0.66772917  0.00198890  0.16683053  1
  Te  Te208  1  0.66575429  -0.00090349  0.50602216  1
  Te  Te209  1  0.65967156  -0.00030194  0.82950667  1
  Te  Te210  1  0.66573560  0.33498860  0.16794839  1
  Te  Te211  1  0.66354373  0.33937701  0.49786951  1
  Te  Te212  1  0.66739201  0.33935715  0.83355560  1
  Te  Te213  1  0.66671320  0.66047115  0.16547840  1
  Te  Te214  1  0.66772670  0.65923894  0.50175585  1
  Te  Te215  1  0.66723254  0.66106685  0.83307013  1
