# generated using pymatgen
data_AgSbTe2
_symmetry_space_group_name_H-M   'P 1'
_cell_length_a   18.35877454
_cell_length_b   18.36019936
_cell_length_c   18.36138379
_cell_angle_alpha   90.00350407
_cell_angle_beta   90.00011575
_cell_angle_gamma   89.99969478
_symmetry_Int_Tables_number   1
_chemical_formula_structural   AgSbTe2
_chemical_formula_sum   'Ag54 Sb54 Te108'
_cell_volume   6189.08558976
_cell_formula_units_Z   54
loop_
 _symmetry_equiv_pos_site_id
 _symmetry_equiv_pos_as_xyz
  1  'x, y, z'
loop_
 _atom_site_type_symbol
 _atom_site_label
 _atom_site_symmetry_multiplicity
 _atom_site_fract_x
 _atom_site_fract_y
 _atom_site_fract_z
 _atom_site_occupancy
  Ag  Ag0  1  0.34012201  0.16427970  0.50081403  1
  Ag  Ag1  1  0.50470478  0.00023879  0.17332547  1
  Ag  Ag2  1  0.83058496  0.16874734  0.66280002  1
  Ag  Ag3  1  0.52102116  0.00529671  0.48960126  1
  Ag  Ag4  1  0.14832891  0.00554566  0.50196975  1
  Ag  Ag5  1  0.15725731  0.48788928  0.00297533  1
  Ag  Ag6  1  0.67145997  0.00053620  0.65594358  1
  Ag  Ag7  1  0.50901924  0.16470007  0.66014345  1
  Ag  Ag8  1  0.51145583  0.84804000  0.00863039  1
  Ag  Ag9  1  0.49825825  0.31401774  0.16771412  1
  Ag  Ag10  1  0.15643575  0.32736002  0.83935815  1
  Ag  Ag11  1  0.83404297  0.49308910  0.66055525  1
  Ag  Ag12  1  0.67162498  0.67405299  0.66492844  1
  Ag  Ag13  1  0.17034800  0.32689549  0.16423018  1
  Ag  Ag14  1  0.66937922  0.16127700  0.49884050  1
  Ag  Ag15  1  -0.01073998  0.84509240  0.50360911  1
  Ag  Ag16  1  0.00223291  0.16505095  0.17615290  1
  Ag  Ag17  1  0.66518477  0.84020392  0.17095264  1
  Ag  Ag18  1  0.66735885  0.16458531  0.82504766  1
  Ag  Ag19  1  -0.00793163  0.00221311  0.34321746  1
  Ag  Ag20  1  0.65913067  0.15793878  0.17488390  1
  Ag  Ag21  1  0.66736938  0.31860227  0.33387604  1
  Ag  Ag22  1  0.83467154  0.50395365  -0.00528180  1
  Ag  Ag23  1  0.34912163  0.84529631  0.16710109  1
  Ag  Ag24  1  0.33359452  0.32583037  0.66710381  1
  Ag  Ag25  1  0.51355762  0.68700022  0.16682904  1
  Ag  Ag26  1  0.66548080  -0.00123842  0.00840617  1
  Ag  Ag27  1  0.66923263  0.67904579  0.00537867  1
  Ag  Ag28  1  0.51105935  0.84806966  0.32264810  1
  Ag  Ag29  1  -0.00689527  0.16021180  0.50215324  1
  Ag  Ag30  1  0.66730256  0.00006987  0.33876598  1
  Ag  Ag31  1  0.83374823  0.00058318  0.49951003  1
  Ag  Ag32  1  0.34426242  0.16535390  0.16812820  1
  Ag  Ag33  1  -0.00599444  0.00062676  0.65837344  1
  Ag  Ag34  1  0.32546163  0.16609466  0.83113524  1
  Ag  Ag35  1  0.15968779  0.01090378  0.82830064  1
  Ag  Ag36  1  0.67602589  0.49923731  0.49969458  1
  Ag  Ag37  1  -0.00235994  0.84441411  0.82482022  1
  Ag  Ag38  1  0.50282044  0.16439603  0.01186703  1
  Ag  Ag39  1  0.67425645  0.84630468  0.48634006  1
  Ag  Ag40  1  0.16908032  0.16680123  0.32645974  1
  Ag  Ag41  1  -0.00679934  0.49943622  0.50577467  1
  Ag  Ag42  1  0.82789194  0.83062350  0.00559526  1
  Ag  Ag43  1  -0.00974403  0.67231417  0.66540386  1
  Ag  Ag44  1  0.83699086  0.32982474  0.82500745  1
  Ag  Ag45  1  -0.00454807  0.49168904  0.82622178  1
  Ag  Ag46  1  0.83303460  0.67020661  0.50077314  1
  Ag  Ag47  1  0.83059564  0.67107078  0.16805167  1
  Ag  Ag48  1  0.83137855  0.32563873  0.50365052  1
  Ag  Ag49  1  0.00305376  0.16488147  0.83009958  1
  Ag  Ag50  1  0.16882975  0.16750561  0.00340019  1
  Ag  Ag51  1  0.82930830  0.83547501  0.33947961  1
  Ag  Ag52  1  0.50802510  0.16493093  0.32961708  1
  Ag  Ag53  1  0.16280682  0.48612934  0.33166097  1
  Sb  Sb54  1  0.83173136  0.33271405  0.16759528  1
  Sb  Sb55  1  0.33884303  0.00399445  0.33413845  1
  Sb  Sb56  1  0.16500830  0.84371292  0.33362700  1
  Sb  Sb57  1  0.50802678  0.32245531  0.49582413  1
  Sb  Sb58  1  0.33026216  0.49038676  0.49953776  1
  Sb  Sb59  1  0.33456849  0.00759455  0.66584192  1
  Sb  Sb60  1  0.16255333  0.83703245  0.66610503  1
  Sb  Sb61  1  0.51097033  0.49341337  0.66449342  1
  Sb  Sb62  1  0.50496530  0.66903579  0.83865353  1
  Sb  Sb63  1  0.15809963  0.66867445  0.49937060  1
  Sb  Sb64  1  0.66823166  0.32426805  0.66215801  1
  Sb  Sb65  1  0.66803035  0.50096076  0.17087364  1
  Sb  Sb66  1  0.33678496  0.84312299  0.49482726  1
  Sb  Sb67  1  0.16371065  0.16600953  0.66794244  1
  Sb  Sb68  1  0.33075326  0.32883110  -0.00082867  1
  Sb  Sb69  1  0.33956029  0.66816713  0.00173931  1
  Sb  Sb70  1  0.33805340  0.00453529  0.00088250  1
  Sb  Sb71  1  0.50185472  0.32798582  0.83570168  1
  Sb  Sb72  1  0.16499713  0.66155297  0.16666035  1
  Sb  Sb73  1  0.33487015  0.32740600  0.33549595  1
  Sb  Sb74  1  0.83559142  0.50339955  0.33889957  1
  Sb  Sb75  1  0.67259053  0.83875883  0.83650543  1
  Sb  Sb76  1  0.16943318  0.00920438  0.16929535  1
  Sb  Sb77  1  0.50415556  0.49691227  0.00189636  1
  Sb  Sb78  1  -0.00648088  0.66641905  -0.00496799  1
  Sb  Sb79  1  0.33333957  0.49510446  0.16629716  1
  Sb  Sb80  1  0.15568015  0.49618380  0.66531680  1
  Sb  Sb81  1  0.83073798  0.16554983  -0.00516485  1
  Sb  Sb82  1  0.33571335  0.66744959  0.33338809  1
  Sb  Sb83  1  -0.00115330  0.49583589  0.16767192  1
  Sb  Sb84  1  0.16132782  0.32496765  0.50111257  1
  Sb  Sb85  1  0.16246263  0.66417568  0.83472852  1
  Sb  Sb86  1  0.83391468  0.83417086  0.66395239  1
  Sb  Sb87  1  0.66698472  0.32798375  0.00490654  1
  Sb  Sb88  1  0.50215041  0.00593451  0.83289339  1
  Sb  Sb89  1  0.66894777  0.67249313  0.33237359  1
  Sb  Sb90  1  0.83604642  0.00387979  0.82738039  1
  Sb  Sb91  1  -0.00595786  0.00136201  -0.00031302  1
  Sb  Sb92  1  0.50126562  0.49589605  0.33338482  1
  Sb  Sb93  1  0.33735214  0.66079969  0.66590796  1
  Sb  Sb94  1  0.32923820  0.84241828  0.83939887  1
  Sb  Sb95  1  0.00027021  0.33109461  -0.00198607  1
  Sb  Sb96  1  0.83412064  0.66545210  0.83006397  1
  Sb  Sb97  1  0.32243561  0.48932711  0.83326636  1
  Sb  Sb98  1  0.51015229  0.67536145  0.49410351  1
  Sb  Sb99  1  0.67409134  0.49409665  0.82988654  1
  Sb  Sb100  1  0.50464075  0.84058335  0.66612211  1
  Sb  Sb101  1  0.16486599  0.83963158  0.00187785  1
  Sb  Sb102  1  -0.00414802  0.32706706  0.33594956  1
  Sb  Sb103  1  0.82581246  -0.00077126  0.17121398  1
  Sb  Sb104  1  -0.00622059  0.83849755  0.17070412  1
  Sb  Sb105  1  0.83040252  0.16101697  0.34079653  1
  Sb  Sb106  1  -0.00228942  0.67172365  0.33800558  1
  Sb  Sb107  1  -0.00137952  0.32711062  0.66719588  1
  Te  Te108  1  0.16032322  0.16876240  0.16524170  1
  Te  Te109  1  0.16085723  0.16464985  0.50025254  1
  Te  Te110  1  0.16600356  0.16888636  0.83078483  1
  Te  Te111  1  0.16597120  0.49360528  0.16548415  1
  Te  Te112  1  0.16327151  0.49984614  0.49547182  1
  Te  Te113  1  0.15756458  0.49450656  0.83750519  1
  Te  Te114  1  0.16671846  0.83038490  0.16735017  1
  Te  Te115  1  0.16656839  0.83962809  0.49885104  1
  Te  Te116  1  0.16000042  0.83539595  0.83552792  1
  Te  Te117  1  0.50257475  0.16015111  0.16807337  1
  Te  Te118  1  0.50271339  0.16406673  0.49916448  1
  Te  Te119  1  0.50362588  0.16774811  0.82964542  1
  Te  Te120  1  0.49913994  0.49809514  0.16624119  1
  Te  Te121  1  0.49877313  0.50167981  0.50081131  1
  Te  Te122  1  0.49729814  0.49974478  0.83358578  1
  Te  Te123  1  0.50475379  0.84000149  0.16478858  1
  Te  Te124  1  0.50365844  0.84224575  0.49699992  1
  Te  Te125  1  0.49630126  0.83500873  0.84032214  1
  Te  Te126  1  0.84171704  0.16957810  0.16372850  1
  Te  Te127  1  0.83180741  0.16733988  0.50009751  1
  Te  Te128  1  0.83446028  0.16968746  0.83078376  1
  Te  Te129  1  0.83421078  0.50417243  0.16268265  1
  Te  Te130  1  0.83312575  0.50353171  0.49923286  1
  Te  Te131  1  0.83637707  0.49671937  0.83257563  1
  Te  Te132  1  0.83030756  0.83101605  0.16665001  1
  Te  Te133  1  0.83172408  0.83047471  0.50171179  1
  Te  Te134  1  0.83987731  0.83388282  0.83951594  1
  Te  Te135  1  0.16664731  0.00674029  -0.00212086  1
  Te  Te136  1  0.16226569  0.00696635  0.33673012  1
  Te  Te137  1  0.16253064  -0.00109413  0.66555862  1
  Te  Te138  1  0.16588429  0.33034315  0.00015055  1
  Te  Te139  1  0.16507869  0.32789118  0.33122379  1
  Te  Te140  1  0.17225824  0.33561184  0.67016562  1
  Te  Te141  1  0.16742215  0.66485474  0.00060925  1
  Te  Te142  1  0.16732195  0.66445854  0.33301500  1
  Te  Te143  1  0.16657596  0.66486354  0.66634297  1
  Te  Te144  1  0.50315034  0.00416962  -0.00298983  1
  Te  Te145  1  0.50010402  0.00318968  0.33456665  1
  Te  Te146  1  0.50435961  0.00622194  0.66578090  1
  Te  Te147  1  0.49890457  0.32863577  0.00678519  1
  Te  Te148  1  0.50333529  0.32923536  0.32846435  1
  Te  Te149  1  0.49670694  0.32648492  0.66661605  1
  Te  Te150  1  0.50647886  0.66459969  0.00590087  1
  Te  Te151  1  0.49952979  0.66502037  0.32612713  1
  Te  Te152  1  0.50669242  0.66621616  0.66538482  1
  Te  Te153  1  0.82614014  -0.00412254  -0.00065360  1
  Te  Te154  1  0.83129087  -0.00502173  0.33521216  1
  Te  Te155  1  0.83363787  0.00264113  0.66425859  1
  Te  Te156  1  0.83291172  0.33931811  -0.00091148  1
  Te  Te157  1  0.82711898  0.33744829  0.33577022  1
  Te  Te158  1  0.83296440  0.33178142  0.66519211  1
  Te  Te159  1  0.82955871  0.66710932  -0.00116640  1
  Te  Te160  1  0.83471678  0.67257287  0.33300634  1
  Te  Te161  1  0.83311918  0.66757492  0.66427385  1
  Te  Te162  1  0.00176119  0.16580818  -0.00846372  1
  Te  Te163  1  -0.00128525  0.16315136  0.33783624  1
  Te  Te164  1  -0.00390880  0.16289101  0.66408466  1
  Te  Te165  1  -0.00137469  0.50084508  -0.00002851  1
  Te  Te166  1  0.00389243  0.50079721  0.33464811  1
  Te  Te167  1  -0.00599449  0.49987909  0.66744107  1
  Te  Te168  1  -0.00399104  0.83315096  -0.00018262  1
  Te  Te169  1  -0.00224702  0.83978854  0.33914650  1
  Te  Te170  1  0.00098901  0.83429310  0.66423896  1
  Te  Te171  1  0.33371547  0.16697609  0.00190188  1
  Te  Te172  1  0.32876108  0.16766031  0.33259595  1
  Te  Te173  1  0.33353110  0.16745668  0.66604220  1
  Te  Te174  1  0.32755640  0.49973377  -0.00216756  1
  Te  Te175  1  0.32408350  0.49847696  0.33461023  1
  Te  Te176  1  0.33613341  0.49383594  0.66706200  1
  Te  Te177  1  0.33499553  0.83369203  0.00731358  1
  Te  Te178  1  0.33551085  0.83293234  0.32608966  1
  Te  Te179  1  0.33504337  0.83059203  0.66828258  1
  Te  Te180  1  0.66500092  0.16377306  0.00637152  1
  Te  Te181  1  0.66762810  0.16167826  0.33415825  1
  Te  Te182  1  0.66929007  0.16459077  0.66357965  1
  Te  Te183  1  0.67226927  0.50101841  -0.00119403  1
  Te  Te184  1  0.66589186  0.49990406  0.33937931  1
  Te  Te185  1  0.67376460  0.50270270  0.66386682  1
  Te  Te186  1  0.66712863  0.83428311  -0.00362381  1
  Te  Te187  1  0.66695713  0.83377490  0.33114221  1
  Te  Te188  1  0.66506928  0.83557013  0.66935091  1
  Te  Te189  1  0.00123757  0.00553443  0.16787033  1
  Te  Te190  1  -0.00589696  0.00155711  0.50121842  1
  Te  Te191  1  0.00195445  0.00116679  0.83450092  1
  Te  Te192  1  0.00396452  0.32732061  0.16827754  1
  Te  Te193  1  -0.00599528  0.33866204  0.50093602  1
  Te  Te194  1  -0.00212017  0.33149408  0.83243550  1
  Te  Te195  1  -0.00601251  0.66846501  0.16623247  1
  Te  Te196  1  -0.00321438  0.66131886  0.50481317  1
  Te  Te197  1  0.00122157  0.66650575  0.82692011  1
  Te  Te198  1  0.33710730  0.00302561  0.16685085  1
  Te  Te199  1  0.32816020  0.00571940  0.50134729  1
  Te  Te200  1  0.32255818  0.00515351  0.83277020  1
  Te  Te201  1  0.33381133  0.32710454  0.16839373  1
  Te  Te202  1  0.33233727  0.32494958  0.50454065  1
  Te  Te203  1  0.33375947  0.32557526  0.82942224  1
  Te  Te204  1  0.33414017  0.66411278  0.16661058  1
  Te  Te205  1  0.33385865  0.66751549  0.50209845  1
  Te  Te206  1  0.33381540  0.66694460  0.83198378  1
  Te  Te207  1  0.66647680  0.00011587  0.16668724  1
  Te  Te208  1  0.67340318  0.00090964  0.50010194  1
  Te  Te209  1  0.66830650  0.00658681  0.83205547  1
  Te  Te210  1  0.66384962  0.33207188  0.17258710  1
  Te  Te211  1  0.67043327  0.33521436  0.49731771  1
  Te  Te212  1  0.67174880  0.32572067  0.83367835  1
  Te  Te213  1  0.66934614  0.66668222  0.16467020  1
  Te  Te214  1  0.66980618  0.66235222  0.50238579  1
  Te  Te215  1  0.66578477  0.66516618  0.82869647  1
