# generated using pymatgen
data_AgSbTe2
_symmetry_space_group_name_H-M   'P 1'
_cell_length_a   18.34223936
_cell_length_b   18.34348235
_cell_length_c   18.34423401
_cell_angle_alpha   89.99759053
_cell_angle_beta   90.00178133
_cell_angle_gamma   90.00470143
_symmetry_Int_Tables_number   1
_chemical_formula_structural   AgSbTe2
_chemical_formula_sum   'Ag54 Sb54 Te108'
_cell_volume   6172.11092326
_cell_formula_units_Z   54
loop_
 _symmetry_equiv_pos_site_id
 _symmetry_equiv_pos_as_xyz
  1  'x, y, z'
loop_
 _atom_site_type_symbol
 _atom_site_label
 _atom_site_symmetry_multiplicity
 _atom_site_fract_x
 _atom_site_fract_y
 _atom_site_fract_z
 _atom_site_occupancy
  Ag  Ag0  1  0.32757352  0.49706625  0.50738697  1
  Ag  Ag1  1  0.00309716  0.82274437  0.50387399  1
  Ag  Ag2  1  0.84384308  0.83214705  0.67125444  1
  Ag  Ag3  1  0.33090716  0.18133274  0.51120536  1
  Ag  Ag4  1  0.83624934  0.33454337  0.16069876  1
  Ag  Ag5  1  0.16305519  0.66947114  0.82493586  1
  Ag  Ag6  1  0.83838856  0.17676754  0.66603954  1
  Ag  Ag7  1  0.83807071  0.00970299  0.16562451  1
  Ag  Ag8  1  0.83716942  0.66148947  0.16016974  1
  Ag  Ag9  1  0.15975837  0.33321746  0.16700023  1
  Ag  Ag10  1  0.67532849  0.33443920  -0.01280421  1
  Ag  Ag11  1  0.83310042  0.49584205  -0.00343506  1
  Ag  Ag12  1  0.49896041  0.17360872  -0.01059032  1
  Ag  Ag13  1  0.15933460  0.83282922  -0.01248513  1
  Ag  Ag14  1  0.67867280  0.65413040  0.66783317  1
  Ag  Ag15  1  0.17129987  -0.00602343  0.82603582  1
  Ag  Ag16  1  0.49820380  0.49589627  0.66714767  1
  Ag  Ag17  1  0.51010533  0.33368129  0.82923922  1
  Ag  Ag18  1  0.33614167  0.17320941  0.82669117  1
  Ag  Ag19  1  0.67312053  0.49433488  0.15834047  1
  Ag  Ag20  1  0.16943356  0.16653481  0.66640685  1
  Ag  Ag21  1  0.33467484  0.49615583  0.16609095  1
  Ag  Ag22  1  0.83402445  0.17223516  0.33661686  1
  Ag  Ag23  1  0.66911303  0.33324300  0.33731340  1
  Ag  Ag24  1  -0.00000340  0.65931590  0.66518106  1
  Ag  Ag25  1  0.32665142  0.83306134  0.83124067  1
  Ag  Ag26  1  0.67623653  0.49186042  0.83352361  1
  Ag  Ag27  1  0.33275761  0.49073778  0.82778123  1
  Ag  Ag28  1  0.66848119  0.33564362  0.67384228  1
  Ag  Ag29  1  0.16927072  0.33587086  0.50394298  1
  Ag  Ag30  1  0.48776795  0.65460802  0.50292298  1
  Ag  Ag31  1  0.00587807  0.49975634  0.50742283  1
  Ag  Ag32  1  0.83910152  0.82574270  -0.00625405  1
  Ag  Ag33  1  0.48826789  0.01717072  0.83075980  1
  Ag  Ag34  1  -0.00503756  0.33749185  0.66826785  1
  Ag  Ag35  1  0.33244585  0.33433573  -0.01512064  1
  Ag  Ag36  1  0.16384468  0.83504887  0.66917879  1
  Ag  Ag37  1  0.16457647  0.00392270  0.50911180  1
  Ag  Ag38  1  -0.00180635  0.83357449  0.16806197  1
  Ag  Ag39  1  -0.00007692  -0.00168787  0.33272759  1
  Ag  Ag40  1  0.00052202  0.66893316  0.34528951  1
  Ag  Ag41  1  0.83548501  0.33266893  0.51567247  1
  Ag  Ag42  1  -0.00658532  0.49843422  0.82802008  1
  Ag  Ag43  1  0.83889601  0.65524401  0.83028292  1
  Ag  Ag44  1  0.82262639  0.33737386  0.83197145  1
  Ag  Ag45  1  0.33299839  0.33121403  0.66874304  1
  Ag  Ag46  1  -0.00337757  0.17277513  0.16904431  1
  Ag  Ag47  1  0.32519676  0.66414108  0.33925756  1
  Ag  Ag48  1  0.32713101  0.01344333  0.67168670  1
  Ag  Ag49  1  -0.00379635  0.33511350  -0.00908791  1
  Ag  Ag50  1  0.50239599  0.17086634  0.33270592  1
  Ag  Ag51  1  0.65745072  0.17994850  0.83200486  1
  Ag  Ag52  1  0.16351964  0.66225584  0.50700868  1
  Ag  Ag53  1  0.49185564  0.33692382  0.51222378  1
  Sb  Sb54  1  0.49751207  0.83660620  0.33656844  1
  Sb  Sb55  1  0.16718469  0.49648059  0.66682408  1
  Sb  Sb56  1  0.49001759  0.00759996  0.50844845  1
  Sb  Sb57  1  0.49911127  0.49366299  0.34035047  1
  Sb  Sb58  1  0.66963902  0.00764759  -0.00189992  1
  Sb  Sb59  1  0.32658556  0.66122748  0.66522912  1
  Sb  Sb60  1  0.67279982  0.17633556  0.16263230  1
  Sb  Sb61  1  0.49947877  0.65911452  0.82638381  1
  Sb  Sb62  1  0.83352605  0.49354422  0.32888913  1
  Sb  Sb63  1  0.49863760  0.83976740  -0.00382962  1
  Sb  Sb64  1  -0.00127740  0.49787067  0.16597959  1
  Sb  Sb65  1  0.50510501  0.00435499  0.16310868  1
  Sb  Sb66  1  0.67097492  0.65829975  -0.00737038  1
  Sb  Sb67  1  0.32886371  0.17432783  0.16610239  1
  Sb  Sb68  1  0.32515944  0.82887079  0.50759998  1
  Sb  Sb69  1  0.16670029  0.49950080  0.33575787  1
  Sb  Sb70  1  0.32343009  0.82748775  0.15982932  1
  Sb  Sb71  1  0.83652368  0.00226992  0.83504056  1
  Sb  Sb72  1  0.00643599  0.00057945  0.66372393  1
  Sb  Sb73  1  -0.00083133  0.00232411  0.00302564  1
  Sb  Sb74  1  0.84083258  0.00494537  0.49849835  1
  Sb  Sb75  1  0.67109562  0.65808542  0.33858544  1
  Sb  Sb76  1  0.16809243  0.33553596  0.82802632  1
  Sb  Sb77  1  0.67352638  0.01001904  0.33295702  1
  Sb  Sb78  1  0.66834463  0.49516348  0.50735168  1
  Sb  Sb79  1  0.00452522  0.82821686  0.83103578  1
  Sb  Sb80  1  -0.00172486  0.66323256  -0.00439426  1
  Sb  Sb81  1  0.33204786  0.65873170  -0.00149505  1
  Sb  Sb82  1  0.00190618  0.17393581  0.83372813  1
  Sb  Sb83  1  0.84006888  0.65866142  0.50554181  1
  Sb  Sb84  1  0.16327045  0.83227353  0.33868210  1
  Sb  Sb85  1  0.50303611  0.49296301  -0.00692431  1
  Sb  Sb86  1  0.00379046  0.17154122  0.49905244  1
  Sb  Sb87  1  0.16043723  0.66221037  0.16696111  1
  Sb  Sb88  1  0.33176514  0.00677793  -0.00903617  1
  Sb  Sb89  1  0.83721032  0.83638592  0.33364746  1
  Sb  Sb90  1  0.49599860  0.82762171  0.66736430  1
  Sb  Sb91  1  0.83288837  0.49687382  0.67286283  1
  Sb  Sb92  1  0.16148673  0.00333181  0.16622440  1
  Sb  Sb93  1  0.16293695  0.49965813  -0.00392229  1
  Sb  Sb94  1  0.66234928  0.17178892  0.50672951  1
  Sb  Sb95  1  0.50374613  0.66384487  0.17371245  1
  Sb  Sb96  1  0.67889748  0.82474446  0.16450544  1
  Sb  Sb97  1  -0.00499026  0.33502980  0.33751510  1
  Sb  Sb98  1  0.16455279  0.16831627  0.33946000  1
  Sb  Sb99  1  0.50210894  0.33423706  0.16425869  1
  Sb  Sb100  1  0.16885661  0.16725963  -0.00703470  1
  Sb  Sb101  1  0.66303827  0.00629813  0.66921105  1
  Sb  Sb102  1  0.67526040  0.82840444  0.50313568  1
  Sb  Sb103  1  0.66666814  0.83046559  0.83177665  1
  Sb  Sb104  1  0.49549698  0.17666792  0.66972379  1
  Sb  Sb105  1  0.83190203  0.17410727  -0.00236202  1
  Sb  Sb106  1  0.32809089  -0.00132355  0.34007882  1
  Sb  Sb107  1  0.33741275  0.33685467  0.33890318  1
  Te  Te108  1  0.16063579  0.17133615  0.16618738  1
  Te  Te109  1  0.17038596  0.17000066  0.50407198  1
  Te  Te110  1  0.16997287  0.16192240  0.82868728  1
  Te  Te111  1  0.17112924  0.49442235  0.16487350  1
  Te  Te112  1  0.16723361  0.49959296  0.50042899  1
  Te  Te113  1  0.17118982  0.50758052  0.83400765  1
  Te  Te114  1  0.15928060  0.83360105  0.16374586  1
  Te  Te115  1  0.16193569  0.82885339  0.50430065  1
  Te  Te116  1  0.16630194  0.83181409  0.83036161  1
  Te  Te117  1  0.50067776  0.16590256  0.17025464  1
  Te  Te118  1  0.49497825  0.17118052  0.49622193  1
  Te  Te119  1  0.49831483  0.17282726  0.83100580  1
  Te  Te120  1  0.49507600  0.50146551  0.16634948  1
  Te  Te121  1  0.50142410  0.49642488  0.50461059  1
  Te  Te122  1  0.49321059  0.49498341  0.82884081  1
  Te  Te123  1  0.50084927  0.83445797  0.16611960  1
  Te  Te124  1  0.49988556  0.83313196  0.50075990  1
  Te  Te125  1  0.49395100  0.83130171  0.83387322  1
  Te  Te126  1  0.83610643  0.16889628  0.16483317  1
  Te  Te127  1  0.83285027  0.17158867  0.50072822  1
  Te  Te128  1  0.83388523  0.16884459  0.82986458  1
  Te  Te129  1  0.83390992  0.49824252  0.16222591  1
  Te  Te130  1  0.83649505  0.49112222  0.49656030  1
  Te  Te131  1  0.83403849  0.49834501  0.83579060  1
  Te  Te132  1  0.83950688  0.82639726  0.16662382  1
  Te  Te133  1  0.84226633  0.83427279  0.50550030  1
  Te  Te134  1  0.83348452  0.83451497  0.83284772  1
  Te  Te135  1  0.16651624  -0.00570728  -0.00219707  1
  Te  Te136  1  0.16056891  0.00020778  0.33633311  1
  Te  Te137  1  0.16778066  0.00127161  0.66576700  1
  Te  Te138  1  0.16540299  0.33243778  0.00334403  1
  Te  Te139  1  0.16573333  0.33242470  0.33348479  1
  Te  Te140  1  0.16792312  0.32933879  0.66368534  1
  Te  Te141  1  0.16637125  0.67288309  -0.00171841  1
  Te  Te142  1  0.16368683  0.66666129  0.33505651  1
  Te  Te143  1  0.16328051  0.66932967  0.66567350  1
  Te  Te144  1  0.50095880  0.00850745  -0.00604485  1
  Te  Te145  1  0.50031736  0.00638404  0.33415671  1
  Te  Te146  1  0.49392806  -0.00413303  0.67263184  1
  Te  Te147  1  0.49527390  0.33085017  -0.00204210  1
  Te  Te148  1  0.50517597  0.32904593  0.33380720  1
  Te  Te149  1  0.49943274  0.33511857  0.66809416  1
  Te  Te150  1  0.50184454  0.66930342  0.00198282  1
  Te  Te151  1  0.50153737  0.66762681  0.34223705  1
  Te  Te152  1  0.50024365  0.66117559  0.66107457  1
  Te  Te153  1  0.83398945  -0.00687404  0.00446619  1
  Te  Te154  1  0.83915381  0.00693463  0.32930090  1
  Te  Te155  1  0.83272009  -0.00357040  0.66692025  1
  Te  Te156  1  0.83479581  0.33436721  -0.00224515  1
  Te  Te157  1  0.83112927  0.32934215  0.32369874  1
  Te  Te158  1  0.83462112  0.33428835  0.67146401  1
  Te  Te159  1  0.83359163  0.66553369  -0.00222761  1
  Te  Te160  1  0.83742569  0.66725207  0.33364875  1
  Te  Te161  1  0.83707909  0.66932245  0.66827177  1
  Te  Te162  1  0.00066114  0.17341564  0.00555059  1
  Te  Te163  1  -0.00303482  0.16515770  0.33051350  1
  Te  Te164  1  -0.00040790  0.17112616  0.66622486  1
  Te  Te165  1  -0.00448383  0.49462710  -0.00352284  1
  Te  Te166  1  0.00012190  0.50732548  0.33749665  1
  Te  Te167  1  0.00043011  0.49896597  0.66769655  1
  Te  Te168  1  -0.00192873  0.83321292  0.00173416  1
  Te  Te169  1  -0.00062161  0.83122627  0.33367039  1
  Te  Te170  1  0.00283120  0.83493642  0.66512219  1
  Te  Te171  1  0.33703427  0.17360099  -0.00149958  1
  Te  Te172  1  0.33605279  0.16379648  0.33470100  1
  Te  Te173  1  0.33293203  0.16934303  0.66656868  1
  Te  Te174  1  0.33357721  0.49375567  -0.00250371  1
  Te  Te175  1  0.33402326  0.50540851  0.33415909  1
  Te  Te176  1  0.33530123  0.49610999  0.66567789  1
  Te  Te177  1  0.33055191  0.83242793  -0.00599234  1
  Te  Te178  1  0.33227327  0.82590635  0.32993505  1
  Te  Te179  1  0.32870257  0.83259239  0.67220490  1
  Te  Te180  1  0.66266244  0.17423552  -0.00486865  1
  Te  Te181  1  0.66940529  0.17252173  0.33291063  1
  Te  Te182  1  0.67411835  0.17129083  0.67182979  1
  Te  Te183  1  0.66897747  0.49411466  -0.00287350  1
  Te  Te184  1  0.66578175  0.49424585  0.32616920  1
  Te  Te185  1  0.66416704  0.49658167  0.67144949  1
  Te  Te186  1  0.67227004  0.83311821  -0.00035854  1
  Te  Te187  1  0.66691862  0.83383204  0.33353373  1
  Te  Te188  1  0.66912821  0.83311939  0.66661275  1
  Te  Te189  1  -0.00268749  -0.00112843  0.16951969  1
  Te  Te190  1  0.00518792  0.00049113  0.49572610  1
  Te  Te191  1  0.00636316  0.00277590  0.83422706  1
  Te  Te192  1  -0.00120461  0.33438163  0.17090204  1
  Te  Te193  1  -0.00032972  0.33635057  0.50291145  1
  Te  Te194  1  0.00334458  0.33789222  0.83155980  1
  Te  Te195  1  -0.00362537  0.66699414  0.16573930  1
  Te  Te196  1  0.00161889  0.66346229  0.50378196  1
  Te  Te197  1  -0.00076269  0.66247359  0.82953675  1
  Te  Te198  1  0.33342434  -0.00181069  0.16836068  1
  Te  Te199  1  0.32474025  -0.00285561  0.50620451  1
  Te  Te200  1  0.33141388  0.00225000  0.83119269  1
  Te  Te201  1  0.33110373  0.33730186  0.17104450  1
  Te  Te202  1  0.33354054  0.33708015  0.49973379  1
  Te  Te203  1  0.32672874  0.33312802  0.82952272  1
  Te  Te204  1  0.33273468  0.66056541  0.17119863  1
  Te  Te205  1  0.33011024  0.66390551  0.49906901  1
  Te  Te206  1  0.33093745  0.66688431  0.83341423  1
  Te  Te207  1  0.67530373  -0.00234878  0.16632192  1
  Te  Te208  1  0.66489710  -0.00170429  0.49971915  1
  Te  Te209  1  0.66309216  0.00148810  0.83350085  1
  Te  Te210  1  0.66910146  0.33744276  0.16863410  1
  Te  Te211  1  0.67112649  0.33225116  0.49975220  1
  Te  Te212  1  0.66594123  0.33543370  0.83181446  1
  Te  Te213  1  0.67328931  0.65748714  0.16768154  1
  Te  Te214  1  0.66551381  0.66380085  0.50758614  1
  Te  Te215  1  0.66938993  0.66254484  0.82614442  1
