# generated using pymatgen
data_AgSbTe2
_symmetry_space_group_name_H-M   'P 1'
_cell_length_a   18.35341419
_cell_length_b   18.35621138
_cell_length_c   18.35274811
_cell_angle_alpha   89.99827113
_cell_angle_beta   89.99901838
_cell_angle_gamma   90.00244115
_symmetry_Int_Tables_number   1
_chemical_formula_structural   AgSbTe2
_chemical_formula_sum   'Ag54 Sb54 Te108'
_cell_volume   6183.02523590
_cell_formula_units_Z   54
loop_
 _symmetry_equiv_pos_site_id
 _symmetry_equiv_pos_as_xyz
  1  'x, y, z'
loop_
 _atom_site_type_symbol
 _atom_site_label
 _atom_site_symmetry_multiplicity
 _atom_site_fract_x
 _atom_site_fract_y
 _atom_site_fract_z
 _atom_site_occupancy
  Ag  Ag0  1  0.16572494  0.66313513  0.81986045  1
  Ag  Ag1  1  0.00273359  0.15682618  0.49592783  1
  Ag  Ag2  1  0.32575162  0.15447163  0.49110408  1
  Ag  Ag3  1  0.16468747  0.16530135  0.00708593  1
  Ag  Ag4  1  0.33356726  -0.00259116  0.00074387  1
  Ag  Ag5  1  0.48935314  0.15979841  0.00205904  1
  Ag  Ag6  1  0.48537449  0.50336880  0.33379164  1
  Ag  Ag7  1  0.00778350  0.16627321  0.17200402  1
  Ag  Ag8  1  0.16431495  0.33845808  0.83256684  1
  Ag  Ag9  1  0.00603437  0.67121048  0.33876965  1
  Ag  Ag10  1  0.16921437  0.50919536  0.65622580  1
  Ag  Ag11  1  0.00756832  0.83923025  0.50001798  1
  Ag  Ag12  1  -0.00009113  0.32628924  0.00610961  1
  Ag  Ag13  1  0.66011891  0.00253613  -0.00134209  1
  Ag  Ag14  1  0.49148723  0.83981354  0.00265566  1
  Ag  Ag15  1  0.33323427  0.82924798  0.17615031  1
  Ag  Ag16  1  0.00774600  0.67398953  0.65647574  1
  Ag  Ag17  1  0.33307949  0.51314439  0.17471971  1
  Ag  Ag18  1  0.84593034  0.16596597  -0.00148281  1
  Ag  Ag19  1  0.32143630  0.67097252  0.65600965  1
  Ag  Ag20  1  0.67435474  0.66567751  0.65711091  1
  Ag  Ag21  1  0.16409130  0.67680238  0.50342771  1
  Ag  Ag22  1  0.00140270  0.16607002  0.83801756  1
  Ag  Ag23  1  0.47812596  0.00068521  0.49870819  1
  Ag  Ag24  1  0.32713948  0.16259392  0.17187418  1
  Ag  Ag25  1  0.16189048  0.82380920  0.65502979  1
  Ag  Ag26  1  0.16861467  0.51083676  0.34000219  1
  Ag  Ag27  1  0.84249565  0.83015732  0.65817988  1
  Ag  Ag28  1  0.16572319  0.82996396  0.34083250  1
  Ag  Ag29  1  0.32767856  0.50623572  0.82849994  1
  Ag  Ag30  1  0.67320602  0.66379278  0.33900973  1
  Ag  Ag31  1  0.84068819  0.66932961  0.81824143  1
  Ag  Ag32  1  0.84856525  -0.00835886  0.50178775  1
  Ag  Ag33  1  0.83491435  0.49975422  0.00439986  1
  Ag  Ag34  1  0.33149000  0.67099965  0.01037121  1
  Ag  Ag35  1  -0.00103855  0.33163562  0.33639985  1
  Ag  Ag36  1  0.16281669  -0.00892402  0.50062221  1
  Ag  Ag37  1  0.00755339  0.00311661  0.34105032  1
  Ag  Ag38  1  0.68010435  0.16498682  0.49873445  1
  Ag  Ag39  1  0.32325464  0.83593527  0.49550192  1
  Ag  Ag40  1  0.32300146  -0.01036445  0.65439380  1
  Ag  Ag41  1  0.32874564  0.51313766  0.49394096  1
  Ag  Ag42  1  0.84473762  0.82532196  0.34174159  1
  Ag  Ag43  1  0.16454749  0.16408574  0.33508548  1
  Ag  Ag44  1  0.84538308  0.67354449  0.50049212  1
  Ag  Ag45  1  0.83775948  0.50702329  0.33590552  1
  Ag  Ag46  1  0.66995329  0.34019127  0.65973476  1
  Ag  Ag47  1  0.32781138  0.66973740  0.33743812  1
  Ag  Ag48  1  0.49211483  0.66719357  0.17058467  1
  Ag  Ag49  1  0.00381415  -0.00515602  0.65638327  1
  Ag  Ag50  1  0.67751898  0.34056376  0.33908487  1
  Ag  Ag51  1  0.83361004  0.33196346  0.49840241  1
  Ag  Ag52  1  0.83629069  -0.00489402  0.82505440  1
  Ag  Ag53  1  0.32659120  -0.01067973  0.34017899  1
  Sb  Sb54  1  0.67430759  0.32761494  0.00119235  1
  Sb  Sb55  1  0.50327612  0.32989004  0.49761764  1
  Sb  Sb56  1  0.49753205  0.33545269  0.16947462  1
  Sb  Sb57  1  0.33273112  0.33538586  0.66390417  1
  Sb  Sb58  1  0.00422456  0.49874834  0.83285908  1
  Sb  Sb59  1  0.50182524  0.00017932  0.83279685  1
  Sb  Sb60  1  0.00332537  0.50606072  0.49735061  1
  Sb  Sb61  1  0.83922838  0.50751717  0.66281445  1
  Sb  Sb62  1  0.83843505  0.33352856  0.82919877  1
  Sb  Sb63  1  0.49337378  0.50285272  0.66011048  1
  Sb  Sb64  1  0.00630838  0.83766936  0.17791232  1
  Sb  Sb65  1  0.16159219  0.33339753  0.49924026  1
  Sb  Sb66  1  0.00359429  0.00637910  0.00035538  1
  Sb  Sb67  1  0.83176497  0.66645988  0.17474125  1
  Sb  Sb68  1  0.83571893  0.16050091  0.66363917  1
  Sb  Sb69  1  0.66416542  0.66926900  0.00127538  1
  Sb  Sb70  1  0.49299842  0.82961629  0.33326980  1
  Sb  Sb71  1  0.49471309  -0.00227391  0.16892552  1
  Sb  Sb72  1  0.16306864  -0.00100919  0.82756412  1
  Sb  Sb73  1  0.49435121  0.67076915  0.49559783  1
  Sb  Sb74  1  0.84219454  0.16582876  0.33548053  1
  Sb  Sb75  1  0.83200885  0.83517979  -0.00041684  1
  Sb  Sb76  1  0.17136802  0.83653418  -0.00016027  1
  Sb  Sb77  1  0.16595644  0.16603523  0.66293471  1
  Sb  Sb78  1  0.00382970  0.66333428  -0.00083970  1
  Sb  Sb79  1  0.49387508  0.16918623  0.33303798  1
  Sb  Sb80  1  0.17012815  0.00251710  0.17841510  1
  Sb  Sb81  1  0.32745089  0.33280916  0.00014641  1
  Sb  Sb82  1  0.66173196  0.83287128  0.16866757  1
  Sb  Sb83  1  0.83528788  0.00106037  0.16962685  1
  Sb  Sb84  1  0.00434124  0.49787936  0.17126174  1
  Sb  Sb85  1  0.49934747  0.16484321  0.66501342  1
  Sb  Sb86  1  0.16559450  0.33125774  0.16650256  1
  Sb  Sb87  1  0.67035715  -0.00257635  0.66514115  1
  Sb  Sb88  1  0.66824114  0.83316547  0.83274046  1
  Sb  Sb89  1  0.49668492  0.83308640  0.66604507  1
  Sb  Sb90  1  0.66625413  0.50145247  0.83210210  1
  Sb  Sb91  1  -0.00052046  0.83629342  0.82530665  1
  Sb  Sb92  1  0.66965903  0.83466062  0.49950100  1
  Sb  Sb93  1  0.67196377  0.16544232  0.83088184  1
  Sb  Sb94  1  0.83583766  0.33304781  0.17294774  1
  Sb  Sb95  1  0.49422676  0.33290787  0.83366028  1
  Sb  Sb96  1  0.49439438  0.66625576  0.83603991  1
  Sb  Sb97  1  0.16516644  0.49820604  0.00125473  1
  Sb  Sb98  1  0.17172046  0.66648943  0.17659203  1
  Sb  Sb99  1  0.66735636  -0.00163338  0.33551484  1
  Sb  Sb100  1  0.66566581  0.49963589  0.49787437  1
  Sb  Sb101  1  0.32762608  0.33643039  0.33495697  1
  Sb  Sb102  1  0.66419429  0.50146554  0.17221664  1
  Sb  Sb103  1  -0.00206460  0.33275607  0.66136670  1
  Sb  Sb104  1  0.66592494  0.16546647  0.17083731  1
  Sb  Sb105  1  0.33018968  0.82903023  0.83027758  1
  Sb  Sb106  1  0.32664320  0.16819601  0.83363665  1
  Sb  Sb107  1  0.49935165  0.50115603  0.00502885  1
  Te  Te108  1  0.16594999  0.16630724  0.16667232  1
  Te  Te109  1  0.16621379  0.16997486  0.49701847  1
  Te  Te110  1  0.16069433  0.16755065  0.83136459  1
  Te  Te111  1  0.17267321  0.49874009  0.17228899  1
  Te  Te112  1  0.16976263  0.49726170  0.49830135  1
  Te  Te113  1  0.16892809  0.50165597  0.83698927  1
  Te  Te114  1  0.17368654  0.83408454  0.16997379  1
  Te  Te115  1  0.16732089  0.83214811  0.49924858  1
  Te  Te116  1  0.16480728  0.82628365  0.82878067  1
  Te  Te117  1  0.49841723  0.16679747  0.16128391  1
  Te  Te118  1  0.48921156  0.16054247  0.50058817  1
  Te  Te119  1  0.50022139  0.16715594  0.84083887  1
  Te  Te120  1  0.49526935  0.50389310  0.17204814  1
  Te  Te121  1  0.49356536  0.49949044  0.49219293  1
  Te  Te122  1  0.49219296  0.49866035  0.83303236  1
  Te  Te123  1  0.49479704  0.83023739  0.16315043  1
  Te  Te124  1  0.49868620  0.84184458  0.50096356  1
  Te  Te125  1  0.50109481  0.83316624  0.84218392  1
  Te  Te126  1  0.83389937  0.16745782  0.15909724  1
  Te  Te127  1  0.83633047  0.16503212  0.50041988  1
  Te  Te128  1  0.83868576  0.16563115  0.83528312  1
  Te  Te129  1  0.83380885  0.49955736  0.16628392  1
  Te  Te130  1  0.83223821  0.50179779  0.49532466  1
  Te  Te131  1  0.83341727  0.50667042  0.83371380  1
  Te  Te132  1  0.83366334  0.83388256  0.17247734  1
  Te  Te133  1  0.83116752  0.83243984  0.49930083  1
  Te  Te134  1  0.83340993  0.83161501  0.83227743  1
  Te  Te135  1  0.17185971  0.00439646  -0.00447159  1
  Te  Te136  1  0.16938271  0.00188984  0.33744972  1
  Te  Te137  1  0.16570546  -0.00038093  0.66402944  1
  Te  Te138  1  0.16027455  0.33038218  -0.00324337  1
  Te  Te139  1  0.15872545  0.32837622  0.33304840  1
  Te  Te140  1  0.16661130  0.33573714  0.67249063  1
  Te  Te141  1  0.17247108  0.66727017  -0.00103230  1
  Te  Te142  1  0.16617078  0.66813153  0.33890270  1
  Te  Te143  1  0.16731701  0.66534466  0.66473840  1
  Te  Te144  1  0.49874558  0.00048552  -0.00025899  1
  Te  Te145  1  0.49698083  0.00121137  0.33878817  1
  Te  Te146  1  0.49718840  -0.00030203  0.66307497  1
  Te  Te147  1  0.50406509  0.32799790  0.00041892  1
  Te  Te148  1  0.50679668  0.33940778  0.33293774  1
  Te  Te149  1  0.50790629  0.33379249  0.66701833  1
  Te  Te150  1  0.49574404  0.66723767  0.00410552  1
  Te  Te151  1  0.49688822  0.66500463  0.33102091  1
  Te  Te152  1  0.50834992  0.66656900  0.66793808  1
  Te  Te153  1  0.83475974  0.00281531  0.00001884  1
  Te  Te154  1  0.83464457  -0.00268508  0.33792673  1
  Te  Te155  1  0.83546662  -0.00570893  0.66580644  1
  Te  Te156  1  0.83816159  0.33256013  -0.00263137  1
  Te  Te157  1  0.83597937  0.33117234  0.33804615  1
  Te  Te158  1  0.82933673  0.33654758  0.66107800  1
  Te  Te159  1  0.83420387  0.66396062  0.00345242  1
  Te  Te160  1  0.83458911  0.66677319  0.33587735  1
  Te  Te161  1  0.83425661  0.66821780  0.66224939  1
  Te  Te162  1  0.00287577  0.16715749  0.00051728  1
  Te  Te163  1  0.00126522  0.16410711  0.33260949  1
  Te  Te164  1  -0.00048941  0.16363329  0.66173504  1
  Te  Te165  1  -0.00467217  0.49520161  0.00157023  1
  Te  Te166  1  -0.00052110  0.49722164  0.33281907  1
  Te  Te167  1  0.00757825  0.50427075  0.66652523  1
  Te  Te168  1  -0.00042515  0.83319999  0.00543948  1
  Te  Te169  1  0.00338047  0.83341310  0.33794124  1
  Te  Te170  1  0.00021060  0.83332751  0.66419464  1
  Te  Te171  1  0.32956959  0.16804005  -0.00204119  1
  Te  Te172  1  0.32960480  0.16931355  0.33201683  1
  Te  Te173  1  0.33406356  0.16332673  0.66546429  1
  Te  Te174  1  0.33468302  0.50176856  0.00422627  1
  Te  Te175  1  0.32960077  0.49854474  0.33350184  1
  Te  Te176  1  0.32961519  0.50226484  0.66624669  1
  Te  Te177  1  0.33472780  0.83094303  -0.00240538  1
  Te  Te178  1  0.33291079  0.83275405  0.33355423  1
  Te  Te179  1  0.33227202  0.83178828  0.66451047  1
  Te  Te180  1  0.66878633  0.16339489  -0.00035317  1
  Te  Te181  1  0.66273034  0.16778595  0.33857814  1
  Te  Te182  1  0.66647657  0.16745562  0.66022632  1
  Te  Te183  1  0.67309303  0.49796881  0.00011946  1
  Te  Te184  1  0.67768303  0.50170275  0.33413782  1
  Te  Te185  1  0.66410408  0.50247321  0.66612522  1
  Te  Te186  1  0.66347923  0.83946620  0.00082086  1
  Te  Te187  1  0.67008102  0.82809278  0.33179493  1
  Te  Te188  1  0.66669442  0.82704469  0.66699739  1
  Te  Te189  1  0.00027860  0.00583130  0.17392745  1
  Te  Te190  1  0.00324521  -0.00064348  0.49908269  1
  Te  Te191  1  -0.00409972  0.00380253  0.83214523  1
  Te  Te192  1  -0.00048507  0.32837497  0.16685052  1
  Te  Te193  1  -0.00497246  0.32893669  0.49682681  1
  Te  Te194  1  0.00320077  0.32899613  0.82993664  1
  Te  Te195  1  -0.00060875  0.66758734  0.17160682  1
  Te  Te196  1  0.00205255  0.66667676  0.49746756  1
  Te  Te197  1  0.00003322  0.66690926  0.83362130  1
  Te  Te198  1  0.33485284  0.00285830  0.15989915  1
  Te  Te199  1  0.32304769  -0.00130905  0.49931199  1
  Te  Te200  1  0.33469984  0.00038914  0.83872999  1
  Te  Te201  1  0.33351277  0.32305075  0.16655120  1
  Te  Te202  1  0.33442603  0.32928418  0.50092847  1
  Te  Te203  1  0.32656074  0.33919233  0.83271102  1
  Te  Te204  1  0.33224858  0.66902674  0.16817675  1
  Te  Te205  1  0.33298994  0.66974193  0.49860681  1
  Te  Te206  1  0.33148789  0.66361639  0.82780642  1
  Te  Te207  1  0.66599990  0.00069776  0.15952633  1
  Te  Te208  1  0.67331572  0.00535826  0.50109494  1
  Te  Te209  1  0.67313306  0.00060603  0.83671524  1
  Te  Te210  1  0.66708003  0.33283591  0.17464110  1
  Te  Te211  1  0.66860214  0.33175139  0.49929962  1
  Te  Te212  1  0.66599805  0.33295832  0.82676068  1
  Te  Te213  1  0.65874841  0.66704230  0.16995217  1
  Te  Te214  1  0.66242829  0.66731355  0.49782215  1
  Te  Te215  1  0.67162886  0.66568484  0.83414157  1
