# generated using pymatgen
data_AgSbTe2
_symmetry_space_group_name_H-M   'P 1'
_cell_length_a   18.35686805
_cell_length_b   18.35134104
_cell_length_c   18.35689623
_cell_angle_alpha   89.99969526
_cell_angle_beta   89.99842714
_cell_angle_gamma   90.00089350
_symmetry_Int_Tables_number   1
_chemical_formula_structural   AgSbTe2
_chemical_formula_sum   'Ag54 Sb54 Te108'
_cell_volume   6183.94537812
_cell_formula_units_Z   54
loop_
 _symmetry_equiv_pos_site_id
 _symmetry_equiv_pos_as_xyz
  1  'x, y, z'
loop_
 _atom_site_type_symbol
 _atom_site_label
 _atom_site_symmetry_multiplicity
 _atom_site_fract_x
 _atom_site_fract_y
 _atom_site_fract_z
 _atom_site_occupancy
  Ag  Ag0  1  0.16673055  -0.00322454  0.50219968  1
  Ag  Ag1  1  0.83930681  0.33741052  0.50102895  1
  Ag  Ag2  1  0.01208984  0.50025705  0.83269707  1
  Ag  Ag3  1  0.49247263  0.83226464  0.33424378  1
  Ag  Ag4  1  0.49209041  -0.00737598  0.83397988  1
  Ag  Ag5  1  0.32689835  0.15730298  0.15526027  1
  Ag  Ag6  1  0.49633677  0.51109479  0.33784620  1
  Ag  Ag7  1  0.84165673  0.83700332  -0.00713405  1
  Ag  Ag8  1  0.16761058  -0.00025941  0.82222225  1
  Ag  Ag9  1  0.33228705  0.50883845  0.50924302  1
  Ag  Ag10  1  0.32353522  -0.00828479  0.33735147  1
  Ag  Ag11  1  0.49988345  0.67336138  0.83082313  1
  Ag  Ag12  1  0.00377449  0.32494432  0.34089867  1
  Ag  Ag13  1  0.00502172  0.15798232  0.83344414  1
  Ag  Ag14  1  0.83242835  0.67348166  0.82897044  1
  Ag  Ag15  1  0.33357544  0.67740182  0.34060302  1
  Ag  Ag16  1  0.16841415  0.16010332  -0.00286916  1
  Ag  Ag17  1  0.66149553  0.50489000  0.16674521  1
  Ag  Ag18  1  0.33139428  0.83755842  0.17516676  1
  Ag  Ag19  1  0.00906239  0.00141691  0.33959423  1
  Ag  Ag20  1  0.17352732  0.67894047  0.50119770  1
  Ag  Ag21  1  0.32752871  0.49838162  0.82708727  1
  Ag  Ag22  1  0.00852487  0.83897000  0.50896891  1
  Ag  Ag23  1  0.16571882  0.84322548  -0.00149172  1
  Ag  Ag24  1  0.48853370  0.50103335  0.67324202  1
  Ag  Ag25  1  0.00344619  0.32033381  -0.00917592  1
  Ag  Ag26  1  0.00267652  0.32296152  0.66791002  1
  Ag  Ag27  1  0.00438691  0.15760351  0.50918945  1
  Ag  Ag28  1  0.16405747  0.84231701  0.65945900  1
  Ag  Ag29  1  0.83576254  0.67197982  0.50394791  1
  Ag  Ag30  1  0.16624987  0.31922331  0.16442391  1
  Ag  Ag31  1  0.67494402  0.83684284  0.83459588  1
  Ag  Ag32  1  0.49252953  0.15602764  -0.00668672  1
  Ag  Ag33  1  0.16639596  0.15738764  0.32797129  1
  Ag  Ag34  1  0.18162867  0.84567374  0.34865547  1
  Ag  Ag35  1  0.49783508  0.83465589  -0.00355608  1
  Ag  Ag36  1  0.66052052  0.83454076  0.16695207  1
  Ag  Ag37  1  0.67083871  0.15646419  0.83538510  1
  Ag  Ag38  1  0.16850869  0.49897795  0.67328778  1
  Ag  Ag39  1  0.00552774  0.00111723  -0.01168120  1
  Ag  Ag40  1  0.84387470  0.83316152  0.67193822  1
  Ag  Ag41  1  0.00675929  0.00185338  0.66944393  1
  Ag  Ag42  1  0.49250217  0.50283822  -0.00402709  1
  Ag  Ag43  1  0.16340204  0.15636914  0.67492468  1
  Ag  Ag44  1  0.66150058  -0.00353854  0.33350132  1
  Ag  Ag45  1  0.16877884  0.49796584  -0.00804896  1
  Ag  Ag46  1  0.16767395  0.00127327  0.18202822  1
  Ag  Ag47  1  0.32646517  0.16045798  0.83725839  1
  Ag  Ag48  1  0.32279228  -0.00145786  0.66620543  1
  Ag  Ag49  1  0.85136029  0.15929692  -0.00319265  1
  Ag  Ag50  1  0.48995308  0.67032464  0.50218622  1
  Ag  Ag51  1  0.32142423  0.82750798  0.48896881  1
  Ag  Ag52  1  0.00239923  0.83894321  0.82882829  1
  Ag  Ag53  1  0.66708469  0.83446985  0.49811100  1
  Sb  Sb54  1  0.49333369  -0.00608907  0.50266537  1
  Sb  Sb55  1  0.67469122  0.15966020  0.50340078  1
  Sb  Sb56  1  0.84250302  0.16172262  0.67101183  1
  Sb  Sb57  1  0.49885037  0.66947631  0.16631321  1
  Sb  Sb58  1  0.83535222  0.83504313  0.33517065  1
  Sb  Sb59  1  0.66154641  0.50755202  0.49731235  1
  Sb  Sb60  1  0.32270331  -0.00009259  -0.00187250  1
  Sb  Sb61  1  0.67018379  0.33124004  -0.00096300  1
  Sb  Sb62  1  0.65940907  0.16128954  0.16213246  1
  Sb  Sb63  1  0.66665749  -0.00311042  0.66734672  1
  Sb  Sb64  1  0.49630780  0.83099231  0.66683430  1
  Sb  Sb65  1  0.82993683  0.49960098  0.33488642  1
  Sb  Sb66  1  0.49168049  -0.00502042  0.16001524  1
  Sb  Sb67  1  0.33508384  0.50189079  0.16553151  1
  Sb  Sb68  1  0.16759225  0.66944306  0.82882964  1
  Sb  Sb69  1  0.84509887  -0.00534264  0.49992684  1
  Sb  Sb70  1  0.49495457  0.33366717  0.16511624  1
  Sb  Sb71  1  0.16388040  0.32670557  0.83695380  1
  Sb  Sb72  1  0.16909836  0.67327624  0.16956212  1
  Sb  Sb73  1  0.83946022  0.50496990  0.66693672  1
  Sb  Sb74  1  0.84040378  -0.00648291  0.83394765  1
  Sb  Sb75  1  0.49988811  0.33312701  0.83543150  1
  Sb  Sb76  1  0.00880864  0.16460319  0.16133755  1
  Sb  Sb77  1  0.66567751  0.66862246  0.66678284  1
  Sb  Sb78  1  0.83912630  0.33361076  0.83071055  1
  Sb  Sb79  1  0.66146941  0.50470770  0.83639126  1
  Sb  Sb80  1  0.32673589  0.33132666  -0.00045930  1
  Sb  Sb81  1  0.83603532  0.50312299  -0.00257223  1
  Sb  Sb82  1  0.84404326  0.16500195  0.33088943  1
  Sb  Sb83  1  0.66838020  -0.00306811  -0.00030384  1
  Sb  Sb84  1  0.49247463  0.15844219  0.33021586  1
  Sb  Sb85  1  0.00219993  0.67448646  0.66753122  1
  Sb  Sb86  1  0.66054724  0.67392859  0.33577227  1
  Sb  Sb87  1  0.83980702  0.33162035  0.16748469  1
  Sb  Sb88  1  0.67268971  0.33182544  0.66754935  1
  Sb  Sb89  1  0.33224242  0.67116422  0.66322309  1
  Sb  Sb90  1  0.67042489  0.33011959  0.33336653  1
  Sb  Sb91  1  0.32850577  0.33032040  0.33325844  1
  Sb  Sb92  1  0.83832566  -0.00030564  0.16507169  1
  Sb  Sb93  1  0.00595583  0.67207652  0.33899324  1
  Sb  Sb94  1  0.00649842  0.50246832  0.50567394  1
  Sb  Sb95  1  0.32540645  0.33223952  0.66756409  1
  Sb  Sb96  1  0.16193447  0.32993013  0.49851878  1
  Sb  Sb97  1  0.33371154  0.66810874  0.00073048  1
  Sb  Sb98  1  0.83141630  0.67099880  0.16555256  1
  Sb  Sb99  1  0.66484380  0.67091531  -0.00116655  1
  Sb  Sb100  1  0.17053179  0.50101370  0.33348070  1
  Sb  Sb101  1  0.32886133  0.83550415  0.83193218  1
  Sb  Sb102  1  0.49265418  0.16854384  0.67196777  1
  Sb  Sb103  1  0.00458748  0.83745352  0.16532673  1
  Sb  Sb104  1  0.50176962  0.33995004  0.50019358  1
  Sb  Sb105  1  0.00236736  0.67201672  -0.00339044  1
  Sb  Sb106  1  0.32582217  0.16187615  0.50249527  1
  Sb  Sb107  1  0.00141181  0.49538140  0.16168671  1
  Te  Te108  1  0.16874853  0.16272391  0.16507560  1
  Te  Te109  1  0.16338290  0.16506900  0.50044887  1
  Te  Te110  1  0.16545301  0.16631278  0.83394906  1
  Te  Te111  1  0.16720464  0.50287491  0.16306298  1
  Te  Te112  1  0.17226165  0.49885937  0.49940222  1
  Te  Te113  1  0.16847735  0.50411457  0.83352707  1
  Te  Te114  1  0.16958097  0.83707380  0.15606088  1
  Te  Te115  1  0.16475629  0.83343507  0.50285800  1
  Te  Te116  1  0.16278876  0.83381192  0.83897261  1
  Te  Te117  1  0.49042430  0.16567807  0.16219406  1
  Te  Te118  1  0.50169353  0.16921970  0.50072815  1
  Te  Te119  1  0.49312752  0.16735464  0.83482135  1
  Te  Te120  1  0.50209809  0.50027220  0.16122476  1
  Te  Te121  1  0.49776586  0.50557690  0.49693647  1
  Te  Te122  1  0.49997853  0.50085064  0.83419343  1
  Te  Te123  1  0.49972882  0.83435483  0.16548556  1
  Te  Te124  1  0.50587356  0.83001134  0.50085703  1
  Te  Te125  1  0.49588332  0.83300096  0.83175861  1
  Te  Te126  1  0.82727033  0.16747151  0.15751185  1
  Te  Te127  1  0.84189708  0.16752437  0.50006657  1
  Te  Te128  1  0.83353417  0.16796894  0.83831641  1
  Te  Te129  1  0.82613883  0.50072681  0.16671669  1
  Te  Te130  1  0.83159792  0.50471446  0.50040684  1
  Te  Te131  1  0.82974186  0.50853461  0.83286750  1
  Te  Te132  1  0.82758465  0.83356320  0.15857720  1
  Te  Te133  1  0.82892954  0.83129299  0.50080771  1
  Te  Te134  1  0.83527537  0.83320436  0.83368636  1
  Te  Te135  1  0.16512675  0.00101871  -0.00776107  1
  Te  Te136  1  0.16524817  0.00008112  0.33758036  1
  Te  Te137  1  0.16629477  -0.00009209  0.66456995  1
  Te  Te138  1  0.16211604  0.33673494  0.00237688  1
  Te  Te139  1  0.16247911  0.33375382  0.32812538  1
  Te  Te140  1  0.15950239  0.34034432  0.66584479  1
  Te  Te141  1  0.16751863  0.65946203  0.00067935  1
  Te  Te142  1  0.17225267  0.66885545  0.33894721  1
  Te  Te143  1  0.16776421  0.65798167  0.66110862  1
  Te  Te144  1  0.50162749  -0.00142984  -0.00539411  1
  Te  Te145  1  0.49979533  -0.00657245  0.33408687  1
  Te  Te146  1  0.49700474  0.00267435  0.67364681  1
  Te  Te147  1  0.50264279  0.33947121  0.00151982  1
  Te  Te148  1  0.50122824  0.33405028  0.33279785  1
  Te  Te149  1  0.50176647  0.34000526  0.66649649  1
  Te  Te150  1  0.49983006  0.66746323  -0.00417281  1
  Te  Te151  1  0.49676244  0.66982586  0.33502720  1
  Te  Te152  1  0.49939640  0.66114659  0.66669118  1
  Te  Te153  1  0.83979811  -0.00082617  0.00041645  1
  Te  Te154  1  0.82756226  0.00166750  0.33241076  1
  Te  Te155  1  0.83589920  -0.00669814  0.66628780  1
  Te  Te156  1  0.84074460  0.33152744  0.00002137  1
  Te  Te157  1  0.83985003  0.33199753  0.33813115  1
  Te  Te158  1  0.83967697  0.33286121  0.66158846  1
  Te  Te159  1  0.83389697  0.67341622  -0.00362172  1
  Te  Te160  1  0.83351656  0.66595800  0.33705755  1
  Te  Te161  1  0.83246954  0.67190932  0.66792732  1
  Te  Te162  1  0.00620809  0.16457634  -0.00251434  1
  Te  Te163  1  0.00495582  0.16585534  0.33366099  1
  Te  Te164  1  0.00225537  0.16413184  0.66912283  1
  Te  Te165  1  0.00309412  0.50177038  -0.00584768  1
  Te  Te166  1  -0.00111229  0.49954107  0.33258023  1
  Te  Te167  1  0.00279156  0.49779719  0.67174030  1
  Te  Te168  1  0.00150886  0.83802751  -0.00065017  1
  Te  Te169  1  0.00196826  0.83838256  0.33343642  1
  Te  Te170  1  0.00354599  0.83498768  0.66785982  1
  Te  Te171  1  0.33172096  0.16714178  -0.00210661  1
  Te  Te172  1  0.32721530  0.16253351  0.33452859  1
  Te  Te173  1  0.32507047  0.16399840  0.66993413  1
  Te  Te174  1  0.33276487  0.50034148  -0.00120190  1
  Te  Te175  1  0.33907699  0.49745492  0.33178951  1
  Te  Te176  1  0.33206150  0.49758764  0.66712068  1
  Te  Te177  1  0.33648087  0.83235499  0.00010923  1
  Te  Te178  1  0.33561828  0.83383557  0.33291580  1
  Te  Te179  1  0.32712665  0.83834416  0.66437978  1
  Te  Te180  1  0.65453912  0.16575415  -0.00499647  1
  Te  Te181  1  0.66482519  0.15984790  0.33338356  1
  Te  Te182  1  0.66679997  0.16533258  0.67302162  1
  Te  Te183  1  0.66678571  0.49937017  0.00493920  1
  Te  Te184  1  0.66120559  0.49787272  0.32865837  1
  Te  Te185  1  0.66390911  0.49772853  0.66575612  1
  Te  Te186  1  0.65947867  0.83386443  -0.00410976  1
  Te  Te187  1  0.66984921  0.83733968  0.33151481  1
  Te  Te188  1  0.66701499  0.83390987  0.67269947  1
  Te  Te189  1  0.00594223  -0.00041823  0.17578584  1
  Te  Te190  1  0.00391733  -0.00091507  0.50100465  1
  Te  Te191  1  0.00301533  -0.00221705  0.83081035  1
  Te  Te192  1  0.00490114  0.33321112  0.16933023  1
  Te  Te193  1  -0.00194894  0.33778284  0.50002740  1
  Te  Te194  1  -0.00059884  0.33670420  0.83268263  1
  Te  Te195  1  -0.00171926  0.66483255  0.16890584  1
  Te  Te196  1  -0.00253262  0.67169456  0.50079437  1
  Te  Te197  1  -0.00283874  0.66451608  0.83369129  1
  Te  Te198  1  0.32940649  -0.00119286  0.16996550  1
  Te  Te199  1  0.32949464  -0.00327640  0.50073606  1
  Te  Te200  1  0.33061108  0.00107726  0.83083966  1
  Te  Te201  1  0.32588748  0.32924142  0.16688355  1
  Te  Te202  1  0.33546699  0.34067913  0.50021350  1
  Te  Te203  1  0.33333813  0.33824052  0.83263761  1
  Te  Te204  1  0.33347804  0.67323265  0.17416316  1
  Te  Te205  1  0.33412134  0.66713406  0.50022085  1
  Te  Te206  1  0.33995020  0.65925005  0.83409351  1
  Te  Te207  1  0.66568662  -0.00515181  0.16975900  1
  Te  Te208  1  0.66339067  -0.00399443  0.49907464  1
  Te  Te209  1  0.66059749  -0.00166302  0.83371657  1
  Te  Te210  1  0.66755990  0.33407664  0.16776829  1
  Te  Te211  1  0.67596092  0.33122185  0.49923943  1
  Te  Te212  1  0.67000740  0.32655006  0.83262806  1
  Te  Te213  1  0.66631030  0.66807285  0.16843118  1
  Te  Te214  1  0.67165232  0.67307909  0.50023784  1
  Te  Te215  1  0.66415523  0.67255089  0.83330951  1
