# generated using pymatgen
data_AgSbTe2
_symmetry_space_group_name_H-M   'P 1'
_cell_length_a   18.34818971
_cell_length_b   18.34735404
_cell_length_c   18.35385422
_cell_angle_alpha   89.99837059
_cell_angle_beta   90.00250313
_cell_angle_gamma   89.99726337
_symmetry_Int_Tables_number   1
_chemical_formula_structural   AgSbTe2
_chemical_formula_sum   'Ag54 Sb54 Te108'
_cell_volume   6178.65491325
_cell_formula_units_Z   54
loop_
 _symmetry_equiv_pos_site_id
 _symmetry_equiv_pos_as_xyz
  1  'x, y, z'
loop_
 _atom_site_type_symbol
 _atom_site_label
 _atom_site_symmetry_multiplicity
 _atom_site_fract_x
 _atom_site_fract_y
 _atom_site_fract_z
 _atom_site_occupancy
  Ag  Ag0  1  0.33387222  0.83506861  0.84242631  1
  Ag  Ag1  1  0.00512558  -0.00522818  0.65685561  1
  Ag  Ag2  1  -0.00356383  -0.00166217  0.33268858  1
  Ag  Ag3  1  0.16297903  0.00043200  0.50249626  1
  Ag  Ag4  1  0.17066346  0.49920187  0.66831526  1
  Ag  Ag5  1  0.33258800  0.49445062  0.83713597  1
  Ag  Ag6  1  0.33878819  0.16126344  0.15601858  1
  Ag  Ag7  1  0.50184120  -0.00248865  0.16537878  1
  Ag  Ag8  1  0.49500394  0.00263393  0.84795091  1
  Ag  Ag9  1  0.50313541  0.15850882  0.32295885  1
  Ag  Ag10  1  0.01560968  0.32318624  0.00240898  1
  Ag  Ag11  1  0.34087743  0.83934671  0.15722672  1
  Ag  Ag12  1  0.01143757  0.50639262  0.50324578  1
  Ag  Ag13  1  0.66220815  0.16057173  0.16962799  1
  Ag  Ag14  1  0.66480077  0.15577780  0.48789046  1
  Ag  Ag15  1  0.48974166  0.16369431  0.67075092  1
  Ag  Ag16  1  0.17083199  0.33438171  0.84198749  1
  Ag  Ag17  1  0.84294135  0.00013878  0.48782084  1
  Ag  Ag18  1  0.83223091  0.16563386  0.00957351  1
  Ag  Ag19  1  0.16857263  0.16635373  0.32652402  1
  Ag  Ag20  1  0.65137283  0.84301739  0.17154665  1
  Ag  Ag21  1  0.66214592  0.83888732  0.49346865  1
  Ag  Ag22  1  0.32624825  0.50418641  0.50962030  1
  Ag  Ag23  1  0.32921021  0.83323539  0.50114595  1
  Ag  Ag24  1  0.49862902  0.84010398  0.32150393  1
  Ag  Ag25  1  0.83947894  0.31903815  0.16398511  1
  Ag  Ag26  1  0.17148779  0.48784703  -0.01179803  1
  Ag  Ag27  1  0.16508911  0.33017806  0.15493690  1
  Ag  Ag28  1  0.82547750  0.00350696  0.17014240  1
  Ag  Ag29  1  0.17613753  0.17444397  0.00545543  1
  Ag  Ag30  1  0.00297353  0.83717679  0.17485321  1
  Ag  Ag31  1  0.33214963  0.16745010  0.84429084  1
  Ag  Ag32  1  0.32644787  0.32153703  -0.00376943  1
  Ag  Ag33  1  0.16979439  0.83393479  0.66336322  1
  Ag  Ag34  1  0.82636282  0.15934110  0.32510639  1
  Ag  Ag35  1  0.01608746  0.49991623  0.83102587  1
  Ag  Ag36  1  0.00249094  0.67880276  0.33876781  1
  Ag  Ag37  1  0.49377928  0.83603818  0.01000007  1
  Ag  Ag38  1  0.65356613  0.66569606  0.00258741  1
  Ag  Ag39  1  0.48809362  0.15697857  0.00469495  1
  Ag  Ag40  1  0.49913249  0.68273970  0.16177263  1
  Ag  Ag41  1  0.32913254  0.66294917  0.67194948  1
  Ag  Ag42  1  0.17183011  0.16664438  0.66736724  1
  Ag  Ag43  1  0.48775223  0.50281946  -0.00008512  1
  Ag  Ag44  1  0.66987313  0.00234671  0.32991023  1
  Ag  Ag45  1  0.66494928  0.50150280  0.50123774  1
  Ag  Ag46  1  0.33617599  0.66669646  -0.00250275  1
  Ag  Ag47  1  0.01097854  0.67018831  0.65969520  1
  Ag  Ag48  1  0.33331364  0.00820671  0.00029140  1
  Ag  Ag49  1  0.16651889  0.49437061  0.33667601  1
  Ag  Ag50  1  0.00642140  0.83868718  0.49617272  1
  Ag  Ag51  1  0.00570602  0.00445207  0.00461432  1
  Ag  Ag52  1  0.65927944  0.50006879  0.83446564  1
  Ag  Ag53  1  0.32859956  0.33490387  0.67574343  1
  Sb  Sb54  1  0.66250315  0.33517239  0.00111654  1
  Sb  Sb55  1  0.66695002  0.32518069  0.33198082  1
  Sb  Sb56  1  0.49708876  0.00024644  0.49518270  1
  Sb  Sb57  1  0.00274238  0.32822758  0.32754101  1
  Sb  Sb58  1  0.17195573  0.66485372  0.16656598  1
  Sb  Sb59  1  -0.00010407  0.15972971  0.16505859  1
  Sb  Sb60  1  0.17378496  0.83678215  -0.00164159  1
  Sb  Sb61  1  0.66953206  0.67378635  0.33039630  1
  Sb  Sb62  1  0.65968487  -0.00065107  0.00832286  1
  Sb  Sb63  1  0.49484255  0.50159146  0.32985999  1
  Sb  Sb64  1  0.83354922  0.66597022  0.83475113  1
  Sb  Sb65  1  0.32879711  0.66843608  0.33196197  1
  Sb  Sb66  1  0.83611506  0.16468096  0.66458965  1
  Sb  Sb67  1  0.66926710  -0.00068537  0.65784726  1
  Sb  Sb68  1  0.82825900  0.84085250  0.00355219  1
  Sb  Sb69  1  0.83043725  0.67219138  0.16652922  1
  Sb  Sb70  1  0.84195033  0.83516844  0.66357458  1
  Sb  Sb71  1  0.49203903  0.83785687  0.66660820  1
  Sb  Sb72  1  0.16607781  0.66948378  0.50139448  1
  Sb  Sb73  1  0.32923145  0.00017615  0.67118276  1
  Sb  Sb74  1  0.84180245  0.49908929  0.66500975  1
  Sb  Sb75  1  0.16780485  0.83686193  0.33633308  1
  Sb  Sb76  1  0.83180099  0.84192773  0.33318290  1
  Sb  Sb77  1  0.49011511  0.32964388  0.83660190  1
  Sb  Sb78  1  0.49780102  0.33220108  0.49996740  1
  Sb  Sb79  1  0.65705437  0.16953504  0.83863289  1
  Sb  Sb80  1  0.83612293  0.67227203  0.49805780  1
  Sb  Sb81  1  0.49851873  0.66882620  0.49484555  1
  Sb  Sb82  1  0.17054641  0.65879070  0.83084937  1
  Sb  Sb83  1  0.49062804  0.49719493  0.67174575  1
  Sb  Sb84  1  0.33176770  0.49840827  0.15859156  1
  Sb  Sb85  1  0.49611019  0.32514225  0.16315353  1
  Sb  Sb86  1  0.01049391  0.83069240  0.83031077  1
  Sb  Sb87  1  0.65644159  0.83163461  0.83793999  1
  Sb  Sb88  1  0.16605838  0.33147320  0.50115877  1
  Sb  Sb89  1  0.33342089  0.00013223  0.32825248  1
  Sb  Sb90  1  0.84122954  0.33307982  0.84091274  1
  Sb  Sb91  1  0.00358600  0.50296153  0.16715826  1
  Sb  Sb92  1  0.65786354  0.33344901  0.66733799  1
  Sb  Sb93  1  0.16792564  0.00536550  0.16857114  1
  Sb  Sb94  1  0.00560863  0.66785850  0.00048818  1
  Sb  Sb95  1  0.83811744  0.49298386  0.33478943  1
  Sb  Sb96  1  0.83667182  0.49523481  0.00070903  1
  Sb  Sb97  1  0.49484342  0.66861274  0.84171777  1
  Sb  Sb98  1  0.17138777  0.00564166  0.83142795  1
  Sb  Sb99  1  0.33073169  0.33221820  0.32939793  1
  Sb  Sb100  1  0.66423125  0.49920019  0.16698566  1
  Sb  Sb101  1  0.33558524  0.16553895  0.49980098  1
  Sb  Sb102  1  -0.00030489  0.16207380  0.49851699  1
  Sb  Sb103  1  0.83445834  0.32672856  0.49457333  1
  Sb  Sb104  1  0.00910165  0.33388543  0.67154486  1
  Sb  Sb105  1  0.66183866  0.66578419  0.66912324  1
  Sb  Sb106  1  0.00911038  0.16863480  0.83669155  1
  Sb  Sb107  1  0.82965687  0.00356365  0.83911553  1
  Te  Te108  1  0.16792076  0.16900881  0.16557649  1
  Te  Te109  1  0.16721627  0.16340269  0.50298480  1
  Te  Te110  1  0.17223976  0.17128093  0.83151286  1
  Te  Te111  1  0.16725963  0.49550630  0.17381055  1
  Te  Te112  1  0.16829135  0.49747032  0.50138689  1
  Te  Te113  1  0.17285248  0.49658468  0.83041607  1
  Te  Te114  1  0.16493903  0.83290191  0.16748214  1
  Te  Te115  1  0.16559581  0.83731986  0.50160105  1
  Te  Te116  1  0.17519677  0.83506907  0.82680063  1
  Te  Te117  1  0.49911099  0.16437289  0.16480059  1
  Te  Te118  1  0.50454482  0.16677686  0.49908972  1
  Te  Te119  1  0.49427630  0.16343721  0.83639795  1
  Te  Te120  1  0.50009043  0.49859502  0.16206292  1
  Te  Te121  1  0.50289500  0.50061902  0.49928665  1
  Te  Te122  1  0.49742495  0.49983818  0.83786214  1
  Te  Te123  1  0.49656787  0.83798865  0.16613230  1
  Te  Te124  1  0.50122538  0.83332570  0.49912544  1
  Te  Te125  1  0.49321099  0.84090095  0.83412129  1
  Te  Te126  1  0.83644026  0.16294182  0.16725715  1
  Te  Te127  1  0.82715058  0.16086207  0.49732545  1
  Te  Te128  1  0.83066977  0.16822121  0.83814913  1
  Te  Te129  1  0.83362425  0.49684371  0.16816167  1
  Te  Te130  1  0.82611715  0.49883704  0.49948389  1
  Te  Te131  1  0.82602999  0.49931745  0.83248120  1
  Te  Te132  1  0.84167476  0.83925219  0.16697187  1
  Te  Te133  1  0.83162166  0.84004438  0.49939649  1
  Te  Te134  1  0.83114429  0.83430586  0.83305760  1
  Te  Te135  1  0.16778921  0.00321402  -0.00148887  1
  Te  Te136  1  0.16387786  0.00348930  0.33818951  1
  Te  Te137  1  0.16410062  0.00199240  0.66532554  1
  Te  Te138  1  0.16999073  0.33384662  -0.00008434  1
  Te  Te139  1  0.16590802  0.33025571  0.33105249  1
  Te  Te140  1  0.17097237  0.33184828  0.66732547  1
  Te  Te141  1  0.17232327  0.66358748  0.00059527  1
  Te  Te142  1  0.16046101  0.65962543  0.33243202  1
  Te  Te143  1  0.16835991  0.66527680  0.66651504  1
  Te  Te144  1  0.49894643  -0.00119089  0.00458875  1
  Te  Te145  1  0.49934921  0.00016039  0.32970271  1
  Te  Te146  1  0.50086143  0.00548065  0.66546443  1
  Te  Te147  1  0.49483609  0.33914406  0.00006392  1
  Te  Te148  1  0.49893662  0.32596005  0.33165442  1
  Te  Te149  1  0.49083177  0.32543569  0.66780600  1
  Te  Te150  1  0.49668044  0.66645169  0.00198888  1
  Te  Te151  1  0.50057344  0.67028840  0.32539262  1
  Te  Te152  1  0.49315166  0.66680944  0.66682484  1
  Te  Te153  1  0.83830373  0.00534649  0.00450524  1
  Te  Te154  1  0.83386728  0.00330720  0.33132827  1
  Te  Te155  1  0.84137252  0.00066075  0.66620721  1
  Te  Te156  1  0.83294634  0.32816204  0.00546992  1
  Te  Te157  1  0.83479128  0.32259814  0.32614948  1
  Te  Te158  1  0.83331037  0.33185567  0.66698300  1
  Te  Te159  1  0.83156303  0.66684824  0.00118722  1
  Te  Te160  1  0.84258150  0.66288757  0.33162724  1
  Te  Te161  1  0.83932178  0.66693598  0.66656376  1
  Te  Te162  1  0.00083190  0.16598098  -0.00127116  1
  Te  Te163  1  0.00683268  0.16127648  0.33507735  1
  Te  Te164  1  0.00522983  0.16355197  0.66746928  1
  Te  Te165  1  0.00437362  0.50194130  -0.00390350  1
  Te  Te166  1  0.00378570  0.49726818  0.33822656  1
  Te  Te167  1  0.00545260  0.50089615  0.66713400  1
  Te  Te168  1  0.00086069  0.83621780  -0.00193662  1
  Te  Te169  1  0.00114383  0.83690283  0.33689592  1
  Te  Te170  1  0.00742488  0.83276737  0.66408805  1
  Te  Te171  1  0.33305557  0.16477106  -0.00018431  1
  Te  Te172  1  0.33049621  0.16644463  0.33208901  1
  Te  Te173  1  0.33209396  0.16675530  0.66417203  1
  Te  Te174  1  0.33077458  0.50493186  -0.00105320  1
  Te  Te175  1  0.32946066  0.50020211  0.34002925  1
  Te  Te176  1  0.33127323  0.50059511  0.66870724  1
  Te  Te177  1  0.33412277  0.83000302  0.00063406  1
  Te  Te178  1  0.33594782  0.83283142  0.33807873  1
  Te  Te179  1  0.32965188  0.83270894  0.66030843  1
  Te  Te180  1  0.66881682  0.16700263  0.00429268  1
  Te  Te181  1  0.66530101  0.16279679  0.33048212  1
  Te  Te182  1  0.66488808  0.16726162  0.66658255  1
  Te  Te183  1  0.66829249  0.50336329  -0.00150766  1
  Te  Te184  1  0.66519108  0.50122326  0.33775074  1
  Te  Te185  1  0.66493540  0.50095456  0.66682283  1
  Te  Te186  1  0.66080843  0.82926341  0.00360860  1
  Te  Te187  1  0.66428704  0.83672638  0.33186123  1
  Te  Te188  1  0.66692996  0.83153004  0.66304007  1
  Te  Te189  1  0.00274190  -0.00454529  0.16690985  1
  Te  Te190  1  0.00057929  0.00022222  0.49881008  1
  Te  Te191  1  -0.00165779  -0.00113467  0.83792006  1
  Te  Te192  1  0.00161596  0.33673989  0.16118365  1
  Te  Te193  1  -0.00223424  0.34311004  0.50183480  1
  Te  Te194  1  0.00663309  0.33923172  0.83913291  1
  Te  Te195  1  -0.00046197  0.67366214  0.16940331  1
  Te  Te196  1  -0.00067212  0.66698212  0.50032223  1
  Te  Te197  1  -0.00071478  0.66127151  0.82880488  1
  Te  Te198  1  0.33372106  -0.00038337  0.16338420  1
  Te  Te199  1  0.32807699  -0.00389079  0.50012870  1
  Te  Te200  1  0.33575911  0.00206760  0.83732817  1
  Te  Te201  1  0.32879756  0.32894948  0.16198578  1
  Te  Te202  1  0.33277581  0.33982220  0.50288477  1
  Te  Te203  1  0.33005410  0.33337801  0.83527718  1
  Te  Te204  1  0.33791824  0.66981288  0.16454016  1
  Te  Te205  1  0.33335035  0.66724731  0.50183783  1
  Te  Te206  1  0.33418800  0.66916120  0.83222379  1
  Te  Te207  1  0.66608092  0.00019376  0.16849966  1
  Te  Te208  1  0.66531368  -0.00175871  0.49497381  1
  Te  Te209  1  0.66073366  -0.00018841  0.83029140  1
  Te  Te210  1  0.67135432  0.32820817  0.16658342  1
  Te  Te211  1  0.66768438  0.33729379  0.50045678  1
  Te  Te212  1  0.66871900  0.34020091  0.83282009  1
  Te  Te213  1  0.66320668  0.66957586  0.16343203  1
  Te  Te214  1  0.66760473  0.66934416  0.50007289  1
  Te  Te215  1  0.66602444  0.66271373  0.83797007  1
