# generated using pymatgen
data_AgSbTe2
_symmetry_space_group_name_H-M   'P 1'
_cell_length_a   18.31829945
_cell_length_b   18.32639756
_cell_length_c   18.32999782
_cell_angle_alpha   90.00137578
_cell_angle_beta   89.99981521
_cell_angle_gamma   90.00251617
_symmetry_Int_Tables_number   1
_chemical_formula_structural   AgSbTe2
_chemical_formula_sum   'Ag54 Sb54 Te108'
_cell_volume   6153.53493757
_cell_formula_units_Z   54
loop_
 _symmetry_equiv_pos_site_id
 _symmetry_equiv_pos_as_xyz
  1  'x, y, z'
loop_
 _atom_site_type_symbol
 _atom_site_label
 _atom_site_symmetry_multiplicity
 _atom_site_fract_x
 _atom_site_fract_y
 _atom_site_fract_z
 _atom_site_occupancy
  Ag  Ag0  1  0.66509052  0.00629106  -0.00220480  1
  Ag  Ag1  1  0.82338783  0.00157317  0.50207403  1
  Ag  Ag2  1  0.16774486  0.17191903  -0.00271285  1
  Ag  Ag3  1  0.66272457  0.34065822  0.33493233  1
  Ag  Ag4  1  -0.00179360  0.16317175  0.83369486  1
  Ag  Ag5  1  0.66114487  0.33029543  -0.00261256  1
  Ag  Ag6  1  0.66485016  0.49977681  0.50324990  1
  Ag  Ag7  1  0.82617435  0.00035139  0.83275034  1
  Ag  Ag8  1  0.66274101  0.50577939  0.82746528  1
  Ag  Ag9  1  0.17197755  0.66130703  0.83274060  1
  Ag  Ag10  1  0.33515683  0.65800032  0.00264584  1
  Ag  Ag11  1  0.66340799  0.33934469  0.66902401  1
  Ag  Ag12  1  -0.00590216  0.83722560  0.83338153  1
  Ag  Ag13  1  0.82700498  0.16554322  -0.00899033  1
  Ag  Ag14  1  0.50734613  0.16328242  0.67226537  1
  Ag  Ag15  1  0.17243753  0.33791247  0.15672689  1
  Ag  Ag16  1  0.82665598  0.00045131  0.16225813  1
  Ag  Ag17  1  0.50614709  0.00010778  0.50493545  1
  Ag  Ag18  1  0.17619678  0.66124035  0.16335085  1
  Ag  Ag19  1  0.82249548  0.49837367  0.66538598  1
  Ag  Ag20  1  0.66248320  0.65671988  0.33769906  1
  Ag  Ag21  1  0.66458037  0.00050927  0.33339528  1
  Ag  Ag22  1  0.17452064  0.66391873  0.50185818  1
  Ag  Ag23  1  0.66899467  0.16834066  0.50306461  1
  Ag  Ag24  1  0.33538248  0.34006059  0.33046346  1
  Ag  Ag25  1  0.34004540  -0.00297927  0.33375830  1
  Ag  Ag26  1  0.17447204  0.50028656  0.66892997  1
  Ag  Ag27  1  0.66322451  0.82881615  0.83623889  1
  Ag  Ag28  1  0.33832471  0.50134043  0.83689702  1
  Ag  Ag29  1  0.33583156  0.50456135  0.16176798  1
  Ag  Ag30  1  0.66246780  0.50264134  0.16913942  1
  Ag  Ag31  1  0.66063769  0.83071245  0.16125236  1
  Ag  Ag32  1  0.49837498  0.49967145  -0.00394014  1
  Ag  Ag33  1  0.33644418  0.82426477  0.49503808  1
  Ag  Ag34  1  0.17012565  0.33415646  0.83762724  1
  Ag  Ag35  1  0.82039375  0.66841236  0.82973417  1
  Ag  Ag36  1  0.82572748  0.66482575  0.50658646  1
  Ag  Ag37  1  0.33777267  0.66184310  0.32837434  1
  Ag  Ag38  1  0.33492986  0.33842896  -0.00074415  1
  Ag  Ag39  1  0.50146656  0.83201941  -0.00670386  1
  Ag  Ag40  1  0.33796588  0.33686373  0.67462088  1
  Ag  Ag41  1  0.82650744  0.16943536  0.66934203  1
  Ag  Ag42  1  0.33891761  0.82335624  0.16943526  1
  Ag  Ag43  1  0.82182601  0.50132112  0.34158856  1
  Ag  Ag44  1  0.50552279  0.16820732  -0.00767810  1
  Ag  Ag45  1  0.16966323  0.16879994  0.33043936  1
  Ag  Ag46  1  0.50556322  -0.00557519  0.83323395  1
  Ag  Ag47  1  0.01396591  0.32974865  -0.00256621  1
  Ag  Ag48  1  0.50471702  0.66953097  0.83390136  1
  Ag  Ag49  1  -0.00873922  0.16563397  0.50714511  1
  Ag  Ag50  1  0.16949146  0.00185299  0.83562664  1
  Ag  Ag51  1  0.66726618  0.65885092  0.66969784  1
  Ag  Ag52  1  0.34022278  0.50375659  0.49991590  1
  Ag  Ag53  1  0.50204924  0.83724758  0.67394488  1
  Sb  Sb54  1  0.83248974  0.16931476  0.33675615  1
  Sb  Sb55  1  0.66028134  0.66579124  -0.00244763  1
  Sb  Sb56  1  0.82188101  0.49620354  -0.00445300  1
  Sb  Sb57  1  -0.00065778  0.83325561  0.15823201  1
  Sb  Sb58  1  0.50163688  0.33074349  0.50269354  1
  Sb  Sb59  1  0.66180108  0.83256177  0.50254073  1
  Sb  Sb60  1  0.34079312  0.82689658  0.83461880  1
  Sb  Sb61  1  0.50174379  0.49824546  0.67239590  1
  Sb  Sb62  1  -0.00536749  0.66581025  0.66911078  1
  Sb  Sb63  1  0.33263831  0.17210562  0.83479853  1
  Sb  Sb64  1  -0.00284156  0.00301143  0.33471006  1
  Sb  Sb65  1  0.49512473  0.66699306  0.15857765  1
  Sb  Sb66  1  0.83035486  0.66827053  0.16549976  1
  Sb  Sb67  1  -0.00219452  0.00244770  0.67030442  1
  Sb  Sb68  1  0.82476874  0.83299724  0.67009735  1
  Sb  Sb69  1  0.83295080  0.33165282  0.16449959  1
  Sb  Sb70  1  0.49593709  0.33525226  0.16280096  1
  Sb  Sb71  1  0.00290920  0.49883204  0.16517796  1
  Sb  Sb72  1  0.00178054  0.83593144  0.50671758  1
  Sb  Sb73  1  0.83400742  0.33200447  0.83414755  1
  Sb  Sb74  1  0.16934523  -0.00147037  0.50292217  1
  Sb  Sb75  1  0.33672354  0.00312881  0.66548263  1
  Sb  Sb76  1  0.00028318  0.49815411  0.83408441  1
  Sb  Sb77  1  0.17586513  0.49398250  -0.00610470  1
  Sb  Sb78  1  -0.00353551  0.49669333  0.50137583  1
  Sb  Sb79  1  0.49979161  0.83324889  0.33356785  1
  Sb  Sb80  1  0.66651806  0.16772758  0.16651761  1
  Sb  Sb81  1  0.00177947  0.33183779  0.33006374  1
  Sb  Sb82  1  0.33863677  0.66031112  0.66783333  1
  Sb  Sb83  1  0.33226634  0.17092938  0.16663920  1
  Sb  Sb84  1  0.17343005  0.83522773  -0.00325345  1
  Sb  Sb85  1  0.49754307  0.33437179  0.83446053  1
  Sb  Sb86  1  0.50247181  0.50110477  0.33017196  1
  Sb  Sb87  1  0.82433918  0.83859899  -0.00369480  1
  Sb  Sb88  1  0.66829890  0.16757404  0.83070201  1
  Sb  Sb89  1  0.82893573  0.33406253  0.50095207  1
  Sb  Sb90  1  0.16725436  0.17192545  0.67013191  1
  Sb  Sb91  1  0.33695704  0.16870051  0.49956445  1
  Sb  Sb92  1  0.50099749  0.66969989  0.50635256  1
  Sb  Sb93  1  -0.00083907  0.33220103  0.67138204  1
  Sb  Sb94  1  0.49857974  0.16494989  0.33440074  1
  Sb  Sb95  1  0.16727420  0.00079328  0.16282905  1
  Sb  Sb96  1  0.16996507  0.33694702  0.50284803  1
  Sb  Sb97  1  0.34049251  0.00094507  0.00275793  1
  Sb  Sb98  1  0.50539133  -0.00281255  0.16367617  1
  Sb  Sb99  1  0.00091900  0.66502638  0.33492282  1
  Sb  Sb100  1  0.82783243  0.83009217  0.33401081  1
  Sb  Sb101  1  -0.00676144  0.00621231  -0.00485317  1
  Sb  Sb102  1  -0.00002131  0.16663500  0.16098736  1
  Sb  Sb103  1  0.17463315  0.82622929  0.67011824  1
  Sb  Sb104  1  0.00729260  0.66103209  -0.00418213  1
  Sb  Sb105  1  0.17211534  0.83462404  0.33288665  1
  Sb  Sb106  1  0.17014906  0.49765536  0.33598488  1
  Sb  Sb107  1  0.66534274  0.00276687  0.66827203  1
  Te  Te108  1  0.16557746  0.16951874  0.16475652  1
  Te  Te109  1  0.16476008  0.16541382  0.50018355  1
  Te  Te110  1  0.16468050  0.16686449  0.83462090  1
  Te  Te111  1  0.17050838  0.50067489  0.16857491  1
  Te  Te112  1  0.16627118  0.50441657  0.50394355  1
  Te  Te113  1  0.16611444  0.50032117  0.82963739  1
  Te  Te114  1  0.17001189  0.82942818  0.16503324  1
  Te  Te115  1  0.17093947  0.82781216  0.50177754  1
  Te  Te116  1  0.16637133  0.83549083  0.83255975  1
  Te  Te117  1  0.49928522  0.16479113  0.15541037  1
  Te  Te118  1  0.50509855  0.16052137  0.50183986  1
  Te  Te119  1  0.49943721  0.16036012  0.83311688  1
  Te  Te120  1  0.50140900  0.50111604  0.15880308  1
  Te  Te121  1  0.50098686  0.50092141  0.50143061  1
  Te  Te122  1  0.49987079  0.50255384  0.83582218  1
  Te  Te123  1  0.50090126  0.83276722  0.16062174  1
  Te  Te124  1  0.49507353  0.83884887  0.50275665  1
  Te  Te125  1  0.50178624  0.83417566  0.83338234  1
  Te  Te126  1  0.83440395  0.16082628  0.16330236  1
  Te  Te127  1  0.82990047  0.16508454  0.50224771  1
  Te  Te128  1  0.83493278  0.16556451  0.83155342  1
  Te  Te129  1  0.82864094  0.50071522  0.16696551  1
  Te  Te130  1  0.83045771  0.50329297  0.50318276  1
  Te  Te131  1  0.83082105  0.50338529  0.82852800  1
  Te  Te132  1  0.82983241  0.83834518  0.16518779  1
  Te  Te133  1  0.83564258  0.83289488  0.50238515  1
  Te  Te134  1  0.82985403  0.83364504  0.83268075  1
  Te  Te135  1  0.16722406  0.00602214  -0.00408143  1
  Te  Te136  1  0.16959419  0.00649765  0.33284662  1
  Te  Te137  1  0.16824435  -0.00005850  0.67396709  1
  Te  Te138  1  0.17229891  0.33254913  -0.00175370  1
  Te  Te139  1  0.16959315  0.33041861  0.33242213  1
  Te  Te140  1  0.17015129  0.33871479  0.67154759  1
  Te  Te141  1  0.17402158  0.66708890  -0.00157451  1
  Te  Te142  1  0.17014890  0.66628476  0.33679667  1
  Te  Te143  1  0.16642157  0.66083927  0.66705515  1
  Te  Te144  1  0.50464038  0.00145900  -0.00332928  1
  Te  Te145  1  0.50058732  0.00031851  0.33697132  1
  Te  Te146  1  0.49927091  0.00228997  0.66866568  1
  Te  Te147  1  0.50046709  0.33119720  -0.00118568  1
  Te  Te148  1  0.50093868  0.33131447  0.33284934  1
  Te  Te149  1  0.50208159  0.32583574  0.66808569  1
  Te  Te150  1  0.49459239  0.66648572  -0.00662667  1
  Te  Te151  1  0.50056290  0.66729362  0.33573227  1
  Te  Te152  1  0.50604794  0.67070968  0.67272727  1
  Te  Te153  1  0.82734878  0.00460569  -0.00467491  1
  Te  Te154  1  0.82894526  0.00096194  0.33893386  1
  Te  Te155  1  0.83226507  0.00378330  0.66702365  1
  Te  Te156  1  0.82200815  0.32685088  0.00053110  1
  Te  Te157  1  0.82867782  0.33799343  0.33169252  1
  Te  Te158  1  0.82918086  0.33347793  0.66745808  1
  Te  Te159  1  0.83804621  0.66581589  -0.00717621  1
  Te  Te160  1  0.82993194  0.66269096  0.33383010  1
  Te  Te161  1  0.82855883  0.66546806  0.66822871  1
  Te  Te162  1  0.00200633  0.17095672  -0.00482262  1
  Te  Te163  1  0.00561829  0.16820488  0.33719297  1
  Te  Te164  1  -0.00474574  0.16839534  0.66839659  1
  Te  Te165  1  -0.00453841  0.48995930  0.00021475  1
  Te  Te166  1  -0.01192766  0.49834841  0.33343900  1
  Te  Te167  1  -0.00253016  0.49792941  0.66633083  1
  Te  Te168  1  0.00015183  0.83285551  -0.00822368  1
  Te  Te169  1  0.00054814  0.83386009  0.33295224  1
  Te  Te170  1  0.00237641  0.83396543  0.67554880  1
  Te  Te171  1  0.33176331  0.17100281  0.00053634  1
  Te  Te172  1  0.33079578  0.16944119  0.33352390  1
  Te  Te173  1  0.33751084  0.17586991  0.66603821  1
  Te  Te174  1  0.33560318  0.49934271  0.00031004  1
  Te  Te175  1  0.33406554  0.50112497  0.33427957  1
  Te  Te176  1  0.33492870  0.49574078  0.66625251  1
  Te  Te177  1  0.34000408  0.83215083  0.00437120  1
  Te  Te178  1  0.33430657  0.83029607  0.33251006  1
  Te  Te179  1  0.34104030  0.83408634  0.66111334  1
  Te  Te180  1  0.66716201  0.16693638  0.00016358  1
  Te  Te181  1  0.66633681  0.16457366  0.33784672  1
  Te  Te182  1  0.66721122  0.16943066  0.66439290  1
  Te  Te183  1  0.66053663  0.49836732  0.00038497  1
  Te  Te184  1  0.66390460  0.49975528  0.33473913  1
  Te  Te185  1  0.66414615  0.49886707  0.66630690  1
  Te  Te186  1  0.66147495  0.83344747  0.00004901  1
  Te  Te187  1  0.66538678  0.83944196  0.32869827  1
  Te  Te188  1  0.66092352  0.82658338  0.67034302  1
  Te  Te189  1  -0.00927362  -0.00198628  0.16616034  1
  Te  Te190  1  -0.00303073  0.00441248  0.50119260  1
  Te  Te191  1  -0.00134543  0.00161614  0.83414899  1
  Te  Te192  1  0.00830735  0.33359964  0.16006992  1
  Te  Te193  1  0.00065141  0.32507164  0.49942656  1
  Te  Te194  1  0.00482111  0.32894890  0.83797396  1
  Te  Te195  1  0.00977335  0.66766413  0.16565482  1
  Te  Te196  1  -0.00031154  0.66768904  0.50074987  1
  Te  Te197  1  0.00773523  0.67057221  0.83367124  1
  Te  Te198  1  0.33279667  -0.00506014  0.17344465  1
  Te  Te199  1  0.33436272  -0.00063258  0.49477871  1
  Te  Te200  1  0.33294513  -0.00157462  0.83441722  1
  Te  Te201  1  0.33058130  0.33720360  0.16847232  1
  Te  Te202  1  0.33512063  0.33955614  0.49416588  1
  Te  Te203  1  0.33086936  0.33813233  0.83510361  1
  Te  Te204  1  0.33311176  0.66489793  0.16857207  1
  Te  Te205  1  0.33461457  0.66429491  0.50133250  1
  Te  Te206  1  0.33173175  0.66220267  0.83368827  1
  Te  Te207  1  0.66882975  -0.00014025  0.16715793  1
  Te  Te208  1  0.66605405  -0.00165157  0.50029591  1
  Te  Te209  1  0.66646464  -0.00086411  0.83451213  1
  Te  Te210  1  0.66667758  0.33819093  0.16859074  1
  Te  Te211  1  0.66597536  0.33615701  0.49846114  1
  Te  Te212  1  0.66657987  0.33928728  0.83371515  1
  Te  Te213  1  0.66775277  0.66603195  0.17103730  1
  Te  Te214  1  0.66749795  0.66544958  0.49740365  1
  Te  Te215  1  0.66479499  0.66572489  0.83561261  1
