# generated using pymatgen
data_AgSbTe2
_symmetry_space_group_name_H-M   'P 1'
_cell_length_a   18.33851841
_cell_length_b   18.33586566
_cell_length_c   18.33836361
_cell_angle_alpha   90.00495092
_cell_angle_beta   89.99982786
_cell_angle_gamma   89.99938984
_symmetry_Int_Tables_number   1
_chemical_formula_structural   AgSbTe2
_chemical_formula_sum   'Ag54 Sb54 Te108'
_cell_volume   6166.32260665
_cell_formula_units_Z   54
loop_
 _symmetry_equiv_pos_site_id
 _symmetry_equiv_pos_as_xyz
  1  'x, y, z'
loop_
 _atom_site_type_symbol
 _atom_site_label
 _atom_site_symmetry_multiplicity
 _atom_site_fract_x
 _atom_site_fract_y
 _atom_site_fract_z
 _atom_site_occupancy
  Ag  Ag0  1  -0.00246770  0.15943140  0.16512077  1
  Ag  Ag1  1  0.17413455  0.84192907  0.66089584  1
  Ag  Ag2  1  0.82723089  0.32103161  0.83403010  1
  Ag  Ag3  1  -0.00234341  0.49292181  0.83102566  1
  Ag  Ag4  1  0.15800721  0.00168467  0.16734959  1
  Ag  Ag5  1  -0.00257564  0.00117153  0.34663204  1
  Ag  Ag6  1  0.16937451  0.49890129  0.33664971  1
  Ag  Ag7  1  0.16729183  0.67764519  0.50062941  1
  Ag  Ag8  1  0.50321419  0.50053034  -0.00321783  1
  Ag  Ag9  1  0.67414115  -0.00133462  0.32797570  1
  Ag  Ag10  1  0.66523423  0.32310607  0.67724145  1
  Ag  Ag11  1  0.48855378  0.83305782  0.66927346  1
  Ag  Ag12  1  0.84443912  -0.00283100  0.50744723  1
  Ag  Ag13  1  0.15887171  -0.00520480  0.50562896  1
  Ag  Ag14  1  0.66163784  0.84429232  0.16489989  1
  Ag  Ag15  1  0.00145849  0.50329050  0.50418712  1
  Ag  Ag16  1  0.83879649  0.16070837  0.66986376  1
  Ag  Ag17  1  0.67275724  0.16044132  0.15790537  1
  Ag  Ag18  1  0.67055446  0.00245884  0.00312634  1
  Ag  Ag19  1  0.17129963  0.32581441  0.16751560  1
  Ag  Ag20  1  0.67432497  0.00323826  0.66608310  1
  Ag  Ag21  1  0.33572510  0.83595982  0.14794860  1
  Ag  Ag22  1  0.50674019  0.33387689  0.83649420  1
  Ag  Ag23  1  0.00954404  0.84340526  0.50244403  1
  Ag  Ag24  1  0.82539118  0.50080337  -0.00092056  1
  Ag  Ag25  1  0.66459579  0.32648005  -0.00423931  1
  Ag  Ag26  1  0.67280314  0.16746040  0.83429348  1
  Ag  Ag27  1  0.66719564  0.83835531  0.50154773  1
  Ag  Ag28  1  0.32930492  0.50616445  0.49943819  1
  Ag  Ag29  1  0.32994272  -0.00672707  -0.00825419  1
  Ag  Ag30  1  0.83442580  0.00365124  0.82667679  1
  Ag  Ag31  1  0.32501970  0.83265735  0.51719860  1
  Ag  Ag32  1  0.32483120  0.15256854  0.50913016  1
  Ag  Ag33  1  0.66540896  0.49493349  0.16280280  1
  Ag  Ag34  1  0.00506464  0.15377937  0.51012505  1
  Ag  Ag35  1  0.50048216  0.33516884  0.15919648  1
  Ag  Ag36  1  0.66774733  0.50403542  0.50127701  1
  Ag  Ag37  1  0.00006547  -0.00216921  0.00012789  1
  Ag  Ag38  1  0.83704529  0.00112244  0.16354120  1
  Ag  Ag39  1  0.16365367  0.15902407  0.66482320  1
  Ag  Ag40  1  0.00533043  0.67491878  -0.00115189  1
  Ag  Ag41  1  0.50019654  0.50159593  0.66890877  1
  Ag  Ag42  1  0.32895486  0.66729500  0.34625933  1
  Ag  Ag43  1  0.84128120  0.67634496  0.50142918  1
  Ag  Ag44  1  0.33249646  0.68240100  0.66206952  1
  Ag  Ag45  1  0.33012623  0.68041348  -0.00266430  1
  Ag  Ag46  1  0.33250248  0.15955457  0.82736439  1
  Ag  Ag47  1  0.00381010  0.00318071  0.65861884  1
  Ag  Ag48  1  0.17727953  0.83733930  -0.00149419  1
  Ag  Ag49  1  -0.00745205  0.16322730  0.82747207  1
  Ag  Ag50  1  0.33204946  0.33675856  0.33413668  1
  Ag  Ag51  1  0.48979001  0.83193471  -0.00359857  1
  Ag  Ag52  1  0.33319510  0.84083475  0.83237429  1
  Ag  Ag53  1  0.32544964  -0.00603742  0.66877634  1
  Sb  Sb54  1  0.16414523  0.00011706  0.82905834  1
  Sb  Sb55  1  0.49972590  0.33558277  0.50330874  1
  Sb  Sb56  1  0.16917894  0.83354142  0.33662080  1
  Sb  Sb57  1  0.83662219  0.66879792  0.82993692  1
  Sb  Sb58  1  0.33833703  0.32944678  0.66278662  1
  Sb  Sb59  1  0.49953368  0.16363951  0.66903062  1
  Sb  Sb60  1  0.16853287  0.33035145  0.49778646  1
  Sb  Sb61  1  0.00274113  0.84173549  0.16797962  1
  Sb  Sb62  1  0.66904853  0.16201466  0.50382151  1
  Sb  Sb63  1  0.33265510  0.16179775  0.16550359  1
  Sb  Sb64  1  0.16538854  0.15774689  -0.00299365  1
  Sb  Sb65  1  0.00529738  0.32809257  0.33397075  1
  Sb  Sb66  1  0.00505456  0.67091547  0.33461011  1
  Sb  Sb67  1  0.49210843  0.66752068  0.50217447  1
  Sb  Sb68  1  -0.00547596  0.32956570  -0.00106585  1
  Sb  Sb69  1  0.49917374  -0.00260341  0.50363915  1
  Sb  Sb70  1  0.66210412  0.67078561  0.33671493  1
  Sb  Sb71  1  0.32990030  -0.00259034  0.33681300  1
  Sb  Sb72  1  0.49916758  0.66465053  0.83323609  1
  Sb  Sb73  1  0.66558565  0.66826994  0.00070326  1
  Sb  Sb74  1  0.66965756  0.49165226  0.83451410  1
  Sb  Sb75  1  0.83392367  0.67135768  0.16895172  1
  Sb  Sb76  1  0.83263756  0.32933351  0.50685463  1
  Sb  Sb77  1  0.66034082  0.84441253  0.83259457  1
  Sb  Sb78  1  0.33674163  0.50303196  0.16973607  1
  Sb  Sb79  1  0.83419542  0.84080041  0.66382352  1
  Sb  Sb80  1  0.83249775  0.16444660  -0.00817073  1
  Sb  Sb81  1  0.16650911  0.32993960  0.83814179  1
  Sb  Sb82  1  0.49617469  0.49899045  0.33430690  1
  Sb  Sb83  1  0.00481814  0.84049552  0.83065690  1
  Sb  Sb84  1  0.50299375  0.00147857  0.16320817  1
  Sb  Sb85  1  0.49930816  0.16624815  0.33287276  1
  Sb  Sb86  1  0.82997468  0.49500043  0.66939206  1
  Sb  Sb87  1  0.82925122  0.32564807  0.15796381  1
  Sb  Sb88  1  0.66207691  0.33001747  0.32940804  1
  Sb  Sb89  1  0.66248492  0.67001520  0.66258384  1
  Sb  Sb90  1  0.49983394  0.00434673  0.83377239  1
  Sb  Sb91  1  0.16960050  0.50077888  0.66011939  1
  Sb  Sb92  1  0.83471530  0.16336902  0.33744223  1
  Sb  Sb93  1  0.33967798  0.33098167  0.00274893  1
  Sb  Sb94  1  0.16897048  0.67166050  0.17030867  1
  Sb  Sb95  1  0.33184947  0.49944258  0.82969234  1
  Sb  Sb96  1  0.16879413  0.50444290  0.00392083  1
  Sb  Sb97  1  -0.00391620  0.32522664  0.66711870  1
  Sb  Sb98  1  0.83637170  0.50026938  0.33246728  1
  Sb  Sb99  1  0.16644532  0.16677960  0.33727513  1
  Sb  Sb100  1  0.83299100  0.83486744  0.00030250  1
  Sb  Sb101  1  0.49899237  0.66527712  0.16399686  1
  Sb  Sb102  1  -0.00233702  0.49476107  0.16501571  1
  Sb  Sb103  1  0.50253398  0.16536009  -0.00149306  1
  Sb  Sb104  1  0.16791725  0.66851764  0.82976663  1
  Sb  Sb105  1  0.00510081  0.67215050  0.66647544  1
  Sb  Sb106  1  0.83231079  0.83685872  0.33592148  1
  Sb  Sb107  1  0.49728366  0.83444154  0.33348286  1
  Te  Te108  1  0.16472326  0.16390224  0.16632481  1
  Te  Te109  1  0.16554707  0.16420456  0.50281864  1
  Te  Te110  1  0.16856714  0.16773081  0.82792724  1
  Te  Te111  1  0.16666572  0.49811653  0.17208051  1
  Te  Te112  1  0.16851798  0.49691120  0.49738362  1
  Te  Te113  1  0.15855700  0.49816962  0.83350756  1
  Te  Te114  1  0.16962109  0.83847150  0.16361023  1
  Te  Te115  1  0.16760870  0.83509063  0.50003144  1
  Te  Te116  1  0.17136762  0.83296282  0.83563865  1
  Te  Te117  1  0.50428541  0.17410674  0.16573560  1
  Te  Te118  1  0.48912607  0.16794735  0.50050898  1
  Te  Te119  1  0.49850953  0.17411212  0.83308156  1
  Te  Te120  1  0.50419821  0.49644439  0.16329828  1
  Te  Te121  1  0.50355772  0.50151975  0.50398539  1
  Te  Te122  1  0.50028259  0.49508802  0.83296489  1
  Te  Te123  1  0.50061589  0.83279445  0.16214412  1
  Te  Te124  1  0.50464754  0.83183496  0.50412059  1
  Te  Te125  1  0.49486175  0.83154146  0.83352032  1
  Te  Te126  1  0.83283282  0.16174830  0.16733819  1
  Te  Te127  1  0.83835046  0.16163173  0.50666522  1
  Te  Te128  1  0.83282466  0.16382015  0.83040451  1
  Te  Te129  1  0.82865503  0.49997962  0.16267384  1
  Te  Te130  1  0.83188568  0.49755521  0.50059001  1
  Te  Te131  1  0.83864209  0.50155554  0.83667688  1
  Te  Te132  1  0.82614894  0.83864182  0.16757380  1
  Te  Te133  1  0.82832285  0.83625406  0.50092084  1
  Te  Te134  1  0.83332806  0.84039949  0.83201312  1
  Te  Te135  1  0.16864592  -0.00268161  0.00222860  1
  Te  Te136  1  0.16234455  0.00030205  0.33084263  1
  Te  Te137  1  0.16578318  0.00101412  0.66563221  1
  Te  Te138  1  0.16765393  0.33419284  0.00754269  1
  Te  Te139  1  0.17128600  0.33614925  0.32767189  1
  Te  Te140  1  0.16701363  0.32787377  0.66888222  1
  Te  Te141  1  0.16651992  0.67120494  0.00049995  1
  Te  Te142  1  0.17012604  0.66216045  0.33796114  1
  Te  Te143  1  0.17206219  0.66854166  0.66098603  1
  Te  Te144  1  0.49821580  -0.00568330  -0.00094720  1
  Te  Te145  1  0.51094922  0.00026526  0.33299125  1
  Te  Te146  1  0.49813809  -0.00527890  0.66871329  1
  Te  Te147  1  0.50392307  0.33547901  -0.00092103  1
  Te  Te148  1  0.49387243  0.33339646  0.32700402  1
  Te  Te149  1  0.50611969  0.33705500  0.67014674  1
  Te  Te150  1  0.49661810  0.66681978  -0.00131533  1
  Te  Te151  1  0.48830167  0.66633019  0.33172667  1
  Te  Te152  1  0.49365850  0.66643782  0.66777641  1
  Te  Te153  1  0.83055627  -0.00089116  0.00229278  1
  Te  Te154  1  0.83439155  0.00074186  0.33126921  1
  Te  Te155  1  0.83441655  0.00156521  0.66672544  1
  Te  Te156  1  0.82729305  0.34039390  -0.00600097  1
  Te  Te157  1  0.83288702  0.33262533  0.33175690  1
  Te  Te158  1  0.82629061  0.32768190  0.67344266  1
  Te  Te159  1  0.83817712  0.66189682  0.00006204  1
  Te  Te160  1  0.83479484  0.66650934  0.34245960  1
  Te  Te161  1  0.83492836  0.66644318  0.66064843  1
  Te  Te162  1  -0.00100496  0.16186713  0.00044456  1
  Te  Te163  1  0.00045042  0.16107438  0.33038990  1
  Te  Te164  1  0.00035030  0.16411298  0.66759214  1
  Te  Te165  1  0.00061830  0.49900227  -0.00158695  1
  Te  Te166  1  0.00467112  0.50054692  0.33580874  1
  Te  Te167  1  0.00060269  0.50098444  0.66647890  1
  Te  Te168  1  0.00080571  0.83435415  -0.00037150  1
  Te  Te169  1  0.00136109  0.83913808  0.33947483  1
  Te  Te170  1  0.00612969  0.83890386  0.66325554  1
  Te  Te171  1  0.33429034  0.16068371  -0.00467463  1
  Te  Te172  1  0.33327704  0.16854820  0.33780618  1
  Te  Te173  1  0.33267320  0.16449727  0.66651730  1
  Te  Te174  1  0.33846476  0.50029856  -0.00067004  1
  Te  Te175  1  0.33085986  0.50165378  0.33646426  1
  Te  Te176  1  0.33755354  0.49797038  0.66262367  1
  Te  Te177  1  0.33371994  0.83631763  -0.00674061  1
  Te  Te178  1  0.33409710  0.82942908  0.33668842  1
  Te  Te179  1  0.33245713  0.83731707  0.67135998  1
  Te  Te180  1  0.66693250  0.16601196  -0.00136110  1
  Te  Te181  1  0.66697393  0.16104889  0.33171487  1
  Te  Te182  1  0.66587067  0.16489377  0.66783962  1
  Te  Te183  1  0.66393197  0.50212561  0.00050629  1
  Te  Te184  1  0.66620275  0.50008111  0.33609099  1
  Te  Te185  1  0.66289712  0.50208764  0.66343398  1
  Te  Te186  1  0.66503459  0.83617744  0.00200584  1
  Te  Te187  1  0.66459226  0.83783714  0.33298191  1
  Te  Te188  1  0.66386758  0.83769653  0.66448213  1
  Te  Te189  1  -0.00064345  0.00052202  0.15853535  1
  Te  Te190  1  0.00020502  -0.00084731  0.50171329  1
  Te  Te191  1  -0.00333634  0.00330072  0.83947420  1
  Te  Te192  1  0.00246675  0.32526504  0.16713634  1
  Te  Te193  1  0.00000694  0.34163959  0.49951390  1
  Te  Te194  1  -0.00376243  0.32971002  0.83360885  1
  Te  Te195  1  -0.00027883  0.66747370  0.16141894  1
  Te  Te196  1  0.00262441  0.66359753  0.49978842  1
  Te  Te197  1  0.00043533  0.66455610  0.83756104  1
  Te  Te198  1  0.33252021  -0.00358751  0.16857046  1
  Te  Te199  1  0.33194752  -0.00418738  0.50116765  1
  Te  Te200  1  0.33419762  0.00182892  0.83196401  1
  Te  Te201  1  0.33326769  0.33208127  0.16998311  1
  Te  Te202  1  0.33422767  0.34199406  0.49502258  1
  Te  Te203  1  0.33607177  0.33026999  0.83343158  1
  Te  Te204  1  0.33247390  0.67304789  0.15718756  1
  Te  Te205  1  0.32985243  0.66872951  0.50335026  1
  Te  Te206  1  0.33261217  0.66660098  0.83609072  1
  Te  Te207  1  0.66498865  0.00153264  0.16418772  1
  Te  Te208  1  0.66571489  -0.00080895  0.50519832  1
  Te  Te209  1  0.66801777  0.00655075  0.83262693  1
  Te  Te210  1  0.66453263  0.33440819  0.16397336  1
  Te  Te211  1  0.66652239  0.33451719  0.49986615  1
  Te  Te212  1  0.66757210  0.33069073  0.83503509  1
  Te  Te213  1  0.66829756  0.66337918  0.16944992  1
  Te  Te214  1  0.67182029  0.66652949  0.49858489  1
  Te  Te215  1  0.66926761  0.66909049  0.83216395  1
