# generated using pymatgen
data_AgSbTe2
_symmetry_space_group_name_H-M   'P 1'
_cell_length_a   18.31928992
_cell_length_b   18.32399283
_cell_length_c   18.32574523
_cell_angle_alpha   89.99886080
_cell_angle_beta   90.00372199
_cell_angle_gamma   90.00293500
_symmetry_Int_Tables_number   1
_chemical_formula_structural   AgSbTe2
_chemical_formula_sum   'Ag54 Sb54 Te108'
_cell_volume   6151.63263017
_cell_formula_units_Z   54
loop_
 _symmetry_equiv_pos_site_id
 _symmetry_equiv_pos_as_xyz
  1  'x, y, z'
loop_
 _atom_site_type_symbol
 _atom_site_label
 _atom_site_symmetry_multiplicity
 _atom_site_fract_x
 _atom_site_fract_y
 _atom_site_fract_z
 _atom_site_occupancy
  Ag  Ag0  1  0.82395337  0.00390083  0.16950431  1
  Ag  Ag1  1  0.17257506  0.00120379  0.84186251  1
  Ag  Ag2  1  0.16443687  0.66535849  0.16335611  1
  Ag  Ag3  1  -0.00387240  0.66387942  0.33149913  1
  Ag  Ag4  1  0.49630324  0.66862696  0.83997307  1
  Ag  Ag5  1  0.17069672  0.16664484  0.00255959  1
  Ag  Ag6  1  0.66831365  0.50426407  0.84063502  1
  Ag  Ag7  1  0.16626592  -0.00033349  0.16204347  1
  Ag  Ag8  1  0.33131214  0.66639028  0.67203538  1
  Ag  Ag9  1  0.49586095  0.16102164  -0.00366905  1
  Ag  Ag10  1  0.66631750  0.83499382  0.49188559  1
  Ag  Ag11  1  -0.00157236  0.33637615  0.67396792  1
  Ag  Ag12  1  0.00608946  0.49887407  0.84163054  1
  Ag  Ag13  1  0.83974699  0.49908163  0.00513168  1
  Ag  Ag14  1  0.16579991  0.66218913  0.49627302  1
  Ag  Ag15  1  0.33066675  0.66681279  -0.00406341  1
  Ag  Ag16  1  0.50486632  0.16239835  0.67829786  1
  Ag  Ag17  1  0.16074415  0.16629871  0.32275227  1
  Ag  Ag18  1  0.50386402  -0.00202957  0.49777084  1
  Ag  Ag19  1  0.33569916  0.16442966  0.83434696  1
  Ag  Ag20  1  0.83551709  0.16140302  0.32467296  1
  Ag  Ag21  1  0.82875431  0.83413005  0.65823805  1
  Ag  Ag22  1  0.67457428  0.67432303  0.32786123  1
  Ag  Ag23  1  0.16648286  0.34203211  0.83677098  1
  Ag  Ag24  1  0.82809265  0.82919857  0.33340058  1
  Ag  Ag25  1  0.17107305  0.82289834  0.00058428  1
  Ag  Ag26  1  0.49911427  0.83471543  -0.00089814  1
  Ag  Ag27  1  0.83420059  0.33645604  0.16756234  1
  Ag  Ag28  1  0.67655952  0.50686498  0.16167592  1
  Ag  Ag29  1  0.66604517  -0.00563918  0.32870959  1
  Ag  Ag30  1  -0.00691479  0.17138504  0.16717399  1
  Ag  Ag31  1  0.49896396  0.00287546  0.83741840  1
  Ag  Ag32  1  0.49850539  0.32757945  0.83525531  1
  Ag  Ag33  1  0.33961422  -0.00043146  0.33227130  1
  Ag  Ag34  1  0.16110416  0.50207876  -0.00243516  1
  Ag  Ag35  1  0.67424565  0.15610422  0.16714771  1
  Ag  Ag36  1  0.66808157  0.83257561  0.16998743  1
  Ag  Ag37  1  0.82839889  0.16437391  0.66255963  1
  Ag  Ag38  1  0.17175980  0.66083491  0.84240682  1
  Ag  Ag39  1  0.67323625  0.33617990  0.00047565  1
  Ag  Ag40  1  0.83770643  0.66531997  0.49038951  1
  Ag  Ag41  1  0.66434201  -0.00173704  0.66429918  1
  Ag  Ag42  1  -0.00208367  0.33777770  -0.00091024  1
  Ag  Ag43  1  0.83461280  0.33911925  0.49463659  1
  Ag  Ag44  1  0.16323020  0.50433013  0.67017449  1
  Ag  Ag45  1  0.82751652  0.66334355  0.17160327  1
  Ag  Ag46  1  0.00307834  0.50189541  0.49656456  1
  Ag  Ag47  1  0.50958757  0.67262668  0.16049446  1
  Ag  Ag48  1  0.33967545  0.82697292  0.49926473  1
  Ag  Ag49  1  0.66329784  0.83042913  0.83657657  1
  Ag  Ag50  1  0.32082676  0.50881284  0.50024985  1
  Ag  Ag51  1  -0.00411900  0.49924285  0.16183970  1
  Ag  Ag52  1  0.50783224  -0.00433273  0.16410612  1
  Ag  Ag53  1  0.16294947  0.50512455  0.33235816  1
  Sb  Sb54  1  0.49981061  0.50184827  -0.00103637  1
  Sb  Sb55  1  -0.00554963  0.00638938  0.66894599  1
  Sb  Sb56  1  0.32859889  0.33768509  0.66942712  1
  Sb  Sb57  1  0.33135045  0.67183725  0.33320682  1
  Sb  Sb58  1  0.00514522  0.17383270  0.83901587  1
  Sb  Sb59  1  0.50587370  0.32867178  0.50739845  1
  Sb  Sb60  1  -0.00210801  0.17412315  0.49426729  1
  Sb  Sb61  1  0.67172695  0.32877343  0.67343798  1
  Sb  Sb62  1  0.66165770  0.66316008  0.00587426  1
  Sb  Sb63  1  0.33749461  0.83353275  0.16924045  1
  Sb  Sb64  1  0.15882099  0.33477552  0.15985991  1
  Sb  Sb65  1  -0.00129239  0.82654145  0.83480771  1
  Sb  Sb66  1  0.83213181  0.66464608  0.83542195  1
  Sb  Sb67  1  0.49914634  0.67316127  0.49955028  1
  Sb  Sb68  1  0.33377552  -0.00452985  0.00291010  1
  Sb  Sb69  1  0.17287463  -0.00572731  0.49671306  1
  Sb  Sb70  1  0.83869035  0.50493774  0.32587926  1
  Sb  Sb71  1  0.51137486  0.33082620  0.15764237  1
  Sb  Sb72  1  0.33734667  0.83374357  0.83184716  1
  Sb  Sb73  1  0.33093395  0.33634342  -0.00207047  1
  Sb  Sb74  1  0.66829292  0.16138445  0.49551828  1
  Sb  Sb75  1  0.49625413  0.49854869  0.67014140  1
  Sb  Sb76  1  0.50178423  0.16173434  0.32791607  1
  Sb  Sb77  1  0.00327049  0.66005192  0.66290395  1
  Sb  Sb78  1  -0.00380411  0.82942961  0.16580973  1
  Sb  Sb79  1  0.83254611  0.17186886  0.00457319  1
  Sb  Sb80  1  0.16015042  0.34186076  0.50362006  1
  Sb  Sb81  1  0.00731367  0.65838731  0.00644977  1
  Sb  Sb82  1  0.16589260  0.17046693  0.67097041  1
  Sb  Sb83  1  0.33924456  -0.00453792  0.66585206  1
  Sb  Sb84  1  0.82786934  -0.00407049  0.49445664  1
  Sb  Sb85  1  -0.00321116  -0.00240542  0.33066654  1
  Sb  Sb86  1  0.32790320  0.50394497  0.16882888  1
  Sb  Sb87  1  0.16357322  0.83097596  0.32750551  1
  Sb  Sb88  1  -0.00247172  0.33970667  0.32997756  1
  Sb  Sb89  1  0.83003024  0.82794834  0.00496775  1
  Sb  Sb90  1  0.00425339  0.00719642  0.00270459  1
  Sb  Sb91  1  0.67103835  0.50677850  0.49740337  1
  Sb  Sb92  1  0.66401184  0.67173667  0.66601924  1
  Sb  Sb93  1  0.83462430  0.33377923  0.83702366  1
  Sb  Sb94  1  -0.00342458  0.82608704  0.49927728  1
  Sb  Sb95  1  0.66163198  0.16589512  0.83903158  1
  Sb  Sb96  1  0.66346307  0.00256336  0.00396552  1
  Sb  Sb97  1  0.32930627  0.32894334  0.33490128  1
  Sb  Sb98  1  0.16424266  0.82742550  0.67107108  1
  Sb  Sb99  1  0.33243883  0.16419754  0.16123897  1
  Sb  Sb100  1  0.33334517  0.16470589  0.50361906  1
  Sb  Sb101  1  0.32884613  0.50171954  0.83182982  1
  Sb  Sb102  1  0.83836768  0.49961953  0.66869361  1
  Sb  Sb103  1  0.49667564  0.50252776  0.33115862  1
  Sb  Sb104  1  0.67127198  0.33323656  0.32666747  1
  Sb  Sb105  1  0.50690897  0.83483317  0.32762258  1
  Sb  Sb106  1  0.82976851  -0.00078947  0.83708960  1
  Sb  Sb107  1  0.50582462  0.83779809  0.67165257  1
  Te  Te108  1  0.16695184  0.16809656  0.16501736  1
  Te  Te109  1  0.16691285  0.16647661  0.49685955  1
  Te  Te110  1  0.16946780  0.16373419  0.83532000  1
  Te  Te111  1  0.16307564  0.50123508  0.16655510  1
  Te  Te112  1  0.16386619  0.50216573  0.49878794  1
  Te  Te113  1  0.16782089  0.50137307  0.83419669  1
  Te  Te114  1  0.16680708  0.83338795  0.16190690  1
  Te  Te115  1  0.16689421  0.82600146  0.50009049  1
  Te  Te116  1  0.16709658  0.83327664  0.83878666  1
  Te  Te117  1  0.50253943  0.16261957  0.16039246  1
  Te  Te118  1  0.49990864  0.16121766  0.50287145  1
  Te  Te119  1  0.50041968  0.16454057  0.83589219  1
  Te  Te120  1  0.50180912  0.50349942  0.16647685  1
  Te  Te121  1  0.49957668  0.49919387  0.50060889  1
  Te  Te122  1  0.50240286  0.50366160  0.83316922  1
  Te  Te123  1  0.50299705  0.83375195  0.16182236  1
  Te  Te124  1  0.50267394  0.83795165  0.50190445  1
  Te  Te125  1  0.50197797  0.83169322  0.83750806  1
  Te  Te126  1  0.83364384  0.16485664  0.16546888  1
  Te  Te127  1  0.83374963  0.16737504  0.50145625  1
  Te  Te128  1  0.83478220  0.16496696  0.82787538  1
  Te  Te129  1  0.83466653  0.50200814  0.16605118  1
  Te  Te130  1  0.83593421  0.50274869  0.50037652  1
  Te  Te131  1  0.83068271  0.50026257  0.83892441  1
  Te  Te132  1  0.82946479  0.83154226  0.16840140  1
  Te  Te133  1  0.83022905  0.82991826  0.49757644  1
  Te  Te134  1  0.82706591  0.83263374  0.83331905  1
  Te  Te135  1  0.16943063  0.00665374  0.00066860  1
  Te  Te136  1  0.16574020  0.00139913  0.33024947  1
  Te  Te137  1  0.16564544  -0.00081930  0.66997762  1
  Te  Te138  1  0.16461697  0.33277128  -0.00421400  1
  Te  Te139  1  0.16530883  0.32967553  0.33433868  1
  Te  Te140  1  0.16107413  0.33865285  0.67158282  1
  Te  Te141  1  0.16805562  0.66523837  0.00118424  1
  Te  Te142  1  0.16616969  0.66546726  0.33222220  1
  Te  Te143  1  0.16934238  0.66405452  0.66478742  1
  Te  Te144  1  0.49831509  -0.00059241  0.00042096  1
  Te  Te145  1  0.50238966  0.00038546  0.32997873  1
  Te  Te146  1  0.50340146  0.00282330  0.67097504  1
  Te  Te147  1  0.50026120  0.33062195  -0.00631981  1
  Te  Te148  1  0.50002489  0.33123914  0.33597965  1
  Te  Te149  1  0.50117011  0.32614959  0.67379018  1
  Te  Te150  1  0.49582304  0.66797333  0.00049205  1
  Te  Te151  1  0.50249261  0.66750355  0.32656309  1
  Te  Te152  1  0.49498175  0.66763419  0.67125070  1
  Te  Te153  1  0.83481978  -0.00189990  0.00815762  1
  Te  Te154  1  0.83033261  0.00137319  0.32938076  1
  Te  Te155  1  0.82741041  0.00010364  0.66776739  1
  Te  Te156  1  0.83410799  0.33742542  0.00350887  1
  Te  Te157  1  0.83345004  0.32493288  0.33278787  1
  Te  Te158  1  0.83733580  0.33126772  0.66457534  1
  Te  Te159  1  0.83539616  0.66093508  0.00482502  1
  Te  Te160  1  0.83338348  0.66616216  0.33173060  1
  Te  Te161  1  0.83295786  0.67100649  0.66407251  1
  Te  Te162  1  0.00361014  0.17400543  0.00575806  1
  Te  Te163  1  -0.00006278  0.16650672  0.32793324  1
  Te  Te164  1  -0.00426613  0.17382968  0.66605705  1
  Te  Te165  1  0.00071358  0.49756950  0.00107290  1
  Te  Te166  1  0.00403801  0.50379532  0.33238789  1
  Te  Te167  1  0.00297174  0.49563710  0.66738820  1
  Te  Te168  1  0.00666843  0.83544131  -0.00121796  1
  Te  Te169  1  -0.00838109  0.82647630  0.33309820  1
  Te  Te170  1  -0.00985651  0.83592321  0.66746054  1
  Te  Te171  1  0.33280986  0.16839736  -0.00530549  1
  Te  Te172  1  0.32908608  0.16114766  0.33426898  1
  Te  Te173  1  0.33634197  0.16581448  0.67186946  1
  Te  Te174  1  0.32646517  0.50549881  0.00014332  1
  Te  Te175  1  0.32593986  0.49899084  0.33897556  1
  Te  Te176  1  0.32865786  0.50475326  0.66193895  1
  Te  Te177  1  0.33307591  0.82779346  0.00041737  1
  Te  Te178  1  0.33126483  0.83978426  0.33969684  1
  Te  Te179  1  0.33285680  0.82795514  0.65994967  1
  Te  Te180  1  0.66489165  0.17152025  0.00586489  1
  Te  Te181  1  0.66967233  0.16389835  0.32753485  1
  Te  Te182  1  0.66708765  0.16204413  0.66558022  1
  Te  Te183  1  0.66520586  0.49757839  0.00050282  1
  Te  Te184  1  0.66551770  0.50288342  0.32775575  1
  Te  Te185  1  0.66701498  0.49936704  0.67215602  1
  Te  Te186  1  0.66297360  0.83377861  -0.00121033  1
  Te  Te187  1  0.66862491  0.83392654  0.33120895  1
  Te  Te188  1  0.67002725  0.83662585  0.66835952  1
  Te  Te189  1  0.00760364  0.00340261  0.16735429  1
  Te  Te190  1  0.00167787  0.00084938  0.50074074  1
  Te  Te191  1  0.00574916  -0.00053336  0.83453429  1
  Te  Te192  1  -0.00516852  0.33548634  0.16414402  1
  Te  Te193  1  -0.00660601  0.34041516  0.50110489  1
  Te  Te194  1  0.00243007  0.33851289  0.83615891  1
  Te  Te195  1  0.00395262  0.66438557  0.17078643  1
  Te  Te196  1  0.00055507  0.66173558  0.49673244  1
  Te  Te197  1  0.00419032  0.65938564  0.83142819  1
  Te  Te198  1  0.32954015  -0.00031760  0.17172313  1
  Te  Te199  1  0.33928984  -0.00355624  0.49618616  1
  Te  Te200  1  0.33344004  0.00133460  0.83292578  1
  Te  Te201  1  0.33868806  0.33430246  0.16757020  1
  Te  Te202  1  0.33585984  0.33963948  0.50197654  1
  Te  Te203  1  0.33327812  0.32927872  0.83278886  1
  Te  Te204  1  0.32862269  0.66790171  0.16430122  1
  Te  Te205  1  0.33307702  0.66727761  0.49937636  1
  Te  Te206  1  0.33274346  0.66738717  0.83327166  1
  Te  Te207  1  0.66507552  -0.00211503  0.16699489  1
  Te  Te208  1  0.66352310  -0.00475696  0.49911172  1
  Te  Te209  1  0.66254977  -0.00341954  0.83221987  1
  Te  Te210  1  0.67370102  0.33846365  0.16139683  1
  Te  Te211  1  0.67396919  0.33526166  0.50078446  1
  Te  Te212  1  0.66395013  0.33620203  0.83884861  1
  Te  Te213  1  0.66708545  0.66771929  0.16720729  1
  Te  Te214  1  0.66836000  0.67236349  0.49526178  1
  Te  Te215  1  0.66409211  0.66675835  0.83332968  1
