# generated using pymatgen
data_AgSbTe2
_symmetry_space_group_name_H-M   'P 1'
_cell_length_a   18.33276098
_cell_length_b   18.32571078
_cell_length_c   18.32639154
_cell_angle_alpha   89.99970581
_cell_angle_beta   89.99861873
_cell_angle_gamma   89.99812864
_symmetry_Int_Tables_number   1
_chemical_formula_structural   AgSbTe2
_chemical_formula_sum   'Ag54 Sb54 Te108'
_cell_volume   6156.95054306
_cell_formula_units_Z   54
loop_
 _symmetry_equiv_pos_site_id
 _symmetry_equiv_pos_as_xyz
  1  'x, y, z'
loop_
 _atom_site_type_symbol
 _atom_site_label
 _atom_site_symmetry_multiplicity
 _atom_site_fract_x
 _atom_site_fract_y
 _atom_site_fract_z
 _atom_site_occupancy
  Ag  Ag0  1  -0.01002642  -0.00363091  0.66825079  1
  Ag  Ag1  1  0.51045732  0.66067608  0.16347394  1
  Ag  Ag2  1  -0.00647968  0.16552615  0.83630439  1
  Ag  Ag3  1  0.82906182  0.16237821  0.32834687  1
  Ag  Ag4  1  0.50327894  0.33980623  0.16558094  1
  Ag  Ag5  1  0.66666454  0.83370938  0.49057217  1
  Ag  Ag6  1  -0.00899840  0.66562749  0.31629065  1
  Ag  Ag7  1  0.51207769  0.00220497  0.83558487  1
  Ag  Ag8  1  0.66731897  0.16356633  0.16509997  1
  Ag  Ag9  1  0.66586104  0.50164625  0.84564607  1
  Ag  Ag10  1  0.16837292  0.33596640  0.16037399  1
  Ag  Ag11  1  0.67145635  0.00076591  0.67018169  1
  Ag  Ag12  1  0.66543077  0.50312375  0.16190632  1
  Ag  Ag13  1  0.16372224  0.49945815  0.00193209  1
  Ag  Ag14  1  0.15953853  0.17343942  0.00137352  1
  Ag  Ag15  1  0.16579335  0.00075892  0.16246015  1
  Ag  Ag16  1  0.16540145  0.83081812  0.66515480  1
  Ag  Ag17  1  0.50865892  0.16923161  0.66607411  1
  Ag  Ag18  1  0.66555460  0.00347376  0.00161496  1
  Ag  Ag19  1  0.83048635  0.66522649  0.16286002  1
  Ag  Ag20  1  0.66921227  0.50002628  0.49868576  1
  Ag  Ag21  1  0.82966184  0.00481222  0.50811062  1
  Ag  Ag22  1  0.33099132  0.66284968  -0.00069331  1
  Ag  Ag23  1  -0.00384255  0.50476008  0.15789322  1
  Ag  Ag24  1  0.83057909  0.33222882  0.50312124  1
  Ag  Ag25  1  0.33076662  0.66656286  0.67923442  1
  Ag  Ag26  1  0.16037071  0.33524648  0.49819182  1
  Ag  Ag27  1  0.82916874  0.16165122  0.67404468  1
  Ag  Ag28  1  0.66969743  -0.00490988  0.32855956  1
  Ag  Ag29  1  0.51096268  0.16752416  0.33000988  1
  Ag  Ag30  1  -0.00958291  0.50069166  0.49787939  1
  Ag  Ag31  1  -0.00577312  0.82248711  0.16649788  1
  Ag  Ag32  1  0.82996093  0.49702986  -0.00022280  1
  Ag  Ag33  1  0.49985673  0.82441348  0.00382319  1
  Ag  Ag34  1  0.83258959  0.33033922  0.84151747  1
  Ag  Ag35  1  0.34217982  -0.00697917  0.00134859  1
  Ag  Ag36  1  0.34248286  0.50701226  0.16005363  1
  Ag  Ag37  1  0.82990196  0.00702823  0.83023272  1
  Ag  Ag38  1  0.50319231  0.49874589  0.67533431  1
  Ag  Ag39  1  0.67261482  0.67152916  0.32737683  1
  Ag  Ag40  1  -0.00002359  0.66827917  0.67291452  1
  Ag  Ag41  1  0.15829117  0.66477142  0.83514108  1
  Ag  Ag42  1  0.50780844  0.33480112  0.49710702  1
  Ag  Ag43  1  0.83698624  0.66217819  0.84220160  1
  Ag  Ag44  1  0.67156444  0.33988844  0.00247023  1
  Ag  Ag45  1  0.66735054  0.82723455  0.16911644  1
  Ag  Ag46  1  0.33613229  0.82726380  0.16422205  1
  Ag  Ag47  1  0.82894375  0.83379509  0.33113609  1
  Ag  Ag48  1  0.33962533  0.83246096  0.49626480  1
  Ag  Ag49  1  0.34118691  0.50340684  0.84338299  1
  Ag  Ag50  1  -0.00934125  0.34314547  0.00088263  1
  Ag  Ag51  1  0.50411046  0.50285032  0.00243227  1
  Ag  Ag52  1  -0.00075716  0.66086190  0.00108261  1
  Ag  Ag53  1  0.83411223  0.17389589  -0.00298153  1
  Sb  Sb54  1  0.33444436  0.66841103  0.32663603  1
  Sb  Sb55  1  0.50523402  0.16933536  0.00033216  1
  Sb  Sb56  1  0.16182631  0.83236435  0.33291129  1
  Sb  Sb57  1  0.82836940  0.83122006  0.00520805  1
  Sb  Sb58  1  0.16560581  0.66239915  0.50575370  1
  Sb  Sb59  1  0.66916695  0.16732899  0.49513334  1
  Sb  Sb60  1  0.33202060  0.17028234  0.83727474  1
  Sb  Sb61  1  0.16381466  0.66428391  0.16022345  1
  Sb  Sb62  1  -0.00242837  0.33622203  0.67087153  1
  Sb  Sb63  1  0.16092687  0.00259574  0.49686882  1
  Sb  Sb64  1  0.67261713  0.16670012  0.83820170  1
  Sb  Sb65  1  0.33581708  0.33961787  0.66647344  1
  Sb  Sb66  1  0.66774732  0.66880644  0.66380378  1
  Sb  Sb67  1  0.33599380  0.16248959  0.50179728  1
  Sb  Sb68  1  0.66838826  0.66401978  0.00612775  1
  Sb  Sb69  1  0.50423285  0.49688254  0.32717271  1
  Sb  Sb70  1  -0.00397323  0.82756477  0.49754920  1
  Sb  Sb71  1  0.49900381  0.83080729  0.67053432  1
  Sb  Sb72  1  0.83103015  0.33765012  0.16259477  1
  Sb  Sb73  1  0.66822107  0.33256596  0.32791221  1
  Sb  Sb74  1  -0.00157273  0.83277340  0.83740620  1
  Sb  Sb75  1  0.50147606  0.66349578  0.49532394  1
  Sb  Sb76  1  0.33840184  0.16730545  0.16311455  1
  Sb  Sb77  1  0.83497787  0.83747060  0.66300234  1
  Sb  Sb78  1  0.50799373  0.00248773  0.50391617  1
  Sb  Sb79  1  0.50817476  0.83660088  0.32687433  1
  Sb  Sb80  1  0.16839644  0.50423260  0.67239818  1
  Sb  Sb81  1  0.50713673  0.33278207  0.83652397  1
  Sb  Sb82  1  0.66774859  0.83205538  0.83788683  1
  Sb  Sb83  1  0.33477804  0.33983859  0.00146502  1
  Sb  Sb84  1  -0.00424276  -0.00191874  -0.00175486  1
  Sb  Sb85  1  0.33577398  -0.00633994  0.67198571  1
  Sb  Sb86  1  0.66819505  0.32961457  0.66895224  1
  Sb  Sb87  1  0.50291586  -0.00132348  0.16007772  1
  Sb  Sb88  1  -0.00576850  0.17276160  0.50469561  1
  Sb  Sb89  1  0.33610958  0.50324209  0.49899022  1
  Sb  Sb90  1  0.83266130  -0.00362433  0.16442707  1
  Sb  Sb91  1  0.83135886  0.50081716  0.32824280  1
  Sb  Sb92  1  -0.00896456  -0.00461930  0.33559945  1
  Sb  Sb93  1  -0.00411788  0.33810850  0.32825448  1
  Sb  Sb94  1  0.83331003  0.66480135  0.49783161  1
  Sb  Sb95  1  0.16393667  -0.00392267  0.83865203  1
  Sb  Sb96  1  0.16959201  0.83004810  0.00006431  1
  Sb  Sb97  1  0.16210291  0.16746853  0.32512120  1
  Sb  Sb98  1  0.16273043  0.16294835  0.67180484  1
  Sb  Sb99  1  -0.00495240  0.50041671  0.83759054  1
  Sb  Sb100  1  -0.00602238  0.16882462  0.16009829  1
  Sb  Sb101  1  0.82916973  0.49774639  0.67113840  1
  Sb  Sb102  1  0.50318461  0.66572343  0.83997385  1
  Sb  Sb103  1  0.16058060  0.33891765  0.83887223  1
  Sb  Sb104  1  0.33373244  0.82757267  0.83825845  1
  Sb  Sb105  1  0.16407137  0.50030573  0.32571920  1
  Sb  Sb106  1  0.34128493  -0.00238901  0.32683706  1
  Sb  Sb107  1  0.33508750  0.33337023  0.33133111  1
  Te  Te108  1  0.16697302  0.17009443  0.16154833  1
  Te  Te109  1  0.16682618  0.17276824  0.49905131  1
  Te  Te110  1  0.16109092  0.16793610  0.83944791  1
  Te  Te111  1  0.16089638  0.49701277  0.16177490  1
  Te  Te112  1  0.16819533  0.49452087  0.50000399  1
  Te  Te113  1  0.16998166  0.50446981  0.83916769  1
  Te  Te114  1  0.17045356  0.83606715  0.16755272  1
  Te  Te115  1  0.16726769  0.83488259  0.50279769  1
  Te  Te116  1  0.16642237  0.82706101  0.82777460  1
  Te  Te117  1  0.50536200  0.17042079  0.16792657  1
  Te  Te118  1  0.49965483  0.17133297  0.50451893  1
  Te  Te119  1  0.49913038  0.16481800  0.82845761  1
  Te  Te120  1  0.50282284  0.50033468  0.16521699  1
  Te  Te121  1  0.50184313  0.49558707  0.49889378  1
  Te  Te122  1  0.50362489  0.49913816  0.83492675  1
  Te  Te123  1  0.50054571  0.83256331  0.16348023  1
  Te  Te124  1  0.50215815  0.83276539  0.50032404  1
  Te  Te125  1  0.50058220  0.83986040  0.84030776  1
  Te  Te126  1  0.82799102  0.16764579  0.16394676  1
  Te  Te127  1  0.83391983  0.16597325  0.50289639  1
  Te  Te128  1  0.83328625  0.16753676  0.83495426  1
  Te  Te129  1  0.83339237  0.50342902  0.16335921  1
  Te  Te130  1  0.83107098  0.49747608  0.50123551  1
  Te  Te131  1  0.82925722  0.50007786  0.83634862  1
  Te  Te132  1  0.83164294  0.82985003  0.17014781  1
  Te  Te133  1  0.82864213  0.83583499  0.49406063  1
  Te  Te134  1  0.83296250  0.83073071  0.83391494  1
  Te  Te135  1  0.16491845  -0.00074591  0.00295915  1
  Te  Te136  1  0.16698965  0.00149395  0.32668800  1
  Te  Te137  1  0.16480737  -0.00421910  0.66685110  1
  Te  Te138  1  0.16743582  0.33535101  0.00174830  1
  Te  Te139  1  0.16530478  0.33203703  0.33417937  1
  Te  Te140  1  0.16712746  0.33187071  0.66256081  1
  Te  Te141  1  0.16781473  0.66362181  -0.00430914  1
  Te  Te142  1  0.15919014  0.66690903  0.33616156  1
  Te  Te143  1  0.16746073  0.66857938  0.67228313  1
  Te  Te144  1  0.50192600  0.00398372  -0.00359670  1
  Te  Te145  1  0.50808866  0.00694886  0.33509414  1
  Te  Te146  1  0.50366813  0.00106940  0.67209694  1
  Te  Te147  1  0.50480022  0.33707208  0.00364864  1
  Te  Te148  1  0.50131342  0.32751285  0.33275141  1
  Te  Te149  1  0.50076101  0.33441177  0.66509353  1
  Te  Te150  1  0.49733115  0.66501274  0.00346066  1
  Te  Te151  1  0.50342561  0.66768305  0.32487913  1
  Te  Te152  1  0.49805851  0.66241197  0.66680486  1
  Te  Te153  1  0.82926722  0.00062522  -0.00408270  1
  Te  Te154  1  0.82836065  0.00109141  0.33205751  1
  Te  Te155  1  0.83257482  0.00064064  0.66820660  1
  Te  Te156  1  0.83174490  0.33435500  0.00140599  1
  Te  Te157  1  0.83356218  0.32689225  0.34155962  1
  Te  Te158  1  0.83413294  0.32781845  0.66364873  1
  Te  Te159  1  0.83536536  0.66568169  0.00170168  1
  Te  Te160  1  0.83325129  0.66674518  0.33162933  1
  Te  Te161  1  0.83631219  0.66679875  0.66999998  1
  Te  Te162  1  -0.00274439  0.16545923  -0.00286378  1
  Te  Te163  1  -0.00742616  0.16516790  0.33294320  1
  Te  Te164  1  -0.00363410  0.16435954  0.67193454  1
  Te  Te165  1  -0.00209319  0.50040455  -0.00190918  1
  Te  Te166  1  -0.00201801  0.50574835  0.33575480  1
  Te  Te167  1  0.00008778  0.50417416  0.66360569  1
  Te  Te168  1  0.00066002  0.82800517  0.00639945  1
  Te  Te169  1  -0.00582182  0.82763765  0.32935830  1
  Te  Te170  1  0.00217037  0.83138020  0.66576102  1
  Te  Te171  1  0.32818065  0.16111498  -0.00057684  1
  Te  Te172  1  0.33785447  0.16460653  0.33289726  1
  Te  Te173  1  0.33710029  0.16508809  0.66878039  1
  Te  Te174  1  0.33620381  0.50079517  0.00251839  1
  Te  Te175  1  0.33290117  0.50163386  0.32393081  1
  Te  Te176  1  0.33769723  0.50695117  0.66653158  1
  Te  Te177  1  0.33598288  0.83203072  0.00368735  1
  Te  Te178  1  0.33348290  0.83351285  0.33154185  1
  Te  Te179  1  0.33145818  0.82710841  0.66583121  1
  Te  Te180  1  0.66954054  0.16491946  0.00391580  1
  Te  Te181  1  0.66901377  0.16683708  0.32891637  1
  Te  Te182  1  0.66775620  0.16270343  0.66770779  1
  Te  Te183  1  0.66724439  0.50056247  0.00189486  1
  Te  Te184  1  0.66734208  0.50459641  0.33611873  1
  Te  Te185  1  0.66249136  0.50051495  0.65907369  1
  Te  Te186  1  0.66123347  0.83816151  0.00491224  1
  Te  Te187  1  0.66847012  0.83353135  0.33118385  1
  Te  Te188  1  0.66610102  0.83787817  0.66231684  1
  Te  Te189  1  0.00392684  -0.00155235  0.16724557  1
  Te  Te190  1  -0.00642719  -0.00091443  0.50508753  1
  Te  Te191  1  -0.00378862  0.00129770  0.82979525  1
  Te  Te192  1  0.00262287  0.33726808  0.16160728  1
  Te  Te193  1  -0.00200309  0.33964810  0.49973049  1
  Te  Te194  1  -0.00625049  0.32997710  0.83840978  1
  Te  Te195  1  0.00080188  0.66534626  0.16188351  1
  Te  Te196  1  0.00022510  0.66098858  0.50936278  1
  Te  Te197  1  -0.00179808  0.66634817  0.83516721  1
  Te  Te198  1  0.33217669  -0.00222645  0.16176944  1
  Te  Te199  1  0.33136922  -0.00702215  0.50037774  1
  Te  Te200  1  0.33231543  0.00064827  0.84074669  1
  Te  Te201  1  0.33352551  0.33723887  0.16674217  1
  Te  Te202  1  0.33602858  0.33315123  0.49930191  1
  Te  Te203  1  0.33316720  0.34220000  0.83244402  1
  Te  Te204  1  0.33072269  0.66681597  0.16276205  1
  Te  Te205  1  0.33332936  0.67258805  0.49690065  1
  Te  Te206  1  0.33740268  0.66246503  0.83655276  1
  Te  Te207  1  0.66694288  0.00000753  0.16530926  1
  Te  Te208  1  0.67092410  -0.00080070  0.49917231  1
  Te  Te209  1  0.66976687  -0.00139732  0.83451775  1
  Te  Te210  1  0.66540182  0.33860905  0.16349065  1
  Te  Te211  1  0.66681038  0.33576593  0.49972747  1
  Te  Te212  1  0.67270692  0.33931853  0.83721190  1
  Te  Te213  1  0.66883562  0.66641724  0.16726117  1
  Te  Te214  1  0.66639603  0.66736128  0.49481770  1
  Te  Te215  1  0.67273219  0.66293224  0.83141162  1
