# generated using pymatgen
data_AgSbTe2
_symmetry_space_group_name_H-M   'P 1'
_cell_length_a   18.34250477
_cell_length_b   18.34459246
_cell_length_c   18.35283999
_cell_angle_alpha   90.00248038
_cell_angle_beta   89.99969963
_cell_angle_gamma   90.00301033
_symmetry_Int_Tables_number   1
_chemical_formula_structural   AgSbTe2
_chemical_formula_sum   'Ag54 Sb54 Te108'
_cell_volume   6175.46956697
_cell_formula_units_Z   54
loop_
 _symmetry_equiv_pos_site_id
 _symmetry_equiv_pos_as_xyz
  1  'x, y, z'
loop_
 _atom_site_type_symbol
 _atom_site_label
 _atom_site_symmetry_multiplicity
 _atom_site_fract_x
 _atom_site_fract_y
 _atom_site_fract_z
 _atom_site_occupancy
  Ag  Ag0  1  0.16690667  0.16389613  0.00295471  1
  Ag  Ag1  1  -0.00312307  0.83889641  0.16530199  1
  Ag  Ag2  1  0.67088577  0.66275902  0.65658331  1
  Ag  Ag3  1  0.16397332  0.84159828  0.00448922  1
  Ag  Ag4  1  0.33801212  0.50069714  0.16866555  1
  Ag  Ag5  1  0.50507803  0.66051813  0.17138342  1
  Ag  Ag6  1  0.33622071  0.50086250  0.49736024  1
  Ag  Ag7  1  0.67434769  0.83114597  0.83069658  1
  Ag  Ag8  1  0.15822860  -0.00223702  0.17037970  1
  Ag  Ag9  1  0.83432453  0.83635791  0.33914694  1
  Ag  Ag10  1  0.33866234  0.83112967  0.49147078  1
  Ag  Ag11  1  0.83017388  0.34449522  0.50775942  1
  Ag  Ag12  1  0.82979707  0.33665597  0.81933676  1
  Ag  Ag13  1  0.16455997  0.16312421  0.33341310  1
  Ag  Ag14  1  0.16072532  0.49451552  0.66312895  1
  Ag  Ag15  1  0.50084252  0.49363043  0.32936883  1
  Ag  Ag16  1  -0.01180479  0.33521841  0.66806491  1
  Ag  Ag17  1  0.49916696  -0.00125410  0.16954304  1
  Ag  Ag18  1  0.50855067  0.33558215  0.84877698  1
  Ag  Ag19  1  0.83508829  -0.00770761  0.83333736  1
  Ag  Ag20  1  -0.00389705  0.33091439  -0.00270750  1
  Ag  Ag21  1  0.82840544  0.66510831  0.49727142  1
  Ag  Ag22  1  0.67585195  0.33786017  0.66848443  1
  Ag  Ag23  1  0.82831278  0.67048917  0.17900239  1
  Ag  Ag24  1  0.50419889  0.34231427  0.49540911  1
  Ag  Ag25  1  0.83595217  -0.00534082  0.49257216  1
  Ag  Ag26  1  -0.00679920  -0.00034300  0.32969157  1
  Ag  Ag27  1  -0.01071170  0.83439050  0.49709730  1
  Ag  Ag28  1  0.66876818  0.66679270  0.33942661  1
  Ag  Ag29  1  0.83208651  0.16114424  0.33856815  1
  Ag  Ag30  1  0.83063398  0.49604112  0.00029272  1
  Ag  Ag31  1  0.50125093  0.17549883  0.32987008  1
  Ag  Ag32  1  0.50147459  -0.00350016  0.49111665  1
  Ag  Ag33  1  0.15593971  -0.00078548  0.49189544  1
  Ag  Ag34  1  0.50113852  0.49080375  0.01132238  1
  Ag  Ag35  1  0.33639800  0.49692677  0.83890869  1
  Ag  Ag36  1  0.83623547  0.17577362  0.65817349  1
  Ag  Ag37  1  0.49898463  0.83364399  0.00718206  1
  Ag  Ag38  1  0.82988285  0.50239300  0.34105908  1
  Ag  Ag39  1  0.49635227  0.17988740  0.01197283  1
  Ag  Ag40  1  0.84324934  -0.00781020  0.17452516  1
  Ag  Ag41  1  0.34588769  0.33552260  0.00556628  1
  Ag  Ag42  1  0.49711002  0.34329291  0.16256476  1
  Ag  Ag43  1  0.16119205  0.17115164  0.66173715  1
  Ag  Ag44  1  0.83046016  0.66390246  0.82988114  1
  Ag  Ag45  1  -0.00866337  0.83570910  0.83952180  1
  Ag  Ag46  1  0.33824571  0.83179683  0.16999373  1
  Ag  Ag47  1  -0.00104786  -0.00081297  0.01047510  1
  Ag  Ag48  1  0.67222084  0.82892991  0.50190436  1
  Ag  Ag49  1  0.65925450  0.33430185  -0.00613238  1
  Ag  Ag50  1  0.34509694  0.33469658  0.33045890  1
  Ag  Ag51  1  0.83656867  0.48936856  0.65703773  1
  Ag  Ag52  1  0.51082790  0.66467900  0.49178044  1
  Ag  Ag53  1  -0.01127348  0.50205949  0.50067314  1
  Sb  Sb54  1  0.33585484  0.16741634  0.16716098  1
  Sb  Sb55  1  -0.00260427  0.16427715  0.83327451  1
  Sb  Sb56  1  0.16443759  0.32953545  0.50088409  1
  Sb  Sb57  1  0.50433785  0.49785319  0.66285510  1
  Sb  Sb58  1  0.67109672  -0.00456915  0.33431059  1
  Sb  Sb59  1  0.66362398  0.33832172  0.33671549  1
  Sb  Sb60  1  0.66908374  0.16806105  0.83356937  1
  Sb  Sb61  1  0.83377024  0.17030160  0.00190842  1
  Sb  Sb62  1  0.83307534  0.83142603  0.00074251  1
  Sb  Sb63  1  0.66780959  0.66348842  0.00068161  1
  Sb  Sb64  1  0.67076478  0.00197059  0.00067176  1
  Sb  Sb65  1  -0.00283531  0.16511573  0.50012677  1
  Sb  Sb66  1  -0.00353360  0.00430778  0.66332533  1
  Sb  Sb67  1  0.66479910  0.16734479  0.16734063  1
  Sb  Sb68  1  0.83317869  0.83101153  0.66227326  1
  Sb  Sb69  1  0.15918962  -0.00010660  0.83548085  1
  Sb  Sb70  1  -0.01002434  0.67425451  0.33442402  1
  Sb  Sb71  1  0.33287367  0.00267119  0.33145544  1
  Sb  Sb72  1  0.50238309  0.17116207  0.66309814  1
  Sb  Sb73  1  -0.00376253  0.66934032  0.00040854  1
  Sb  Sb74  1  0.66921630  0.16437369  0.49981833  1
  Sb  Sb75  1  0.32950999  0.00355155  0.00288046  1
  Sb  Sb76  1  -0.00873420  0.66112408  0.66493847  1
  Sb  Sb77  1  0.16463527  0.67013051  0.49941960  1
  Sb  Sb78  1  0.33446339  0.33624856  0.66542839  1
  Sb  Sb79  1  0.16777221  0.67341951  0.16660532  1
  Sb  Sb80  1  0.33448206  0.17361365  0.83566248  1
  Sb  Sb81  1  0.50698609  0.66071390  0.83488718  1
  Sb  Sb82  1  0.33729489  0.66115526  0.00176889  1
  Sb  Sb83  1  0.16913307  0.49254508  0.33808444  1
  Sb  Sb84  1  0.50231673  0.83337710  0.66390962  1
  Sb  Sb85  1  0.00075291  0.50466154  0.17079381  1
  Sb  Sb86  1  0.50570528  0.00337865  0.83737348  1
  Sb  Sb87  1  0.67127518  0.00077972  0.66429091  1
  Sb  Sb88  1  0.16123510  0.84008633  0.33056544  1
  Sb  Sb89  1  0.16344413  0.83448741  0.66650464  1
  Sb  Sb90  1  0.66745092  0.83192905  0.16735471  1
  Sb  Sb91  1  0.66745524  0.50009262  0.83307426  1
  Sb  Sb92  1  0.66149320  0.50079434  0.16675841  1
  Sb  Sb93  1  0.16463762  0.33321171  0.83281660  1
  Sb  Sb94  1  0.33371781  0.16877231  0.49746428  1
  Sb  Sb95  1  0.33492226  0.82708108  0.83812649  1
  Sb  Sb96  1  0.17241329  0.32713173  0.16522799  1
  Sb  Sb97  1  0.00043950  0.16189027  0.16664652  1
  Sb  Sb98  1  0.66772556  0.50580367  0.50027895  1
  Sb  Sb99  1  0.82739879  0.33592122  0.16884948  1
  Sb  Sb100  1  0.50365828  0.83281159  0.33151378  1
  Sb  Sb101  1  0.15989953  0.66596399  0.83213918  1
  Sb  Sb102  1  0.33190060  0.00035452  0.66134739  1
  Sb  Sb103  1  0.34107381  0.66102289  0.33313468  1
  Sb  Sb104  1  0.16853709  0.49597436  -0.00231361  1
  Sb  Sb105  1  -0.00195907  0.32971631  0.33469322  1
  Sb  Sb106  1  0.33990568  0.66297107  0.66345227  1
  Sb  Sb107  1  -0.00362631  0.50100840  0.83000725  1
  Te  Te108  1  0.16863394  0.15929342  0.16654131  1
  Te  Te109  1  0.16663117  0.16099484  0.49829795  1
  Te  Te110  1  0.16677593  0.16534903  0.83618847  1
  Te  Te111  1  0.17349823  0.50219416  0.16763369  1
  Te  Te112  1  0.17160603  0.50052497  0.50305130  1
  Te  Te113  1  0.17112184  0.50078880  0.82799674  1
  Te  Te114  1  0.16557694  0.83786586  0.16462365  1
  Te  Te115  1  0.16942416  0.83841600  0.49983784  1
  Te  Te116  1  0.16553805  0.83268392  0.83914889  1
  Te  Te117  1  0.49952416  0.16211416  0.16867197  1
  Te  Te118  1  0.50056810  0.16132526  0.49601216  1
  Te  Te119  1  0.50069100  0.17318000  0.83468878  1
  Te  Te120  1  0.49710283  0.50192793  0.16872583  1
  Te  Te121  1  0.49805847  0.50217671  0.49875639  1
  Te  Te122  1  0.49683210  0.49541519  0.83281129  1
  Te  Te123  1  0.50099652  0.83285359  0.16666462  1
  Te  Te124  1  0.49813489  0.83303598  0.49891731  1
  Te  Te125  1  0.50030651  0.83279367  0.83696592  1
  Te  Te126  1  0.83247689  0.16169501  0.17252525  1
  Te  Te127  1  0.83376613  0.16096247  0.49803967  1
  Te  Te128  1  0.83337405  0.17427184  0.83362371  1
  Te  Te129  1  0.83548013  0.50450433  0.16478716  1
  Te  Te130  1  0.83175761  0.50181022  0.49873670  1
  Te  Te131  1  0.83428239  0.49789510  0.83944833  1
  Te  Te132  1  0.83363744  0.83282161  0.16692324  1
  Te  Te133  1  0.83247702  0.83394331  0.50074504  1
  Te  Te134  1  0.83370786  0.83344501  0.83415927  1
  Te  Te135  1  0.16295859  0.00168322  0.00176732  1
  Te  Te136  1  0.16681501  0.00447743  0.33257818  1
  Te  Te137  1  0.16468517  0.00543190  0.66310288  1
  Te  Te138  1  0.15751722  0.32816138  -0.00017652  1
  Te  Te139  1  0.16844316  0.32338054  0.33281071  1
  Te  Te140  1  0.16562690  0.33228418  0.66647903  1
  Te  Te141  1  0.16653162  0.67239425  -0.00046285  1
  Te  Te142  1  0.16601627  0.66472913  0.33275256  1
  Te  Te143  1  0.16640684  0.65994795  0.66641599  1
  Te  Te144  1  0.49987348  -0.00381145  0.00099542  1
  Te  Te145  1  0.50052894  0.00084398  0.33261025  1
  Te  Te146  1  0.50097645  0.00323776  0.66375578  1
  Te  Te147  1  0.50072498  0.33527386  0.00308602  1
  Te  Te148  1  0.50258495  0.33464239  0.33597380  1
  Te  Te149  1  0.50322839  0.33218907  0.65502188  1
  Te  Te150  1  0.50150684  0.66931517  0.00407934  1
  Te  Te151  1  0.50478225  0.66608960  0.33264205  1
  Te  Te152  1  0.50892592  0.66582494  0.66283233  1
  Te  Te153  1  0.83721144  0.00171994  -0.00099327  1
  Te  Te154  1  0.83314430  -0.00038151  0.33309496  1
  Te  Te155  1  0.83355479  0.00906312  0.66973173  1
  Te  Te156  1  0.83695799  0.33436673  0.00531893  1
  Te  Te157  1  0.83152033  0.33494838  0.33572399  1
  Te  Te158  1  0.83246026  0.33310678  0.66391111  1
  Te  Te159  1  0.83203659  0.66049852  -0.00499397  1
  Te  Te160  1  0.83051172  0.66470381  0.33582239  1
  Te  Te161  1  0.82918472  0.66445030  0.66581020  1
  Te  Te162  1  0.00256355  0.16457713  -0.00016013  1
  Te  Te163  1  -0.00058717  0.16208084  0.33314877  1
  Te  Te164  1  0.00055771  0.17323986  0.66703260  1
  Te  Te165  1  -0.00024770  0.49726857  0.00079715  1
  Te  Te166  1  -0.00171709  0.49870992  0.33936985  1
  Te  Te167  1  -0.00206681  0.49591668  0.66362000  1
  Te  Te168  1  0.00009496  0.83593100  0.00134997  1
  Te  Te169  1  -0.00487371  0.83897446  0.33524035  1
  Te  Te170  1  0.00142624  0.83305710  0.66367432  1
  Te  Te171  1  0.33374256  0.17315765  0.00020670  1
  Te  Te172  1  0.33847283  0.17332295  0.33328301  1
  Te  Te173  1  0.32373897  0.16795346  0.66771543  1
  Te  Te174  1  0.33450647  0.49546179  0.00199956  1
  Te  Te175  1  0.33603744  0.49528338  0.33429958  1
  Te  Te176  1  0.33089357  0.49939415  0.65978564  1
  Te  Te177  1  0.33374820  0.83291968  0.00298490  1
  Te  Te178  1  0.33121754  0.83210545  0.33185775  1
  Te  Te179  1  0.33213562  0.83159862  0.66260737  1
  Te  Te180  1  0.65925836  0.17197562  -0.00046057  1
  Te  Te181  1  0.66602989  0.16746209  0.33379026  1
  Te  Te182  1  0.67209465  0.17420536  0.66693648  1
  Te  Te183  1  0.66451409  0.49553952  -0.00045037  1
  Te  Te184  1  0.66754333  0.50459999  0.33230318  1
  Te  Te185  1  0.67306968  0.49941958  0.66786890  1
  Te  Te186  1  0.66217943  0.83394507  -0.00469898  1
  Te  Te187  1  0.67314302  0.82782861  0.33751761  1
  Te  Te188  1  0.66690562  0.82987164  0.66725493  1
  Te  Te189  1  -0.00020841  -0.00217379  0.16782718  1
  Te  Te190  1  -0.00222971  -0.00269908  0.49812385  1
  Te  Te191  1  -0.00568145  -0.00504973  0.83417005  1
  Te  Te192  1  0.00085922  0.33529118  0.16251593  1
  Te  Te193  1  -0.00355235  0.33857273  0.50184693  1
  Te  Te194  1  -0.00497693  0.33396878  0.83279716  1
  Te  Te195  1  -0.00467402  0.67473062  0.16715931  1
  Te  Te196  1  -0.00387417  0.66817092  0.50002247  1
  Te  Te197  1  -0.00802043  0.67388140  0.83263406  1
  Te  Te198  1  0.33907959  -0.00802995  0.16602947  1
  Te  Te199  1  0.33988012  -0.00458755  0.49817555  1
  Te  Te200  1  0.33514333  -0.00227922  0.83098752  1
  Te  Te201  1  0.33679997  0.33567585  0.16724494  1
  Te  Te202  1  0.33515846  0.33626529  0.49723985  1
  Te  Te203  1  0.33539942  0.33880469  0.83630494  1
  Te  Te204  1  0.33791322  0.66822759  0.16721173  1
  Te  Te205  1  0.33547272  0.66784321  0.49933370  1
  Te  Te206  1  0.33403314  0.65804693  0.83169426  1
  Te  Te207  1  0.65998995  -0.00077525  0.16625045  1
  Te  Te208  1  0.66716720  -0.00821391  0.50068318  1
  Te  Te209  1  0.67379098  -0.00654635  0.83252355  1
  Te  Te210  1  0.65900288  0.33351688  0.15799275  1
  Te  Te211  1  0.66821839  0.33120524  0.50250634  1
  Te  Te212  1  0.66755478  0.33366371  0.83271474  1
  Te  Te213  1  0.66758047  0.66715478  0.16932192  1
  Te  Te214  1  0.66733986  0.66962951  0.49968748  1
  Te  Te215  1  0.67150145  0.67108533  0.83194484  1
