# generated using pymatgen
data_AgSbTe2
_symmetry_space_group_name_H-M   'P 1'
_cell_length_a   18.32599552
_cell_length_b   18.32393336
_cell_length_c   18.32339920
_cell_angle_alpha   90.00140240
_cell_angle_beta   89.99827366
_cell_angle_gamma   90.00151473
_symmetry_Int_Tables_number   1
_chemical_formula_structural   AgSbTe2
_chemical_formula_sum   'Ag54 Sb54 Te108'
_cell_volume   6153.07661348
_cell_formula_units_Z   54
loop_
 _symmetry_equiv_pos_site_id
 _symmetry_equiv_pos_as_xyz
  1  'x, y, z'
loop_
 _atom_site_type_symbol
 _atom_site_label
 _atom_site_symmetry_multiplicity
 _atom_site_fract_x
 _atom_site_fract_y
 _atom_site_fract_z
 _atom_site_occupancy
  Ag  Ag0  1  0.33741389  0.83027980  0.16790786  1
  Ag  Ag1  1  0.00355306  0.17102604  0.16306733  1
  Ag  Ag2  1  0.66674215  0.33764258  0.00123910  1
  Ag  Ag3  1  0.84048705  0.00052430  0.83068431  1
  Ag  Ag4  1  0.00276940  0.00770664  0.66753095  1
  Ag  Ag5  1  0.84622465  0.16659191  0.66877429  1
  Ag  Ag6  1  0.49474695  0.66470733  0.82342443  1
  Ag  Ag7  1  0.83624939  0.49500586  0.00051354  1
  Ag  Ag8  1  0.00715641  0.17149027  0.82942078  1
  Ag  Ag9  1  0.16481118  0.83160394  -0.00407611  1
  Ag  Ag10  1  0.16693000  0.33198076  0.51362808  1
  Ag  Ag11  1  0.17467107  0.48789639  0.66448486  1
  Ag  Ag12  1  0.32730523  0.17235090  0.83417685  1
  Ag  Ag13  1  0.66209821  0.83381041  0.82868453  1
  Ag  Ag14  1  0.00348854  0.48880150  0.83417714  1
  Ag  Ag15  1  0.01142470  0.32739529  0.67490239  1
  Ag  Ag16  1  0.33153140  0.33407957  -0.00836647  1
  Ag  Ag17  1  0.49769321  -0.00979734  0.51016270  1
  Ag  Ag18  1  0.49063855  0.50244944  0.66697373  1
  Ag  Ag19  1  0.66337023  0.33525654  0.66898108  1
  Ag  Ag20  1  0.16992036  0.49343763  0.34051906  1
  Ag  Ag21  1  0.32599310  0.33846754  0.67154562  1
  Ag  Ag22  1  0.65532418  0.65861970  0.33525603  1
  Ag  Ag23  1  0.65845104  0.49497669  0.17189568  1
  Ag  Ag24  1  0.65568621  0.82964234  0.50510195  1
  Ag  Ag25  1  0.17263362  0.66363786  0.83267525  1
  Ag  Ag26  1  0.49669120  0.66038174  0.17024431  1
  Ag  Ag27  1  0.65980423  0.50225104  0.49554201  1
  Ag  Ag28  1  0.83788244  -0.00104630  0.50905398  1
  Ag  Ag29  1  0.33697215  0.50478607  0.50485577  1
  Ag  Ag30  1  0.49837959  -0.00120211  0.82918480  1
  Ag  Ag31  1  0.00151012  0.33634557  -0.00648246  1
  Ag  Ag32  1  0.49914205  0.82785864  0.66544051  1
  Ag  Ag33  1  0.49905791  -0.00042455  0.16523245  1
  Ag  Ag34  1  0.50139941  0.34079560  0.16071425  1
  Ag  Ag35  1  0.00593516  0.83572710  0.50221866  1
  Ag  Ag36  1  0.33745918  0.66302780  0.34052107  1
  Ag  Ag37  1  0.16576908  0.17599874  0.33990893  1
  Ag  Ag38  1  0.00557842  0.33253229  0.33246000  1
  Ag  Ag39  1  0.33648072  0.82637466  0.50053593  1
  Ag  Ag40  1  0.49595887  0.67032947  0.50471176  1
  Ag  Ag41  1  0.16421621  0.17496333  0.66870018  1
  Ag  Ag42  1  0.82874266  0.33022070  0.16248512  1
  Ag  Ag43  1  0.33940075  0.49706569  0.17222313  1
  Ag  Ag44  1  0.16946594  0.33080538  0.82768383  1
  Ag  Ag45  1  0.33688970  0.65770364  0.66411236  1
  Ag  Ag46  1  0.83614985  0.83256343  -0.00085559  1
  Ag  Ag47  1  0.16401324  0.00951615  0.82620982  1
  Ag  Ag48  1  0.66817750  0.33974630  0.32838515  1
  Ag  Ag49  1  0.83088302  0.00635673  0.16299605  1
  Ag  Ag50  1  0.00081807  0.66171662  -0.00210904  1
  Ag  Ag51  1  0.33070014  0.17544420  0.16353979  1
  Ag  Ag52  1  0.49367791  0.33412057  0.83252671  1
  Ag  Ag53  1  0.16596992  0.00313443  0.50724966  1
  Sb  Sb54  1  0.83648379  0.32849269  0.83698164  1
  Sb  Sb55  1  0.82953890  0.83961605  0.66880364  1
  Sb  Sb56  1  0.16631585  0.16586277  -0.00687051  1
  Sb  Sb57  1  0.16417354  0.50009137  -0.00536708  1
  Sb  Sb58  1  0.49942974  0.83050032  0.34080769  1
  Sb  Sb59  1  0.50068073  0.49784729  -0.00233450  1
  Sb  Sb60  1  0.32887987  0.49387284  0.82980493  1
  Sb  Sb61  1  0.33615461  0.83535337  0.83174414  1
  Sb  Sb62  1  0.00456629  0.66105080  0.33133965  1
  Sb  Sb63  1  0.33073146  0.66133402  -0.00261777  1
  Sb  Sb64  1  0.17343396  0.66542444  0.16260655  1
  Sb  Sb65  1  0.66579069  0.16898731  0.50170393  1
  Sb  Sb66  1  0.66809293  0.00195385  -0.00068880  1
  Sb  Sb67  1  0.17495611  0.66503078  0.50549113  1
  Sb  Sb68  1  0.82493436  0.67197541  0.50062571  1
  Sb  Sb69  1  0.33293656  -0.00236986  0.33411215  1
  Sb  Sb70  1  0.49593436  0.50135554  0.33655628  1
  Sb  Sb71  1  0.00146530  0.00615002  0.33921519  1
  Sb  Sb72  1  0.33017961  0.00207557  0.66665180  1
  Sb  Sb73  1  0.66796214  0.00271224  0.66635963  1
  Sb  Sb74  1  0.00356108  0.50070280  0.50474087  1
  Sb  Sb75  1  0.00283664  0.16465389  0.50598146  1
  Sb  Sb76  1  0.66752075  0.50016400  0.83288954  1
  Sb  Sb77  1  0.00004358  0.00303209  -0.00588669  1
  Sb  Sb78  1  0.49353657  0.16943786  0.33163975  1
  Sb  Sb79  1  0.00129285  0.49257895  0.16196857  1
  Sb  Sb80  1  0.16961928  0.83227128  0.33337344  1
  Sb  Sb81  1  0.32990034  0.16915287  0.50149359  1
  Sb  Sb82  1  0.83298702  0.49699649  0.32884805  1
  Sb  Sb83  1  0.00859785  0.66471280  0.67142585  1
  Sb  Sb84  1  0.16921967  0.33259452  0.16402213  1
  Sb  Sb85  1  0.66541031  0.00089810  0.33550205  1
  Sb  Sb86  1  0.83610067  0.33056447  0.49905556  1
  Sb  Sb87  1  -0.00081083  0.83592235  0.83032465  1
  Sb  Sb88  1  0.66646917  0.16575344  0.83162633  1
  Sb  Sb89  1  0.82852098  0.66406910  0.16466223  1
  Sb  Sb90  1  0.16745658  0.00275959  0.16555827  1
  Sb  Sb91  1  0.83251591  0.83517071  0.33134369  1
  Sb  Sb92  1  0.49910473  0.83169889  -0.00413669  1
  Sb  Sb93  1  0.00192750  0.83827859  0.16645158  1
  Sb  Sb94  1  0.83635734  0.16880894  -0.00278257  1
  Sb  Sb95  1  0.17142645  0.83453373  0.66926844  1
  Sb  Sb96  1  0.66518762  0.17426212  0.16755962  1
  Sb  Sb97  1  0.65725223  0.66244280  0.66297741  1
  Sb  Sb98  1  0.33086789  0.33900855  0.33351444  1
  Sb  Sb99  1  0.66095391  0.82993995  0.16711546  1
  Sb  Sb100  1  0.49473999  0.17007219  0.66803227  1
  Sb  Sb101  1  0.49720669  0.33654079  0.50266681  1
  Sb  Sb102  1  0.33247699  0.00309497  -0.00073334  1
  Sb  Sb103  1  0.49793954  0.17016166  -0.00032554  1
  Sb  Sb104  1  0.83324113  0.67083288  0.83417150  1
  Sb  Sb105  1  0.84007913  0.16856342  0.33534336  1
  Sb  Sb106  1  0.83441810  0.49269384  0.67071339  1
  Sb  Sb107  1  0.66884343  0.66294641  0.00207675  1
  Te  Te108  1  0.16831115  0.16517050  0.16766777  1
  Te  Te109  1  0.16692936  0.16683259  0.50146170  1
  Te  Te110  1  0.16682575  0.16786046  0.83158842  1
  Te  Te111  1  0.17006361  0.50027952  0.17102471  1
  Te  Te112  1  0.16798756  0.49827902  0.50284276  1
  Te  Te113  1  0.16369172  0.49902254  0.83029463  1
  Te  Te114  1  0.17154320  0.83454819  0.16247725  1
  Te  Te115  1  0.17040031  0.83633602  0.50014112  1
  Te  Te116  1  0.16769027  0.83137156  0.83646891  1
  Te  Te117  1  0.49428395  0.16300282  0.16668962  1
  Te  Te118  1  0.49801298  0.15459250  0.49935051  1
  Te  Te119  1  0.49558360  0.16753404  0.83305380  1
  Te  Te120  1  0.49971144  0.49947384  0.16481159  1
  Te  Te121  1  0.49955904  0.50074946  0.50451100  1
  Te  Te122  1  0.50106232  0.49927795  0.82841078  1
  Te  Te123  1  0.49694816  0.83540918  0.16439182  1
  Te  Te124  1  0.49758900  0.83193373  0.50354058  1
  Te  Te125  1  0.50186138  0.83452425  0.82985256  1
  Te  Te126  1  0.83617751  0.16719297  0.16713288  1
  Te  Te127  1  0.83299807  0.15918735  0.50518437  1
  Te  Te128  1  0.83557688  0.15976463  0.82980083  1
  Te  Te129  1  0.83192474  0.49575096  0.16186243  1
  Te  Te130  1  0.82766011  0.50102187  0.50044132  1
  Te  Te131  1  0.83876319  0.50179870  0.83909097  1
  Te  Te132  1  0.83267865  0.83682545  0.16152962  1
  Te  Te133  1  0.83092756  0.83944777  0.49995564  1
  Te  Te134  1  0.82890924  0.83889956  0.83636389  1
  Te  Te135  1  0.16616965  -0.00704821  -0.00647078  1
  Te  Te136  1  0.16611719  0.00263658  0.34013448  1
  Te  Te137  1  0.16428729  -0.00062552  0.66662950  1
  Te  Te138  1  0.16597731  0.33309415  -0.00731694  1
  Te  Te139  1  0.16559268  0.33377722  0.33026173  1
  Te  Te140  1  0.16606965  0.33279880  0.66822542  1
  Te  Te141  1  0.16262001  0.66893957  -0.00571401  1
  Te  Te142  1  0.17180076  0.66145770  0.33309364  1
  Te  Te143  1  0.17393340  0.66600357  0.67313653  1
  Te  Te144  1  0.50075759  -0.00050516  -0.00094855  1
  Te  Te145  1  0.50078449  0.00099479  0.32586026  1
  Te  Te146  1  0.50005783  0.00008184  0.66824676  1
  Te  Te147  1  0.49812771  0.33447467  -0.00093051  1
  Te  Te148  1  0.50562346  0.33353513  0.33056892  1
  Te  Te149  1  0.50156393  0.33527058  0.66783520  1
  Te  Te150  1  0.50011470  0.66563309  0.00062279  1
  Te  Te151  1  0.49772398  0.66591075  0.33080055  1
  Te  Te152  1  0.49683970  0.66519934  0.66578455  1
  Te  Te153  1  0.83345503  -0.00308995  -0.00029668  1
  Te  Te154  1  0.83319285  0.00120705  0.32870880  1
  Te  Te155  1  0.83474482  0.00427960  0.66823308  1
  Te  Te156  1  0.83625016  0.33467671  0.00267911  1
  Te  Te157  1  0.83348824  0.33262308  0.32839192  1
  Te  Te158  1  0.82997123  0.32732156  0.66606940  1
  Te  Te159  1  0.83843173  0.66802915  -0.00004627  1
  Te  Te160  1  0.83010379  0.66600879  0.33215176  1
  Te  Te161  1  0.83553785  0.66549853  0.66736070  1
  Te  Te162  1  0.00069110  0.17180776  0.00112974  1
  Te  Te163  1  0.00619666  0.17229619  0.32885180  1
  Te  Te164  1  0.00318548  0.16694479  0.66866640  1
  Te  Te165  1  -0.00219601  0.49845545  -0.00332002  1
  Te  Te166  1  0.00585084  0.49524915  0.33430226  1
  Te  Te167  1  0.00274567  0.49609158  0.67259799  1
  Te  Te168  1  -0.00019335  0.83250797  0.00044066  1
  Te  Te169  1  0.00101401  0.83109206  0.33958605  1
  Te  Te170  1  -0.00149534  0.83487882  0.66197358  1
  Te  Te171  1  0.33206500  0.17317761  0.00135357  1
  Te  Te172  1  0.32587074  0.16709492  0.32891451  1
  Te  Te173  1  0.32726983  0.17223630  0.66921785  1
  Te  Te174  1  0.33189951  0.49372241  0.00897901  1
  Te  Te175  1  0.33025827  0.50320791  0.33404215  1
  Te  Te176  1  0.33318576  0.49847012  0.66713310  1
  Te  Te177  1  0.33002192  0.83246156  0.00415441  1
  Te  Te178  1  0.33311423  0.82662553  0.33216644  1
  Te  Te179  1  0.33884987  0.83281628  0.66348868  1
  Te  Te180  1  0.66839245  0.17732695  -0.00058801  1
  Te  Te181  1  0.66731086  0.17522320  0.33449995  1
  Te  Te182  1  0.66855249  0.17479480  0.66652756  1
  Te  Te183  1  0.67215232  0.49671551  0.00277807  1
  Te  Te184  1  0.66761101  0.49951888  0.33313035  1
  Te  Te185  1  0.66763099  0.49530091  0.66444289  1
  Te  Te186  1  0.67200734  0.83283497  -0.00258836  1
  Te  Te187  1  0.66734668  0.82828478  0.33885996  1
  Te  Te188  1  0.66225688  0.83346206  0.66604052  1
  Te  Te189  1  -0.00293228  0.00603332  0.16677543  1
  Te  Te190  1  0.00060540  -0.00248066  0.50349873  1
  Te  Te191  1  0.00126165  0.00271310  0.82876636  1
  Te  Te192  1  0.00000685  0.33058096  0.16553093  1
  Te  Te193  1  0.00416635  0.33477267  0.49819634  1
  Te  Te194  1  -0.00258620  0.33083407  0.83300922  1
  Te  Te195  1  -0.00083865  0.66736754  0.16127834  1
  Te  Te196  1  -0.00163895  0.67291381  0.49906373  1
  Te  Te197  1  0.00246628  0.66814269  0.83760156  1
  Te  Te198  1  0.33610775  -0.00191134  0.16655990  1
  Te  Te199  1  0.33417766  -0.00326661  0.50009386  1
  Te  Te200  1  0.33419347  0.00601723  0.83308620  1
  Te  Te201  1  0.33636123  0.33408249  0.16814898  1
  Te  Te202  1  0.32926291  0.33752592  0.50317450  1
  Te  Te203  1  0.33402128  0.33330932  0.83263185  1
  Te  Te204  1  0.33801936  0.66599894  0.16477959  1
  Te  Te205  1  0.33590208  0.66528838  0.50122861  1
  Te  Te206  1  0.33484833  0.66718642  0.83046623  1
  Te  Te207  1  0.66665170  0.00039754  0.16713609  1
  Te  Te208  1  0.66333246  -0.00427901  0.49920850  1
  Te  Te209  1  0.66075360  -0.00267481  0.83354424  1
  Te  Te210  1  0.66517035  0.33527169  0.16547979  1
  Te  Te211  1  0.66688717  0.33687325  0.49942635  1
  Te  Te212  1  0.66340461  0.33411358  0.83461244  1
  Te  Te213  1  0.66052668  0.66139150  0.17064896  1
  Te  Te214  1  0.66029265  0.66626770  0.49691440  1
  Te  Te215  1  0.66109224  0.67135238  0.83336318  1
