# generated using pymatgen
data_AgSbTe2
_symmetry_space_group_name_H-M   'P 1'
_cell_length_a   18.33616316
_cell_length_b   18.33381287
_cell_length_c   18.33241213
_cell_angle_alpha   89.99969527
_cell_angle_beta   89.99800025
_cell_angle_gamma   90.00315539
_symmetry_Int_Tables_number   1
_chemical_formula_structural   AgSbTe2
_chemical_formula_sum   'Ag54 Sb54 Te108'
_cell_volume   6162.83967850
_cell_formula_units_Z   54
loop_
 _symmetry_equiv_pos_site_id
 _symmetry_equiv_pos_as_xyz
  1  'x, y, z'
loop_
 _atom_site_type_symbol
 _atom_site_label
 _atom_site_symmetry_multiplicity
 _atom_site_fract_x
 _atom_site_fract_y
 _atom_site_fract_z
 _atom_site_occupancy
  Ag  Ag0  1  0.83583428  0.33891690  0.17410816  1
  Ag  Ag1  1  0.49493392  0.50046011  -0.00170309  1
  Ag  Ag2  1  0.82597460  0.83343673  0.66434928  1
  Ag  Ag3  1  0.15927923  0.33834908  0.15797493  1
  Ag  Ag4  1  0.32738618  0.50140746  0.16149499  1
  Ag  Ag5  1  0.83262172  0.00184453  0.17049925  1
  Ag  Ag6  1  -0.00539365  0.33224049  0.32899092  1
  Ag  Ag7  1  0.00252500  0.33381311  0.00914975  1
  Ag  Ag8  1  0.83058815  0.65757871  0.50147161  1
  Ag  Ag9  1  0.33197765  0.66090870  0.32244163  1
  Ag  Ag10  1  0.66247192  0.49736978  0.83354470  1
  Ag  Ag11  1  0.17048942  0.83878523  0.66691303  1
  Ag  Ag12  1  0.50094944  0.83584004  0.66925940  1
  Ag  Ag13  1  0.16579338  0.17911998  -0.00254252  1
  Ag  Ag14  1  0.50274981  0.16185735  0.67264830  1
  Ag  Ag15  1  0.82375151  0.33527407  0.83185343  1
  Ag  Ag16  1  0.83105806  0.33895761  0.49354863  1
  Ag  Ag17  1  0.34157831  0.66949865  0.67046142  1
  Ag  Ag18  1  0.67091000  0.49634796  0.50113882  1
  Ag  Ag19  1  0.83044994  0.00288683  0.82450276  1
  Ag  Ag20  1  0.33409784  0.81855216  0.16754784  1
  Ag  Ag21  1  0.17699043  0.65479836  0.16583559  1
  Ag  Ag22  1  0.32880157  -0.00692550  0.66891663  1
  Ag  Ag23  1  0.66531980  0.66197879  0.66992087  1
  Ag  Ag24  1  0.83638206  0.00281609  0.50209826  1
  Ag  Ag25  1  0.66799635  0.33810421  0.66897941  1
  Ag  Ag26  1  -0.00192219  0.00864354  0.34468386  1
  Ag  Ag27  1  0.17302387  0.49641253  0.00860908  1
  Ag  Ag28  1  0.83479069  0.49737956  0.33544986  1
  Ag  Ag29  1  0.50338510  0.33714943  0.16033563  1
  Ag  Ag30  1  0.50550723  0.33773575  0.83662141  1
  Ag  Ag31  1  0.67499705  0.17361016  0.50906639  1
  Ag  Ag32  1  0.00273513  0.00011005  0.66303000  1
  Ag  Ag33  1  0.66261921  0.66062547  -0.01308094  1
  Ag  Ag34  1  0.16463306  0.49939997  0.32739494  1
  Ag  Ag35  1  0.15477943  0.00158583  0.51026911  1
  Ag  Ag36  1  0.67067294  0.82521636  0.50516123  1
  Ag  Ag37  1  0.50559307  0.65456825  0.83275609  1
  Ag  Ag38  1  0.67484157  0.33735992  0.34006781  1
  Ag  Ag39  1  0.17355660  0.00700741  0.82833477  1
  Ag  Ag40  1  0.16734396  0.33047687  0.83814222  1
  Ag  Ag41  1  -0.00731215  0.16579059  0.49628867  1
  Ag  Ag42  1  0.34147207  0.49893061  0.84139612  1
  Ag  Ag43  1  0.66547615  0.49740534  0.16468440  1
  Ag  Ag44  1  -0.01247592  0.49241348  0.49699504  1
  Ag  Ag45  1  0.33993157  0.17244320  0.83184704  1
  Ag  Ag46  1  0.50214782  0.00482492  0.16146017  1
  Ag  Ag47  1  0.33738817  0.66064232  0.00002001  1
  Ag  Ag48  1  -0.00218217  0.17136108  0.17116515  1
  Ag  Ag49  1  0.66009433  0.17779755  0.82848454  1
  Ag  Ag50  1  0.33483047  0.50225726  0.49936799  1
  Ag  Ag51  1  0.83199392  0.65576371  0.16815957  1
  Ag  Ag52  1  0.82395990  0.65574416  0.82906728  1
  Ag  Ag53  1  0.50077529  0.00628422  0.83073045  1
  Sb  Sb54  1  0.33550414  0.83037239  0.83208218  1
  Sb  Sb55  1  -0.00750786  0.32740234  0.66323599  1
  Sb  Sb56  1  0.16645253  0.82928445  0.33693905  1
  Sb  Sb57  1  0.49510775  0.17466588  -0.00709858  1
  Sb  Sb58  1  0.82777371  0.16156337  0.66582789  1
  Sb  Sb59  1  0.17021719  0.66325835  0.83655838  1
  Sb  Sb60  1  0.00085043  0.49216769  0.17175833  1
  Sb  Sb61  1  0.33427995  -0.00455182  -0.00584789  1
  Sb  Sb62  1  -0.00035058  0.65628430  0.00257546  1
  Sb  Sb63  1  0.16619959  0.00267323  0.16509397  1
  Sb  Sb64  1  0.50134766  0.16950144  0.33581608  1
  Sb  Sb65  1  0.66475648  0.65772052  0.33716250  1
  Sb  Sb66  1  0.16986475  0.83008529  -0.00309123  1
  Sb  Sb67  1  0.16358862  0.17233186  0.32925862  1
  Sb  Sb68  1  0.00123559  0.83839214  0.16805856  1
  Sb  Sb69  1  0.50486564  0.66413279  0.50836866  1
  Sb  Sb70  1  0.15963120  0.33192042  0.50090515  1
  Sb  Sb71  1  0.66721452  -0.00057930  0.66737968  1
  Sb  Sb72  1  0.33103757  0.34081115  0.33201946  1
  Sb  Sb73  1  0.32884554  -0.00496932  0.33673972  1
  Sb  Sb74  1  0.83562589  0.16965619  -0.00100459  1
  Sb  Sb75  1  -0.00073178  0.83493710  0.83074026  1
  Sb  Sb76  1  0.33296301  0.17030381  0.50774413  1
  Sb  Sb77  1  -0.00263499  0.49701752  0.82829010  1
  Sb  Sb78  1  0.66404573  0.82793799  0.17232472  1
  Sb  Sb79  1  0.00027321  0.00785630  -0.00257770  1
  Sb  Sb80  1  -0.00532982  0.83748954  0.50187961  1
  Sb  Sb81  1  0.67055970  0.17467050  0.16538705  1
  Sb  Sb82  1  0.50038093  0.83213077  0.33575423  1
  Sb  Sb83  1  0.16423824  0.66730954  0.49820318  1
  Sb  Sb84  1  0.49932641  0.66155792  0.15999532  1
  Sb  Sb85  1  -0.00061864  0.16771122  0.83108264  1
  Sb  Sb86  1  0.33651046  0.82801406  0.50181350  1
  Sb  Sb87  1  0.83500720  0.17522757  0.33594965  1
  Sb  Sb88  1  0.50211775  0.50145833  0.67462950  1
  Sb  Sb89  1  0.83004324  0.50361499  0.66207432  1
  Sb  Sb90  1  0.33918417  0.33608667  0.67055002  1
  Sb  Sb91  1  0.00069097  0.66095684  0.33289373  1
  Sb  Sb92  1  0.83251260  0.82914893  0.33864176  1
  Sb  Sb93  1  0.66588227  0.82763966  0.82554473  1
  Sb  Sb94  1  0.32691242  0.34140333  -0.00254666  1
  Sb  Sb95  1  0.83200718  0.49834077  0.00357218  1
  Sb  Sb96  1  0.50326796  0.00054365  0.50426162  1
  Sb  Sb97  1  0.66997845  0.33870490  -0.00367926  1
  Sb  Sb98  1  0.17042311  0.50285230  0.66631196  1
  Sb  Sb99  1  0.66624356  -0.00383303  -0.00269098  1
  Sb  Sb100  1  0.50048776  0.49889233  0.32699623  1
  Sb  Sb101  1  0.83186524  0.83106622  -0.00488728  1
  Sb  Sb102  1  -0.00388771  0.67030856  0.66484659  1
  Sb  Sb103  1  0.33106325  0.17268127  0.15870792  1
  Sb  Sb104  1  0.49939925  0.82810727  -0.00514433  1
  Sb  Sb105  1  0.50952681  0.33586947  0.50514712  1
  Sb  Sb106  1  0.67399428  0.00758478  0.33507065  1
  Sb  Sb107  1  0.16997590  0.16239187  0.67211084  1
  Te  Te108  1  0.16308685  0.17229101  0.16137201  1
  Te  Te109  1  0.16502257  0.16293913  0.49856162  1
  Te  Te110  1  0.16611103  0.16739591  0.83621668  1
  Te  Te111  1  0.16484428  0.49846676  0.16807860  1
  Te  Te112  1  0.17343808  0.50026860  0.49793565  1
  Te  Te113  1  0.16802876  0.49656340  0.83393591  1
  Te  Te114  1  0.17132343  0.83194093  0.16715663  1
  Te  Te115  1  0.16767337  0.83802513  0.50459687  1
  Te  Te116  1  0.16696293  0.83681741  0.82867977  1
  Te  Te117  1  0.50081109  0.16759834  0.16468086  1
  Te  Te118  1  0.50254280  0.16789634  0.50657305  1
  Te  Te119  1  0.49981467  0.16645732  0.83301553  1
  Te  Te120  1  0.50390975  0.49742064  0.16124599  1
  Te  Te121  1  0.49738857  0.49949511  0.49830343  1
  Te  Te122  1  0.50092821  0.49804979  0.83600496  1
  Te  Te123  1  0.49691614  0.83785234  0.16705941  1
  Te  Te124  1  0.50722414  0.83323601  0.50634502  1
  Te  Te125  1  0.50031094  0.84416389  0.82849962  1
  Te  Te126  1  0.83633507  0.16427075  0.16589666  1
  Te  Te127  1  0.83314439  0.16500840  0.50080070  1
  Te  Te128  1  0.82973383  0.16811079  0.83283926  1
  Te  Te129  1  0.83363595  0.49797490  0.16853095  1
  Te  Te130  1  0.83061010  0.49842115  0.49874278  1
  Te  Te131  1  0.82963971  0.49819625  0.83442950  1
  Te  Te132  1  0.83195796  0.83788584  0.16637732  1
  Te  Te133  1  0.82983078  0.83495661  0.50396371  1
  Te  Te134  1  0.83241581  0.84128265  0.82796685  1
  Te  Te135  1  0.16630360  -0.00082134  -0.00731513  1
  Te  Te136  1  0.16138132  0.00005771  0.33533571  1
  Te  Te137  1  0.16800407  0.00047853  0.66890341  1
  Te  Te138  1  0.16562962  0.33594024  -0.00097487  1
  Te  Te139  1  0.16251641  0.33927542  0.33265544  1
  Te  Te140  1  0.16633618  0.33280375  0.67174314  1
  Te  Te141  1  0.16820138  0.66263599  0.00489506  1
  Te  Te142  1  0.16939332  0.66213404  0.32911646  1
  Te  Te143  1  0.16676706  0.67351363  0.66776837  1
  Te  Te144  1  0.50003633  -0.00093879  0.00044438  1
  Te  Te145  1  0.49942663  0.00083676  0.32722733  1
  Te  Te146  1  0.49934308  -0.00129410  0.66836807  1
  Te  Te147  1  0.50136555  0.33899180  -0.00036473  1
  Te  Te148  1  0.50250801  0.33268920  0.32673270  1
  Te  Te149  1  0.50616051  0.32844971  0.67234021  1
  Te  Te150  1  0.50026086  0.66258381  -0.00590321  1
  Te  Te151  1  0.49229341  0.66683207  0.33487157  1
  Te  Te152  1  0.50195722  0.66942241  0.67292587  1
  Te  Te153  1  0.83382257  -0.00058429  0.00195051  1
  Te  Te154  1  0.83773020  -0.00256771  0.33414630  1
  Te  Te155  1  0.83308864  -0.00404741  0.66471112  1
  Te  Te156  1  0.84050598  0.33339799  -0.00233887  1
  Te  Te157  1  0.83379305  0.33774054  0.33351596  1
  Te  Te158  1  0.82802866  0.33322554  0.67125631  1
  Te  Te159  1  0.83160472  0.66574065  0.00041406  1
  Te  Te160  1  0.83290391  0.66138810  0.33284038  1
  Te  Te161  1  0.83155483  0.67128191  0.66679202  1
  Te  Te162  1  0.00458791  0.17344547  0.00299157  1
  Te  Te163  1  0.00013091  0.16872068  0.33411906  1
  Te  Te164  1  0.00155428  0.16012529  0.65969208  1
  Te  Te165  1  0.00830034  0.49291488  -0.00380118  1
  Te  Te166  1  -0.00036972  0.49689305  0.33799536  1
  Te  Te167  1  0.00152589  0.50024687  0.65718560  1
  Te  Te168  1  0.00115373  0.83243755  0.00022477  1
  Te  Te169  1  0.00046540  0.84249746  0.33360332  1
  Te  Te170  1  0.00401370  0.83961840  0.66587262  1
  Te  Te171  1  0.32686880  0.16285003  -0.00895342  1
  Te  Te172  1  0.33278193  0.16570288  0.33476159  1
  Te  Te173  1  0.33930406  0.16397283  0.67245415  1
  Te  Te174  1  0.33303926  0.50333420  0.00048020  1
  Te  Te175  1  0.33165427  0.50320792  0.33041505  1
  Te  Te176  1  0.33562060  0.50503158  0.66607034  1
  Te  Te177  1  0.33376659  0.82476426  0.00787872  1
  Te  Te178  1  0.33302165  0.82643236  0.32899657  1
  Te  Te179  1  0.33509056  0.83203749  0.66598064  1
  Te  Te180  1  0.66480527  0.16440608  -0.00712200  1
  Te  Te181  1  0.66588680  0.17634827  0.33724144  1
  Te  Te182  1  0.66346339  0.16766019  0.66888260  1
  Te  Te183  1  0.66648021  0.50356660  0.00062087  1
  Te  Te184  1  0.66823419  0.49488552  0.33217929  1
  Te  Te185  1  0.66653397  0.50081931  0.66747204  1
  Te  Te186  1  0.66601401  0.82098519  0.00299931  1
  Te  Te187  1  0.66567296  0.83473543  0.34395021  1
  Te  Te188  1  0.66666170  0.82960517  0.66270617  1
  Te  Te189  1  -0.00337687  0.00623561  0.16536920  1
  Te  Te190  1  -0.00183608  0.00055179  0.50153366  1
  Te  Te191  1  -0.00636807  0.00199958  0.82966956  1
  Te  Te192  1  -0.00094868  0.33119570  0.16879339  1
  Te  Te193  1  -0.00548794  0.33101933  0.49785301  1
  Te  Te194  1  0.00149914  0.33298063  0.83139169  1
  Te  Te195  1  -0.00825016  0.67032279  0.16719707  1
  Te  Te196  1  -0.00655272  0.66120376  0.49855093  1
  Te  Te197  1  -0.01067043  0.66615760  0.83386863  1
  Te  Te198  1  0.33659700  0.00363592  0.16775023  1
  Te  Te199  1  0.33335528  -0.00031487  0.50540217  1
  Te  Te200  1  0.33404880  -0.00286786  0.82939772  1
  Te  Te201  1  0.33605325  0.33817054  0.16650092  1
  Te  Te202  1  0.33303978  0.33935886  0.50139005  1
  Te  Te203  1  0.33368878  0.33525617  0.83214483  1
  Te  Te204  1  0.33617606  0.66083238  0.16378291  1
  Te  Te205  1  0.33284287  0.66310303  0.50796371  1
  Te  Te206  1  0.33405058  0.66323992  0.83177484  1
  Te  Te207  1  0.66800643  0.00077890  0.16619421  1
  Te  Te208  1  0.67143816  0.00920281  0.49830689  1
  Te  Te209  1  0.66755356  0.00106079  0.83493886  1
  Te  Te210  1  0.67064622  0.33650248  0.16375095  1
  Te  Te211  1  0.67025916  0.33492232  0.50293474  1
  Te  Te212  1  0.66600000  0.33613109  0.83349302  1
  Te  Te213  1  0.66964096  0.66241091  0.17002744  1
  Te  Te214  1  0.67075805  0.66092849  0.50305007  1
  Te  Te215  1  0.66662435  0.66532151  0.83055882  1
