# generated using pymatgen
data_AgSbTe2
_symmetry_space_group_name_H-M   'P 1'
_cell_length_a   18.33033968
_cell_length_b   18.33728102
_cell_length_c   18.33281118
_cell_angle_alpha   89.99753285
_cell_angle_beta   90.00164556
_cell_angle_gamma   89.99825638
_symmetry_Int_Tables_number   1
_chemical_formula_structural   AgSbTe2
_chemical_formula_sum   'Ag54 Sb54 Te108'
_cell_volume   6162.18196277
_cell_formula_units_Z   54
loop_
 _symmetry_equiv_pos_site_id
 _symmetry_equiv_pos_as_xyz
  1  'x, y, z'
loop_
 _atom_site_type_symbol
 _atom_site_label
 _atom_site_symmetry_multiplicity
 _atom_site_fract_x
 _atom_site_fract_y
 _atom_site_fract_z
 _atom_site_occupancy
  Ag  Ag0  1  0.17069055  0.83866836  0.33678286  1
  Ag  Ag1  1  0.50048002  0.84233146  0.33411248  1
  Ag  Ag2  1  0.50378052  0.00225844  0.49210006  1
  Ag  Ag3  1  0.50595728  0.17087450  0.65358147  1
  Ag  Ag4  1  0.65536633  0.00193205  0.33874878  1
  Ag  Ag5  1  0.00006306  0.32073899  0.34302214  1
  Ag  Ag6  1  0.66593505  0.49899228  0.16733084  1
  Ag  Ag7  1  0.82374490  0.49608014  0.66577506  1
  Ag  Ag8  1  0.66141584  0.16422960  0.49543886  1
  Ag  Ag9  1  0.50204275  0.49969790  0.66267210  1
  Ag  Ag10  1  0.82890958  0.16647772  0.33841685  1
  Ag  Ag11  1  0.34307267  -0.00109204  0.33591504  1
  Ag  Ag12  1  0.16784149  0.49947121  -0.00544580  1
  Ag  Ag13  1  0.50147143  0.16317020  0.00454061  1
  Ag  Ag14  1  0.50215153  0.82872431  0.00368526  1
  Ag  Ag15  1  0.17177448  0.66495321  0.83036125  1
  Ag  Ag16  1  0.50393428  0.67229366  0.17154680  1
  Ag  Ag17  1  0.65877667  0.66528806  -0.00452843  1
  Ag  Ag18  1  0.17023206  0.00123051  0.17609751  1
  Ag  Ag19  1  0.66374847  -0.00077572  0.65701429  1
  Ag  Ag20  1  0.51027124  0.15491186  0.33818199  1
  Ag  Ag21  1  -0.00750279  0.16640592  0.17787084  1
  Ag  Ag22  1  0.00344592  0.00321531  0.33592751  1
  Ag  Ag23  1  0.34247218  0.50428645  0.50908294  1
  Ag  Ag24  1  0.82535138  0.17345964  0.65747926  1
  Ag  Ag25  1  0.33075912  0.82351024  0.83345347  1
  Ag  Ag26  1  0.34031739  0.66027218  0.67009993  1
  Ag  Ag27  1  0.33497280  0.34296442  0.66673476  1
  Ag  Ag28  1  0.66585543  0.16817099  0.17712632  1
  Ag  Ag29  1  0.16629483  0.34814483  0.83288581  1
  Ag  Ag30  1  0.65858528  0.50286330  0.50545025  1
  Ag  Ag31  1  0.83056733  0.33030149  0.16777740  1
  Ag  Ag32  1  0.49955592  -0.00093856  0.17857149  1
  Ag  Ag33  1  0.66446122  0.34092413  0.00240654  1
  Ag  Ag34  1  0.50486024  0.66450778  0.49772538  1
  Ag  Ag35  1  0.16995003  -0.00238790  0.49115123  1
  Ag  Ag36  1  0.16708520  -0.00504234  0.83258045  1
  Ag  Ag37  1  0.66137991  0.83287181  0.50017753  1
  Ag  Ag38  1  0.66458135  0.50746907  0.82466521  1
  Ag  Ag39  1  0.00177565  0.33652831  0.66177869  1
  Ag  Ag40  1  0.34034305  0.66644059  -0.01237178  1
  Ag  Ag41  1  0.00077893  0.49541048  0.50493168  1
  Ag  Ag42  1  0.32815184  0.50529969  0.82623818  1
  Ag  Ag43  1  0.81948874  0.83109228  -0.00191626  1
  Ag  Ag44  1  0.66371495  0.82650178  0.83224461  1
  Ag  Ag45  1  -0.00194199  0.66822220  0.33661262  1
  Ag  Ag46  1  0.66116419  0.66028680  0.66234012  1
  Ag  Ag47  1  0.00973929  0.82660948  0.83339747  1
  Ag  Ag48  1  0.17132579  0.66639269  0.50265386  1
  Ag  Ag49  1  0.66146202  0.67127558  0.34197618  1
  Ag  Ag50  1  0.17004365  0.16711096  -0.00049692  1
  Ag  Ag51  1  0.50149264  0.33268867  0.50250717  1
  Ag  Ag52  1  -0.00435391  0.17254493  0.49507029  1
  Ag  Ag53  1  0.01180302  0.50263298  0.82492397  1
  Sb  Sb54  1  0.66324854  -0.00233114  0.00222725  1
  Sb  Sb55  1  0.66342717  0.83340116  0.16797543  1
  Sb  Sb56  1  0.33819564  -0.00107856  0.66297508  1
  Sb  Sb57  1  0.16666947  0.33540783  0.50461860  1
  Sb  Sb58  1  0.00298782  0.16897044  0.82998508  1
  Sb  Sb59  1  -0.00241707  0.83250636  0.50198898  1
  Sb  Sb60  1  0.00080774  0.66689877  0.00100765  1
  Sb  Sb61  1  0.16494713  0.50538639  0.33257700  1
  Sb  Sb62  1  -0.00335228  0.00463979  0.66130504  1
  Sb  Sb63  1  0.83168620  0.49481286  0.33897422  1
  Sb  Sb64  1  0.33811954  0.67087874  0.33790411  1
  Sb  Sb65  1  0.83275210  0.66607583  0.83277137  1
  Sb  Sb66  1  0.33401695  -0.00441104  0.00185694  1
  Sb  Sb67  1  0.17138388  0.67051869  0.16716320  1
  Sb  Sb68  1  0.82931629  0.83755884  0.33042545  1
  Sb  Sb69  1  0.66524534  0.16671439  0.83029162  1
  Sb  Sb70  1  0.33226353  0.16728484  0.83268563  1
  Sb  Sb71  1  0.66967189  0.32929147  0.33258015  1
  Sb  Sb72  1  0.16746059  0.83196119  0.66428428  1
  Sb  Sb73  1  0.16053962  0.32653890  0.16212721  1
  Sb  Sb74  1  0.49767700  -0.00252855  0.83089526  1
  Sb  Sb75  1  0.82942909  0.33184596  0.49842819  1
  Sb  Sb76  1  0.00303109  0.00087607  0.00311886  1
  Sb  Sb77  1  0.00008986  0.65938202  0.66352505  1
  Sb  Sb78  1  0.83610719  -0.00157798  0.83227150  1
  Sb  Sb79  1  0.50554719  0.33089018  0.17167153  1
  Sb  Sb80  1  0.83127093  0.50261983  -0.00495000  1
  Sb  Sb81  1  0.82423022  0.66110431  0.16847997  1
  Sb  Sb82  1  0.00070630  0.83835733  0.16559666  1
  Sb  Sb83  1  0.16323632  0.15894282  0.33079925  1
  Sb  Sb84  1  0.83074837  0.16525353  0.00204353  1
  Sb  Sb85  1  0.33727104  0.16803095  0.50043346  1
  Sb  Sb86  1  0.49768272  0.33472954  0.82741384  1
  Sb  Sb87  1  0.83493238  0.33536747  0.83340888  1
  Sb  Sb88  1  0.66515630  0.33611077  0.66749935  1
  Sb  Sb89  1  0.33748954  0.16526813  0.16792697  1
  Sb  Sb90  1  0.33686802  0.33760234  -0.00651422  1
  Sb  Sb91  1  0.16804783  0.16745816  0.66777877  1
  Sb  Sb92  1  0.50331878  0.50087621  0.34097327  1
  Sb  Sb93  1  -0.00227135  0.33386716  -0.00195381  1
  Sb  Sb94  1  0.82841231  0.83227082  0.66947572  1
  Sb  Sb95  1  0.50093022  0.50404136  -0.00545355  1
  Sb  Sb96  1  0.17182092  0.49995619  0.67067697  1
  Sb  Sb97  1  0.82938480  0.00444444  0.16923017  1
  Sb  Sb98  1  0.33627551  0.83405786  0.16542318  1
  Sb  Sb99  1  0.82778973  0.66391646  0.49996536  1
  Sb  Sb100  1  0.49711378  0.66720388  0.82928719  1
  Sb  Sb101  1  0.82606681  0.00334984  0.49837863  1
  Sb  Sb102  1  0.33073202  0.32862819  0.34107760  1
  Sb  Sb103  1  0.33902799  0.82901558  0.50285700  1
  Sb  Sb104  1  0.17095123  0.83325321  -0.00121527  1
  Sb  Sb105  1  0.34008695  0.50283588  0.16488480  1
  Sb  Sb106  1  -0.00424748  0.49583213  0.16859439  1
  Sb  Sb107  1  0.50286978  0.83055042  0.66404390  1
  Te  Te108  1  0.16583414  0.16133281  0.16106434  1
  Te  Te109  1  0.16454719  0.16390122  0.50018202  1
  Te  Te110  1  0.16633846  0.15889509  0.83773583  1
  Te  Te111  1  0.16627593  0.50063925  0.15916548  1
  Te  Te112  1  0.16042635  0.50299827  0.49746450  1
  Te  Te113  1  0.16830483  0.50450468  0.83462807  1
  Te  Te114  1  0.16721364  0.83998485  0.17206214  1
  Te  Te115  1  0.16613979  0.83339443  0.49717197  1
  Te  Te116  1  0.16825011  0.83050324  0.83337332  1
  Te  Te117  1  0.50383994  0.16499754  0.16578279  1
  Te  Te118  1  0.49963995  0.16415159  0.49767001  1
  Te  Te119  1  0.49911235  0.16637073  0.84278547  1
  Te  Te120  1  0.50660602  0.50194494  0.16667825  1
  Te  Te121  1  0.50053514  0.50251489  0.50229558  1
  Te  Te122  1  0.50343453  0.49921046  0.82664058  1
  Te  Te123  1  0.50042089  0.83427446  0.16805116  1
  Te  Te124  1  0.50311434  0.83400073  0.49749896  1
  Te  Te125  1  0.50337874  0.83419974  0.83758451  1
  Te  Te126  1  0.83123074  0.16926002  0.16671512  1
  Te  Te127  1  0.83457878  0.16757436  0.49912015  1
  Te  Te128  1  0.83473969  0.16678792  0.82765309  1
  Te  Te129  1  0.82724182  0.49355160  0.16549931  1
  Te  Te130  1  0.83869289  0.49814319  0.50597642  1
  Te  Te131  1  0.82829686  0.49949221  0.82772474  1
  Te  Te132  1  0.83411088  0.83278553  0.15908342  1
  Te  Te133  1  0.82340074  0.83291803  0.50032651  1
  Te  Te134  1  0.82757755  0.83306894  0.83706946  1
  Te  Te135  1  0.16824436  0.00279164  -0.00291469  1
  Te  Te136  1  0.16233509  -0.00164474  0.33389657  1
  Te  Te137  1  0.16758818  0.00003466  0.66836676  1
  Te  Te138  1  0.16763891  0.33245073  -0.00588421  1
  Te  Te139  1  0.16075446  0.33368475  0.33248385  1
  Te  Te140  1  0.16649494  0.33114870  0.67236247  1
  Te  Te141  1  0.16880050  0.66539647  -0.00171778  1
  Te  Te142  1  0.16762755  0.67320186  0.33445640  1
  Te  Te143  1  0.16869635  0.66726062  0.66482456  1
  Te  Te144  1  0.49855333  0.00062367  0.00187451  1
  Te  Te145  1  0.50015448  -0.00112282  0.33433630  1
  Te  Te146  1  0.50381938  0.00441272  0.66313469  1
  Te  Te147  1  0.50370604  0.33137125  0.00183361  1
  Te  Te148  1  0.49815420  0.32873254  0.34022029  1
  Te  Te149  1  0.49854139  0.33225342  0.66273747  1
  Te  Te150  1  0.50033005  0.66715960  0.00173331  1
  Te  Te151  1  0.50257153  0.66677734  0.33453310  1
  Te  Te152  1  0.50070367  0.66532003  0.66124118  1
  Te  Te153  1  0.83395483  -0.00737440  0.00067340  1
  Te  Te154  1  0.84204069  0.00503261  0.33251280  1
  Te  Te155  1  0.82580978  0.00573642  0.66622691  1
  Te  Te156  1  0.82696588  0.33311435  0.00458194  1
  Te  Te157  1  0.83912514  0.32785656  0.32990400  1
  Te  Te158  1  0.83827584  0.33365161  0.66715030  1
  Te  Te159  1  0.82865954  0.67096092  0.00157139  1
  Te  Te160  1  0.83409623  0.66810180  0.33265477  1
  Te  Te161  1  0.82580203  0.66071969  0.66627169  1
  Te  Te162  1  0.00142427  0.16779091  0.00312366  1
  Te  Te163  1  0.00206209  0.16518528  0.33434315  1
  Te  Te164  1  -0.00163242  0.17168457  0.66127018  1
  Te  Te165  1  0.00280241  0.50033095  -0.00354545  1
  Te  Te166  1  -0.00145818  0.50659297  0.33609832  1
  Te  Te167  1  -0.00028875  0.49774589  0.66682210  1
  Te  Te168  1  0.00132792  0.83259058  -0.00665969  1
  Te  Te169  1  -0.00150415  0.83230479  0.33388974  1
  Te  Te170  1  -0.00395306  0.83249847  0.67448429  1
  Te  Te171  1  0.33367728  0.16826246  0.00031646  1
  Te  Te172  1  0.33955183  0.16072015  0.33384345  1
  Te  Te173  1  0.34184751  0.16978102  0.66706174  1
  Te  Te174  1  0.33092513  0.50442865  -0.00316829  1
  Te  Te175  1  0.33191607  0.49880231  0.33835364  1
  Te  Te176  1  0.33507594  0.50072069  0.66637063  1
  Te  Te177  1  0.33850317  0.82830804  -0.00521071  1
  Te  Te178  1  0.33501010  0.83782483  0.33475587  1
  Te  Te179  1  0.33490472  0.82863480  0.67383831  1
  Te  Te180  1  0.66486629  0.16621191  -0.00054860  1
  Te  Te181  1  0.66898164  0.16711469  0.33515894  1
  Te  Te182  1  0.66550032  0.16945020  0.66486412  1
  Te  Te183  1  0.66725389  0.50303696  0.00081645  1
  Te  Te184  1  0.66870719  0.50407767  0.33434185  1
  Te  Te185  1  0.66449142  0.49859772  0.66530826  1
  Te  Te186  1  0.66141578  0.83148119  0.00010761  1
  Te  Te187  1  0.66479015  0.83365317  0.33512439  1
  Te  Te188  1  0.66631298  0.83365503  0.66670953  1
  Te  Te189  1  0.00228570  0.00499353  0.17062853  1
  Te  Te190  1  0.00512734  -0.00013430  0.49811892  1
  Te  Te191  1  0.00470582  -0.00306548  0.83098307  1
  Te  Te192  1  -0.00543511  0.32860432  0.16832999  1
  Te  Te193  1  0.00152430  0.33317020  0.50062240  1
  Te  Te194  1  0.00432890  0.33741159  0.83035765  1
  Te  Te195  1  0.00078416  0.66602444  0.17318679  1
  Te  Te196  1  0.00366240  0.66637113  0.49756245  1
  Te  Te197  1  0.00450503  0.66456488  0.83282994  1
  Te  Te198  1  0.33422284  -0.00062913  0.17172706  1
  Te  Te199  1  0.33067190  -0.00243347  0.49777810  1
  Te  Te200  1  0.32869191  -0.00375793  0.83183966  1
  Te  Te201  1  0.33125164  0.33510864  0.16751105  1
  Te  Te202  1  0.33523357  0.33969882  0.50570886  1
  Te  Te203  1  0.32836257  0.33834565  0.82800134  1
  Te  Te204  1  0.34099880  0.66675851  0.16297677  1
  Te  Te205  1  0.33148373  0.66430531  0.50270034  1
  Te  Te206  1  0.33298686  0.66515135  0.83108712  1
  Te  Te207  1  0.66234711  0.00469060  0.17156942  1
  Te  Te208  1  0.66418796  0.00347612  0.49815333  1
  Te  Te209  1  0.66699914  -0.00383639  0.82993727  1
  Te  Te210  1  0.66860082  0.33212299  0.16552831  1
  Te  Te211  1  0.66193398  0.33482421  0.49977961  1
  Te  Te212  1  0.66635798  0.33653373  0.84011500  1
  Te  Te213  1  0.66217512  0.66509483  0.16608409  1
  Te  Te214  1  0.66536549  0.66391940  0.50092959  1
  Te  Te215  1  0.66700754  0.66679672  0.83381170  1
