# generated using pymatgen
data_AgSbTe2
_symmetry_space_group_name_H-M   'P 1'
_cell_length_a   18.33663925
_cell_length_b   18.33152184
_cell_length_c   18.33696358
_cell_angle_alpha   89.99999882
_cell_angle_beta   90.00232671
_cell_angle_gamma   90.00005493
_symmetry_Int_Tables_number   1
_chemical_formula_structural   AgSbTe2
_chemical_formula_sum   'Ag54 Sb54 Te108'
_cell_volume   6163.75947970
_cell_formula_units_Z   54
loop_
 _symmetry_equiv_pos_site_id
 _symmetry_equiv_pos_as_xyz
  1  'x, y, z'
loop_
 _atom_site_type_symbol
 _atom_site_label
 _atom_site_symmetry_multiplicity
 _atom_site_fract_x
 _atom_site_fract_y
 _atom_site_fract_z
 _atom_site_occupancy
  Ag  Ag0  1  0.00803227  0.17355112  0.51137248  1
  Ag  Ag1  1  0.49847658  0.33326272  0.83235727  1
  Ag  Ag2  1  0.17306012  0.66721913  0.16643292  1
  Ag  Ag3  1  0.33764017  0.50208511  0.83409931  1
  Ag  Ag4  1  -0.00586296  0.16369590  0.83106622  1
  Ag  Ag5  1  0.82915577  0.15692352  -0.00629243  1
  Ag  Ag6  1  0.16577403  0.83004906  0.33741616  1
  Ag  Ag7  1  0.83603678  0.83235223  -0.00445658  1
  Ag  Ag8  1  0.65425571  0.66710548  0.32715047  1
  Ag  Ag9  1  0.34057396  -0.00826396  0.66735930  1
  Ag  Ag10  1  0.66690049  0.16196671  0.83466852  1
  Ag  Ag11  1  0.84494970  0.33156441  0.51126060  1
  Ag  Ag12  1  0.83255298  -0.01124298  0.15128579  1
  Ag  Ag13  1  0.32891039  0.16321670  0.50096102  1
  Ag  Ag14  1  0.83451041  0.83304511  0.67823887  1
  Ag  Ag15  1  0.00766778  0.50600650  0.16940033  1
  Ag  Ag16  1  0.16412890  0.33875894  0.50873828  1
  Ag  Ag17  1  0.65246452  -0.00135333  0.67579091  1
  Ag  Ag18  1  0.33361902  0.33972135  -0.00497302  1
  Ag  Ag19  1  0.67123309  -0.00514972  -0.00865207  1
  Ag  Ag20  1  0.00200109  0.33394688  0.66787350  1
  Ag  Ag21  1  0.83919096  0.83079652  0.33193891  1
  Ag  Ag22  1  0.16815972  0.00043133  0.83214443  1
  Ag  Ag23  1  0.16816791  0.33038720  0.82745959  1
  Ag  Ag24  1  0.83401215  0.67071100  0.15545863  1
  Ag  Ag25  1  0.49003868  0.66518936  0.16373060  1
  Ag  Ag26  1  0.16427662  0.82885643  -0.01242717  1
  Ag  Ag27  1  0.33192600  0.82630611  0.50537735  1
  Ag  Ag28  1  0.83436165  0.32898777  0.83112360  1
  Ag  Ag29  1  0.17508772  0.82841583  0.66876747  1
  Ag  Ag30  1  -0.00116632  0.83514439  0.83315303  1
  Ag  Ag31  1  0.33676162  0.66562464  0.33564903  1
  Ag  Ag32  1  0.49188849  0.83700442  0.66724577  1
  Ag  Ag33  1  0.82596091  -0.00179397  0.83493979  1
  Ag  Ag34  1  0.33615406  0.67033989  0.66540227  1
  Ag  Ag35  1  0.33569450  0.66515116  -0.00030303  1
  Ag  Ag36  1  0.82814181  0.67808149  0.83761190  1
  Ag  Ag37  1  0.00390631  0.49631612  0.50103598  1
  Ag  Ag38  1  0.17227000  0.66638397  0.50051718  1
  Ag  Ag39  1  0.49648628  -0.00791835  0.51243083  1
  Ag  Ag40  1  0.33234205  0.16763150  0.16640616  1
  Ag  Ag41  1  0.49898173  0.66453065  0.83024007  1
  Ag  Ag42  1  0.65706840  0.50098075  0.83230756  1
  Ag  Ag43  1  0.66743956  0.67135780  -0.00272746  1
  Ag  Ag44  1  -0.00367814  0.66861296  -0.00098441  1
  Ag  Ag45  1  0.49776013  0.15178874  0.67187157  1
  Ag  Ag46  1  0.50119834  0.16409553  -0.01278897  1
  Ag  Ag47  1  0.49190742  0.50625895  0.67066824  1
  Ag  Ag48  1  0.50736283  0.00499246  0.82421765  1
  Ag  Ag49  1  0.33185808  0.50969132  0.16145807  1
  Ag  Ag50  1  0.16932910  0.16272817  0.33964462  1
  Ag  Ag51  1  0.49724567  0.50714855  0.33925214  1
  Ag  Ag52  1  0.49062333  0.66894190  0.50986142  1
  Ag  Ag53  1  0.17137320  0.50613241  0.66595865  1
  Sb  Sb54  1  0.66255799  0.33436940  -0.00551250  1
  Sb  Sb55  1  0.00397891  0.17146931  0.16226901  1
  Sb  Sb56  1  0.49711537  0.50199745  -0.00719660  1
  Sb  Sb57  1  0.66742315  0.50298576  0.50648280  1
  Sb  Sb58  1  0.66461785  0.16577456  0.50733438  1
  Sb  Sb59  1  0.16948437  0.50654585  -0.00538700  1
  Sb  Sb60  1  0.32976663  0.82797354  0.82677947  1
  Sb  Sb61  1  0.66621722  0.33931357  0.33662158  1
  Sb  Sb62  1  0.00548096  0.83224777  0.50639156  1
  Sb  Sb63  1  0.49694016  0.82486600  0.33997801  1
  Sb  Sb64  1  0.82995754  0.50703509  0.33325187  1
  Sb  Sb65  1  0.83096774  0.16275385  0.67542755  1
  Sb  Sb66  1  0.65858905  0.67250806  0.67338675  1
  Sb  Sb67  1  0.16366230  -0.00598322  0.16091530  1
  Sb  Sb68  1  0.82936929  0.00188665  0.50756263  1
  Sb  Sb69  1  -0.00152863  0.82727178  0.15912976  1
  Sb  Sb70  1  0.66857969  0.33058013  0.67103174  1
  Sb  Sb71  1  0.50205332  -0.00424998  0.16227718  1
  Sb  Sb72  1  0.66148746  0.83156320  0.50273691  1
  Sb  Sb73  1  0.33380860  -0.00526458  0.33904994  1
  Sb  Sb74  1  0.83526721  0.66586388  0.50254622  1
  Sb  Sb75  1  0.66216683  0.50589481  0.16058239  1
  Sb  Sb76  1  0.00210620  0.50150560  0.83102524  1
  Sb  Sb77  1  0.83433731  0.50703723  -0.00337655  1
  Sb  Sb78  1  0.33750830  -0.00331229  -0.00863764  1
  Sb  Sb79  1  0.16945558  0.66729274  0.83281565  1
  Sb  Sb80  1  0.67251413  0.83709305  0.83260342  1
  Sb  Sb81  1  0.00087772  -0.00161619  0.33451972  1
  Sb  Sb82  1  0.83574056  0.33645165  0.15880879  1
  Sb  Sb83  1  0.33816950  0.17020156  0.83153137  1
  Sb  Sb84  1  0.49493971  0.33581366  0.50890317  1
  Sb  Sb85  1  0.83418049  0.50347464  0.66945870  1
  Sb  Sb86  1  0.00238858  0.00230199  0.67035734  1
  Sb  Sb87  1  0.66674326  -0.00653470  0.33359170  1
  Sb  Sb88  1  0.16906034  0.16273520  -0.00249411  1
  Sb  Sb89  1  0.83800882  0.16217005  0.33088317  1
  Sb  Sb90  1  0.49573851  0.33943604  0.15812855  1
  Sb  Sb91  1  0.00384607  0.33781263  -0.00862540  1
  Sb  Sb92  1  0.16848037  0.33905491  0.16517329  1
  Sb  Sb93  1  0.17092348  0.16637877  0.66536042  1
  Sb  Sb94  1  0.00394917  0.66732543  0.32833925  1
  Sb  Sb95  1  0.00228529  0.33425354  0.34335296  1
  Sb  Sb96  1  0.17238377  -0.00217059  0.50721727  1
  Sb  Sb97  1  0.00500246  0.66481616  0.67122463  1
  Sb  Sb98  1  0.66883281  0.83018522  0.16563544  1
  Sb  Sb99  1  0.66153119  0.16508135  0.15680519  1
  Sb  Sb100  1  0.33150761  0.82899791  0.17016122  1
  Sb  Sb101  1  0.32988402  0.50425924  0.50450460  1
  Sb  Sb102  1  -0.00737606  -0.00634889  -0.00471005  1
  Sb  Sb103  1  0.49445794  0.17055438  0.33669847  1
  Sb  Sb104  1  0.17083376  0.50414527  0.33774843  1
  Sb  Sb105  1  0.50020919  0.83200170  -0.00982861  1
  Sb  Sb106  1  0.33211586  0.33869120  0.33241024  1
  Sb  Sb107  1  0.32979788  0.33591233  0.67150586  1
  Te  Te108  1  0.17030280  0.16596960  0.16909111  1
  Te  Te109  1  0.16666262  0.16387780  0.49921974  1
  Te  Te110  1  0.16325636  0.16690195  0.83277273  1
  Te  Te111  1  0.16967415  0.50577074  0.16848145  1
  Te  Te112  1  0.16427166  0.49991172  0.50315691  1
  Te  Te113  1  0.16924887  0.49596483  0.82788734  1
  Te  Te114  1  0.16472883  0.82822392  0.17301152  1
  Te  Te115  1  0.16963828  0.83088071  0.50281173  1
  Te  Te116  1  0.16380574  0.83296174  0.83007326  1
  Te  Te117  1  0.49377091  0.16664617  0.16729982  1
  Te  Te118  1  0.49644105  0.16832569  0.50412910  1
  Te  Te119  1  0.49869648  0.16594433  0.83094077  1
  Te  Te120  1  0.49522748  0.50580201  0.16788791  1
  Te  Te121  1  0.50003740  0.50349607  0.50324899  1
  Te  Te122  1  0.49799356  0.50170808  0.83256312  1
  Te  Te123  1  0.49977260  0.82614824  0.16726845  1
  Te  Te124  1  0.49511204  0.83006058  0.50477048  1
  Te  Te125  1  0.49842451  0.83165938  0.82753557  1
  Te  Te126  1  0.83405499  0.16647020  0.16147692  1
  Te  Te127  1  0.83541436  0.17044342  0.49861806  1
  Te  Te128  1  0.83271680  0.16609956  0.83441270  1
  Te  Te129  1  0.83474989  0.50603612  0.16686208  1
  Te  Te130  1  0.83850445  0.49498974  0.50096503  1
  Te  Te131  1  0.83324406  0.49313760  0.83216587  1
  Te  Te132  1  0.83468668  0.83099869  0.16508260  1
  Te  Te133  1  0.83647486  0.83425824  0.49751097  1
  Te  Te134  1  0.83625148  0.83527172  0.83572589  1
  Te  Te135  1  0.16753754  -0.00804111  -0.00574948  1
  Te  Te136  1  0.16771044  -0.00228283  0.33057117  1
  Te  Te137  1  0.16974185  -0.00490334  0.67261692  1
  Te  Te138  1  0.17271303  0.33222457  -0.00437614  1
  Te  Te139  1  0.16786104  0.32796652  0.33622224  1
  Te  Te140  1  0.16462725  0.33190439  0.66721046  1
  Te  Te141  1  0.17073434  0.66987965  0.00026781  1
  Te  Te142  1  0.17012596  0.66825997  0.33511750  1
  Te  Te143  1  0.16964533  0.66710876  0.66574068  1
  Te  Te144  1  0.50547199  0.00231795  -0.00199752  1
  Te  Te145  1  0.50155068  -0.00044471  0.33452143  1
  Te  Te146  1  0.49714817  -0.00347109  0.66781316  1
  Te  Te147  1  0.49560484  0.32670144  -0.00676026  1
  Te  Te148  1  0.50038489  0.34231318  0.33551779  1
  Te  Te149  1  0.50029663  0.34316871  0.67216365  1
  Te  Te150  1  0.49872248  0.66829640  -0.00233222  1
  Te  Te151  1  0.49749055  0.66596627  0.33203644  1
  Te  Te152  1  0.49856339  0.66666913  0.66842828  1
  Te  Te153  1  0.83120855  -0.00209042  -0.00459127  1
  Te  Te154  1  0.83257737  -0.00714411  0.33412050  1
  Te  Te155  1  0.83332892  -0.00496030  0.67210401  1
  Te  Te156  1  0.83404849  0.32943898  -0.00676735  1
  Te  Te157  1  0.83303575  0.33281103  0.33280057  1
  Te  Te158  1  0.83684665  0.33309321  0.66922352  1
  Te  Te159  1  0.83239201  0.66895893  -0.00250159  1
  Te  Te160  1  0.83401487  0.67160239  0.33422143  1
  Te  Te161  1  0.83201216  0.67172169  0.67104137  1
  Te  Te162  1  -0.00297984  0.16913705  -0.00468019  1
  Te  Te163  1  0.00713145  0.16657175  0.33297007  1
  Te  Te164  1  -0.00047271  0.17113028  0.66904978  1
  Te  Te165  1  0.00225133  0.50634177  0.00514846  1
  Te  Te166  1  -0.00059156  0.50028535  0.33365084  1
  Te  Te167  1  0.00411994  0.49659322  0.66324037  1
  Te  Te168  1  0.00139145  0.82828359  -0.00557956  1
  Te  Te169  1  0.00215723  0.83339350  0.33678835  1
  Te  Te170  1  -0.00238223  0.83315031  0.67172908  1
  Te  Te171  1  0.33623228  0.16484127  0.00222327  1
  Te  Te172  1  0.32975684  0.16708128  0.33473285  1
  Te  Te173  1  0.33739604  0.16661357  0.66341936  1
  Te  Te174  1  0.33317419  0.50140124  -0.00004572  1
  Te  Te175  1  0.33684046  0.50508363  0.32916806  1
  Te  Te176  1  0.33127885  0.50213631  0.66957177  1
  Te  Te177  1  0.32902900  0.82881338  0.00157146  1
  Te  Te178  1  0.32883942  0.82776900  0.34021104  1
  Te  Te179  1  0.33244005  0.83170810  0.66472806  1
  Te  Te180  1  0.66592748  0.16652324  -0.00593568  1
  Te  Te181  1  0.66658258  0.16630384  0.33304866  1
  Te  Te182  1  0.66053131  0.16142340  0.67274578  1
  Te  Te183  1  0.66632698  0.50588906  -0.00702749  1
  Te  Te184  1  0.66085308  0.50670686  0.33362278  1
  Te  Te185  1  0.66314117  0.50110062  0.67330686  1
  Te  Te186  1  0.66928159  0.83265644  0.00022453  1
  Te  Te187  1  0.67185131  0.82669999  0.33468358  1
  Te  Te188  1  0.67203303  0.83893472  0.66567665  1
  Te  Te189  1  -0.00772547  0.00197712  0.16618923  1
  Te  Te190  1  -0.00038122  0.00904716  0.50227086  1
  Te  Te191  1  0.00275522  0.00147762  0.83366727  1
  Te  Te192  1  0.00074679  0.34248195  0.16512159  1
  Te  Te193  1  0.00345583  0.33266062  0.50440387  1
  Te  Te194  1  0.00168474  0.33361221  0.82962194  1
  Te  Te195  1  -0.00150702  0.66403497  0.16241074  1
  Te  Te196  1  0.00475462  0.66329417  0.50074362  1
  Te  Te197  1  -0.00460047  0.66823767  0.83766567  1
  Te  Te198  1  0.33350695  0.00435941  0.16619707  1
  Te  Te199  1  0.33737611  0.00176099  0.50411351  1
  Te  Te200  1  0.33294741  0.00110195  0.82808889  1
  Te  Te201  1  0.33283979  0.33252859  0.16080049  1
  Te  Te202  1  0.32713454  0.32848023  0.50041677  1
  Te  Te203  1  0.33274337  0.33657603  0.83547452  1
  Te  Te204  1  0.33252673  0.66756400  0.16464546  1
  Te  Te205  1  0.33257343  0.66457055  0.50276898  1
  Te  Te206  1  0.33546702  0.66295850  0.83354719  1
  Te  Te207  1  0.67217705  0.00049742  0.16300518  1
  Te  Te208  1  0.65916526  0.00064158  0.50350765  1
  Te  Te209  1  0.66612095  0.00111975  0.83457676  1
  Te  Te210  1  0.66608337  0.33502278  0.16720768  1
  Te  Te211  1  0.67463249  0.33387225  0.50160918  1
  Te  Te212  1  0.66541107  0.33361035  0.83386453  1
  Te  Te213  1  0.67062939  0.66536317  0.16455689  1
  Te  Te214  1  0.66550073  0.66566192  0.49394137  1
  Te  Te215  1  0.66667413  0.66571859  0.83521683  1
