# generated using pymatgen
data_AgSbTe2
_symmetry_space_group_name_H-M   'P 1'
_cell_length_a   18.31566219
_cell_length_b   18.31693231
_cell_length_c   18.32637811
_cell_angle_alpha   89.99885561
_cell_angle_beta   90.00062028
_cell_angle_gamma   89.99636523
_symmetry_Int_Tables_number   1
_chemical_formula_structural   AgSbTe2
_chemical_formula_sum   'Ag54 Sb54 Te108'
_cell_volume   6148.25691719
_cell_formula_units_Z   54
loop_
 _symmetry_equiv_pos_site_id
 _symmetry_equiv_pos_as_xyz
  1  'x, y, z'
loop_
 _atom_site_type_symbol
 _atom_site_label
 _atom_site_symmetry_multiplicity
 _atom_site_fract_x
 _atom_site_fract_y
 _atom_site_fract_z
 _atom_site_occupancy
  Ag  Ag0  1  0.33167575  0.50875317  0.17601155  1
  Ag  Ag1  1  0.83336825  0.49985027  -0.00669270  1
  Ag  Ag2  1  0.49712676  -0.00605839  0.49007165  1
  Ag  Ag3  1  0.82970502  0.17041079  0.33009734  1
  Ag  Ag4  1  0.16494663  0.50590042  0.00420356  1
  Ag  Ag5  1  0.32950021  0.50899222  0.49426776  1
  Ag  Ag6  1  0.33880130  0.66506921  0.65708897  1
  Ag  Ag7  1  -0.00266937  0.83594339  0.83327628  1
  Ag  Ag8  1  0.83578238  0.82481019  0.67008362  1
  Ag  Ag9  1  -0.00396016  0.15856373  0.83310152  1
  Ag  Ag10  1  0.00525762  0.66636389  0.33438883  1
  Ag  Ag11  1  0.34052054  -0.00299964  0.33339936  1
  Ag  Ag12  1  0.33863042  0.82550969  0.49278887  1
  Ag  Ag13  1  0.66589607  0.50569790  0.16715663  1
  Ag  Ag14  1  0.83179879  0.34154067  0.83293072  1
  Ag  Ag15  1  0.82606799  0.66458208  0.50432860  1
  Ag  Ag16  1  0.33696648  0.34473031  0.33525181  1
  Ag  Ag17  1  0.67108342  0.34547409  0.65976704  1
  Ag  Ag18  1  0.16238517  0.82803953  0.66655261  1
  Ag  Ag19  1  0.66157037  0.82829277  0.49526636  1
  Ag  Ag20  1  0.00047290  -0.00140722  0.66963155  1
  Ag  Ag21  1  0.83098699  0.33222659  0.16810072  1
  Ag  Ag22  1  0.17060820  -0.00123148  0.49449157  1
  Ag  Ag23  1  0.66214923  0.83262272  0.16910098  1
  Ag  Ag24  1  0.16757212  0.50726750  0.66152388  1
  Ag  Ag25  1  0.67179826  0.50286346  0.83475985  1
  Ag  Ag26  1  0.16497863  0.83133927  0.00199411  1
  Ag  Ag27  1  0.50533159  0.16039937  0.33306536  1
  Ag  Ag28  1  -0.00227945  0.16462229  0.49883969  1
  Ag  Ag29  1  0.17202965  -0.00881227  0.17166786  1
  Ag  Ag30  1  0.17327375  0.50294723  0.33407827  1
  Ag  Ag31  1  0.33465367  0.83014698  0.17282033  1
  Ag  Ag32  1  0.83324033  0.16461264  0.00335078  1
  Ag  Ag33  1  0.33544179  0.50385376  0.83123332  1
  Ag  Ag34  1  0.16474124  0.33621515  0.49849893  1
  Ag  Ag35  1  0.66838402  0.33406170  0.33642275  1
  Ag  Ag36  1  0.82898733  0.66184602  0.82521176  1
  Ag  Ag37  1  0.83021137  0.50631273  0.67072868  1
  Ag  Ag38  1  0.50162682  0.67286500  0.50213050  1
  Ag  Ag39  1  0.33604436  0.66484615  0.33887024  1
  Ag  Ag40  1  0.65912166  -0.00155549  0.32917843  1
  Ag  Ag41  1  0.50619294  0.66570308  0.82536459  1
  Ag  Ag42  1  -0.00356162  0.16357206  0.16852095  1
  Ag  Ag43  1  0.83243366  0.83556119  -0.00356504  1
  Ag  Ag44  1  -0.00553827  -0.00036317  -0.00135603  1
  Ag  Ag45  1  0.17029681  0.66955166  0.17009833  1
  Ag  Ag46  1  0.66961022  0.66433328  0.66043210  1
  Ag  Ag47  1  0.50852641  0.15661890  0.00330785  1
  Ag  Ag48  1  0.49949973  -0.00236269  0.17365971  1
  Ag  Ag49  1  0.50145907  0.16375195  0.65956538  1
  Ag  Ag50  1  0.50819073  0.83665987  0.00215578  1
  Ag  Ag51  1  0.66373743  0.66699603  0.33989325  1
  Ag  Ag52  1  0.66957280  -0.00370835  0.00719741  1
  Ag  Ag53  1  0.83256505  0.33703991  0.50030354  1
  Sb  Sb54  1  -0.00339924  0.67047888  0.66236988  1
  Sb  Sb55  1  -0.00270213  0.33492678  0.33478843  1
  Sb  Sb56  1  0.33370473  0.33698109  0.00745002  1
  Sb  Sb57  1  0.83115515  0.16815782  0.66741223  1
  Sb  Sb58  1  0.32969476  -0.00845838  0.65684778  1
  Sb  Sb59  1  0.67147755  0.17274430  0.83470994  1
  Sb  Sb60  1  0.83199681  -0.00154038  0.49930220  1
  Sb  Sb61  1  0.49970168  0.83858146  0.33105664  1
  Sb  Sb62  1  0.00097508  0.83695100  0.16163883  1
  Sb  Sb63  1  -0.00005830  0.49842464  0.16601524  1
  Sb  Sb64  1  -0.00509843  0.50290560  0.83306214  1
  Sb  Sb65  1  0.67172653  0.82730692  0.83446525  1
  Sb  Sb66  1  0.33479504  -0.00367226  0.00768995  1
  Sb  Sb67  1  0.66439911  0.50617743  0.49890670  1
  Sb  Sb68  1  0.66901652  -0.00474518  0.66456412  1
  Sb  Sb69  1  0.83394827  0.49783538  0.33447350  1
  Sb  Sb70  1  0.83089026  0.00288819  0.16500687  1
  Sb  Sb71  1  0.33294267  0.17371535  0.83317074  1
  Sb  Sb72  1  0.49748939  0.67358859  0.17043525  1
  Sb  Sb73  1  0.16580094  0.16934660  0.33472965  1
  Sb  Sb74  1  0.33771134  0.34171735  0.65984494  1
  Sb  Sb75  1  0.83381087  0.66360502  0.16828261  1
  Sb  Sb76  1  0.50190004  0.33369514  0.49825338  1
  Sb  Sb77  1  0.50060306  -0.00491357  0.83549360  1
  Sb  Sb78  1  0.17013596  0.66767991  0.49680845  1
  Sb  Sb79  1  0.16166998  0.16308517  0.00276349  1
  Sb  Sb80  1  0.50245167  0.50334697  0.00069700  1
  Sb  Sb81  1  0.33053895  0.82689646  0.83304917  1
  Sb  Sb82  1  -0.00021220  -0.00205481  0.33215448  1
  Sb  Sb83  1  0.83430296  -0.00195329  0.83511513  1
  Sb  Sb84  1  0.16948119  0.82998311  0.33301535  1
  Sb  Sb85  1  0.16819163  0.16501777  0.66430168  1
  Sb  Sb86  1  0.00337593  0.49943023  0.50025573  1
  Sb  Sb87  1  0.66914968  0.16377246  0.49709507  1
  Sb  Sb88  1  -0.00591262  0.32990464  0.66512505  1
  Sb  Sb89  1  0.66776278  0.67079374  0.00033115  1
  Sb  Sb90  1  0.49673791  0.49958814  0.33306618  1
  Sb  Sb91  1  0.50585562  0.33743911  0.83193062  1
  Sb  Sb92  1  -0.00111908  0.67225142  0.00210775  1
  Sb  Sb93  1  0.66975547  0.16322461  0.16877497  1
  Sb  Sb94  1  0.16094674  0.33817918  0.82686026  1
  Sb  Sb95  1  0.16365224  0.33651643  0.17191222  1
  Sb  Sb96  1  0.33260742  0.16585827  0.49825218  1
  Sb  Sb97  1  0.33280767  0.66684760  0.00298756  1
  Sb  Sb98  1  0.67035188  0.33144684  0.00430321  1
  Sb  Sb99  1  0.50507073  0.32838902  0.16953355  1
  Sb  Sb100  1  0.50259078  0.50210200  0.66634687  1
  Sb  Sb101  1  0.50139611  0.83258396  0.66641381  1
  Sb  Sb102  1  0.33237497  0.16470520  0.16962363  1
  Sb  Sb103  1  0.82930793  0.83429316  0.33304258  1
  Sb  Sb104  1  0.16528213  0.66571594  0.83456487  1
  Sb  Sb105  1  -0.00307709  0.32747141  -0.00022071  1
  Sb  Sb106  1  0.00112253  0.83591725  0.50411093  1
  Sb  Sb107  1  0.16412437  -0.00223330  0.83402143  1
  Te  Te108  1  0.16060370  0.16468100  0.16660365  1
  Te  Te109  1  0.16192787  0.16524998  0.50065141  1
  Te  Te110  1  0.15870122  0.16909364  0.83335474  1
  Te  Te111  1  0.16814394  0.50119549  0.16580193  1
  Te  Te112  1  0.16913987  0.50041606  0.50076163  1
  Te  Te113  1  0.16886070  0.50038313  0.83426452  1
  Te  Te114  1  0.16775899  0.83210178  0.16570416  1
  Te  Te115  1  0.16926926  0.83695681  0.50283639  1
  Te  Te116  1  0.16227706  0.83264695  0.83382743  1
  Te  Te117  1  0.49982200  0.16044878  0.16593165  1
  Te  Te118  1  0.50116918  0.16285321  0.49786089  1
  Te  Te119  1  0.50030494  0.16761438  0.83909787  1
  Te  Te120  1  0.50036414  0.50034237  0.16458719  1
  Te  Te121  1  0.49125568  0.50456084  0.50038617  1
  Te  Te122  1  0.50079497  0.50493421  0.83449827  1
  Te  Te123  1  0.49985548  0.83696957  0.16125802  1
  Te  Te124  1  0.49945339  0.83359975  0.50310979  1
  Te  Te125  1  0.49946354  0.82716974  0.83906985  1
  Te  Te126  1  0.83527855  0.16903266  0.16493695  1
  Te  Te127  1  0.83623034  0.16929740  0.49936667  1
  Te  Te128  1  0.83736948  0.17059028  0.83612246  1
  Te  Te129  1  0.83095240  0.49622743  0.16459032  1
  Te  Te130  1  0.83403247  0.49929212  0.50332513  1
  Te  Te131  1  0.83254800  0.50106687  0.83252978  1
  Te  Te132  1  0.82863098  0.83275076  0.16045794  1
  Te  Te133  1  0.83078786  0.83023173  0.50133653  1
  Te  Te134  1  0.83572362  0.83095956  0.83455665  1
  Te  Te135  1  0.16494357  -0.00428236  0.00391508  1
  Te  Te136  1  0.16752976  0.00038417  0.33313443  1
  Te  Te137  1  0.16286719  -0.00338985  0.66312927  1
  Te  Te138  1  0.16651088  0.33934840  0.00002182  1
  Te  Te139  1  0.16963673  0.33774450  0.33827970  1
  Te  Te140  1  0.16812889  0.33774624  0.65908501  1
  Te  Te141  1  0.16572838  0.66654909  0.00453112  1
  Te  Te142  1  0.17103919  0.66366572  0.33107764  1
  Te  Te143  1  0.16593843  0.66698113  0.66662638  1
  Te  Te144  1  0.50133212  -0.00260042  0.00201049  1
  Te  Te145  1  0.50163623  0.00213016  0.33384822  1
  Te  Te146  1  0.49926872  0.00290429  0.66476115  1
  Te  Te147  1  0.50180583  0.32469978  0.00042286  1
  Te  Te148  1  0.50265700  0.32510784  0.33371704  1
  Te  Te149  1  0.50777102  0.32695662  0.66581293  1
  Te  Te150  1  0.50017888  0.67208986  -0.00403851  1
  Te  Te151  1  0.50088615  0.66616384  0.33815212  1
  Te  Te152  1  0.50190054  0.66802994  0.66499957  1
  Te  Te153  1  0.83290043  -0.00014711  0.00043243  1
  Te  Te154  1  0.82859713  0.00686520  0.33277679  1
  Te  Te155  1  0.83870953  -0.00490330  0.66640362  1
  Te  Te156  1  0.83281886  0.33427883  0.00028154  1
  Te  Te157  1  0.83100752  0.33183996  0.33532256  1
  Te  Te158  1  0.82889685  0.33484451  0.66400856  1
  Te  Te159  1  0.83386989  0.66499125  -0.00056506  1
  Te  Te160  1  0.82517476  0.66603392  0.33635150  1
  Te  Te161  1  0.83392418  0.66641278  0.66536991  1
  Te  Te162  1  -0.00332876  0.16107861  -0.00033862  1
  Te  Te163  1  -0.00483405  0.16643746  0.33397072  1
  Te  Te164  1  -0.00025564  0.16101344  0.66632389  1
  Te  Te165  1  -0.00072368  0.50000242  -0.00046051  1
  Te  Te166  1  0.00614493  0.50594459  0.33249113  1
  Te  Te167  1  0.00286643  0.49884269  0.66789362  1
  Te  Te168  1  -0.00062367  0.83813179  -0.00323787  1
  Te  Te169  1  -0.00209358  0.82786561  0.33282161  1
  Te  Te170  1  0.00035467  0.83627731  0.66963164  1
  Te  Te171  1  0.33692496  0.16769435  0.00013756  1
  Te  Te172  1  0.33703933  0.16128207  0.33309084  1
  Te  Te173  1  0.34043151  0.16836231  0.66801423  1
  Te  Te174  1  0.33069309  0.50002135  -0.00064439  1
  Te  Te175  1  0.33350782  0.50198762  0.33300255  1
  Te  Te176  1  0.33331603  0.50465578  0.66680319  1
  Te  Te177  1  0.32558994  0.83286145  0.00278401  1
  Te  Te178  1  0.33369160  0.83276231  0.33262054  1
  Te  Te179  1  0.32894513  0.82623252  0.66501842  1
  Te  Te180  1  0.66958775  0.16225058  0.00106156  1
  Te  Te181  1  0.66865797  0.16804130  0.33330271  1
  Te  Te182  1  0.66229460  0.16452396  0.66650949  1
  Te  Te183  1  0.67024632  0.50020555  0.00137921  1
  Te  Te184  1  0.66613121  0.49976944  0.32969507  1
  Te  Te185  1  0.66881261  0.50275031  0.66581940  1
  Te  Te186  1  0.66921944  0.83609602  0.00105084  1
  Te  Te187  1  0.66605737  0.83251230  0.33246146  1
  Te  Te188  1  0.67158031  0.82881680  0.66398137  1
  Te  Te189  1  0.00446258  0.00310268  0.16427191  1
  Te  Te190  1  0.00293099  0.00318625  0.50032910  1
  Te  Te191  1  0.00027607  -0.00137647  0.83404080  1
  Te  Te192  1  -0.00623094  0.32641576  0.16734526  1
  Te  Te193  1  -0.00107646  0.32809935  0.49962407  1
  Te  Te194  1  -0.00717498  0.32926010  0.83240132  1
  Te  Te195  1  0.00531137  0.66717817  0.17335880  1
  Te  Te196  1  -0.00691356  0.66782089  0.49413275  1
  Te  Te197  1  -0.00688735  0.67252046  0.83389681  1
  Te  Te198  1  0.33270982  -0.00243726  0.17232878  1
  Te  Te199  1  0.33351630  -0.00138709  0.49427753  1
  Te  Te200  1  0.33256003  0.00247762  0.83117088  1
  Te  Te201  1  0.33315489  0.33763570  0.17528380  1
  Te  Te202  1  0.33175565  0.33519990  0.49425889  1
  Te  Te203  1  0.33294878  0.34215215  0.83273994  1
  Te  Te204  1  0.33198638  0.66842126  0.16960947  1
  Te  Te205  1  0.33203385  0.66847132  0.49961942  1
  Te  Te206  1  0.33446192  0.66215174  0.82982954  1
  Te  Te207  1  0.66433706  -0.00388602  0.16761335  1
  Te  Te208  1  0.66291055  -0.00655749  0.49692618  1
  Te  Te209  1  0.66623507  0.00100517  0.83842953  1
  Te  Te210  1  0.67090662  0.33905221  0.17157800  1
  Te  Te211  1  0.66916447  0.33447605  0.49860227  1
  Te  Te212  1  0.67198448  0.34047644  0.82950258  1
  Te  Te213  1  0.66511018  0.66708486  0.17074179  1
  Te  Te214  1  0.66513451  0.66720884  0.50046726  1
  Te  Te215  1  0.66776076  0.66295758  0.83280886  1
