# generated using pymatgen
data_AgSbTe2
_symmetry_space_group_name_H-M   'P 1'
_cell_length_a   18.34236021
_cell_length_b   18.33941065
_cell_length_c   18.34915432
_cell_angle_alpha   90.00079789
_cell_angle_beta   90.00170690
_cell_angle_gamma   90.00140507
_symmetry_Int_Tables_number   1
_chemical_formula_structural   AgSbTe2
_chemical_formula_sum   'Ag54 Sb54 Te108'
_cell_volume   6172.43671653
_cell_formula_units_Z   54
loop_
 _symmetry_equiv_pos_site_id
 _symmetry_equiv_pos_as_xyz
  1  'x, y, z'
loop_
 _atom_site_type_symbol
 _atom_site_label
 _atom_site_symmetry_multiplicity
 _atom_site_fract_x
 _atom_site_fract_y
 _atom_site_fract_z
 _atom_site_occupancy
  Ag  Ag0  1  -0.00461357  0.83865499  0.16386312  1
  Ag  Ag1  1  0.82642717  0.32553349  0.16590987  1
  Ag  Ag2  1  0.34757466  0.66870360  -0.00439797  1
  Ag  Ag3  1  0.82864374  0.50659946  0.32712622  1
  Ag  Ag4  1  0.16645144  0.16079460  -0.00269423  1
  Ag  Ag5  1  0.65660663  0.82938337  0.83617695  1
  Ag  Ag6  1  0.49033339  -0.01300042  0.84224926  1
  Ag  Ag7  1  0.17951161  0.50029779  0.00072996  1
  Ag  Ag8  1  0.33689676  0.50251012  0.50240194  1
  Ag  Ag9  1  0.50547449  0.33841365  0.16310233  1
  Ag  Ag10  1  0.01097997  0.15827846  0.84374378  1
  Ag  Ag11  1  0.16875767  0.16443835  0.67976272  1
  Ag  Ag12  1  0.66044653  -0.00235151  0.00328094  1
  Ag  Ag13  1  0.82804359  0.66656722  0.15998375  1
  Ag  Ag14  1  -0.00166932  -0.00247223  0.32528588  1
  Ag  Ag15  1  0.83469991  0.82958473  0.32964515  1
  Ag  Ag16  1  0.82581057  0.66509167  0.50133310  1
  Ag  Ag17  1  0.33312691  0.15237950  0.83556911  1
  Ag  Ag18  1  0.50334192  0.66737529  0.50536170  1
  Ag  Ag19  1  0.50034872  0.67435057  0.83573021  1
  Ag  Ag20  1  0.83306425  0.50692564  0.67487372  1
  Ag  Ag21  1  0.66989798  0.16406496  0.16519404  1
  Ag  Ag22  1  0.17282895  0.33362549  0.49811139  1
  Ag  Ag23  1  0.66391627  0.32931563  0.33026826  1
  Ag  Ag24  1  0.49874705  0.83011327  0.68125723  1
  Ag  Ag25  1  0.50734989  0.66276815  0.15004770  1
  Ag  Ag26  1  0.33699791  -0.00437115  0.68126659  1
  Ag  Ag27  1  -0.01007177  0.15939879  0.16072638  1
  Ag  Ag28  1  0.66401197  0.16489087  0.49428107  1
  Ag  Ag29  1  0.34289055  0.67056852  0.67941576  1
  Ag  Ag30  1  0.49973239  0.51133791  -0.00058496  1
  Ag  Ag31  1  0.50041429  0.16078648  -0.00204308  1
  Ag  Ag32  1  0.66008691  0.66744588  0.67737504  1
  Ag  Ag33  1  0.49978984  -0.00177296  0.50196740  1
  Ag  Ag34  1  0.34191574  -0.00205937  -0.00744623  1
  Ag  Ag35  1  0.34471831  0.83739797  0.83408522  1
  Ag  Ag36  1  0.49904412  0.33803968  0.49725827  1
  Ag  Ag37  1  0.66271361  0.67092351  -0.00352296  1
  Ag  Ag38  1  0.82263211  0.66744975  0.84302797  1
  Ag  Ag39  1  0.83179304  0.16629842  0.00458030  1
  Ag  Ag40  1  -0.00884307  0.66786130  -0.00101423  1
  Ag  Ag41  1  0.17347524  0.49813569  0.32756233  1
  Ag  Ag42  1  0.34049077  -0.00082697  0.33171290  1
  Ag  Ag43  1  0.16127027  0.00250914  0.16162264  1
  Ag  Ag44  1  0.50116676  0.82671976  -0.00614441  1
  Ag  Ag45  1  0.49856521  0.33463910  0.84475125  1
  Ag  Ag46  1  -0.00322179  0.83329423  0.49342804  1
  Ag  Ag47  1  0.66575717  0.00340218  0.32263166  1
  Ag  Ag48  1  0.33656126  0.50788262  0.83455234  1
  Ag  Ag49  1  0.82948267  0.51259340  0.00391201  1
  Ag  Ag50  1  -0.00153557  0.83582527  0.83855928  1
  Ag  Ag51  1  0.83790101  0.00045145  0.16619298  1
  Ag  Ag52  1  0.17988246  0.00322418  0.84321461  1
  Ag  Ag53  1  0.50136117  0.49962771  0.32847088  1
  Sb  Sb54  1  0.66708697  0.83457031  0.50190433  1
  Sb  Sb55  1  0.83151177  -0.00581662  0.84121964  1
  Sb  Sb56  1  -0.00510808  0.33010872  0.33107889  1
  Sb  Sb57  1  0.33671492  0.33340161  0.66811035  1
  Sb  Sb58  1  0.33919859  0.16758665  0.50548477  1
  Sb  Sb59  1  0.67058574  0.83701807  0.16181210  1
  Sb  Sb60  1  0.33719815  0.33284207  -0.00215724  1
  Sb  Sb61  1  -0.00462600  0.67137348  0.32844945  1
  Sb  Sb62  1  0.66712831  0.49540715  0.16620147  1
  Sb  Sb63  1  0.66169154  0.16012415  0.83927315  1
  Sb  Sb64  1  0.00084182  0.33301147  0.66703958  1
  Sb  Sb65  1  0.17221223  0.00399054  0.49849781  1
  Sb  Sb66  1  0.66372989  0.33263483  0.00484021  1
  Sb  Sb67  1  0.82721731  -0.00432283  0.49128045  1
  Sb  Sb68  1  0.00313676  0.50132950  0.83751344  1
  Sb  Sb69  1  0.16720347  0.32924209  0.16757444  1
  Sb  Sb70  1  0.82686640  0.33955952  0.84105616  1
  Sb  Sb71  1  0.33356458  0.83125925  0.50484142  1
  Sb  Sb72  1  0.82832126  0.82837629  0.66634400  1
  Sb  Sb73  1  0.17314876  0.67187237  0.83626297  1
  Sb  Sb74  1  0.66765639  0.66726430  0.32934232  1
  Sb  Sb75  1  0.00525298  -0.00202846  0.66699703  1
  Sb  Sb76  1  -0.00325189  0.16103825  0.49819705  1
  Sb  Sb77  1  0.17290486  0.83775238  0.67009045  1
  Sb  Sb78  1  0.50148436  -0.00063427  0.16207774  1
  Sb  Sb79  1  0.16550499  0.66929431  0.16217127  1
  Sb  Sb80  1  0.16812030  0.49628198  0.66945862  1
  Sb  Sb81  1  0.17268494  0.32684925  0.83289725  1
  Sb  Sb82  1  0.65924080  0.50757693  0.83565695  1
  Sb  Sb83  1  0.00151267  0.50482654  0.49781432  1
  Sb  Sb84  1  0.16994329  0.83603062  -0.00198450  1
  Sb  Sb85  1  0.83021268  0.16424649  0.32540655  1
  Sb  Sb86  1  -0.00137562  0.66948592  0.67201890  1
  Sb  Sb87  1  0.50095601  0.50825974  0.66949382  1
  Sb  Sb88  1  0.66015025  0.50021629  0.49842639  1
  Sb  Sb89  1  0.16722971  0.16807681  0.32942561  1
  Sb  Sb90  1  0.83515446  0.17076847  0.67502884  1
  Sb  Sb91  1  -0.00360223  0.50156924  0.16546774  1
  Sb  Sb92  1  0.16301899  0.83167423  0.33205349  1
  Sb  Sb93  1  0.33931778  0.33183160  0.33486951  1
  Sb  Sb94  1  0.50513294  0.83101294  0.32958672  1
  Sb  Sb95  1  0.49670088  0.16135940  0.67288648  1
  Sb  Sb96  1  0.33681362  0.66858720  0.33041666  1
  Sb  Sb97  1  0.33210104  0.83534912  0.15934123  1
  Sb  Sb98  1  0.65912792  -0.00473353  0.67028557  1
  Sb  Sb99  1  0.82974165  0.83230629  0.00336416  1
  Sb  Sb100  1  -0.00141650  0.33181997  0.00086095  1
  Sb  Sb101  1  0.50238754  0.16948548  0.32841387  1
  Sb  Sb102  1  0.33672937  0.16324460  0.15805107  1
  Sb  Sb103  1  0.00082239  -0.00273290  0.00483879  1
  Sb  Sb104  1  0.33712371  0.50107133  0.16402952  1
  Sb  Sb105  1  0.16797881  0.66310422  0.50021211  1
  Sb  Sb106  1  0.82897707  0.33962673  0.49238067  1
  Sb  Sb107  1  0.66395281  0.33868288  0.66280427  1
  Te  Te108  1  0.16611363  0.16414699  0.16136034  1
  Te  Te109  1  0.16670161  0.17226228  0.49828519  1
  Te  Te110  1  0.16895789  0.16536428  0.83740949  1
  Te  Te111  1  0.16592993  0.49802575  0.16497339  1
  Te  Te112  1  0.16980063  0.49538790  0.50096281  1
  Te  Te113  1  0.17183135  0.49667060  0.83824897  1
  Te  Te114  1  0.15960028  0.83956384  0.16633011  1
  Te  Te115  1  0.15918054  0.83322343  0.50051352  1
  Te  Te116  1  0.15842926  0.84178425  0.83299324  1
  Te  Te117  1  0.50409174  0.16925249  0.16138308  1
  Te  Te118  1  0.50309617  0.16337188  0.50019617  1
  Te  Te119  1  0.49715585  0.17063221  0.83717487  1
  Te  Te120  1  0.50107919  0.50232074  0.16715785  1
  Te  Te121  1  0.49734893  0.50083310  0.50318668  1
  Te  Te122  1  0.49654127  0.49704422  0.83477980  1
  Te  Te123  1  0.49965263  0.82462458  0.16225814  1
  Te  Te124  1  0.49966020  0.83344061  0.49740275  1
  Te  Te125  1  0.50067664  0.83200536  0.83614219  1
  Te  Te126  1  0.83127352  0.16474183  0.16409356  1
  Te  Te127  1  0.82835394  0.16896405  0.50389161  1
  Te  Te128  1  0.83363203  0.16904172  0.84090161  1
  Te  Te129  1  0.83283060  0.50640956  0.16554477  1
  Te  Te130  1  0.83404558  0.50430385  0.49072327  1
  Te  Te131  1  0.83512917  0.50537117  0.83815103  1
  Te  Te132  1  0.83584270  0.83283763  0.16928998  1
  Te  Te133  1  0.83606329  0.82881196  0.49689331  1
  Te  Te134  1  0.83957790  0.82710776  0.83266366  1
  Te  Te135  1  0.16771798  0.00179851  0.00030607  1
  Te  Te136  1  0.16299886  -0.00004247  0.33080981  1
  Te  Te137  1  0.17338215  0.00488247  0.66687413  1
  Te  Te138  1  0.16716998  0.33779796  0.00108628  1
  Te  Te139  1  0.16679488  0.33835637  0.33528528  1
  Te  Te140  1  0.16791691  0.32731962  0.66139928  1
  Te  Te141  1  0.16344862  0.66027314  0.00128819  1
  Te  Te142  1  0.16686187  0.65780738  0.33128666  1
  Te  Te143  1  0.17321177  0.66586914  0.66691830  1
  Te  Te144  1  0.49937948  0.00146876  0.00130448  1
  Te  Te145  1  0.50337148  -0.00115496  0.33135480  1
  Te  Te146  1  0.49597475  -0.00458702  0.66528476  1
  Te  Te147  1  0.50087630  0.33208002  0.00332181  1
  Te  Te148  1  0.50349972  0.33670265  0.33484313  1
  Te  Te149  1  0.50091895  0.33262250  0.65684416  1
  Te  Te150  1  0.50272540  0.66653354  -0.00496397  1
  Te  Te151  1  0.50114490  0.66224170  0.34374248  1
  Te  Te152  1  0.49998545  0.66832792  0.66567251  1
  Te  Te153  1  0.82745837  0.00314897  0.00502218  1
  Te  Te154  1  0.83117300  -0.00230028  0.32811265  1
  Te  Te155  1  0.83320480  0.00101228  0.66614430  1
  Te  Te156  1  0.83103752  0.33146693  0.00652302  1
  Te  Te157  1  0.82815195  0.33888365  0.32687735  1
  Te  Te158  1  0.83266346  0.34200051  0.66687065  1
  Te  Te159  1  0.83170552  0.66924382  -0.00004912  1
  Te  Te160  1  0.83224374  0.66702232  0.33288754  1
  Te  Te161  1  0.83277515  0.66473434  0.66274490  1
  Te  Te162  1  0.00096079  0.16634898  0.00102724  1
  Te  Te163  1  -0.00095523  0.15996383  0.32916144  1
  Te  Te164  1  0.00484375  0.16597139  0.66938709  1
  Te  Te165  1  -0.00729002  0.50361748  0.00016004  1
  Te  Te166  1  -0.00167424  0.49948425  0.33293011  1
  Te  Te167  1  -0.00636077  0.50083090  0.66703307  1
  Te  Te168  1  0.00215959  0.83002279  0.00079352  1
  Te  Te169  1  -0.00279808  0.83659107  0.33068082  1
  Te  Te170  1  0.00031334  0.83377966  0.67015715  1
  Te  Te171  1  0.33289293  0.16513420  -0.00519487  1
  Te  Te172  1  0.33397910  0.15958499  0.33407943  1
  Te  Te173  1  0.32968300  0.16238023  0.67234566  1
  Te  Te174  1  0.33777456  0.50165844  -0.00135219  1
  Te  Te175  1  0.33596079  0.49982754  0.33627927  1
  Te  Te176  1  0.33211859  0.50509200  0.66727541  1
  Te  Te177  1  0.33592675  0.83468384  -0.00483481  1
  Te  Te178  1  0.33195501  0.83849110  0.33322771  1
  Te  Te179  1  0.33771677  0.83315964  0.67032154  1
  Te  Te180  1  0.66653334  0.16494874  0.00264676  1
  Te  Te181  1  0.66668786  0.16494214  0.33251749  1
  Te  Te182  1  0.66790565  0.16726987  0.66323075  1
  Te  Te183  1  0.66481390  0.50456029  -0.00026220  1
  Te  Te184  1  0.66409464  0.49789759  0.33299485  1
  Te  Te185  1  0.67389647  0.50672848  0.66563945  1
  Te  Te186  1  0.66364548  0.83387288  -0.00305413  1
  Te  Te187  1  0.67237308  0.84019690  0.33405416  1
  Te  Te188  1  0.66141556  0.82783448  0.67140981  1
  Te  Te189  1  -0.00140842  -0.00016595  0.16631119  1
  Te  Te190  1  -0.00034123  -0.00450874  0.49553080  1
  Te  Te191  1  -0.00242762  0.00048033  0.83288076  1
  Te  Te192  1  -0.00478331  0.32487327  0.16743684  1
  Te  Te193  1  0.00301916  0.33159319  0.49862686  1
  Te  Te194  1  -0.00098869  0.32578980  0.83279119  1
  Te  Te195  1  -0.00341656  0.67087628  0.16163498  1
  Te  Te196  1  -0.00123073  0.67226625  0.50060043  1
  Te  Te197  1  0.00271111  0.66894299  0.83761718  1
  Te  Te198  1  0.32891437  -0.00045804  0.16960155  1
  Te  Te199  1  0.33813120  -0.00077964  0.49355515  1
  Te  Te200  1  0.33518001  -0.00272935  0.83682905  1
  Te  Te201  1  0.34093328  0.33209626  0.16813084  1
  Te  Te202  1  0.33618136  0.33683418  0.50093203  1
  Te  Te203  1  0.33988472  0.34267359  0.83200382  1
  Te  Te204  1  0.33720848  0.66837125  0.15942495  1
  Te  Te205  1  0.33573425  0.66358051  0.49817307  1
  Te  Te206  1  0.33389640  0.66915207  0.83602662  1
  Te  Te207  1  0.66697181  0.00298919  0.16428026  1
  Te  Te208  1  0.66104037  0.00266337  0.50175594  1
  Te  Te209  1  0.66276520  -0.00692044  0.83749821  1
  Te  Te210  1  0.66609767  0.32813042  0.16998280  1
  Te  Te211  1  0.66196690  0.32924620  0.49490034  1
  Te  Te212  1  0.65882918  0.33177285  0.83113894  1
  Te  Te213  1  0.66670961  0.66972649  0.16312235  1
  Te  Te214  1  0.66699941  0.66746536  0.49840333  1
  Te  Te215  1  0.66456696  0.66835858  0.83468905  1
