# generated using pymatgen
data_AgSbTe2
_symmetry_space_group_name_H-M   'P 1'
_cell_length_a   18.35331174
_cell_length_b   18.35193331
_cell_length_c   18.35810863
_cell_angle_alpha   89.99946118
_cell_angle_beta   89.99831178
_cell_angle_gamma   90.00430706
_symmetry_Int_Tables_number   1
_chemical_formula_structural   AgSbTe2
_chemical_formula_sum   'Ag54 Sb54 Te108'
_cell_volume   6183.35523376
_cell_formula_units_Z   54
loop_
 _symmetry_equiv_pos_site_id
 _symmetry_equiv_pos_as_xyz
  1  'x, y, z'
loop_
 _atom_site_type_symbol
 _atom_site_label
 _atom_site_symmetry_multiplicity
 _atom_site_fract_x
 _atom_site_fract_y
 _atom_site_fract_z
 _atom_site_occupancy
  Ag  Ag0  1  0.17589194  0.50375987  -0.01494073  1
  Ag  Ag1  1  0.66353564  0.83020587  0.16973939  1
  Ag  Ag2  1  0.65873884  0.16899397  0.82325703  1
  Ag  Ag3  1  0.01205714  0.82530272  0.82424866  1
  Ag  Ag4  1  0.01333907  0.50316879  0.82387712  1
  Ag  Ag5  1  0.82492828  0.33480281  0.50040849  1
  Ag  Ag6  1  0.49887922  0.17271378  0.34045061  1
  Ag  Ag7  1  0.83849517  0.49604147  0.66528303  1
  Ag  Ag8  1  0.33214065  0.01351919  0.66960443  1
  Ag  Ag9  1  0.65606314  0.49568983  0.82752424  1
  Ag  Ag10  1  0.17377466  -0.00232251  0.82882035  1
  Ag  Ag11  1  0.17411048  0.34160217  0.82974017  1
  Ag  Ag12  1  0.00114186  0.01056422  0.33913114  1
  Ag  Ag13  1  0.82842506  0.65997745  0.82922499  1
  Ag  Ag14  1  0.66173416  0.49383538  0.50584816  1
  Ag  Ag15  1  0.49541809  0.33150504  0.82903126  1
  Ag  Ag16  1  0.49771599  0.65396782  0.16602332  1
  Ag  Ag17  1  0.49904501  0.33607533  0.16796435  1
  Ag  Ag18  1  -0.00217651  0.82910977  0.50561596  1
  Ag  Ag19  1  0.33164323  0.65806530  0.66784908  1
  Ag  Ag20  1  0.65894551  0.16908009  0.50830610  1
  Ag  Ag21  1  0.50240192  0.33292804  0.50202725  1
  Ag  Ag22  1  0.34352710  0.16910024  0.82190535  1
  Ag  Ag23  1  0.82541784  0.17283057  0.66363143  1
  Ag  Ag24  1  0.33464001  0.49618939  0.82713374  1
  Ag  Ag25  1  0.34255040  0.17293316  0.50782916  1
  Ag  Ag26  1  0.33154403  0.33052198  0.66772915  1
  Ag  Ag27  1  0.34194560  0.49265867  0.50784708  1
  Ag  Ag28  1  -0.00079872  0.33079955  0.33697578  1
  Ag  Ag29  1  0.49379479  0.01622425  0.83099619  1
  Ag  Ag30  1  0.33720263  0.16755938  0.16791967  1
  Ag  Ag31  1  0.66035631  0.01138844  0.66881945  1
  Ag  Ag32  1  0.81913843  0.16633438  -0.01380727  1
  Ag  Ag33  1  0.33199327  0.83885009  0.82803444  1
  Ag  Ag34  1  0.83187678  0.17365240  0.34058583  1
  Ag  Ag35  1  0.66485562  0.00311095  -0.01313858  1
  Ag  Ag36  1  0.65873675  0.50277303  0.16746449  1
  Ag  Ag37  1  0.17265241  0.16645443  0.34794770  1
  Ag  Ag38  1  0.49096091  0.16482739  0.67220578  1
  Ag  Ag39  1  0.17200255  0.50013038  0.66670776  1
  Ag  Ag40  1  0.16849528  0.83804963  0.66776419  1
  Ag  Ag41  1  0.50025176  0.65371349  0.51020445  1
  Ag  Ag42  1  0.66669382  0.83579031  0.50289783  1
  Ag  Ag43  1  -0.00211477  0.50062375  0.50562251  1
  Ag  Ag44  1  0.17729344  0.66421133  0.16690541  1
  Ag  Ag45  1  0.50251860  0.17566855  -0.01316190  1
  Ag  Ag46  1  0.50041723  0.65559691  0.82774798  1
  Ag  Ag47  1  0.16582482  0.82834771  -0.01456473  1
  Ag  Ag48  1  0.50326134  0.49486575  0.34120018  1
  Ag  Ag49  1  0.00932763  0.66265378  0.66884143  1
  Ag  Ag50  1  0.82376641  0.49458683  0.34782093  1
  Ag  Ag51  1  0.16611976  0.00432124  0.51071187  1
  Ag  Ag52  1  0.17592267  0.16181013  0.66704946  1
  Ag  Ag53  1  0.49914111  0.49584512  -0.01220664  1
  Sb  Sb54  1  0.17387446  0.33550999  0.16359339  1
  Sb  Sb55  1  0.83649987  0.00658245  0.50235086  1
  Sb  Sb56  1  0.00505660  -0.00267340  0.66346273  1
  Sb  Sb57  1  0.33429245  0.83417283  0.50808409  1
  Sb  Sb58  1  -0.00109400  0.00075622  -0.00076085  1
  Sb  Sb59  1  0.82827662  0.65805115  0.50572910  1
  Sb  Sb60  1  0.33000660  0.00608900  0.34210057  1
  Sb  Sb61  1  0.83087479  0.00246868  0.16740554  1
  Sb  Sb62  1  0.66358992  0.66792421  -0.00140389  1
  Sb  Sb63  1  0.17213747  0.66605174  0.82935953  1
  Sb  Sb64  1  0.83295277  0.83331647  0.33565203  1
  Sb  Sb65  1  0.00433915  0.66545912  -0.01039530  1
  Sb  Sb66  1  0.50074982  0.00576267  0.16041661  1
  Sb  Sb67  1  0.33707190  0.00288724  -0.01053353  1
  Sb  Sb68  1  0.17306818  0.16833549  -0.00872713  1
  Sb  Sb69  1  0.33309371  0.66514840  -0.00788889  1
  Sb  Sb70  1  0.66809799  0.00374565  0.33782014  1
  Sb  Sb71  1  0.00081251  0.33454530  0.00039505  1
  Sb  Sb72  1  0.66348684  0.83529619  0.83025702  1
  Sb  Sb73  1  0.49766482  0.83237738  -0.00262427  1
  Sb  Sb74  1  0.34147341  0.49665259  0.16386751  1
  Sb  Sb75  1  0.00272516  0.16745886  0.17063503  1
  Sb  Sb76  1  0.66457736  0.33462897  0.33679429  1
  Sb  Sb77  1  0.49552011  0.49206228  0.66711807  1
  Sb  Sb78  1  0.50099781  0.83202717  0.33472774  1
  Sb  Sb79  1  0.33351831  0.33236991  0.33927361  1
  Sb  Sb80  1  0.33737236  0.33310268  -0.01046969  1
  Sb  Sb81  1  0.49862526  0.00673702  0.50573301  1
  Sb  Sb82  1  0.16483875  0.83950051  0.33929133  1
  Sb  Sb83  1  0.33668176  0.83384655  0.15829137  1
  Sb  Sb84  1  0.83668601  0.83197980  0.66625857  1
  Sb  Sb85  1  0.83481472  0.83612206  -0.00277490  1
  Sb  Sb86  1  0.00217969  0.16847374  0.83069035  1
  Sb  Sb87  1  0.16903869  -0.00183027  0.16479582  1
  Sb  Sb88  1  0.83308729  -0.00006946  0.82962955  1
  Sb  Sb89  1  0.17073626  0.66730836  0.50163170  1
  Sb  Sb90  1  -0.00146387  0.49995836  0.16892212  1
  Sb  Sb91  1  0.49488368  0.83790382  0.66716031  1
  Sb  Sb92  1  0.83145581  0.33638214  0.82614129  1
  Sb  Sb93  1  0.82969271  0.66398976  0.16278328  1
  Sb  Sb94  1  -0.00005520  0.83172623  0.16732794  1
  Sb  Sb95  1  0.66556298  0.66191755  0.33512580  1
  Sb  Sb96  1  0.33622450  0.66409804  0.33794243  1
  Sb  Sb97  1  0.66274371  0.66532940  0.66645854  1
  Sb  Sb98  1  0.00449523  0.34002337  0.66343702  1
  Sb  Sb99  1  0.16889292  0.49462265  0.33824425  1
  Sb  Sb100  1  0.16840850  0.32993361  0.50605056  1
  Sb  Sb101  1  0.00019882  0.17021291  0.50012765  1
  Sb  Sb102  1  0.66022494  0.33055474  0.66518266  1
  Sb  Sb103  1  0.66066792  0.16931826  0.16697607  1
  Sb  Sb104  1  0.00092694  0.66305713  0.34090408  1
  Sb  Sb105  1  0.82649069  0.33377846  0.17357013  1
  Sb  Sb106  1  0.66377601  0.32969715  -0.00179984  1
  Sb  Sb107  1  0.82860742  0.49508125  -0.00658455  1
  Te  Te108  1  0.17364979  0.16695998  0.16047443  1
  Te  Te109  1  0.16579773  0.16446206  0.50437488  1
  Te  Te110  1  0.16693012  0.16525597  0.82941759  1
  Te  Te111  1  0.16750793  0.50360341  0.16964142  1
  Te  Te112  1  0.16233284  0.50021468  0.50412041  1
  Te  Te113  1  0.16907543  0.50110789  0.82959772  1
  Te  Te114  1  0.16733565  0.82811321  0.16888002  1
  Te  Te115  1  0.16493318  0.83708516  0.50492870  1
  Te  Te116  1  0.16954582  0.83016917  0.82840738  1
  Te  Te117  1  0.49759865  0.17009616  0.17586592  1
  Te  Te118  1  0.50088881  0.16700038  0.49971605  1
  Te  Te119  1  0.50259426  0.16927157  0.83217703  1
  Te  Te120  1  0.50079943  0.49729441  0.16894757  1
  Te  Te121  1  0.50158725  0.49698109  0.50247752  1
  Te  Te122  1  0.49690630  0.49534282  0.83156002  1
  Te  Te123  1  0.50427713  0.83208543  0.16633017  1
  Te  Te124  1  0.50484991  0.83350358  0.49868640  1
  Te  Te125  1  0.49518407  0.82702577  0.83419707  1
  Te  Te126  1  0.83388157  0.16796481  0.17580777  1
  Te  Te127  1  0.83443793  0.17187523  0.49997602  1
  Te  Te128  1  0.83301731  0.16842592  0.83051280  1
  Te  Te129  1  0.82478476  0.50023475  0.16439248  1
  Te  Te130  1  0.83318168  0.49851994  0.50390141  1
  Te  Te131  1  0.82982196  0.50065276  0.83023059  1
  Te  Te132  1  0.82561436  0.83239035  0.16643000  1
  Te  Te133  1  0.83170329  0.83039181  0.49907663  1
  Te  Te134  1  0.83514396  0.82853972  0.83417598  1
  Te  Te135  1  0.16600825  -0.00420316  -0.00532314  1
  Te  Te136  1  0.16262635  0.00695666  0.33184151  1
  Te  Te137  1  0.16629643  0.00048112  0.66872729  1
  Te  Te138  1  0.16676151  0.34023167  -0.00566648  1
  Te  Te139  1  0.16225126  0.32626628  0.33006288  1
  Te  Te140  1  0.16993805  0.33412630  0.67053285  1
  Te  Te141  1  0.16725554  0.66409566  0.00645303  1
  Te  Te142  1  0.16764746  0.66680978  0.32828638  1
  Te  Te143  1  0.16871624  0.66302938  0.66416737  1
  Te  Te144  1  0.50454470  0.00034086  -0.00652533  1
  Te  Te145  1  0.49900528  0.00448705  0.33225470  1
  Te  Te146  1  0.49886827  0.00368584  0.67065667  1
  Te  Te147  1  0.50099788  0.33414264  -0.00361493  1
  Te  Te148  1  0.49896163  0.33421514  0.33963131  1
  Te  Te149  1  0.49502642  0.32620410  0.66545276  1
  Te  Te150  1  0.49958179  0.66229669  0.00119528  1
  Te  Te151  1  0.50068564  0.66305127  0.33111446  1
  Te  Te152  1  0.49609893  0.67068226  0.66720912  1
  Te  Te153  1  0.82840391  0.00669931  0.00031836  1
  Te  Te154  1  0.83922988  0.00263052  0.33425478  1
  Te  Te155  1  0.82740464  0.00405642  0.66608015  1
  Te  Te156  1  0.83401170  0.32506480  0.00255319  1
  Te  Te157  1  0.83613435  0.33582480  0.33693882  1
  Te  Te158  1  0.83670088  0.33448555  0.66041753  1
  Te  Te159  1  0.83365944  0.66645697  -0.00732073  1
  Te  Te160  1  0.83465531  0.65837998  0.33180609  1
  Te  Te161  1  0.83308875  0.66432892  0.67130421  1
  Te  Te162  1  -0.00459218  0.16665947  0.00216096  1
  Te  Te163  1  -0.00103121  0.16837180  0.33402170  1
  Te  Te164  1  -0.00535747  0.16628979  0.66710924  1
  Te  Te165  1  0.00023450  0.50013183  -0.00040619  1
  Te  Te166  1  -0.00070611  0.49534245  0.33664509  1
  Te  Te167  1  0.00006999  0.50054273  0.66701759  1
  Te  Te168  1  0.00535270  0.83346745  -0.00155620  1
  Te  Te169  1  -0.00074874  0.83440046  0.33922428  1
  Te  Te170  1  0.00271309  0.83149294  0.66626495  1
  Te  Te171  1  0.34091248  0.16670209  0.00511283  1
  Te  Te172  1  0.33246836  0.16617229  0.33551153  1
  Te  Te173  1  0.33097484  0.16845663  0.66659814  1
  Te  Te174  1  0.33454385  0.49988317  -0.00279000  1
  Te  Te175  1  0.33860812  0.49981009  0.34310639  1
  Te  Te176  1  0.33354368  0.49925781  0.66525692  1
  Te  Te177  1  0.32593025  0.83364462  -0.00725580  1
  Te  Te178  1  0.33278121  0.83505657  0.33179259  1
  Te  Te179  1  0.32854838  0.82990765  0.67013706  1
  Te  Te180  1  0.66255716  0.16338622  0.00320486  1
  Te  Te181  1  0.66694833  0.16658193  0.33522247  1
  Te  Te182  1  0.66848033  0.16822707  0.66632700  1
  Te  Te183  1  0.66127272  0.50116426  -0.00780347  1
  Te  Te184  1  0.66475106  0.50032689  0.34006299  1
  Te  Te185  1  0.67234502  0.50032353  0.66731709  1
  Te  Te186  1  0.66750495  0.84092938  0.00019147  1
  Te  Te187  1  0.66717689  0.83438302  0.33604443  1
  Te  Te188  1  0.66749158  0.83504616  0.66172193  1
  Te  Te189  1  0.00034775  -0.00141321  0.17348088  1
  Te  Te190  1  0.00297183  -0.00417404  0.49725020  1
  Te  Te191  1  0.00312195  -0.00426423  0.83478232  1
  Te  Te192  1  0.00164764  0.33431167  0.17291445  1
  Te  Te193  1  0.00167579  0.33942033  0.49587111  1
  Te  Te194  1  0.00173037  0.34037592  0.83530706  1
  Te  Te195  1  -0.00049162  0.66727996  0.16774563  1
  Te  Te196  1  -0.00049229  0.66646903  0.50626242  1
  Te  Te197  1  -0.00092772  0.66506533  0.82751350  1
  Te  Te198  1  0.33384732  0.00262568  0.16760435  1
  Te  Te199  1  0.32852723  0.00310837  0.50801713  1
  Te  Te200  1  0.33474613  0.00351546  0.82979035  1
  Te  Te201  1  0.33942261  0.32992710  0.16927602  1
  Te  Te202  1  0.33395240  0.33257418  0.50411206  1
  Te  Te203  1  0.33289032  0.33124884  0.82955595  1
  Te  Te204  1  0.33674528  0.66734538  0.16786203  1
  Te  Te205  1  0.33897177  0.66590942  0.50478489  1
  Te  Te206  1  0.33849188  0.66124782  0.82975461  1
  Te  Te207  1  0.66583109  -0.00572655  0.16836163  1
  Te  Te208  1  0.66781857  0.00280505  0.50526789  1
  Te  Te209  1  0.66736309  0.00296050  0.82944064  1
  Te  Te210  1  0.65874154  0.34057846  0.16539780  1
  Te  Te211  1  0.66596788  0.33146666  0.50054753  1
  Te  Te212  1  0.66534031  0.33234981  0.83264273  1
  Te  Te213  1  0.66201757  0.66573148  0.16564098  1
  Te  Te214  1  0.66076519  0.66816886  0.50048484  1
  Te  Te215  1  0.66323726  0.66496766  0.83256860  1
