# generated using pymatgen
data_AgSbTe2
_symmetry_space_group_name_H-M   'P 1'
_cell_length_a   18.32433231
_cell_length_b   18.32539720
_cell_length_c   18.31975370
_cell_angle_alpha   89.99818006
_cell_angle_beta   90.00071262
_cell_angle_gamma   89.99924314
_symmetry_Int_Tables_number   1
_chemical_formula_structural   AgSbTe2
_chemical_formula_sum   'Ag54 Sb54 Te108'
_cell_volume   6151.78552584
_cell_formula_units_Z   54
loop_
 _symmetry_equiv_pos_site_id
 _symmetry_equiv_pos_as_xyz
  1  'x, y, z'
loop_
 _atom_site_type_symbol
 _atom_site_label
 _atom_site_symmetry_multiplicity
 _atom_site_fract_x
 _atom_site_fract_y
 _atom_site_fract_z
 _atom_site_occupancy
  Ag  Ag0  1  0.83851551  0.67363622  0.49593875  1
  Ag  Ag1  1  0.66533050  0.67640878  0.01034489  1
  Ag  Ag2  1  0.66791838  0.32921908  0.32977806  1
  Ag  Ag3  1  0.33058727  0.83230680  0.83503360  1
  Ag  Ag4  1  0.66929912  0.15671119  0.49091908  1
  Ag  Ag5  1  0.83893069  0.16037862  0.66240475  1
  Ag  Ag6  1  0.67514984  0.67760228  0.33025259  1
  Ag  Ag7  1  0.50066061  -0.00328136  0.83007657  1
  Ag  Ag8  1  0.17004011  0.83161007  0.00480263  1
  Ag  Ag9  1  0.16440951  0.82979556  0.33173030  1
  Ag  Ag10  1  0.15889230  0.00170676  0.16920630  1
  Ag  Ag11  1  0.16455263  0.16600979  0.33732233  1
  Ag  Ag12  1  0.67597059  0.50921977  0.16988561  1
  Ag  Ag13  1  0.15886598  0.16435555  0.65547384  1
  Ag  Ag14  1  0.66458928  -0.00485674  0.00949684  1
  Ag  Ag15  1  0.49933447  0.32585939  0.83655944  1
  Ag  Ag16  1  0.32081136  0.16680096  0.50006380  1
  Ag  Ag17  1  0.83530924  0.51653302  0.66390389  1
  Ag  Ag18  1  0.50652925  0.15915500  0.00032656  1
  Ag  Ag19  1  -0.00500472  0.16949648  0.17022102  1
  Ag  Ag20  1  0.50200626  0.83622313  -0.00115136  1
  Ag  Ag21  1  0.66719365  -0.00762678  0.32847276  1
  Ag  Ag22  1  0.82661416  0.82975026  0.33820439  1
  Ag  Ag23  1  0.32785747  0.66948466  0.33686366  1
  Ag  Ag24  1  0.83780745  0.83375530  0.65761030  1
  Ag  Ag25  1  0.16057763  0.67197041  0.82879717  1
  Ag  Ag26  1  0.67012576  0.83525598  0.17642678  1
  Ag  Ag27  1  0.32939160  0.50592548  0.49832880  1
  Ag  Ag28  1  0.32913568  -0.00243435  0.66426644  1
  Ag  Ag29  1  0.51314920  0.83166033  0.34269208  1
  Ag  Ag30  1  0.00067925  -0.00745286  0.66399357  1
  Ag  Ag31  1  0.16272128  0.66914298  0.49538981  1
  Ag  Ag32  1  -0.00557292  0.83117547  0.50230949  1
  Ag  Ag33  1  0.33488075  0.67046422  0.00384179  1
  Ag  Ag34  1  -0.00320453  0.67477435  0.65574535  1
  Ag  Ag35  1  0.67637970  0.16077588  0.17194716  1
  Ag  Ag36  1  0.83736370  0.32662416  0.16699820  1
  Ag  Ag37  1  0.16551410  0.32496753  0.49095146  1
  Ag  Ag38  1  0.50292827  -0.00482282  0.50377345  1
  Ag  Ag39  1  0.33161406  0.33465463  0.00085376  1
  Ag  Ag40  1  0.00246750  0.16172493  0.49736185  1
  Ag  Ag41  1  0.83071685  0.66940863  0.17111765  1
  Ag  Ag42  1  0.16564989  0.50790385  0.33473964  1
  Ag  Ag43  1  0.83136890  0.00283223  0.16647168  1
  Ag  Ag44  1  0.66948303  0.83479349  0.49137475  1
  Ag  Ag45  1  0.15659169  0.32845302  0.17250412  1
  Ag  Ag46  1  0.00302818  0.32946834  0.00780258  1
  Ag  Ag47  1  0.50378189  0.83570282  0.65684725  1
  Ag  Ag48  1  0.00250953  0.83005080  0.82458213  1
  Ag  Ag49  1  -0.00082762  0.67193509  0.33772250  1
  Ag  Ag50  1  -0.00524016  0.49580564  0.16866153  1
  Ag  Ag51  1  0.50219577  0.67855162  0.49659858  1
  Ag  Ag52  1  0.83797172  0.67074514  0.82678392  1
  Ag  Ag53  1  0.82916558  0.16586030  0.01228716  1
  Sb  Sb54  1  -0.00501692  0.83399627  0.17048382  1
  Sb  Sb55  1  0.33896939  -0.00304951  -0.00245415  1
  Sb  Sb56  1  -0.00391089  0.00145952  -0.00022242  1
  Sb  Sb57  1  0.33238818  0.32753798  0.66845111  1
  Sb  Sb58  1  0.66631353  0.32951681  0.00804657  1
  Sb  Sb59  1  -0.00038507  0.33480351  0.32858092  1
  Sb  Sb60  1  0.50126619  0.15873564  0.66745716  1
  Sb  Sb61  1  0.50169590  0.16043718  0.33133818  1
  Sb  Sb62  1  0.33445939  0.83340050  0.50140889  1
  Sb  Sb63  1  0.66655248  0.83347437  0.83326112  1
  Sb  Sb64  1  0.33396742  0.16106337  0.83076312  1
  Sb  Sb65  1  0.16881721  0.33714404  0.83575171  1
  Sb  Sb66  1  -0.00246477  -0.00503227  0.33719429  1
  Sb  Sb67  1  0.67577019  0.66995394  0.66062588  1
  Sb  Sb68  1  0.32834328  0.67373958  0.66289670  1
  Sb  Sb69  1  0.83126086  0.83449358  0.00214142  1
  Sb  Sb70  1  0.50874817  0.67019718  0.17211320  1
  Sb  Sb71  1  0.33084838  0.50160653  0.17093522  1
  Sb  Sb72  1  0.66679093  0.16539840  0.83531628  1
  Sb  Sb73  1  0.16617755  0.16352165  0.00359112  1
  Sb  Sb74  1  -0.00055839  0.16061346  0.83180664  1
  Sb  Sb75  1  0.16563416  0.50494688  0.00727024  1
  Sb  Sb76  1  0.66880684  -0.00204363  0.66221600  1
  Sb  Sb77  1  0.50080990  0.50339825  0.00042529  1
  Sb  Sb78  1  0.83699084  0.50875713  0.33330906  1
  Sb  Sb79  1  0.83325494  0.49887084  0.00351876  1
  Sb  Sb80  1  0.82950491  -0.00515189  0.83522767  1
  Sb  Sb81  1  0.50594584  -0.00230152  0.16695056  1
  Sb  Sb82  1  0.16239245  0.83628803  0.66407649  1
  Sb  Sb83  1  0.50480379  0.50865437  0.66455284  1
  Sb  Sb84  1  -0.00075532  0.50727891  0.83610747  1
  Sb  Sb85  1  0.66563268  0.50588555  0.49219449  1
  Sb  Sb86  1  0.83493845  0.16070286  0.33179750  1
  Sb  Sb87  1  0.33175067  0.33626445  0.33154597  1
  Sb  Sb88  1  0.83736956  0.33393617  0.49374418  1
  Sb  Sb89  1  0.83116008  0.33558884  0.83752848  1
  Sb  Sb90  1  0.00303078  0.50564421  0.49475133  1
  Sb  Sb91  1  -0.00075914  0.33218402  0.66734445  1
  Sb  Sb92  1  0.33089376  0.16651047  0.16976123  1
  Sb  Sb93  1  0.16838688  -0.00121519  0.49668966  1
  Sb  Sb94  1  0.33532771  0.83221281  0.16470524  1
  Sb  Sb95  1  0.16282545  0.50004516  0.65848091  1
  Sb  Sb96  1  0.66825290  0.50296856  0.83984192  1
  Sb  Sb97  1  0.33287185  0.50611787  0.82971600  1
  Sb  Sb98  1  0.49668578  0.32870856  0.50194711  1
  Sb  Sb99  1  0.16055293  0.66835250  0.17279075  1
  Sb  Sb100  1  0.50253329  0.33098195  0.16423316  1
  Sb  Sb101  1  0.33585134  -0.00553289  0.33749610  1
  Sb  Sb102  1  0.82976020  -0.00618684  0.49569563  1
  Sb  Sb103  1  0.49821536  0.50927790  0.33486222  1
  Sb  Sb104  1  0.50027716  0.67376936  0.83100574  1
  Sb  Sb105  1  0.66775681  0.33093336  0.65990127  1
  Sb  Sb106  1  -0.00139876  0.66677163  0.00346427  1
  Sb  Sb107  1  0.16899624  -0.00690794  0.83516789  1
  Te  Te108  1  0.16476986  0.16731625  0.16788933  1
  Te  Te109  1  0.16417025  0.16306826  0.49844067  1
  Te  Te110  1  0.16641594  0.16736392  0.82925550  1
  Te  Te111  1  0.16356030  0.49540522  0.17328855  1
  Te  Te112  1  0.16924279  0.50345996  0.49508513  1
  Te  Te113  1  0.16719855  0.50977161  0.83224725  1
  Te  Te114  1  0.16483857  0.83559954  0.16671530  1
  Te  Te115  1  0.16386907  0.83153969  0.49664157  1
  Te  Te116  1  0.16647538  0.82995697  0.83229920  1
  Te  Te117  1  0.50144448  0.16525946  0.16102042  1
  Te  Te118  1  0.50816639  0.16256631  0.49990453  1
  Te  Te119  1  0.49979867  0.16317108  0.83763389  1
  Te  Te120  1  0.50620678  0.49870458  0.16713338  1
  Te  Te121  1  0.49319347  0.50111630  0.50164051  1
  Te  Te122  1  0.50007032  0.49473145  0.83173605  1
  Te  Te123  1  0.50584746  0.83368686  0.16165274  1
  Te  Te124  1  0.49693949  0.83426468  0.49948469  1
  Te  Te125  1  0.49928580  0.83610759  0.83818833  1
  Te  Te126  1  0.83453210  0.16529330  0.16990646  1
  Te  Te127  1  0.83430547  0.16717220  0.49995379  1
  Te  Te128  1  0.83411890  0.16700811  0.82925466  1
  Te  Te129  1  0.83395361  0.50168723  0.16765340  1
  Te  Te130  1  0.83387184  0.50245192  0.50486789  1
  Te  Te131  1  0.83332390  0.50615996  0.82717612  1
  Te  Te132  1  0.83029835  0.83308514  0.16775303  1
  Te  Te133  1  0.83384013  0.83291121  0.49867625  1
  Te  Te134  1  0.83658172  0.82924746  0.83206594  1
  Te  Te135  1  0.16704956  -0.00569905  0.00432337  1
  Te  Te136  1  0.16744655  0.00068530  0.32928162  1
  Te  Te137  1  0.16637568  0.00426228  0.66773036  1
  Te  Te138  1  0.16762007  0.33353312  0.00308881  1
  Te  Te139  1  0.16681362  0.32871604  0.33249041  1
  Te  Te140  1  0.16661265  0.32808691  0.66398322  1
  Te  Te141  1  0.16849880  0.67119732  0.00117904  1
  Te  Te142  1  0.16640961  0.66788749  0.33358379  1
  Te  Te143  1  0.16017961  0.66594579  0.66386343  1
  Te  Te144  1  0.50276939  -0.00108736  -0.00038480  1
  Te  Te145  1  0.50358850  -0.00698593  0.33698177  1
  Te  Te146  1  0.50175054  -0.00466795  0.66708936  1
  Te  Te147  1  0.49734764  0.33331952  -0.00293219  1
  Te  Te148  1  0.50399715  0.33353671  0.33403420  1
  Te  Te149  1  0.50017301  0.33379702  0.67347662  1
  Te  Te150  1  0.49916113  0.67101213  -0.00132197  1
  Te  Te151  1  0.49609180  0.67259696  0.33756474  1
  Te  Te152  1  0.50000184  0.67420769  0.66098047  1
  Te  Te153  1  0.82888687  0.00506088  0.00337549  1
  Te  Te154  1  0.82921669  -0.00792646  0.32755392  1
  Te  Te155  1  0.83658502  -0.00159913  0.66760183  1
  Te  Te156  1  0.83512941  0.32919643  0.00425055  1
  Te  Te157  1  0.83000828  0.33625970  0.32748456  1
  Te  Te158  1  0.83340904  0.32480240  0.66750226  1
  Te  Te159  1  0.82985916  0.66626484  0.00451887  1
  Te  Te160  1  0.83444103  0.66883044  0.33478207  1
  Te  Te161  1  0.83668741  0.67304826  0.66521634  1
  Te  Te162  1  -0.00322553  0.16867993  0.00264503  1
  Te  Te163  1  0.00308483  0.16473675  0.33379932  1
  Te  Te164  1  -0.00031305  0.16658676  0.66558633  1
  Te  Te165  1  0.00038505  0.49356118  0.00692506  1
  Te  Te166  1  0.00471180  0.50521006  0.32867508  1
  Te  Te167  1  -0.00521397  0.50177747  0.66739808  1
  Te  Te168  1  0.00411328  0.83377496  -0.00291627  1
  Te  Te169  1  0.00380598  0.83166962  0.33714311  1
  Te  Te170  1  -0.00003848  0.83299336  0.66400712  1
  Te  Te171  1  0.33692905  0.16954057  -0.00028213  1
  Te  Te172  1  0.33107578  0.16653152  0.33873818  1
  Te  Te173  1  0.33351078  0.16038707  0.66206840  1
  Te  Te174  1  0.33295259  0.50229745  -0.00103814  1
  Te  Te175  1  0.32886086  0.50483629  0.33788625  1
  Te  Te176  1  0.33392828  0.49991183  0.65965823  1
  Te  Te177  1  0.33320546  0.83113800  -0.00227517  1
  Te  Te178  1  0.32546736  0.82820484  0.33210242  1
  Te  Te179  1  0.33577081  0.83833195  0.67098232  1
  Te  Te180  1  0.66752463  0.16459782  0.00211499  1
  Te  Te181  1  0.66689327  0.16489816  0.33240744  1
  Te  Te182  1  0.67196317  0.16600102  0.66123984  1
  Te  Te183  1  0.66656346  0.50631005  0.00885939  1
  Te  Te184  1  0.66602385  0.49967433  0.32783814  1
  Te  Te185  1  0.67391411  0.49956091  0.66601683  1
  Te  Te186  1  0.66596717  0.83446685  -0.00057323  1
  Te  Te187  1  0.66784434  0.83265334  0.33524170  1
  Te  Te188  1  0.66732662  0.83294262  0.66288628  1
  Te  Te189  1  -0.00260459  0.00394548  0.16704936  1
  Te  Te190  1  -0.00021908  0.00062985  0.50397917  1
  Te  Te191  1  -0.00055370  -0.00753448  0.82715533  1
  Te  Te192  1  -0.00137029  0.33145635  0.16781613  1
  Te  Te193  1  0.00567234  0.32795442  0.49900584  1
  Te  Te194  1  0.00059326  0.33452849  0.84214824  1
  Te  Te195  1  -0.00700149  0.66524947  0.17096224  1
  Te  Te196  1  -0.00035837  0.66693812  0.49842909  1
  Te  Te197  1  -0.00059485  0.67086382  0.83618323  1
  Te  Te198  1  0.32401320  0.00030580  0.16713862  1
  Te  Te199  1  0.33813430  0.00401915  0.50374151  1
  Te  Te200  1  0.33770983  -0.00596559  0.82904102  1
  Te  Te201  1  0.33065637  0.33495724  0.16166454  1
  Te  Te202  1  0.32859165  0.32845081  0.50004629  1
  Te  Te203  1  0.33605540  0.33428834  0.83814390  1
  Te  Te204  1  0.33279519  0.66513491  0.16451432  1
  Te  Te205  1  0.32951132  0.66732375  0.49874898  1
  Te  Te206  1  0.33149559  0.67169573  0.83495702  1
  Te  Te207  1  0.66752282  -0.00051173  0.16848440  1
  Te  Te208  1  0.66404109  -0.00197096  0.49685461  1
  Te  Te209  1  0.66110807  0.00042491  0.84015665  1
  Te  Te210  1  0.66942849  0.32633492  0.17028856  1
  Te  Te211  1  0.66669218  0.33316849  0.49224630  1
  Te  Te212  1  0.66121680  0.33434788  0.83373958  1
  Te  Te213  1  0.66949128  0.67031190  0.16936463  1
  Te  Te214  1  0.66666914  0.66945593  0.49451099  1
  Te  Te215  1  0.67079233  0.66564110  0.83891418  1
