# generated using pymatgen
data_AgSbTe2
_symmetry_space_group_name_H-M   'P 1'
_cell_length_a   18.32419097
_cell_length_b   18.32307797
_cell_length_c   18.31747963
_cell_angle_alpha   90.00386078
_cell_angle_beta   89.99917925
_cell_angle_gamma   90.00112138
_symmetry_Int_Tables_number   1
_chemical_formula_structural   AgSbTe2
_chemical_formula_sum   'Ag54 Sb54 Te108'
_cell_volume   6150.19597908
_cell_formula_units_Z   54
loop_
 _symmetry_equiv_pos_site_id
 _symmetry_equiv_pos_as_xyz
  1  'x, y, z'
loop_
 _atom_site_type_symbol
 _atom_site_label
 _atom_site_symmetry_multiplicity
 _atom_site_fract_x
 _atom_site_fract_y
 _atom_site_fract_z
 _atom_site_occupancy
  Ag  Ag0  1  0.17337210  0.65731396  0.16749859  1
  Ag  Ag1  1  0.17388009  0.17238258  0.67486676  1
  Ag  Ag2  1  0.33317404  0.17478234  0.16334529  1
  Ag  Ag3  1  -0.00283427  0.49911736  0.83275873  1
  Ag  Ag4  1  0.83162965  0.67008216  0.49543087  1
  Ag  Ag5  1  0.50112567  0.16913099  0.00010282  1
  Ag  Ag6  1  0.16814756  0.49447794  0.00068783  1
  Ag  Ag7  1  -0.01080738  0.00394003  0.00070225  1
  Ag  Ag8  1  0.50128901  0.33166622  0.50876767  1
  Ag  Ag9  1  0.33362844  0.65912287  0.67118795  1
  Ag  Ag10  1  0.66516922  0.66044918  0.00229886  1
  Ag  Ag11  1  0.33678116  0.00628750  0.67280112  1
  Ag  Ag12  1  0.50060254  0.16973897  0.32426991  1
  Ag  Ag13  1  0.33302961  0.50290938  0.83321187  1
  Ag  Ag14  1  0.82984278  0.16941270  -0.00095567  1
  Ag  Ag15  1  -0.00681417  0.33357357  0.32685995  1
  Ag  Ag16  1  0.83085410  0.00623897  0.84234473  1
  Ag  Ag17  1  0.16820322  0.82813425  0.32948867  1
  Ag  Ag18  1  0.17281392  0.00320626  0.83480785  1
  Ag  Ag19  1  0.49465354  0.17175277  0.67337147  1
  Ag  Ag20  1  0.16868378  0.50228863  0.31826175  1
  Ag  Ag21  1  0.16958491  0.33870316  0.16445545  1
  Ag  Ag22  1  0.32966523  0.49939128  0.15996151  1
  Ag  Ag23  1  0.83250689  0.33234795  0.15838470  1
  Ag  Ag24  1  0.50322178  0.33157884  0.83291552  1
  Ag  Ag25  1  -0.00233326  0.83440606  0.16718783  1
  Ag  Ag26  1  0.33669681  0.66161178  0.00591544  1
  Ag  Ag27  1  0.50387194  0.83602187  0.33378809  1
  Ag  Ag28  1  0.33544706  0.83015956  0.83036534  1
  Ag  Ag29  1  0.49984529  0.00683484  0.83184147  1
  Ag  Ag30  1  0.16639895  0.17133636  0.00088840  1
  Ag  Ag31  1  0.83413584  0.00378479  0.16067594  1
  Ag  Ag32  1  0.49619839  0.83260173  0.66693108  1
  Ag  Ag33  1  0.48999174  0.49361267  0.67212612  1
  Ag  Ag34  1  0.83040443  0.83548322  0.33056974  1
  Ag  Ag35  1  0.83394876  0.49088550  -0.00376026  1
  Ag  Ag36  1  0.67005391  0.49815257  0.83605193  1
  Ag  Ag37  1  0.66751688  0.83439690  0.49663777  1
  Ag  Ag38  1  0.66453681  0.33046378  0.32372856  1
  Ag  Ag39  1  0.66888437  0.33248564  0.00283879  1
  Ag  Ag40  1  0.66780723  -0.00043259  0.32837580  1
  Ag  Ag41  1  0.48948001  0.66144965  0.16551212  1
  Ag  Ag42  1  0.83518605  0.66594731  0.16555528  1
  Ag  Ag43  1  0.00039839  0.16795650  0.16281498  1
  Ag  Ag44  1  0.00203373  0.66237743  0.66776762  1
  Ag  Ag45  1  0.82978348  -0.00258582  0.49787977  1
  Ag  Ag46  1  0.83488473  0.49647955  0.67847282  1
  Ag  Ag47  1  0.49909315  0.33275561  0.16353434  1
  Ag  Ag48  1  0.82760356  0.33648757  0.84088839  1
  Ag  Ag49  1  0.67257054  0.00706483  0.00090812  1
  Ag  Ag50  1  0.17375864  0.49702799  0.67535368  1
  Ag  Ag51  1  0.83354801  0.17044692  0.67670885  1
  Ag  Ag52  1  0.33178795  0.66643659  0.32319392  1
  Ag  Ag53  1  0.33786918  0.33528355  0.66999537  1
  Sb  Sb54  1  0.66293708  0.83138713  0.83108917  1
  Sb  Sb55  1  0.17152649  0.33443007  0.49781404  1
  Sb  Sb56  1  0.66464346  0.66482858  0.67123309  1
  Sb  Sb57  1  0.16803130  0.83235963  0.00352125  1
  Sb  Sb58  1  0.33070437  0.83020528  0.16450532  1
  Sb  Sb59  1  0.00263793  0.83160597  0.83692659  1
  Sb  Sb60  1  0.66681068  0.50117086  0.50482622  1
  Sb  Sb61  1  0.17109841  0.16831658  0.32670707  1
  Sb  Sb62  1  0.16987216  0.66515533  0.83751165  1
  Sb  Sb63  1  0.00101644  -0.00192934  0.67403815  1
  Sb  Sb64  1  0.33460332  0.50020722  0.50347208  1
  Sb  Sb65  1  -0.00024433  0.66609907  -0.00005343  1
  Sb  Sb66  1  0.00199432  0.33607772  0.66520522  1
  Sb  Sb67  1  0.82838228  0.16402533  0.32673972  1
  Sb  Sb68  1  0.33935244  -0.00402441  0.33524214  1
  Sb  Sb69  1  0.83307557  0.66239990  0.83684142  1
  Sb  Sb70  1  -0.00577044  0.83249676  0.49446908  1
  Sb  Sb71  1  0.50016846  0.83569915  0.00055946  1
  Sb  Sb72  1  0.33513793  0.16879964  0.83577955  1
  Sb  Sb73  1  0.16248988  -0.00042756  0.50492215  1
  Sb  Sb74  1  0.00259720  0.66336324  0.33240619  1
  Sb  Sb75  1  0.50340879  0.66452457  0.49806865  1
  Sb  Sb76  1  0.33578475  -0.00021567  -0.00494375  1
  Sb  Sb77  1  0.67059523  0.83279367  0.17056465  1
  Sb  Sb78  1  0.66639386  0.16959389  0.16371643  1
  Sb  Sb79  1  0.33733943  0.33786350  0.33006876  1
  Sb  Sb80  1  0.82624366  0.33314556  0.50103997  1
  Sb  Sb81  1  0.83303258  0.83622422  0.00525044  1
  Sb  Sb82  1  0.16756884  0.33330100  0.83874564  1
  Sb  Sb83  1  0.66128496  0.33406909  0.67132372  1
  Sb  Sb84  1  0.33889292  0.83183111  0.50362061  1
  Sb  Sb85  1  0.66299611  0.49906469  0.16079082  1
  Sb  Sb86  1  0.66601857  0.17206769  0.83582241  1
  Sb  Sb87  1  0.00459991  0.49786378  0.16078379  1
  Sb  Sb88  1  0.49987123  0.49432019  -0.00427872  1
  Sb  Sb89  1  0.50503954  0.00346712  0.16275588  1
  Sb  Sb90  1  -0.00224465  0.16725559  0.49616892  1
  Sb  Sb91  1  0.17304913  0.83068075  0.66514036  1
  Sb  Sb92  1  0.66477340  0.66676748  0.32753809  1
  Sb  Sb93  1  0.83704555  0.50110980  0.32796995  1
  Sb  Sb94  1  0.33895175  0.33686141  -0.00126979  1
  Sb  Sb95  1  0.16455380  0.66546765  0.49741481  1
  Sb  Sb96  1  0.33603908  0.16727074  0.50093989  1
  Sb  Sb97  1  0.16255553  0.00158904  0.16037176  1
  Sb  Sb98  1  0.49594959  0.49803181  0.33263377  1
  Sb  Sb99  1  0.50540145  0.00276962  0.50465479  1
  Sb  Sb100  1  0.82951263  0.83313501  0.66267949  1
  Sb  Sb101  1  -0.00613106  0.00201710  0.32564197  1
  Sb  Sb102  1  0.66398383  0.00118977  0.67128553  1
  Sb  Sb103  1  -0.00172924  0.17119807  0.83885741  1
  Sb  Sb104  1  0.66643929  0.16354803  0.49860811  1
  Sb  Sb105  1  -0.00631418  0.32926343  0.00477082  1
  Sb  Sb106  1  -0.00155751  0.50052079  0.50517072  1
  Sb  Sb107  1  0.49690324  0.66353302  0.83809920  1
  Te  Te108  1  0.16766392  0.16903908  0.16325463  1
  Te  Te109  1  0.16623379  0.16628868  0.50879360  1
  Te  Te110  1  0.16526688  0.16563627  0.83485282  1
  Te  Te111  1  0.16764119  0.49911709  0.16223463  1
  Te  Te112  1  0.16632420  0.49928186  0.50691668  1
  Te  Te113  1  0.17125693  0.49930513  0.83550307  1
  Te  Te114  1  0.16277453  0.83243736  0.17069567  1
  Te  Te115  1  0.16547241  0.83362318  0.49028774  1
  Te  Te116  1  0.17084218  0.83937181  0.83376832  1
  Te  Te117  1  0.49685702  0.16792676  0.16366683  1
  Te  Te118  1  0.50006765  0.17143893  0.50294555  1
  Te  Te119  1  0.50050120  0.16878657  0.83417555  1
  Te  Te120  1  0.49356608  0.50015950  0.16604341  1
  Te  Te121  1  0.50174567  0.49452841  0.50846184  1
  Te  Te122  1  0.49545757  0.49748461  0.83061745  1
  Te  Te123  1  0.49937159  0.83158159  0.17175809  1
  Te  Te124  1  0.50538918  0.83314964  0.49788887  1
  Te  Te125  1  0.49630281  0.83577358  0.82999804  1
  Te  Te126  1  0.83666803  0.17024246  0.16292737  1
  Te  Te127  1  0.83365800  0.16305035  0.50544329  1
  Te  Te128  1  0.83307811  0.16714841  0.83588877  1
  Te  Te129  1  0.83459602  0.49797561  0.16148545  1
  Te  Te130  1  0.83261426  0.50401861  0.50373697  1
  Te  Te131  1  0.83258770  0.50008666  0.83624558  1
  Te  Te132  1  0.83619649  0.83227209  0.17071872  1
  Te  Te133  1  0.82911303  0.83347484  0.49610242  1
  Te  Te134  1  0.83343046  0.83973015  0.83163844  1
  Te  Te135  1  0.16842992  0.00341961  -0.00538421  1
  Te  Te136  1  0.16783701  -0.00335009  0.33512975  1
  Te  Te137  1  0.16968447  0.00131845  0.67219557  1
  Te  Te138  1  0.16646762  0.33230425  0.00376171  1
  Te  Te139  1  0.16854312  0.33580556  0.32960801  1
  Te  Te140  1  0.16936730  0.33330645  0.66679947  1
  Te  Te141  1  0.16782594  0.66315583  0.00580599  1
  Te  Te142  1  0.16882783  0.66474789  0.33073263  1
  Te  Te143  1  0.16885984  0.66249815  0.66559746  1
  Te  Te144  1  0.50339160  0.00493551  -0.00520940  1
  Te  Te145  1  0.50554014  -0.00017245  0.33456682  1
  Te  Te146  1  0.49810945  0.00273916  0.67034012  1
  Te  Te147  1  0.50494133  0.32876884  0.00128539  1
  Te  Te148  1  0.50168211  0.33191930  0.32370434  1
  Te  Te149  1  0.50017653  0.33288697  0.67161918  1
  Te  Te150  1  0.49983012  0.66805437  0.00582734  1
  Te  Te151  1  0.49665018  0.66703259  0.32964407  1
  Te  Te152  1  0.49617624  0.66723685  0.66602164  1
  Te  Te153  1  0.83081280  0.00046218  0.00158867  1
  Te  Te154  1  0.82890424  -0.00174476  0.32973405  1
  Te  Te155  1  0.83296053  0.00264187  0.66996382  1
  Te  Te156  1  0.83116094  0.33196545  0.00020948  1
  Te  Te157  1  0.82981362  0.33250342  0.33183974  1
  Te  Te158  1  0.83317471  0.33289063  0.66733060  1
  Te  Te159  1  0.83212815  0.66562162  0.00428172  1
  Te  Te160  1  0.83333870  0.66879195  0.33051795  1
  Te  Te161  1  0.83317251  0.66424679  0.66763435  1
  Te  Te162  1  0.00167377  0.16382326  0.00304602  1
  Te  Te163  1  0.00134863  0.17114024  0.32637067  1
  Te  Te164  1  -0.00127553  0.16702894  0.66624308  1
  Te  Te165  1  0.00084954  0.50005636  -0.00612982  1
  Te  Te166  1  0.00605521  0.49503920  0.33353921  1
  Te  Te167  1  -0.00125378  0.50143112  0.67140156  1
  Te  Te168  1  0.00098171  0.83947832  0.00518008  1
  Te  Te169  1  -0.00259819  0.83358862  0.32789887  1
  Te  Te170  1  0.00197664  0.82593771  0.66701541  1
  Te  Te171  1  0.33312320  0.16684862  0.00388013  1
  Te  Te172  1  0.33984997  0.16543430  0.32858381  1
  Te  Te173  1  0.33391166  0.16793529  0.66763913  1
  Te  Te174  1  0.33275655  0.50205100  -0.00035205  1
  Te  Te175  1  0.32860418  0.50520896  0.33149675  1
  Te  Te176  1  0.33283097  0.49918006  0.66714657  1
  Te  Te177  1  0.33367336  0.82495904  -0.00747397  1
  Te  Te178  1  0.33529747  0.82912837  0.33401186  1
  Te  Te179  1  0.33692951  0.83110744  0.66983227  1
  Te  Te180  1  0.66802088  0.16665148  -0.00012847  1
  Te  Te181  1  0.66076237  0.16595408  0.33243776  1
  Te  Te182  1  0.66879724  0.16668850  0.66597504  1
  Te  Te183  1  0.66748553  0.49798929  -0.00303249  1
  Te  Te184  1  0.66697848  0.49430112  0.33382339  1
  Te  Te185  1  0.67189894  0.50081473  0.67282697  1
  Te  Te186  1  0.66551064  0.83199831  -0.00083276  1
  Te  Te187  1  0.66651215  0.83342276  0.33579098  1
  Te  Te188  1  0.65868091  0.83290556  0.66187638  1
  Te  Te189  1  -0.00409370  0.00156305  0.16202459  1
  Te  Te190  1  -0.00927282  -0.00052852  0.50053944  1
  Te  Te191  1  -0.00376975  -0.00059999  0.83976605  1
  Te  Te192  1  -0.00076956  0.33208380  0.16835534  1
  Te  Te193  1  -0.00063223  0.33300869  0.48917181  1
  Te  Te194  1  -0.00658028  0.33954004  0.83168650  1
  Te  Te195  1  -0.00317899  0.66898605  0.16663503  1
  Te  Te196  1  -0.00755183  0.66745708  0.50585220  1
  Te  Te197  1  0.00189429  0.66337297  0.82907838  1
  Te  Te198  1  0.33334899  0.00290143  0.16633596  1
  Te  Te199  1  0.33224860  -0.00058697  0.50925044  1
  Te  Te200  1  0.33595543  -0.00028833  0.83112142  1
  Te  Te201  1  0.33374637  0.33489297  0.16559040  1
  Te  Te202  1  0.34085990  0.33311398  0.50650157  1
  Te  Te203  1  0.33592123  0.33873576  0.83011881  1
  Te  Te204  1  0.33218199  0.66741689  0.16536374  1
  Te  Te205  1  0.33401865  0.66730663  0.50239937  1
  Te  Te206  1  0.33303496  0.66550075  0.83140777  1
  Te  Te207  1  0.67222125  -0.00057345  0.16575906  1
  Te  Te208  1  0.67118811  -0.00368128  0.49545593  1
  Te  Te209  1  0.66598414  -0.00267827  0.83897965  1
  Te  Te210  1  0.66680447  0.33528633  0.16405591  1
  Te  Te211  1  0.65976958  0.33367171  0.49182920  1
  Te  Te212  1  0.66687818  0.33862187  0.83707223  1
  Te  Te213  1  0.67077361  0.66564627  0.16147181  1
  Te  Te214  1  0.67188962  0.67015452  0.49891395  1
  Te  Te215  1  0.66514082  0.66132583  0.84166604  1
