# generated using pymatgen
data_AgSbTe2
_symmetry_space_group_name_H-M   'P 1'
_cell_length_a   18.31184642
_cell_length_b   18.31179483
_cell_length_c   18.31465297
_cell_angle_alpha   89.99829148
_cell_angle_beta   90.00103588
_cell_angle_gamma   90.00047315
_symmetry_Int_Tables_number   1
_chemical_formula_structural   AgSbTe2
_chemical_formula_sum   'Ag54 Sb54 Te108'
_cell_volume   6141.32024625
_cell_formula_units_Z   54
loop_
 _symmetry_equiv_pos_site_id
 _symmetry_equiv_pos_as_xyz
  1  'x, y, z'
loop_
 _atom_site_type_symbol
 _atom_site_label
 _atom_site_symmetry_multiplicity
 _atom_site_fract_x
 _atom_site_fract_y
 _atom_site_fract_z
 _atom_site_occupancy
  Ag  Ag0  1  0.00272378  0.49993426  0.16132160  1
  Ag  Ag1  1  0.49643423  0.17280689  0.32560138  1
  Ag  Ag2  1  -0.00363812  -0.00055493  -0.00980043  1
  Ag  Ag3  1  0.83123297  -0.00416670  0.83238166  1
  Ag  Ag4  1  0.33715285  0.16540431  0.83250453  1
  Ag  Ag5  1  0.33183031  0.33762658  0.00874306  1
  Ag  Ag6  1  0.83432960  0.33452571  0.83147512  1
  Ag  Ag7  1  0.16221674  0.66301605  0.82825010  1
  Ag  Ag8  1  0.16910368  0.15982555  0.66381527  1
  Ag  Ag9  1  0.66397506  0.15892002  0.83600765  1
  Ag  Ag10  1  -0.00135550  0.50795855  0.83345001  1
  Ag  Ag11  1  0.17640715  0.17477186  0.33716011  1
  Ag  Ag12  1  0.33353002  0.33497390  0.32826803  1
  Ag  Ag13  1  0.67700760  0.83855563  0.83310132  1
  Ag  Ag14  1  0.83402341  0.33562793  0.49686301  1
  Ag  Ag15  1  0.83322169  0.66423204  0.16020920  1
  Ag  Ag16  1  0.67192385  0.49974546  0.49843641  1
  Ag  Ag17  1  0.49410948  0.50353946  0.66654198  1
  Ag  Ag18  1  0.16033291  0.00386569  0.50624655  1
  Ag  Ag19  1  0.00072841  0.33844163  0.66854386  1
  Ag  Ag20  1  0.83422689  0.82630984  -0.00641755  1
  Ag  Ag21  1  0.83396777  0.83084312  0.33152355  1
  Ag  Ag22  1  0.83673547  0.67120210  0.83556539  1
  Ag  Ag23  1  0.83332023  0.49992553  0.33202614  1
  Ag  Ag24  1  0.32379886  0.66547298  0.67015351  1
  Ag  Ag25  1  0.50498779  0.00796049  0.16086192  1
  Ag  Ag26  1  0.83706608  -0.00192585  0.50245882  1
  Ag  Ag27  1  0.17231874  0.49503617  0.32868337  1
  Ag  Ag28  1  0.83496803  0.66569753  0.49932074  1
  Ag  Ag29  1  0.00214418  -0.00683125  0.66903678  1
  Ag  Ag30  1  0.49323479  0.49393403  0.33297295  1
  Ag  Ag31  1  0.66658661  0.33294447  0.33290764  1
  Ag  Ag32  1  0.32807329  0.49395319  0.17048318  1
  Ag  Ag33  1  0.33232657  0.65491542  0.33051982  1
  Ag  Ag34  1  0.16288953  0.50096128  0.00216339  1
  Ag  Ag35  1  -0.00249364  0.83482268  0.51170567  1
  Ag  Ag36  1  0.33048843  0.16703117  0.49736276  1
  Ag  Ag37  1  0.16552744  0.50398415  0.66883706  1
  Ag  Ag38  1  0.50866327  0.00122556  0.83409049  1
  Ag  Ag39  1  0.65850672  0.16570281  0.16590475  1
  Ag  Ag40  1  0.83966590  0.50692721  0.00195576  1
  Ag  Ag41  1  0.49783294  0.66798358  0.83398716  1
  Ag  Ag42  1  0.16243342  0.83345380  0.66742721  1
  Ag  Ag43  1  -0.00509560  0.82807704  0.82912776  1
  Ag  Ag44  1  0.67336902  0.00093642  0.67198101  1
  Ag  Ag45  1  0.67525336  0.66426524  -0.00378822  1
  Ag  Ag46  1  0.83188713  -0.00155554  0.16511939  1
  Ag  Ag47  1  0.33493163  0.65946242  -0.00411380  1
  Ag  Ag48  1  0.16977448  0.33721549  0.16957767  1
  Ag  Ag49  1  0.49773696  0.16492133  0.00596056  1
  Ag  Ag50  1  0.82979705  0.16954574  0.33323327  1
  Ag  Ag51  1  0.33869965  0.17329416  0.16979281  1
  Ag  Ag52  1  0.32712755  0.00180339  0.66853050  1
  Ag  Ag53  1  0.00440015  0.66853266  0.67103733  1
  Sb  Sb54  1  0.16226043  0.33018747  0.49789260  1
  Sb  Sb55  1  0.67007775  0.00601671  0.33496500  1
  Sb  Sb56  1  0.49510287  0.16841408  0.66806182  1
  Sb  Sb57  1  0.00025353  0.33572573  0.33759533  1
  Sb  Sb58  1  -0.00391173  0.66540208  -0.00860815  1
  Sb  Sb59  1  0.67184493  -0.00181669  -0.00637203  1
  Sb  Sb60  1  0.15987953  0.82596400  -0.00748011  1
  Sb  Sb61  1  -0.00393362  0.50340456  0.50383808  1
  Sb  Sb62  1  0.00327507  0.16231776  0.50125860  1
  Sb  Sb63  1  0.50090329  0.00303520  0.50385312  1
  Sb  Sb64  1  0.66945028  0.66965832  0.67303926  1
  Sb  Sb65  1  0.16314610  -0.00236586  0.82664991  1
  Sb  Sb66  1  0.00247813  0.33428236  -0.00406789  1
  Sb  Sb67  1  0.83739048  0.33538138  0.16864083  1
  Sb  Sb68  1  0.32887001  0.50043694  0.83581247  1
  Sb  Sb69  1  0.17299713  0.17107197  -0.00083294  1
  Sb  Sb70  1  0.33385000  0.49696877  0.49544578  1
  Sb  Sb71  1  -0.00136069  0.16469415  0.83113400  1
  Sb  Sb72  1  0.67279030  0.50098656  0.83061357  1
  Sb  Sb73  1  0.84198431  0.83445162  0.67107785  1
  Sb  Sb74  1  0.82913917  0.16615615  0.00206008  1
  Sb  Sb75  1  0.67126204  0.33127628  0.66465019  1
  Sb  Sb76  1  0.50269247  0.33266794  0.83272626  1
  Sb  Sb77  1  0.83722685  0.16326008  0.66349997  1
  Sb  Sb78  1  -0.00034236  0.16990002  0.16744179  1
  Sb  Sb79  1  -0.00348149  -0.00064726  0.33756740  1
  Sb  Sb80  1  0.67823932  0.83053295  0.50665489  1
  Sb  Sb81  1  0.50234420  0.66913266  0.16257726  1
  Sb  Sb82  1  -0.00012374  0.66377087  0.33791341  1
  Sb  Sb83  1  0.66436127  0.33477669  0.00316807  1
  Sb  Sb84  1  0.33266743  0.83241461  0.16656480  1
  Sb  Sb85  1  0.67151936  0.83852502  0.16158573  1
  Sb  Sb86  1  0.66587211  0.16897029  0.49884678  1
  Sb  Sb87  1  0.50326619  0.33375270  0.49663955  1
  Sb  Sb88  1  0.16235205  0.83158013  0.33929593  1
  Sb  Sb89  1  0.16444470  0.00747470  0.17064184  1
  Sb  Sb90  1  0.66726742  0.49535059  0.17085106  1
  Sb  Sb91  1  0.16285997  0.33753077  0.83426096  1
  Sb  Sb92  1  0.49282152  0.32782151  0.16872631  1
  Sb  Sb93  1  0.33143203  0.00097997  -0.00429199  1
  Sb  Sb94  1  -0.00426525  0.82810874  0.16317825  1
  Sb  Sb95  1  0.16334502  0.66786343  0.50640390  1
  Sb  Sb96  1  0.50338358  0.66326067  0.50441709  1
  Sb  Sb97  1  0.49713010  0.49871441  0.00153050  1
  Sb  Sb98  1  0.66851266  0.66012961  0.33022026  1
  Sb  Sb99  1  0.16243269  0.65913280  0.16198132  1
  Sb  Sb100  1  0.33387869  0.00756902  0.33686272  1
  Sb  Sb101  1  0.32715533  0.33374792  0.66596034  1
  Sb  Sb102  1  0.50467495  0.83270642  0.33184048  1
  Sb  Sb103  1  0.32696819  0.83640689  0.50180507  1
  Sb  Sb104  1  0.83687203  0.50081355  0.66696947  1
  Sb  Sb105  1  0.50506332  0.83636228  -0.00332044  1
  Sb  Sb106  1  0.33118817  0.83291583  0.83190958  1
  Sb  Sb107  1  0.49525839  0.83082609  0.66936036  1
  Te  Te108  1  0.17078160  0.17224812  0.17002238  1
  Te  Te109  1  0.16939081  0.16429703  0.49919634  1
  Te  Te110  1  0.17204701  0.16753798  0.83000427  1
  Te  Te111  1  0.16759962  0.49956565  0.16749592  1
  Te  Te112  1  0.16500689  0.49915285  0.49846288  1
  Te  Te113  1  0.16291227  0.50291971  0.83221206  1
  Te  Te114  1  0.16469541  0.83446888  0.16845101  1
  Te  Te115  1  0.15982654  0.83921818  0.50476094  1
  Te  Te116  1  0.16180975  0.82705309  0.82779171  1
  Te  Te117  1  0.49898053  0.16462263  0.16800623  1
  Te  Te118  1  0.49376379  0.16691281  0.49309773  1
  Te  Te119  1  0.49992284  0.16558257  0.83261840  1
  Te  Te120  1  0.49581345  0.50258993  0.17175342  1
  Te  Te121  1  0.50488541  0.50025989  0.49602405  1
  Te  Te122  1  0.50075684  0.50334813  0.83206052  1
  Te  Te123  1  0.50145162  0.84466456  0.16529135  1
  Te  Te124  1  0.50228485  0.83276071  0.49905802  1
  Te  Te125  1  0.50297406  0.83417656  0.83361714  1
  Te  Te126  1  0.83280010  0.16444901  0.17036972  1
  Te  Te127  1  0.83257251  0.16427779  0.49503513  1
  Te  Te128  1  0.83011416  0.16371495  0.83351098  1
  Te  Te129  1  0.83306811  0.50173277  0.16690222  1
  Te  Te130  1  0.83251502  0.50036847  0.49893276  1
  Te  Te131  1  0.83688708  0.50102844  0.83395937  1
  Te  Te132  1  0.83354999  0.83512121  0.16838754  1
  Te  Te133  1  0.83751132  0.83514453  0.49617166  1
  Te  Te134  1  0.83393968  0.83438798  0.83458646  1
  Te  Te135  1  0.16038008  -0.00263970  0.00086938  1
  Te  Te136  1  0.16601261  0.00188584  0.34033654  1
  Te  Te137  1  0.16650277  0.00134034  0.66564467  1
  Te  Te138  1  0.17109815  0.33927883  0.00296481  1
  Te  Te139  1  0.16703653  0.33384464  0.33193791  1
  Te  Te140  1  0.16064805  0.33797696  0.66598410  1
  Te  Te141  1  0.17119995  0.66070588  -0.00514417  1
  Te  Te142  1  0.17202875  0.66275753  0.33405267  1
  Te  Te143  1  0.16575071  0.66440136  0.66747772  1
  Te  Te144  1  0.49911387  0.00366395  -0.00313876  1
  Te  Te145  1  0.50186366  0.00199217  0.33057599  1
  Te  Te146  1  0.49478088  0.00015417  0.67196156  1
  Te  Te147  1  0.49463069  0.32772560  -0.00091301  1
  Te  Te148  1  0.50022901  0.33384883  0.33352873  1
  Te  Te149  1  0.49983622  0.34264286  0.66506785  1
  Te  Te150  1  0.49630833  0.66744635  -0.00500912  1
  Te  Te151  1  0.49561463  0.66406220  0.33208528  1
  Te  Te152  1  0.49847988  0.66341013  0.67202966  1
  Te  Te153  1  0.83577593  0.00124727  -0.00080149  1
  Te  Te154  1  0.83232134  0.00224192  0.33294014  1
  Te  Te155  1  0.83531674  0.00087732  0.66770619  1
  Te  Te156  1  0.83339261  0.33773967  -0.00462422  1
  Te  Te157  1  0.83327769  0.33496677  0.33475900  1
  Te  Te158  1  0.83797887  0.33113904  0.66828059  1
  Te  Te159  1  0.83481811  0.66568859  -0.00136171  1
  Te  Te160  1  0.83305118  0.66200047  0.33557070  1
  Te  Te161  1  0.83711954  0.66703922  0.66785745  1
  Te  Te162  1  0.00205041  0.16030731  -0.00032044  1
  Te  Te163  1  -0.00203643  0.16763223  0.33335562  1
  Te  Te164  1  0.00734234  0.16545431  0.66668299  1
  Te  Te165  1  0.00009930  0.49915776  -0.00111688  1
  Te  Te166  1  -0.00129840  0.50012639  0.33007651  1
  Te  Te167  1  0.00289479  0.50208832  0.67005839  1
  Te  Te168  1  -0.00590475  0.83872889  -0.00449603  1
  Te  Te169  1  -0.00659877  0.83120956  0.33486218  1
  Te  Te170  1  0.00339804  0.83357903  0.66936836  1
  Te  Te171  1  0.33625638  0.16740359  0.00038577  1
  Te  Te172  1  0.33361680  0.16847088  0.33119647  1
  Te  Te173  1  0.33013862  0.16652979  0.66755450  1
  Te  Te174  1  0.33230370  0.49876337  0.00262797  1
  Te  Te175  1  0.33280553  0.49741779  0.33313386  1
  Te  Te176  1  0.33093544  0.50196667  0.66578046  1
  Te  Te177  1  0.33085784  0.82576926  0.00021748  1
  Te  Te178  1  0.33356041  0.82747187  0.33441892  1
  Te  Te179  1  0.32564088  0.83281372  0.66596197  1
  Te  Te180  1  0.66060110  0.16758104  0.00028558  1
  Te  Te181  1  0.66757235  0.17115675  0.33291015  1
  Te  Te182  1  0.66411744  0.16282407  0.67079823  1
  Te  Te183  1  0.66961255  0.50319584  0.00097354  1
  Te  Te184  1  0.67010968  0.49528873  0.33597156  1
  Te  Te185  1  0.66248990  0.50013900  0.66120717  1
  Te  Te186  1  0.67238476  0.82742276  -0.00545245  1
  Te  Te187  1  0.67377941  0.83256898  0.33423988  1
  Te  Te188  1  0.66248436  0.83903635  0.67330434  1
  Te  Te189  1  -0.00506778  -0.00020663  0.16504923  1
  Te  Te190  1  -0.00216339  -0.00357512  0.50350997  1
  Te  Te191  1  -0.00339958  -0.00095986  0.82987239  1
  Te  Te192  1  0.00688223  0.33912189  0.16499029  1
  Te  Te193  1  -0.00714885  0.33296955  0.50783202  1
  Te  Te194  1  -0.00535762  0.33488709  0.82917720  1
  Te  Te195  1  -0.00655385  0.66070796  0.16723494  1
  Te  Te196  1  -0.00470552  0.67171202  0.50692819  1
  Te  Te197  1  -0.00168438  0.66659061  0.83146888  1
  Te  Te198  1  0.33417511  0.00243628  0.16575343  1
  Te  Te199  1  0.33260449  0.00379925  0.50554648  1
  Te  Te200  1  0.33477452  0.00175439  0.83022458  1
  Te  Te201  1  0.33138594  0.33380724  0.16777672  1
  Te  Te202  1  0.33270722  0.32768734  0.49517430  1
  Te  Te203  1  0.33380035  0.32797079  0.83488061  1
  Te  Te204  1  0.33382304  0.66449935  0.16657508  1
  Te  Te205  1  0.33455406  0.66751855  0.50448279  1
  Te  Te206  1  0.33509390  0.66660554  0.83139354  1
  Te  Te207  1  0.66974927  0.00530573  0.16573984  1
  Te  Te208  1  0.67115650  -0.00029034  0.50812295  1
  Te  Te209  1  0.66860062  0.00041891  0.83276255  1
  Te  Te210  1  0.66895047  0.32619031  0.17125562  1
  Te  Te211  1  0.67366937  0.33638139  0.49706932  1
  Te  Te212  1  0.67312412  0.32864339  0.83395714  1
  Te  Te213  1  0.67154369  0.66782954  0.16098190  1
  Te  Te214  1  0.67335272  0.66244818  0.50126672  1
  Te  Te215  1  0.66928436  0.66752004  0.83644310  1
