# generated using pymatgen
data_AgSbTe2
_symmetry_space_group_name_H-M   'P 1'
_cell_length_a   18.33167647
_cell_length_b   18.33787073
_cell_length_c   18.32720436
_cell_angle_alpha   89.99876959
_cell_angle_beta   90.00125908
_cell_angle_gamma   89.99900247
_symmetry_Int_Tables_number   1
_chemical_formula_structural   AgSbTe2
_chemical_formula_sum   'Ag54 Sb54 Te108'
_cell_volume   6160.94473430
_cell_formula_units_Z   54
loop_
 _symmetry_equiv_pos_site_id
 _symmetry_equiv_pos_as_xyz
  1  'x, y, z'
loop_
 _atom_site_type_symbol
 _atom_site_label
 _atom_site_symmetry_multiplicity
 _atom_site_fract_x
 _atom_site_fract_y
 _atom_site_fract_z
 _atom_site_occupancy
  Ag  Ag0  1  0.32786035  0.50016162  0.83238722  1
  Ag  Ag1  1  -0.00167234  0.66469545  0.33942495  1
  Ag  Ag2  1  0.84486930  0.83886808  0.65735707  1
  Ag  Ag3  1  0.00027130  0.49920362  0.16641557  1
  Ag  Ag4  1  0.00436551  0.82705577  0.81944010  1
  Ag  Ag5  1  0.49970642  0.83456453  0.66713709  1
  Ag  Ag6  1  0.66882790  -0.00729973  0.33900213  1
  Ag  Ag7  1  0.33263590  0.83655815  0.16758802  1
  Ag  Ag8  1  0.00629363  0.16850245  0.17123989  1
  Ag  Ag9  1  0.67294936  -0.00304369  0.65781959  1
  Ag  Ag10  1  0.83243516  0.49761415  -0.00230823  1
  Ag  Ag11  1  0.49255910  0.67420899  0.16571861  1
  Ag  Ag12  1  0.17008332  0.00055807  0.16537620  1
  Ag  Ag13  1  0.00093460  0.67743937  0.65775646  1
  Ag  Ag14  1  0.83691946  -0.00603509  0.50376033  1
  Ag  Ag15  1  0.00132080  0.50482641  0.83458001  1
  Ag  Ag16  1  0.16640244  0.83965294  -0.00376272  1
  Ag  Ag17  1  0.50730391  0.33206717  0.50082876  1
  Ag  Ag18  1  0.49275607  0.66666605  0.83740211  1
  Ag  Ag19  1  0.66607003  0.00175781  0.00329517  1
  Ag  Ag20  1  0.31827321  -0.00142433  0.66537401  1
  Ag  Ag21  1  0.33289060  0.50167425  0.50496383  1
  Ag  Ag22  1  0.83372730  0.33153945  0.50371739  1
  Ag  Ag23  1  0.66245310  0.83589349  0.17456053  1
  Ag  Ag24  1  0.15763961  0.84174133  0.66959740  1
  Ag  Ag25  1  -0.00725082  0.83557387  0.50681807  1
  Ag  Ag26  1  0.16927028  0.67169114  0.16809040  1
  Ag  Ag27  1  0.49383202  -0.00620300  0.16354974  1
  Ag  Ag28  1  0.00322445  -0.00928187  0.66277143  1
  Ag  Ag29  1  0.32480449  0.15964428  0.16080410  1
  Ag  Ag30  1  0.49026390  0.17012902  0.00129504  1
  Ag  Ag31  1  0.16546442  0.67467013  0.83183902  1
  Ag  Ag32  1  0.67765165  0.67446848  0.33371766  1
  Ag  Ag33  1  0.17144564  0.16081834  0.00141102  1
  Ag  Ag34  1  0.83042266  0.82792238  0.34549815  1
  Ag  Ag35  1  0.16473247  0.32044034  0.16411876  1
  Ag  Ag36  1  -0.00364011  0.15825498  0.50116152  1
  Ag  Ag37  1  0.15669905  -0.00614591  0.51121450  1
  Ag  Ag38  1  0.32836871  0.66674551  0.33186050  1
  Ag  Ag39  1  0.66297575  0.32929301  0.00082418  1
  Ag  Ag40  1  0.83642801  0.50102594  0.66107308  1
  Ag  Ag41  1  0.33575793  0.32916545  0.00022265  1
  Ag  Ag42  1  0.67983822  0.15697071  0.50186823  1
  Ag  Ag43  1  0.15634812  0.67528559  0.50190016  1
  Ag  Ag44  1  0.16657823  -0.00620743  0.82360153  1
  Ag  Ag45  1  0.67867048  0.83967144  0.49565623  1
  Ag  Ag46  1  0.32895172  0.16875592  0.84124017  1
  Ag  Ag47  1  0.83631708  0.50715305  0.34393000  1
  Ag  Ag48  1  0.16001516  0.15592540  0.66879458  1
  Ag  Ag49  1  0.50111269  0.49612643  -0.00072603  1
  Ag  Ag50  1  -0.00225943  0.33930860  0.33236401  1
  Ag  Ag51  1  0.83531988  0.33694290  0.82738691  1
  Ag  Ag52  1  0.84024361  0.67944959  0.49799405  1
  Ag  Ag53  1  0.84096451  0.15659560  0.66118812  1
  Sb  Sb54  1  0.33025632  0.82987074  0.49783862  1
  Sb  Sb55  1  0.67292786  0.33305620  0.33175256  1
  Sb  Sb56  1  0.16697662  0.49958262  0.00014194  1
  Sb  Sb57  1  0.50294295  0.50599392  0.67031451  1
  Sb  Sb58  1  0.67318590  0.67456107  0.66086501  1
  Sb  Sb59  1  0.00322689  0.83311419  0.17049094  1
  Sb  Sb60  1  0.67037576  0.32841819  0.66740780  1
  Sb  Sb61  1  0.83491536  0.17034032  -0.00511726  1
  Sb  Sb62  1  0.32799380  0.33837453  0.32970894  1
  Sb  Sb63  1  0.50381745  0.50290252  0.32920011  1
  Sb  Sb64  1  0.83874892  0.33451811  0.16793134  1
  Sb  Sb65  1  0.83713550  0.66636107  0.17500895  1
  Sb  Sb66  1  0.66868878  0.50186258  0.49987819  1
  Sb  Sb67  1  0.83926411  0.66295630  0.82477882  1
  Sb  Sb68  1  0.83655169  0.83029909  -0.00229803  1
  Sb  Sb69  1  0.16003956  0.50460559  0.33301175  1
  Sb  Sb70  1  0.32529521  0.83357667  0.83493255  1
  Sb  Sb71  1  0.16167612  0.50269432  0.66719065  1
  Sb  Sb72  1  0.66485498  0.66934632  0.00493037  1
  Sb  Sb73  1  0.00527864  0.16682360  0.82933962  1
  Sb  Sb74  1  0.16364678  0.33245635  0.83736609  1
  Sb  Sb75  1  0.67074185  0.83396017  0.83039451  1
  Sb  Sb76  1  0.67156899  0.50528234  0.16597458  1
  Sb  Sb77  1  0.83554377  -0.00067430  0.17292746  1
  Sb  Sb78  1  0.33547512  -0.00517643  0.33371394  1
  Sb  Sb79  1  0.00110404  0.33418053  0.00363916  1
  Sb  Sb80  1  0.50359941  0.00255454  0.49845834  1
  Sb  Sb81  1  0.49565623  0.33286539  0.16588284  1
  Sb  Sb82  1  0.16437171  0.16480669  0.33077206  1
  Sb  Sb83  1  0.49874507  0.16057359  0.66988896  1
  Sb  Sb84  1  0.83554847  0.16491516  0.34175633  1
  Sb  Sb85  1  0.33302046  0.32933629  0.67029487  1
  Sb  Sb86  1  0.49524576  0.83458859  0.00016970  1
  Sb  Sb87  1  0.33195974  0.00548144  -0.00165153  1
  Sb  Sb88  1  -0.00253490  0.33264329  0.66202569  1
  Sb  Sb89  1  0.83854277  0.00233217  0.82498213  1
  Sb  Sb90  1  0.00079151  0.00036895  -0.00368073  1
  Sb  Sb91  1  0.32669522  0.67173869  0.66462899  1
  Sb  Sb92  1  0.32850142  0.50248672  0.16458009  1
  Sb  Sb93  1  0.32893734  0.16846483  0.50015395  1
  Sb  Sb94  1  0.50727834  0.83191625  0.33460212  1
  Sb  Sb95  1  -0.00294099  -0.00305195  0.34069626  1
  Sb  Sb96  1  0.49427051  -0.00409149  0.83558353  1
  Sb  Sb97  1  0.50200082  0.33619216  0.83309686  1
  Sb  Sb98  1  0.66743906  0.15988639  0.16853837  1
  Sb  Sb99  1  0.16152014  0.33183960  0.49591233  1
  Sb  Sb100  1  0.33211511  0.66356148  0.00206169  1
  Sb  Sb101  1  0.50051525  0.66569031  0.49890753  1
  Sb  Sb102  1  0.50049539  0.16606535  0.32946920  1
  Sb  Sb103  1  0.00108740  0.66579444  -0.00000753  1
  Sb  Sb104  1  0.67022238  0.50058741  0.83511002  1
  Sb  Sb105  1  0.66454586  0.16467034  0.83071416  1
  Sb  Sb106  1  -0.00070648  0.50501362  0.50015211  1
  Sb  Sb107  1  0.16106730  0.83076227  0.33649209  1
  Te  Te108  1  0.16591574  0.16431535  0.16717898  1
  Te  Te109  1  0.16255369  0.16323975  0.50213349  1
  Te  Te110  1  0.16889139  0.16611640  0.83507865  1
  Te  Te111  1  0.16134829  0.50998905  0.16594382  1
  Te  Te112  1  0.17150772  0.50211419  0.50086458  1
  Te  Te113  1  0.16604445  0.50181647  0.83393560  1
  Te  Te114  1  0.16750484  0.83169201  0.16884547  1
  Te  Te115  1  0.16581696  0.83419692  0.50316958  1
  Te  Te116  1  0.16511311  0.83400813  0.83225599  1
  Te  Te117  1  0.49917303  0.16488188  0.16166205  1
  Te  Te118  1  0.49826645  0.17144070  0.49971196  1
  Te  Te119  1  0.49349008  0.16727570  0.83868563  1
  Te  Te120  1  0.49998221  0.50197395  0.16125877  1
  Te  Te121  1  0.49744649  0.49650806  0.50103418  1
  Te  Te122  1  0.49698439  0.50359425  0.83723565  1
  Te  Te123  1  0.49989954  0.83345752  0.16596601  1
  Te  Te124  1  0.50019552  0.83351675  0.50574737  1
  Te  Te125  1  0.49949712  0.82785597  0.83211234  1
  Te  Te126  1  0.84091288  0.16655397  0.16576319  1
  Te  Te127  1  0.83570026  0.16821533  0.50294035  1
  Te  Te128  1  0.83393991  0.17257612  0.82589929  1
  Te  Te129  1  0.83917636  0.50018695  0.16126847  1
  Te  Te130  1  0.83317374  0.49349991  0.50135968  1
  Te  Te131  1  0.83668327  0.49855547  0.83424492  1
  Te  Te132  1  0.82916727  0.83343826  0.16504645  1
  Te  Te133  1  0.83295447  0.83431725  0.50206531  1
  Te  Te134  1  0.84141291  0.83232300  0.82993953  1
  Te  Te135  1  0.16576611  0.00053642  0.00542670  1
  Te  Te136  1  0.16860327  -0.00235350  0.32609564  1
  Te  Te137  1  0.16283296  -0.00015170  0.66691483  1
  Te  Te138  1  0.17082146  0.32927729  0.00392723  1
  Te  Te139  1  0.15990807  0.33534915  0.32594521  1
  Te  Te140  1  0.16643766  0.32639591  0.66637719  1
  Te  Te141  1  0.16712734  0.67056336  -0.00178384  1
  Te  Te142  1  0.16592728  0.66762822  0.33549602  1
  Te  Te143  1  0.16190557  0.66797158  0.66603416  1
  Te  Te144  1  0.50312134  0.00201143  0.00320357  1
  Te  Te145  1  0.50542473  -0.00028295  0.32523013  1
  Te  Te146  1  0.51002727  -0.00406491  0.66786824  1
  Te  Te147  1  0.49970285  0.33269655  -0.00054038  1
  Te  Te148  1  0.50089573  0.33479648  0.33876670  1
  Te  Te149  1  0.50167384  0.33388568  0.66138833  1
  Te  Te150  1  0.49927727  0.66400767  0.00197970  1
  Te  Te151  1  0.49517286  0.66557240  0.32815000  1
  Te  Te152  1  0.50020187  0.67146110  0.66926847  1
  Te  Te153  1  0.82845997  0.00025364  -0.00207639  1
  Te  Te154  1  0.82941638  -0.00470475  0.34017467  1
  Te  Te155  1  0.83410134  -0.00091200  0.66421068  1
  Te  Te156  1  0.83002102  0.33643447  -0.00137905  1
  Te  Te157  1  0.83716197  0.33773003  0.33595239  1
  Te  Te158  1  0.83192608  0.33648805  0.66611033  1
  Te  Te159  1  0.83167609  0.66017653  -0.00194606  1
  Te  Te160  1  0.83583435  0.66691985  0.33640319  1
  Te  Te161  1  0.83783867  0.66793003  0.66045732  1
  Te  Te162  1  0.00465104  0.16679325  0.00314616  1
  Te  Te163  1  -0.00081383  0.16785479  0.33430451  1
  Te  Te164  1  -0.00024414  0.16654997  0.66415290  1
  Te  Te165  1  -0.00295327  0.49955852  -0.00019065  1
  Te  Te166  1  -0.00470379  0.50287771  0.33341034  1
  Te  Te167  1  -0.00408376  0.50000447  0.67097454  1
  Te  Te168  1  0.00578528  0.83371966  -0.00084306  1
  Te  Te169  1  -0.00724333  0.82852382  0.33751647  1
  Te  Te170  1  0.00201177  0.83291367  0.66398031  1
  Te  Te171  1  0.33188508  0.16732230  0.00118606  1
  Te  Te172  1  0.33369571  0.16787037  0.32554487  1
  Te  Te173  1  0.33073234  0.16128749  0.66888194  1
  Te  Te174  1  0.33548313  0.49464234  -0.00302389  1
  Te  Te175  1  0.33535604  0.50478270  0.33578494  1
  Te  Te176  1  0.33384377  0.49923575  0.67017929  1
  Te  Te177  1  0.32745990  0.83355594  0.00594074  1
  Te  Te178  1  0.33493464  0.82773823  0.32798417  1
  Te  Te179  1  0.33601767  0.83842794  0.66730319  1
  Te  Te180  1  0.66696126  0.16571784  -0.00007777  1
  Te  Te181  1  0.66749108  0.16423201  0.33957852  1
  Te  Te182  1  0.66746983  0.16119731  0.66268793  1
  Te  Te183  1  0.66606437  0.49720447  0.00092672  1
  Te  Te184  1  0.67451100  0.50410672  0.33213687  1
  Te  Te185  1  0.67410478  0.50187599  0.66705731  1
  Te  Te186  1  0.66712833  0.83780805  0.00196145  1
  Te  Te187  1  0.66882495  0.83248015  0.33443038  1
  Te  Te188  1  0.66664682  0.83707658  0.66486918  1
  Te  Te189  1  0.00373112  0.00264169  0.16773540  1
  Te  Te190  1  -0.00118938  -0.00167159  0.50143534  1
  Te  Te191  1  0.00581956  -0.00107128  0.82833991  1
  Te  Te192  1  0.00433712  0.33475686  0.16979027  1
  Te  Te193  1  -0.00329060  0.33156814  0.49473416  1
  Te  Te194  1  -0.00380380  0.33839778  0.83416533  1
  Te  Te195  1  0.00431285  0.66468670  0.17036298  1
  Te  Te196  1  -0.00016371  0.66533970  0.49982365  1
  Te  Te197  1  0.00432493  0.66576319  0.83356353  1
  Te  Te198  1  0.33412732  -0.00083013  0.16781228  1
  Te  Te199  1  0.33146661  0.00026411  0.50243479  1
  Te  Te200  1  0.32789065  0.00262546  0.82861434  1
  Te  Te201  1  0.32810012  0.33201340  0.16364960  1
  Te  Te202  1  0.33165163  0.33815049  0.49919773  1
  Te  Te203  1  0.33357711  0.33454988  0.83710662  1
  Te  Te204  1  0.33194154  0.66705578  0.16844365  1
  Te  Te205  1  0.33276604  0.66214266  0.49639882  1
  Te  Te206  1  0.33044247  0.66373611  0.83269920  1
  Te  Te207  1  0.66838166  -0.00313597  0.16662175  1
  Te  Te208  1  0.66494886  -0.00064582  0.49857182  1
  Te  Te209  1  0.66608142  -0.00025067  0.83742072  1
  Te  Te210  1  0.66557669  0.33208987  0.16251858  1
  Te  Te211  1  0.66916444  0.33082646  0.49925984  1
  Te  Te212  1  0.67148886  0.33270508  0.83936536  1
  Te  Te213  1  0.66458907  0.67250898  0.17204183  1
  Te  Te214  1  0.66833296  0.67061915  0.49384548  1
  Te  Te215  1  0.65971224  0.66761517  0.83418848  1
