# generated using pymatgen
data_AgSbTe2
_symmetry_space_group_name_H-M   'P 1'
_cell_length_a   18.32106039
_cell_length_b   18.34234163
_cell_length_c   18.33863289
_cell_angle_alpha   89.99848971
_cell_angle_beta   89.99853455
_cell_angle_gamma   89.99813385
_symmetry_Int_Tables_number   1
_chemical_formula_structural   AgSbTe2
_chemical_formula_sum   'Ag54 Sb54 Te108'
_cell_volume   6162.71863957
_cell_formula_units_Z   54
loop_
 _symmetry_equiv_pos_site_id
 _symmetry_equiv_pos_as_xyz
  1  'x, y, z'
loop_
 _atom_site_type_symbol
 _atom_site_label
 _atom_site_symmetry_multiplicity
 _atom_site_fract_x
 _atom_site_fract_y
 _atom_site_fract_z
 _atom_site_occupancy
  Ag  Ag0  1  0.82823542  0.83339182  0.66697516  1
  Ag  Ag1  1  0.50245605  0.84179479  0.67219677  1
  Ag  Ag2  1  0.82979350  0.83587066  0.32772006  1
  Ag  Ag3  1  0.16649901  0.49842925  0.66901638  1
  Ag  Ag4  1  0.83120173  0.16060107  -0.00113606  1
  Ag  Ag5  1  0.67240883  0.66735533  0.00166038  1
  Ag  Ag6  1  0.17154606  0.66355688  0.83326763  1
  Ag  Ag7  1  0.49591760  0.00042518  0.83120227  1
  Ag  Ag8  1  0.33377931  0.67533139  -0.00198472  1
  Ag  Ag9  1  0.32779844  0.49828557  0.50150415  1
  Ag  Ag10  1  0.34229053  -0.00096694  0.67779553  1
  Ag  Ag11  1  -0.00801975  -0.00808664  -0.00103895  1
  Ag  Ag12  1  0.50068306  0.32534574  0.16794304  1
  Ag  Ag13  1  -0.00996758  0.83403309  0.50440964  1
  Ag  Ag14  1  0.82546344  -0.00672725  0.16600143  1
  Ag  Ag15  1  0.16716994  0.33611611  0.82684208  1
  Ag  Ag16  1  0.16508095  0.33618517  0.50697709  1
  Ag  Ag17  1  0.18018724  -0.00112500  0.83299916  1
  Ag  Ag18  1  0.67176109  0.66408682  0.32020844  1
  Ag  Ag19  1  0.34031996  0.50329952  0.16345748  1
  Ag  Ag20  1  0.50247695  0.16079279  0.66812084  1
  Ag  Ag21  1  0.33308956  0.50127769  0.83417227  1
  Ag  Ag22  1  0.83629008  0.32931423  0.50844380  1
  Ag  Ag23  1  0.49806804  -0.00003765  0.16213360  1
  Ag  Ag24  1  0.33927955  0.15450899  0.16508829  1
  Ag  Ag25  1  0.83473496  0.00152150  0.49963405  1
  Ag  Ag26  1  0.33470875  -0.00536279  -0.00747108  1
  Ag  Ag27  1  0.33497175  0.15951859  0.50493246  1
  Ag  Ag28  1  0.66699321  0.16896075  0.83091933  1
  Ag  Ag29  1  -0.00512821  0.34037512  0.66714256  1
  Ag  Ag30  1  0.67233249  0.67076960  0.67171015  1
  Ag  Ag31  1  -0.00780591  0.66334993  0.67300687  1
  Ag  Ag32  1  0.66875181  0.82917500  0.16322519  1
  Ag  Ag33  1  0.33312399  0.84160525  0.50382605  1
  Ag  Ag34  1  0.67038437  0.33557307  0.33053482  1
  Ag  Ag35  1  0.66980846  0.49871755  0.83545063  1
  Ag  Ag36  1  0.82648921  0.16316854  0.33563191  1
  Ag  Ag37  1  0.49669208  0.83513710  -0.00142947  1
  Ag  Ag38  1  0.33848810  0.15409090  0.83230989  1
  Ag  Ag39  1  -0.01104615  0.67165579  -0.00612639  1
  Ag  Ag40  1  0.33589389  0.00138137  0.33190298  1
  Ag  Ag41  1  0.66176055  -0.00465054  0.66913253  1
  Ag  Ag42  1  0.17208495  0.49899283  0.34057816  1
  Ag  Ag43  1  0.34241217  0.83961468  0.15347912  1
  Ag  Ag44  1  0.82782759  0.16678399  0.66811622  1
  Ag  Ag45  1  0.82898775  0.67276166  0.16036809  1
  Ag  Ag46  1  0.82920145  0.50085653  0.33310962  1
  Ag  Ag47  1  0.82823022  0.83016143  0.00477365  1
  Ag  Ag48  1  0.83397673  0.33346889  0.82737621  1
  Ag  Ag49  1  0.66751297  0.50816875  0.16391521  1
  Ag  Ag50  1  0.82908270  0.51062910  -0.00002338  1
  Ag  Ag51  1  0.83463088  0.49829461  0.66769954  1
  Ag  Ag52  1  0.50195262  0.16490926  0.33306882  1
  Ag  Ag53  1  0.33614814  0.84273125  0.83674312  1
  Sb  Sb54  1  -0.00590202  0.50099635  0.16556238  1
  Sb  Sb55  1  0.16665361  0.66211028  0.50595243  1
  Sb  Sb56  1  0.16859004  0.17094876  0.66884527  1
  Sb  Sb57  1  0.67267508  0.33263215  0.66578996  1
  Sb  Sb58  1  0.50296340  0.83972228  0.33156188  1
  Sb  Sb59  1  0.83288283  0.66237632  0.83516293  1
  Sb  Sb60  1  0.33346502  0.33128578  -0.00093978  1
  Sb  Sb61  1  -0.00469589  0.33543845  -0.00690620  1
  Sb  Sb62  1  0.66646157  0.16615128  0.50403324  1
  Sb  Sb63  1  0.82909441  0.00341213  0.83375389  1
  Sb  Sb64  1  0.00130788  0.83255935  0.83201909  1
  Sb  Sb65  1  0.66356491  0.83179248  0.83512931  1
  Sb  Sb66  1  0.50071688  0.32731998  0.83630985  1
  Sb  Sb67  1  0.16918537  0.83327601  -0.00200118  1
  Sb  Sb68  1  0.50249152  0.49536113  0.33036706  1
  Sb  Sb69  1  0.66527579  -0.00564114  -0.00284618  1
  Sb  Sb70  1  0.66540944  0.00029806  0.33530638  1
  Sb  Sb71  1  0.16759784  0.82921952  0.66824842  1
  Sb  Sb72  1  0.16529110  0.50179056  -0.00467574  1
  Sb  Sb73  1  0.83361580  0.66799676  0.50108262  1
  Sb  Sb74  1  0.49985591  0.00087172  0.50351353  1
  Sb  Sb75  1  -0.00202860  0.50156702  0.83116130  1
  Sb  Sb76  1  0.50279893  0.15873367  -0.00101105  1
  Sb  Sb77  1  -0.00140486  0.16379657  0.50207939  1
  Sb  Sb78  1  -0.00278791  -0.00187215  0.67176153  1
  Sb  Sb79  1  0.33803381  0.66935745  0.32804453  1
  Sb  Sb80  1  0.00100568  0.50294736  0.50321384  1
  Sb  Sb81  1  -0.00667866  0.66649600  0.33363895  1
  Sb  Sb82  1  -0.00163041  -0.00143116  0.33003537  1
  Sb  Sb83  1  0.50661744  0.67186322  0.16556911  1
  Sb  Sb84  1  0.49885747  0.66791389  0.50141564  1
  Sb  Sb85  1  0.33742400  0.33005625  0.33428600  1
  Sb  Sb86  1  0.66739193  0.49933598  0.50011738  1
  Sb  Sb87  1  0.17496172  0.33662358  0.16738514  1
  Sb  Sb88  1  0.50075768  0.49915513  0.66914074  1
  Sb  Sb89  1  0.16463935  0.66587522  0.16195132  1
  Sb  Sb90  1  -0.00697691  0.33466656  0.34030370  1
  Sb  Sb91  1  0.17058120  0.17136288  0.33537312  1
  Sb  Sb92  1  0.16526624  0.16478525  -0.00360353  1
  Sb  Sb93  1  0.33450633  0.67093247  0.67245117  1
  Sb  Sb94  1  -0.00030076  0.16416983  0.16486792  1
  Sb  Sb95  1  -0.00267034  0.16597240  0.83202544  1
  Sb  Sb96  1  0.66359297  0.16416587  0.16334423  1
  Sb  Sb97  1  0.49688875  0.67331585  0.83457153  1
  Sb  Sb98  1  0.16519138  0.82860622  0.33531936  1
  Sb  Sb99  1  0.16781394  0.00343765  0.50524771  1
  Sb  Sb100  1  0.33045602  0.32933420  0.66664982  1
  Sb  Sb101  1  0.50267716  0.50681556  0.00037533  1
  Sb  Sb102  1  0.66814761  0.33839980  0.00279556  1
  Sb  Sb103  1  -0.00548895  0.83281444  0.16702840  1
  Sb  Sb104  1  0.82767956  0.33349375  0.16683044  1
  Sb  Sb105  1  0.17325472  -0.00026893  0.16173357  1
  Sb  Sb106  1  0.50079307  0.33039712  0.49755425  1
  Sb  Sb107  1  0.66760737  0.83402979  0.50080679  1
  Te  Te108  1  0.17642804  0.16854219  0.16724841  1
  Te  Te109  1  0.17231053  0.17347031  0.50027128  1
  Te  Te110  1  0.17360270  0.16994038  0.83315738  1
  Te  Te111  1  0.17056367  0.50006691  0.16872610  1
  Te  Te112  1  0.16742311  0.49660902  0.50207205  1
  Te  Te113  1  0.16698002  0.49850881  0.83122610  1
  Te  Te114  1  0.17576302  0.83215032  0.16934818  1
  Te  Te115  1  0.17251859  0.83411640  0.50000464  1
  Te  Te116  1  0.17358341  0.83360511  0.83267891  1
  Te  Te117  1  0.49838458  0.16306642  0.16615018  1
  Te  Te118  1  0.49456650  0.16739242  0.49911871  1
  Te  Te119  1  0.49987942  0.16327053  0.83188678  1
  Te  Te120  1  0.50238491  0.49945089  0.16639592  1
  Te  Te121  1  0.48962079  0.49838467  0.50065648  1
  Te  Te122  1  0.50076162  0.49635217  0.83314077  1
  Te  Te123  1  0.50124548  0.83775696  0.16607166  1
  Te  Te124  1  0.49376396  0.83433732  0.50481321  1
  Te  Te125  1  0.49741074  0.83855242  0.83250370  1
  Te  Te126  1  0.83203934  0.16381493  0.16687379  1
  Te  Te127  1  0.83324579  0.16589278  0.49924539  1
  Te  Te128  1  0.83056462  0.16969476  0.83124062  1
  Te  Te129  1  0.82856719  0.49980371  0.16704031  1
  Te  Te130  1  0.83350325  0.49612159  0.50096885  1
  Te  Te131  1  0.83088523  0.49702711  0.83160277  1
  Te  Te132  1  0.83253199  0.83360596  0.16615911  1
  Te  Te133  1  0.83154850  0.83498772  0.50500013  1
  Te  Te134  1  0.83245717  0.83446962  0.82984050  1
  Te  Te135  1  0.17025309  -0.00013361  -0.00538702  1
  Te  Te136  1  0.17117992  0.00043580  0.33381189  1
  Te  Te137  1  0.16880530  0.00100117  0.67199150  1
  Te  Te138  1  0.16368656  0.33349127  -0.00811037  1
  Te  Te139  1  0.16406886  0.33992718  0.33663559  1
  Te  Te140  1  0.16418753  0.33721381  0.66683775  1
  Te  Te141  1  0.17118353  0.66651018  -0.00528340  1
  Te  Te142  1  0.16509768  0.65870958  0.33231031  1
  Te  Te143  1  0.16555276  0.66042564  0.67249917  1
  Te  Te144  1  0.49841176  -0.00519981  0.00139233  1
  Te  Te145  1  0.49818114  0.00541972  0.33162280  1
  Te  Te146  1  0.50037995  0.00093772  0.66496483  1
  Te  Te147  1  0.50035604  0.33359925  0.00816411  1
  Te  Te148  1  0.50547490  0.32679572  0.32998515  1
  Te  Te149  1  0.50226414  0.32471907  0.66651699  1
  Te  Te150  1  0.49489506  0.67525954  0.00001601  1
  Te  Te151  1  0.51056190  0.66754316  0.33404027  1
  Te  Te152  1  0.50709615  0.67031570  0.66744687  1
  Te  Te153  1  0.83122885  -0.00185260  0.00094934  1
  Te  Te154  1  0.83325274  -0.00104860  0.33249255  1
  Te  Te155  1  0.83393821  -0.00073614  0.66644682  1
  Te  Te156  1  0.83422708  0.33055951  -0.00496326  1
  Te  Te157  1  0.83062210  0.33442827  0.33369356  1
  Te  Te158  1  0.83340505  0.33482353  0.66672820  1
  Te  Te159  1  0.83229570  0.66788633  -0.00147493  1
  Te  Te160  1  0.83065471  0.66591206  0.33298443  1
  Te  Te161  1  0.83329916  0.66670796  0.66784935  1
  Te  Te162  1  -0.00765003  0.16283948  0.00028005  1
  Te  Te163  1  -0.00875065  0.16638059  0.33294060  1
  Te  Te164  1  -0.00901008  0.16889490  0.66608840  1
  Te  Te165  1  -0.00785438  0.50631250  0.00039277  1
  Te  Te166  1  -0.00534232  0.50112869  0.33363234  1
  Te  Te167  1  -0.00281847  0.50194629  0.66574817  1
  Te  Te168  1  -0.00447457  0.83185658  -0.00021180  1
  Te  Te169  1  -0.00646609  0.83265095  0.33938525  1
  Te  Te170  1  -0.00328115  0.83015756  0.66507644  1
  Te  Te171  1  0.33421334  0.16302797  -0.00125752  1
  Te  Te172  1  0.33476450  0.16400410  0.33104440  1
  Te  Te173  1  0.33447171  0.16301565  0.66871897  1
  Te  Te174  1  0.33379989  0.50102981  0.00032925  1
  Te  Te175  1  0.33341976  0.50110588  0.33213795  1
  Te  Te176  1  0.33264952  0.50126951  0.66693964  1
  Te  Te177  1  0.33346603  0.83438164  -0.00220025  1
  Te  Te178  1  0.33392734  0.83615450  0.33852327  1
  Te  Te179  1  0.33442683  0.83579917  0.66714988  1
  Te  Te180  1  0.67128784  0.16700089  -0.00542089  1
  Te  Te181  1  0.66635370  0.16728003  0.33224413  1
  Te  Te182  1  0.66733525  0.16646038  0.66977703  1
  Te  Te183  1  0.66904820  0.50489102  -0.00032648  1
  Te  Te184  1  0.66882883  0.50206818  0.33305369  1
  Te  Te185  1  0.66886114  0.50304032  0.66886509  1
  Te  Te186  1  0.66824638  0.82915449  0.00101503  1
  Te  Te187  1  0.67050686  0.83095859  0.33098981  1
  Te  Te188  1  0.66579358  0.83380119  0.66816763  1
  Te  Te189  1  -0.00176757  -0.00106109  0.15919325  1
  Te  Te190  1  -0.00255067  -0.00550604  0.49988179  1
  Te  Te191  1  0.00628625  -0.00016225  0.83990756  1
  Te  Te192  1  0.00400055  0.33250814  0.16499647  1
  Te  Te193  1  -0.00104422  0.33261369  0.50637715  1
  Te  Te194  1  0.00022076  0.33206780  0.82654335  1
  Te  Te195  1  -0.00664003  0.66681121  0.16036054  1
  Te  Te196  1  0.00129099  0.67451977  0.50525102  1
  Te  Te197  1  0.00744920  0.66818454  0.83324675  1
  Te  Te198  1  0.33442778  -0.00206219  0.16722111  1
  Te  Te199  1  0.33236299  0.00195346  0.49616396  1
  Te  Te200  1  0.33577608  -0.00112553  0.83317947  1
  Te  Te201  1  0.34000572  0.34016148  0.16674236  1
  Te  Te202  1  0.33083327  0.33631540  0.49965986  1
  Te  Te203  1  0.33197810  0.34186285  0.83318784  1
  Te  Te204  1  0.33339356  0.66479336  0.16249386  1
  Te  Te205  1  0.33202237  0.66468023  0.49763528  1
  Te  Te206  1  0.33171207  0.66026660  0.83628739  1
  Te  Te207  1  0.66620508  -0.00424089  0.16694312  1
  Te  Te208  1  0.67532039  0.00018222  0.50676964  1
  Te  Te209  1  0.66175022  0.00364705  0.82925146  1
  Te  Te210  1  0.66220439  0.33668605  0.17020330  1
  Te  Te211  1  0.67270376  0.33314537  0.49230824  1
  Te  Te212  1  0.66879706  0.33464809  0.83405723  1
  Te  Te213  1  0.66982332  0.66792448  0.16329570  1
  Te  Te214  1  0.66588282  0.66583398  0.50797278  1
  Te  Te215  1  0.66422072  0.66191331  0.83493812  1
