# generated using pymatgen
data_AgSbTe2
_symmetry_space_group_name_H-M   'P 1'
_cell_length_a   18.34019385
_cell_length_b   18.34784113
_cell_length_c   18.34773127
_cell_angle_alpha   90.00224218
_cell_angle_beta   89.99885577
_cell_angle_gamma   90.00022198
_symmetry_Int_Tables_number   1
_chemical_formula_structural   AgSbTe2
_chemical_formula_sum   'Ag54 Sb54 Te108'
_cell_volume   6174.06592962
_cell_formula_units_Z   54
loop_
 _symmetry_equiv_pos_site_id
 _symmetry_equiv_pos_as_xyz
  1  'x, y, z'
loop_
 _atom_site_type_symbol
 _atom_site_label
 _atom_site_symmetry_multiplicity
 _atom_site_fract_x
 _atom_site_fract_y
 _atom_site_fract_z
 _atom_site_occupancy
  Ag  Ag0  1  0.83092764  0.50980642  0.66626099  1
  Ag  Ag1  1  -0.00322499  0.00475714  0.66439497  1
  Ag  Ag2  1  0.65856791  0.50100132  0.16843085  1
  Ag  Ag3  1  0.17886401  0.50274330  0.00523063  1
  Ag  Ag4  1  0.16950478  0.16408410  0.66993141  1
  Ag  Ag5  1  0.33599387  0.16527076  0.83481928  1
  Ag  Ag6  1  0.49824539  0.00148388  0.16722360  1
  Ag  Ag7  1  0.49547007  -0.00199357  0.50151877  1
  Ag  Ag8  1  0.18225659  0.82964978  -0.00049549  1
  Ag  Ag9  1  0.66812211  0.67351418  0.66573994  1
  Ag  Ag10  1  0.33757839  0.84032732  0.50512413  1
  Ag  Ag11  1  0.17766967  0.33150595  0.83571374  1
  Ag  Ag12  1  0.33810301  0.49586351  0.16868281  1
  Ag  Ag13  1  0.34076440  0.65525974  0.33932788  1
  Ag  Ag14  1  0.33472151  0.33508439  -0.00221338  1
  Ag  Ag15  1  0.49155774  0.50171812  0.32614604  1
  Ag  Ag16  1  0.50099234  0.83767747  0.67464405  1
  Ag  Ag17  1  0.49420644  0.15492138  0.32957868  1
  Ag  Ag18  1  0.66137143  0.66639059  0.33612034  1
  Ag  Ag19  1  0.49756955  0.84228186  -0.00922663  1
  Ag  Ag20  1  0.83401395  0.33722654  0.16782758  1
  Ag  Ag21  1  0.00301482  0.00443542  0.33854196  1
  Ag  Ag22  1  0.82239674  0.83277004  0.66820033  1
  Ag  Ag23  1  0.82754930  -0.00004541  0.16859474  1
  Ag  Ag24  1  0.34194704  0.00076469  0.33526179  1
  Ag  Ag25  1  0.65348887  0.15848992  0.83105471  1
  Ag  Ag26  1  0.65996150  -0.00776755  0.67077165  1
  Ag  Ag27  1  0.18027759  0.50036360  0.32422307  1
  Ag  Ag28  1  0.00546246  0.16352006  0.50432463  1
  Ag  Ag29  1  0.82559231  0.82872424  0.33578882  1
  Ag  Ag30  1  0.82887951  0.83175409  -0.00594913  1
  Ag  Ag31  1  0.83076884  0.50686274  0.33005541  1
  Ag  Ag32  1  0.49708801  0.83701039  0.33390402  1
  Ag  Ag33  1  0.34245094  -0.00271336  0.66894961  1
  Ag  Ag34  1  0.33295036  0.34287548  0.32800223  1
  Ag  Ag35  1  0.83681877  0.15389840  0.66881778  1
  Ag  Ag36  1  0.49449547  0.32096213  0.83670428  1
  Ag  Ag37  1  0.83100963  0.50389486  0.00429733  1
  Ag  Ag38  1  0.33841150  0.67505427  0.66285993  1
  Ag  Ag39  1  0.49723591  0.00034376  0.83345631  1
  Ag  Ag40  1  0.33746246  0.16768697  0.17051964  1
  Ag  Ag41  1  0.00660193  0.33042290  0.33295984  1
  Ag  Ag42  1  0.65904057  0.83625592  0.82871354  1
  Ag  Ag43  1  0.33411286  0.50350398  0.48430837  1
  Ag  Ag44  1  0.83240114  0.66781426  0.50527180  1
  Ag  Ag45  1  0.49335930  0.49903726  0.00371523  1
  Ag  Ag46  1  0.33812908  0.00681111  -0.00502078  1
  Ag  Ag47  1  0.33382464  0.16005874  0.49772215  1
  Ag  Ag48  1  0.49508925  0.15775739  -0.00513686  1
  Ag  Ag49  1  0.17380202  0.66274372  0.16692675  1
  Ag  Ag50  1  0.34176662  0.83904433  0.83068814  1
  Ag  Ag51  1  0.83053701  0.66918494  0.82514746  1
  Ag  Ag52  1  0.33602112  0.49329541  0.83827688  1
  Ag  Ag53  1  0.00205340  0.16604407  0.82481261  1
  Sb  Sb54  1  0.66311216  0.50315642  0.83624480  1
  Sb  Sb55  1  0.49879158  0.67254552  0.49797998  1
  Sb  Sb56  1  0.66100898  0.16906323  0.16424292  1
  Sb  Sb57  1  0.65986589  0.83188035  0.50584791  1
  Sb  Sb58  1  0.17005725  0.33174657  0.50202497  1
  Sb  Sb59  1  0.17666369  0.16813916  -0.00531391  1
  Sb  Sb60  1  0.82978926  -0.00444248  0.50075555  1
  Sb  Sb61  1  0.33377558  0.32846276  0.67198636  1
  Sb  Sb62  1  0.50044162  0.50658245  0.66728020  1
  Sb  Sb63  1  0.00200518  0.49501223  0.49813931  1
  Sb  Sb64  1  0.66650543  0.33271691  0.66956609  1
  Sb  Sb65  1  0.00117977  0.49420782  0.83214708  1
  Sb  Sb66  1  -0.00164376  0.83593673  0.16753835  1
  Sb  Sb67  1  -0.00015182  0.84016723  0.83151750  1
  Sb  Sb68  1  0.00253746  0.83998927  0.49995437  1
  Sb  Sb69  1  0.49459931  0.32899971  0.50126728  1
  Sb  Sb70  1  0.17397694  0.83858190  0.67232435  1
  Sb  Sb71  1  0.16977025  0.33622613  0.16456060  1
  Sb  Sb72  1  0.66239221  0.16304145  0.50431598  1
  Sb  Sb73  1  0.66487891  0.82973624  0.16428252  1
  Sb  Sb74  1  0.82838097  -0.00362086  0.83372587  1
  Sb  Sb75  1  0.66133087  0.33908269  0.33048756  1
  Sb  Sb76  1  0.16854394  0.66559040  0.49699177  1
  Sb  Sb77  1  0.17305487  0.83020444  0.32852201  1
  Sb  Sb78  1  0.00420154  0.00112712  -0.00167679  1
  Sb  Sb79  1  0.16885742  0.66336031  0.83573847  1
  Sb  Sb80  1  0.49797715  0.33226706  0.16309359  1
  Sb  Sb81  1  0.65875663  0.33528404  -0.00027431  1
  Sb  Sb82  1  0.00209055  0.49850075  0.16860634  1
  Sb  Sb83  1  0.66184479  0.50428454  0.49567892  1
  Sb  Sb84  1  0.82718518  0.16505191  -0.00457687  1
  Sb  Sb85  1  0.00472101  0.33249709  0.00314410  1
  Sb  Sb86  1  0.17421313  -0.00248709  0.16696628  1
  Sb  Sb87  1  0.33492813  0.66422816  -0.00002312  1
  Sb  Sb88  1  0.49665828  0.66636458  0.16940223  1
  Sb  Sb89  1  -0.00102420  0.32544939  0.66326073  1
  Sb  Sb90  1  0.65793926  -0.00162503  -0.00389434  1
  Sb  Sb91  1  0.17610610  0.00452163  0.83272602  1
  Sb  Sb92  1  0.17547816  0.00077161  0.50027644  1
  Sb  Sb93  1  0.66205308  -0.00624575  0.33659972  1
  Sb  Sb94  1  0.83151165  0.33549122  0.83636717  1
  Sb  Sb95  1  0.16878845  0.49655470  0.66810832  1
  Sb  Sb96  1  0.49671429  0.15769190  0.67057526  1
  Sb  Sb97  1  -0.00091347  0.66660372  0.33414771  1
  Sb  Sb98  1  0.50038981  0.67117398  0.83255019  1
  Sb  Sb99  1  0.00006636  0.66670192  -0.00040196  1
  Sb  Sb100  1  0.17505494  0.17052969  0.33713261  1
  Sb  Sb101  1  0.33744111  0.83342236  0.16486056  1
  Sb  Sb102  1  0.00409871  0.16543005  0.16967035  1
  Sb  Sb103  1  0.83017260  0.16499694  0.33653684  1
  Sb  Sb104  1  0.66657927  0.66728002  -0.00138027  1
  Sb  Sb105  1  0.83469886  0.33627545  0.49648036  1
  Sb  Sb106  1  0.83408104  0.66584638  0.16777990  1
  Sb  Sb107  1  -0.00340780  0.67365977  0.66632451  1
  Te  Te108  1  0.17483523  0.16605764  0.16576331  1
  Te  Te109  1  0.16882783  0.16663260  0.50538078  1
  Te  Te110  1  0.17085838  0.17004891  0.83123858  1
  Te  Te111  1  0.16853541  0.50070503  0.16527173  1
  Te  Te112  1  0.17255449  0.49904506  0.49705204  1
  Te  Te113  1  0.16885012  0.49564148  0.83717404  1
  Te  Te114  1  0.16649913  0.82852950  0.15957877  1
  Te  Te115  1  0.17527789  0.83189296  0.49968934  1
  Te  Te116  1  0.16752860  0.83183552  0.84061695  1
  Te  Te117  1  0.49684922  0.16547739  0.16612012  1
  Te  Te118  1  0.49508462  0.16234701  0.49666365  1
  Te  Te119  1  0.49663806  0.16341724  0.83296849  1
  Te  Te120  1  0.49928117  0.49906928  0.16613122  1
  Te  Te121  1  0.49387223  0.49881560  0.49845113  1
  Te  Te122  1  0.49771550  0.50283999  0.83607695  1
  Te  Te123  1  0.50183019  0.83809697  0.16883928  1
  Te  Te124  1  0.49479425  0.83713520  0.49379978  1
  Te  Te125  1  0.49952842  0.83410997  0.83426879  1
  Te  Te126  1  0.83121930  0.16273125  0.16609787  1
  Te  Te127  1  0.83251568  0.16716295  0.50632026  1
  Te  Te128  1  0.83578781  0.16725673  0.82918706  1
  Te  Te129  1  0.83582583  0.50147431  0.16686387  1
  Te  Te130  1  0.83343386  0.50384023  0.49931805  1
  Te  Te131  1  0.83254308  0.50293645  0.83423986  1
  Te  Te132  1  0.83146646  0.83604686  0.16937033  1
  Te  Te133  1  0.83462975  0.83045329  0.49938770  1
  Te  Te134  1  0.83497337  0.83164714  0.83123034  1
  Te  Te135  1  0.17230850  -0.00685452  0.00055991  1
  Te  Te136  1  0.16079867  -0.00067154  0.33233646  1
  Te  Te137  1  0.16140771  0.00442057  0.66659537  1
  Te  Te138  1  0.17177409  0.33849805  -0.00267602  1
  Te  Te139  1  0.16833522  0.33804887  0.33281414  1
  Te  Te140  1  0.16575952  0.32800497  0.67373432  1
  Te  Te141  1  0.16647430  0.66485910  0.00301326  1
  Te  Te142  1  0.16881584  0.66202291  0.32981320  1
  Te  Te143  1  0.17095267  0.66698869  0.66619297  1
  Te  Te144  1  0.49641873  -0.00120785  -0.00009274  1
  Te  Te145  1  0.50174483  -0.00202900  0.33140977  1
  Te  Te146  1  0.49950565  -0.00246078  0.66886381  1
  Te  Te147  1  0.49393739  0.33956456  -0.00277467  1
  Te  Te148  1  0.49441604  0.33976981  0.33338512  1
  Te  Te149  1  0.50109250  0.33660534  0.67458935  1
  Te  Te150  1  0.50197357  0.66293106  0.00190668  1
  Te  Te151  1  0.49992687  0.66513526  0.33417278  1
  Te  Te152  1  0.50018238  0.67436592  0.66447835  1
  Te  Te153  1  0.83500006  -0.00230700  0.00443841  1
  Te  Te154  1  0.82966362  -0.00312063  0.33239355  1
  Te  Te155  1  0.83171643  -0.00399775  0.66704814  1
  Te  Te156  1  0.83517234  0.33427249  0.00512879  1
  Te  Te157  1  0.83103493  0.33313416  0.32969213  1
  Te  Te158  1  0.83342374  0.34218105  0.66640048  1
  Te  Te159  1  0.83290454  0.66801791  0.00008550  1
  Te  Te160  1  0.83441211  0.66898990  0.33238400  1
  Te  Te161  1  0.83369800  0.67073677  0.66586372  1
  Te  Te162  1  0.00162929  0.16647061  -0.00346143  1
  Te  Te163  1  -0.00058571  0.16620614  0.33659626  1
  Te  Te164  1  -0.00219872  0.16475078  0.66459038  1
  Te  Te165  1  -0.00886094  0.49885236  -0.00075072  1
  Te  Te166  1  -0.00955314  0.49629881  0.33550989  1
  Te  Te167  1  -0.00417864  0.50034269  0.66493271  1
  Te  Te168  1  -0.01145516  0.83469207  -0.00074033  1
  Te  Te169  1  -0.00178037  0.83866885  0.33504824  1
  Te  Te170  1  -0.00060320  0.84166043  0.66519825  1
  Te  Te171  1  0.33554186  0.16650968  -0.00293283  1
  Te  Te172  1  0.33441365  0.15969023  0.33416585  1
  Te  Te173  1  0.33254139  0.16340138  0.66709100  1
  Te  Te174  1  0.33461390  0.50226748  -0.00193923  1
  Te  Te175  1  0.33549543  0.49952202  0.32906307  1
  Te  Te176  1  0.33247143  0.50093599  0.67652451  1
  Te  Te177  1  0.33899158  0.83018974  -0.00120337  1
  Te  Te178  1  0.33514952  0.84181085  0.33188278  1
  Te  Te179  1  0.33451143  0.83586809  0.66835389  1
  Te  Te180  1  0.65790689  0.16744501  -0.00624310  1
  Te  Te181  1  0.65718172  0.16778462  0.33398942  1
  Te  Te182  1  0.67120217  0.16591476  0.67119550  1
  Te  Te183  1  0.67172790  0.50108267  0.00445712  1
  Te  Te184  1  0.67101625  0.50453660  0.33042862  1
  Te  Te185  1  0.66934782  0.50555045  0.66701438  1
  Te  Te186  1  0.66811805  0.83234548  -0.00549018  1
  Te  Te187  1  0.66558141  0.82758383  0.33340110  1
  Te  Te188  1  0.66467215  0.83176130  0.66845495  1
  Te  Te189  1  -0.00468279  0.00217691  0.17071879  1
  Te  Te190  1  -0.00228256  0.00492047  0.49955403  1
  Te  Te191  1  0.00024238  0.00741797  0.83009892  1
  Te  Te192  1  -0.00454787  0.33074374  0.17316290  1
  Te  Te193  1  0.00153183  0.32533551  0.49243159  1
  Te  Te194  1  0.00062738  0.32597920  0.83386177  1
  Te  Te195  1  0.01086380  0.66788364  0.16727831  1
  Te  Te196  1  -0.00563652  0.66734667  0.50029442  1
  Te  Te197  1  -0.00638122  0.66640336  0.83190810  1
  Te  Te198  1  0.33729031  0.00151795  0.16704008  1
  Te  Te199  1  0.33592025  -0.00000484  0.50038907  1
  Te  Te200  1  0.33593797  -0.00095712  0.83276655  1
  Te  Te201  1  0.33338291  0.33305788  0.16559259  1
  Te  Te202  1  0.33308533  0.33177293  0.49466312  1
  Te  Te203  1  0.33580023  0.33221797  0.83428136  1
  Te  Te204  1  0.33256314  0.66212977  0.17335997  1
  Te  Te205  1  0.33288841  0.66390162  0.50009901  1
  Te  Te206  1  0.33264244  0.67031624  0.82742752  1
  Te  Te207  1  0.66526076  0.00058611  0.16676156  1
  Te  Te208  1  0.65853316  -0.00075225  0.50862364  1
  Te  Te209  1  0.66267379  -0.00204884  0.83080025  1
  Te  Te210  1  0.67423746  0.33906274  0.16566860  1
  Te  Te211  1  0.66511577  0.33323381  0.50022124  1
  Te  Te212  1  0.66234991  0.32872008  0.83440867  1
  Te  Te213  1  0.66687612  0.66069424  0.17346941  1
  Te  Te214  1  0.67256946  0.66674253  0.50006864  1
  Te  Te215  1  0.67022871  0.67086630  0.82932331  1
