# generated using pymatgen
data_AgSbTe2
_symmetry_space_group_name_H-M   'P 1'
_cell_length_a   18.34356469
_cell_length_b   18.34188927
_cell_length_c   18.35130682
_cell_angle_alpha   90.00137210
_cell_angle_beta   90.00256916
_cell_angle_gamma   89.99805888
_symmetry_Int_Tables_number   1
_chemical_formula_structural   AgSbTe2
_chemical_formula_sum   'Ag54 Sb54 Te108'
_cell_volume   6174.40052998
_cell_formula_units_Z   54
loop_
 _symmetry_equiv_pos_site_id
 _symmetry_equiv_pos_as_xyz
  1  'x, y, z'
loop_
 _atom_site_type_symbol
 _atom_site_label
 _atom_site_symmetry_multiplicity
 _atom_site_fract_x
 _atom_site_fract_y
 _atom_site_fract_z
 _atom_site_occupancy
  Ag  Ag0  1  -0.01074200  0.50903238  0.48790080  1
  Ag  Ag1  1  0.15861702  0.66734471  0.49690123  1
  Ag  Ag2  1  0.66549459  0.83120542  0.50103909  1
  Ag  Ag3  1  0.49300356  0.33474733  0.16308773  1
  Ag  Ag4  1  0.49683855  -0.00539431  0.50988208  1
  Ag  Ag5  1  -0.00204202  0.65810453  0.33170390  1
  Ag  Ag6  1  0.83912386  0.65624520  0.49222050  1
  Ag  Ag7  1  0.83204001  0.33872115  0.83294247  1
  Ag  Ag8  1  0.15959174  0.33560617  0.83582422  1
  Ag  Ag9  1  -0.00277631  0.17018580  0.83420560  1
  Ag  Ag10  1  0.00153051  0.82726674  0.49088814  1
  Ag  Ag11  1  -0.00199305  0.66412538  0.01032908  1
  Ag  Ag12  1  0.67199244  0.50037082  0.82904927  1
  Ag  Ag13  1  -0.00381720  0.50346755  0.17672594  1
  Ag  Ag14  1  0.50237728  0.49684304  -0.00365851  1
  Ag  Ag15  1  0.49580246  0.83549537  0.34115019  1
  Ag  Ag16  1  0.15805909  0.49959652  0.33275887  1
  Ag  Ag17  1  0.83793315  0.34474723  0.48888033  1
  Ag  Ag18  1  0.33207017  0.33818407  0.00292474  1
  Ag  Ag19  1  0.33326947  0.15594808  0.49718056  1
  Ag  Ag20  1  0.50990254  0.49847255  0.67010771  1
  Ag  Ag21  1  0.32645149  0.65781960  0.00274393  1
  Ag  Ag22  1  0.83552051  -0.00250294  0.16806045  1
  Ag  Ag23  1  0.83503018  0.50176240  0.00220791  1
  Ag  Ag24  1  0.33352717  0.83654693  0.49430867  1
  Ag  Ag25  1  0.83014894  0.49502341  0.65442390  1
  Ag  Ag26  1  0.84639084  0.49682727  0.34181936  1
  Ag  Ag27  1  0.66961369  -0.00383511  -0.00795424  1
  Ag  Ag28  1  0.32746515  0.83675362  0.17671122  1
  Ag  Ag29  1  0.65901601  -0.00359201  0.66906194  1
  Ag  Ag30  1  0.84010794  0.65775468  0.17383605  1
  Ag  Ag31  1  0.82846499  0.17252138  0.66271931  1
  Ag  Ag32  1  0.15945488  0.82718308  0.33723837  1
  Ag  Ag33  1  0.33363401  0.16637756  0.17223767  1
  Ag  Ag34  1  0.67760488  0.50275271  0.50472017  1
  Ag  Ag35  1  0.83757084  0.33864958  0.17777700  1
  Ag  Ag36  1  0.17259664  0.83362306  0.65454715  1
  Ag  Ag37  1  0.15786685  0.34045195  0.48917785  1
  Ag  Ag38  1  0.83424216  0.18265748  0.33683974  1
  Ag  Ag39  1  0.50238610  0.15529797  0.66628121  1
  Ag  Ag40  1  0.49918984  0.84444387  0.65893918  1
  Ag  Ag41  1  -0.00091200  0.82130204  0.17464771  1
  Ag  Ag42  1  0.83340291  0.65567728  0.83350640  1
  Ag  Ag43  1  0.84178554  0.82789027  0.33492586  1
  Ag  Ag44  1  0.50253282  0.00438859  0.82169226  1
  Ag  Ag45  1  0.16288818  0.33786833  0.17048219  1
  Ag  Ag46  1  0.68010076  0.33564292  0.33366314  1
  Ag  Ag47  1  -0.00724708  0.34582924  0.33297298  1
  Ag  Ag48  1  0.15988931  0.49830811  0.00755211  1
  Ag  Ag49  1  -0.00611704  -0.00588969  0.00210780  1
  Ag  Ag50  1  0.33481413  -0.00521350  0.33854731  1
  Ag  Ag51  1  0.66707344  0.83371619  0.82399238  1
  Ag  Ag52  1  0.34646550  -0.00154064  0.65553853  1
  Ag  Ag53  1  0.50327990  0.33581485  0.83507707  1
  Sb  Sb54  1  0.32596704  0.67406425  0.32971231  1
  Sb  Sb55  1  0.16564095  0.17512677  0.00026691  1
  Sb  Sb56  1  0.50161453  0.33133739  0.50064869  1
  Sb  Sb57  1  0.83401011  0.82879921  0.00541400  1
  Sb  Sb58  1  0.50173427  0.67308903  0.50000185  1
  Sb  Sb59  1  0.66462599  0.16676388  0.50233896  1
  Sb  Sb60  1  -0.00290258  0.66677652  0.65991217  1
  Sb  Sb61  1  -0.00338102  -0.00077597  0.66945970  1
  Sb  Sb62  1  0.33062511  0.32974087  0.32949690  1
  Sb  Sb63  1  0.50155670  0.16421416  0.33708947  1
  Sb  Sb64  1  0.50507200  0.66472550  0.83366152  1
  Sb  Sb65  1  0.15964441  0.66227713  0.17204607  1
  Sb  Sb66  1  0.50050958  0.82999906  -0.00067220  1
  Sb  Sb67  1  0.82896928  -0.00031604  0.49587915  1
  Sb  Sb68  1  0.82999314  0.83155269  0.65994806  1
  Sb  Sb69  1  0.17218154  -0.00659617  0.49874351  1
  Sb  Sb70  1  0.32737473  0.50038955  0.16461546  1
  Sb  Sb71  1  0.00105642  0.33976351  0.00427421  1
  Sb  Sb72  1  -0.00878577  0.49670494  0.83354184  1
  Sb  Sb73  1  0.83463582  0.17119707  0.00177828  1
  Sb  Sb74  1  0.66887966  0.33407019  0.66347375  1
  Sb  Sb75  1  0.66539617  0.00036811  0.33605137  1
  Sb  Sb76  1  0.33223095  0.16871942  0.83195742  1
  Sb  Sb77  1  0.49937426  0.17178197  -0.00460841  1
  Sb  Sb78  1  0.33371957  0.67206802  0.66804935  1
  Sb  Sb79  1  0.16284031  0.16823443  0.33476311  1
  Sb  Sb80  1  -0.00343946  0.33382960  0.66246357  1
  Sb  Sb81  1  0.66765557  0.66869391  0.66596495  1
  Sb  Sb82  1  -0.00521270  0.83358347  0.83386164  1
  Sb  Sb83  1  0.33881048  0.49898033  0.83579342  1
  Sb  Sb84  1  0.00099614  0.17054668  0.16462192  1
  Sb  Sb85  1  0.33595459  0.32934790  0.66867880  1
  Sb  Sb86  1  0.67626209  0.49837508  0.16768304  1
  Sb  Sb87  1  0.66882685  0.16858043  0.83060986  1
  Sb  Sb88  1  0.50295903  0.50256264  0.33294318  1
  Sb  Sb89  1  0.67053632  0.83453119  0.17173175  1
  Sb  Sb90  1  0.17026060  0.00225042  0.83290978  1
  Sb  Sb91  1  0.66561055  0.16878781  0.16745646  1
  Sb  Sb92  1  0.66622589  0.33392505  0.00201778  1
  Sb  Sb93  1  0.00131251  0.16766493  0.50205633  1
  Sb  Sb94  1  0.16611017  0.82552872  0.00369665  1
  Sb  Sb95  1  0.33474612  0.00101452  0.00238791  1
  Sb  Sb96  1  0.67172854  0.66696712  -0.00133412  1
  Sb  Sb97  1  0.67748182  0.66337564  0.33564215  1
  Sb  Sb98  1  0.33881834  0.83438242  0.83107303  1
  Sb  Sb99  1  0.16245371  0.50202814  0.66304621  1
  Sb  Sb100  1  0.33280390  0.50272452  0.49882989  1
  Sb  Sb101  1  0.50264490  0.00307624  0.16625227  1
  Sb  Sb102  1  0.82757839  0.00146815  0.83623255  1
  Sb  Sb103  1  0.15948933  0.66122018  0.83167284  1
  Sb  Sb104  1  0.16811000  0.16389538  0.66386903  1
  Sb  Sb105  1  0.16327205  0.00120436  0.16677420  1
  Sb  Sb106  1  0.00007775  -0.00333948  0.33000301  1
  Sb  Sb107  1  0.50169274  0.66319267  0.16575951  1
  Te  Te108  1  0.17290240  0.17313438  0.16770109  1
  Te  Te109  1  0.17125561  0.17637740  0.50094550  1
  Te  Te110  1  0.16238121  0.17292595  0.83201557  1
  Te  Te111  1  0.16166874  0.49699182  0.16729029  1
  Te  Te112  1  0.16615848  0.50017286  0.49861417  1
  Te  Te113  1  0.16610908  0.49471983  0.83189314  1
  Te  Te114  1  0.16511255  0.83368423  0.17083950  1
  Te  Te115  1  0.16576581  0.83323385  0.49718455  1
  Te  Te116  1  0.16609138  0.83248121  0.83090504  1
  Te  Te117  1  0.49467417  0.17227866  0.16759322  1
  Te  Te118  1  0.49504118  0.16312580  0.50447902  1
  Te  Te119  1  0.50006106  0.16952911  0.82796046  1
  Te  Te120  1  0.50141751  0.49503150  0.16369428  1
  Te  Te121  1  0.50214376  0.50147070  0.50261025  1
  Te  Te122  1  0.50473081  0.49841647  0.83480955  1
  Te  Te123  1  0.49861394  0.83285233  0.16818368  1
  Te  Te124  1  0.50073083  0.83363744  0.50140650  1
  Te  Te125  1  0.50608363  0.83318009  0.83066403  1
  Te  Te126  1  0.83326132  0.17193882  0.17043222  1
  Te  Te127  1  0.83321106  0.16781535  0.50063610  1
  Te  Te128  1  0.83595135  0.16924614  0.83188872  1
  Te  Te129  1  0.83558330  0.49845247  0.16440881  1
  Te  Te130  1  0.83356671  0.50020271  0.49852675  1
  Te  Te131  1  0.83165018  0.49883466  0.84021789  1
  Te  Te132  1  0.83622990  0.83567869  0.17037026  1
  Te  Te133  1  0.83350897  0.83352786  0.49721874  1
  Te  Te134  1  0.82672663  0.83310330  0.83127949  1
  Te  Te135  1  0.16308242  -0.00098526  -0.00128653  1
  Te  Te136  1  0.17315027  -0.00238045  0.33180259  1
  Te  Te137  1  0.16914477  -0.00500954  0.66757647  1
  Te  Te138  1  0.16796278  0.33897574  -0.00064495  1
  Te  Te139  1  0.16452365  0.33454169  0.33170863  1
  Te  Te140  1  0.16760177  0.33319879  0.67318066  1
  Te  Te141  1  0.16366204  0.65903343  -0.00101800  1
  Te  Te142  1  0.16088286  0.66609387  0.33704467  1
  Te  Te143  1  0.16642422  0.67192745  0.66157338  1
  Te  Te144  1  0.50335258  -0.00022027  -0.00308082  1
  Te  Te145  1  0.49744235  -0.00340570  0.33400320  1
  Te  Te146  1  0.50195927  -0.00027263  0.66627939  1
  Te  Te147  1  0.49953353  0.33597649  -0.00003517  1
  Te  Te148  1  0.49955225  0.33313943  0.32920543  1
  Te  Te149  1  0.50121103  0.33963759  0.66994985  1
  Te  Te150  1  0.49650944  0.65914756  0.00019965  1
  Te  Te151  1  0.49992051  0.67284502  0.33147581  1
  Te  Te152  1  0.49833192  0.65755568  0.66729498  1
  Te  Te153  1  0.83293742  0.00035343  0.00366854  1
  Te  Te154  1  0.83208676  -0.01071162  0.32895647  1
  Te  Te155  1  0.82942003  0.00396742  0.66696250  1
  Te  Te156  1  0.83342158  0.33735786  -0.00678184  1
  Te  Te157  1  0.83635241  0.33733971  0.33367603  1
  Te  Te158  1  0.83248129  0.33271485  0.67356471  1
  Te  Te159  1  0.83651340  0.66369889  0.00009204  1
  Te  Te160  1  0.83741546  0.66710652  0.33373792  1
  Te  Te161  1  0.83398430  0.66244667  0.67015153  1
  Te  Te162  1  0.00011340  0.16034802  -0.00382630  1
  Te  Te163  1  -0.00581927  0.16548939  0.33357904  1
  Te  Te164  1  -0.00413632  0.16543378  0.67133518  1
  Te  Te165  1  -0.00047586  0.50279579  -0.00081007  1
  Te  Te166  1  0.00264577  0.50110934  0.33308114  1
  Te  Te167  1  -0.00638229  0.49978983  0.65971036  1
  Te  Te168  1  0.00072520  0.83127409  0.00274865  1
  Te  Te169  1  0.00119553  0.83636981  0.33167594  1
  Te  Te170  1  0.00321854  0.83475251  0.66500084  1
  Te  Te171  1  0.33287325  0.17074991  0.00548372  1
  Te  Te172  1  0.33345421  0.16186139  0.33494424  1
  Te  Te173  1  0.33646804  0.16163904  0.66334139  1
  Te  Te174  1  0.33365937  0.49810887  0.00078633  1
  Te  Te175  1  0.32939622  0.50188090  0.33268700  1
  Te  Te176  1  0.33590765  0.50105693  0.66719879  1
  Te  Te177  1  0.33290327  0.83135339  0.00311436  1
  Te  Te178  1  0.33386950  0.83442005  0.33394631  1
  Te  Te179  1  0.33673581  0.83666168  0.66567704  1
  Te  Te180  1  0.66670602  0.15708614  -0.00050338  1
  Te  Te181  1  0.67253160  0.17135137  0.33466921  1
  Te  Te182  1  0.66579452  0.16114525  0.66622130  1
  Te  Te183  1  0.66680802  0.50003503  -0.00363418  1
  Te  Te184  1  0.66699260  0.49687057  0.33784309  1
  Te  Te185  1  0.67074607  0.50001723  0.66694424  1
  Te  Te186  1  0.66615365  0.83680672  -0.00274224  1
  Te  Te187  1  0.66300058  0.83326025  0.33856208  1
  Te  Te188  1  0.66428854  0.83523493  0.66410779  1
  Te  Te189  1  -0.00363986  0.00192323  0.16227628  1
  Te  Te190  1  0.00048819  -0.00487350  0.50125489  1
  Te  Te191  1  0.00058557  0.00220734  0.83865407  1
  Te  Te192  1  -0.00002052  0.33533137  0.16948618  1
  Te  Te193  1  -0.00106377  0.33237417  0.49677688  1
  Te  Te194  1  -0.00063899  0.33101942  0.83478511  1
  Te  Te195  1  -0.00231041  0.66491006  0.16883313  1
  Te  Te196  1  -0.00134181  0.66811569  0.49795212  1
  Te  Te197  1  -0.00606422  0.66735249  0.83838714  1
  Te  Te198  1  0.33363296  -0.00073880  0.16738573  1
  Te  Te199  1  0.33491481  -0.00322673  0.49916459  1
  Te  Te200  1  0.34042565  0.00161999  0.83286531  1
  Te  Te201  1  0.33272556  0.33409681  0.16410991  1
  Te  Te202  1  0.33097896  0.33344969  0.49982945  1
  Te  Te203  1  0.33854728  0.33227668  0.83865437  1
  Te  Te204  1  0.33351331  0.67236520  0.16188752  1
  Te  Te205  1  0.32944565  0.67332023  0.49983449  1
  Te  Te206  1  0.33031267  0.66740724  0.84139449  1
  Te  Te207  1  0.67216739  0.00068440  0.16440209  1
  Te  Te208  1  0.66086999  -0.00293035  0.50278107  1
  Te  Te209  1  0.66269585  0.00018375  0.83138264  1
  Te  Te210  1  0.67206277  0.33313843  0.17035551  1
  Te  Te211  1  0.67055326  0.33619129  0.49599216  1
  Te  Te212  1  0.66522338  0.33721069  0.83478528  1
  Te  Te213  1  0.67584850  0.66738415  0.16620987  1
  Te  Te214  1  0.67199994  0.66695840  0.49972439  1
  Te  Te215  1  0.67235761  0.66613049  0.83367990  1
