# generated using pymatgen
data_AgSbTe2
_symmetry_space_group_name_H-M   'P 1'
_cell_length_a   18.35639095
_cell_length_b   18.35002219
_cell_length_c   18.35515736
_cell_angle_alpha   89.99934607
_cell_angle_beta   90.00402202
_cell_angle_gamma   90.00061416
_symmetry_Int_Tables_number   1
_chemical_formula_structural   AgSbTe2
_chemical_formula_sum   'Ag54 Sb54 Te108'
_cell_volume   6182.75451843
_cell_formula_units_Z   54
loop_
 _symmetry_equiv_pos_site_id
 _symmetry_equiv_pos_as_xyz
  1  'x, y, z'
loop_
 _atom_site_type_symbol
 _atom_site_label
 _atom_site_symmetry_multiplicity
 _atom_site_fract_x
 _atom_site_fract_y
 _atom_site_fract_z
 _atom_site_occupancy
  Ag  Ag0  1  0.33080917  0.16279372  0.82676030  1
  Ag  Ag1  1  0.16877967  -0.00421948  0.16292937  1
  Ag  Ag2  1  0.33162388  0.15591141  0.17348432  1
  Ag  Ag3  1  0.84919398  0.83354394  -0.00885834  1
  Ag  Ag4  1  0.83771707  0.67534584  0.49792475  1
  Ag  Ag5  1  0.01247689  0.15489557  0.83298058  1
  Ag  Ag6  1  0.32963186  0.67851567  0.33299209  1
  Ag  Ag7  1  0.32494417  0.84045265  0.49295919  1
  Ag  Ag8  1  0.32451410  0.83848967  0.17943048  1
  Ag  Ag9  1  0.33094075  0.00040987  0.66609724  1
  Ag  Ag10  1  0.66219260  0.33924209  0.33752375  1
  Ag  Ag11  1  0.65341702  0.33118841  0.66303857  1
  Ag  Ag12  1  0.66001260  0.66627959  0.33242810  1
  Ag  Ag13  1  0.00197552  0.83618512  0.83214431  1
  Ag  Ag14  1  0.00209248  0.67874382  -0.00097038  1
  Ag  Ag15  1  0.33529382  0.16077192  0.50250786  1
  Ag  Ag16  1  0.84739209  0.83535953  0.66776550  1
  Ag  Ag17  1  0.00140519  0.67886932  0.66585464  1
  Ag  Ag18  1  0.49364380  0.50199323  0.33524055  1
  Ag  Ag19  1  0.16510773  0.68100290  0.83658682  1
  Ag  Ag20  1  0.49510276  0.16667320  0.34446706  1
  Ag  Ag21  1  0.00726342  0.67352128  0.33364108  1
  Ag  Ag22  1  0.16528983  0.32828851  0.83548861  1
  Ag  Ag23  1  0.00563109  -0.00703784  -0.00747218  1
  Ag  Ag24  1  0.00920940  0.83557498  0.51631973  1
  Ag  Ag25  1  0.84242365  -0.00519029  0.49903863  1
  Ag  Ag26  1  0.32597909  -0.00394216  -0.00077901  1
  Ag  Ag27  1  0.16332136  0.83583729  0.66868982  1
  Ag  Ag28  1  0.32183047  0.67536613  0.00447860  1
  Ag  Ag29  1  0.00678955  0.33548645  0.33128385  1
  Ag  Ag30  1  0.66651978  0.49962926  0.17148132  1
  Ag  Ag31  1  0.49683299  0.32554997  0.82131064  1
  Ag  Ag32  1  0.48417070  0.00121424  0.83062326  1
  Ag  Ag33  1  0.49643436  0.16420503  0.66414532  1
  Ag  Ag34  1  0.66800702  0.66973678  0.00410230  1
  Ag  Ag35  1  0.84318251  0.33059374  0.83212713  1
  Ag  Ag36  1  0.16766060  0.83350620  0.33226795  1
  Ag  Ag37  1  0.49454207  0.84053111  0.66477721  1
  Ag  Ag38  1  0.16557393  0.83352294  -0.00195125  1
  Ag  Ag39  1  0.49639931  0.32667788  0.50197364  1
  Ag  Ag40  1  0.16660198  0.32842242  0.16389095  1
  Ag  Ag41  1  0.33289417  -0.00557737  0.33858112  1
  Ag  Ag42  1  0.16793164  -0.00509272  0.50783576  1
  Ag  Ag43  1  0.33281930  0.50816159  0.49777228  1
  Ag  Ag44  1  0.00791708  0.83597105  0.14756508  1
  Ag  Ag45  1  0.33599542  0.31900015  0.66587898  1
  Ag  Ag46  1  0.65377099  0.16620607  0.50003943  1
  Ag  Ag47  1  0.16720020  -0.00119028  0.83269051  1
  Ag  Ag48  1  0.67315962  0.83424397  0.83147535  1
  Ag  Ag49  1  0.01219982  -0.00537336  0.67537228  1
  Ag  Ag50  1  0.00390578  0.33308474  -0.00234075  1
  Ag  Ag51  1  0.84631410  -0.00442335  0.17268934  1
  Ag  Ag52  1  0.17394694  0.51249641  0.33308699  1
  Ag  Ag53  1  0.48533955  0.83393514  0.33984840  1
  Sb  Sb54  1  0.49208049  -0.00124604  0.16468243  1
  Sb  Sb55  1  0.83382878  0.67257296  0.16985298  1
  Sb  Sb56  1  0.83136705  0.16510644  0.33407732  1
  Sb  Sb57  1  0.66496656  0.50272196  0.83554618  1
  Sb  Sb58  1  0.83264120  0.50194968  0.33331524  1
  Sb  Sb59  1  0.17431164  0.15763545  0.66991701  1
  Sb  Sb60  1  0.33342574  0.33154827  0.33884388  1
  Sb  Sb61  1  0.16424679  0.67695909  0.49965232  1
  Sb  Sb62  1  0.50003825  0.66655206  0.49717731  1
  Sb  Sb63  1  0.49246721  0.00329818  0.50421152  1
  Sb  Sb64  1  0.49987108  0.66800935  0.17014810  1
  Sb  Sb65  1  0.00403713  0.32842161  0.66866058  1
  Sb  Sb66  1  0.66667647  0.83131208  0.16477610  1
  Sb  Sb67  1  0.00300547  0.50287972  0.83368611  1
  Sb  Sb68  1  0.16693973  0.50485455  0.00357068  1
  Sb  Sb69  1  0.82988064  0.16192589  0.66725191  1
  Sb  Sb70  1  0.16663890  0.67429494  0.16649976  1
  Sb  Sb71  1  0.66909601  -0.00613254  -0.00303565  1
  Sb  Sb72  1  0.16848073  0.50565096  0.66199865  1
  Sb  Sb73  1  0.83441213  0.50344116  0.66708883  1
  Sb  Sb74  1  0.66315193  0.16359132  0.82912892  1
  Sb  Sb75  1  0.00532190  0.50761226  0.49672407  1
  Sb  Sb76  1  0.00975435  -0.00519239  0.33325479  1
  Sb  Sb77  1  0.66408272  0.00067999  0.66499195  1
  Sb  Sb78  1  0.83793140  0.16091983  -0.00199238  1
  Sb  Sb79  1  0.00665320  0.16106401  0.16387502  1
  Sb  Sb80  1  0.66659258  0.83738991  0.50285396  1
  Sb  Sb81  1  0.49809741  0.49627318  0.66105394  1
  Sb  Sb82  1  0.83839770  0.83318401  0.33671167  1
  Sb  Sb83  1  0.66941945  0.66795655  0.66478615  1
  Sb  Sb84  1  0.84041207  -0.00143701  0.83038608  1
  Sb  Sb85  1  0.49468659  0.33289328  0.17145918  1
  Sb  Sb86  1  0.67035839  0.33722328  -0.00163837  1
  Sb  Sb87  1  0.32876312  0.67561516  0.66557222  1
  Sb  Sb88  1  0.49403953  0.67227987  0.83366159  1
  Sb  Sb89  1  0.83469038  0.50600962  -0.00049022  1
  Sb  Sb90  1  0.17205815  0.32878833  0.50107543  1
  Sb  Sb91  1  0.00044438  0.50525207  0.16856967  1
  Sb  Sb92  1  0.49647727  0.16534956  -0.00395620  1
  Sb  Sb93  1  0.33248585  0.49492631  0.82974801  1
  Sb  Sb94  1  0.32697387  0.32882160  -0.00551422  1
  Sb  Sb95  1  0.16715376  0.15634616  -0.00227568  1
  Sb  Sb96  1  0.49876321  0.50087733  0.00435986  1
  Sb  Sb97  1  0.33133497  0.50291189  0.17251998  1
  Sb  Sb98  1  0.66021082  0.16877995  0.17384015  1
  Sb  Sb99  1  0.82920712  0.33201625  0.50262748  1
  Sb  Sb100  1  0.83871746  0.66954976  0.83102754  1
  Sb  Sb101  1  0.66033292  -0.00253167  0.33521795  1
  Sb  Sb102  1  0.00414451  0.16006732  0.50288217  1
  Sb  Sb103  1  0.17197968  0.16134989  0.33155276  1
  Sb  Sb104  1  0.32576102  0.84248378  0.83196437  1
  Sb  Sb105  1  0.66144904  0.49624814  0.49472923  1
  Sb  Sb106  1  0.83854027  0.32842062  0.16428518  1
  Sb  Sb107  1  0.49378795  0.83390064  -0.00199906  1
  Te  Te108  1  0.17235432  0.16706091  0.16511876  1
  Te  Te109  1  0.17096280  0.15785582  0.49985724  1
  Te  Te110  1  0.16840358  0.16793409  0.83350135  1
  Te  Te111  1  0.16499874  0.49099931  0.17411313  1
  Te  Te112  1  0.17265412  0.49774526  0.49378967  1
  Te  Te113  1  0.16824253  0.49171531  0.83315450  1
  Te  Te114  1  0.16628253  0.83368968  0.16712107  1
  Te  Te115  1  0.16583515  0.83544291  0.50026375  1
  Te  Te116  1  0.16502506  0.83680854  0.83314526  1
  Te  Te117  1  0.49243271  0.16718291  0.17004512  1
  Te  Te118  1  0.49798555  0.16547722  0.50267497  1
  Te  Te119  1  0.49782492  0.16533478  0.82972866  1
  Te  Te120  1  0.50382913  0.49943743  0.17327290  1
  Te  Te121  1  0.49506904  0.49552628  0.49469399  1
  Te  Te122  1  0.49998406  0.49517937  0.83358084  1
  Te  Te123  1  0.49789934  0.83357612  0.17269303  1
  Te  Te124  1  0.49867007  0.83319786  0.50043585  1
  Te  Te125  1  0.50118572  0.83612352  0.83025726  1
  Te  Te126  1  0.83283160  0.15723553  0.16597796  1
  Te  Te127  1  0.83629206  0.16246174  0.50031126  1
  Te  Te128  1  0.83144006  0.17175464  0.83402008  1
  Te  Te129  1  0.82780928  0.49722115  0.16562403  1
  Te  Te130  1  0.83462624  0.50408044  0.50166419  1
  Te  Te131  1  0.83113230  0.49159211  0.83375853  1
  Te  Te132  1  0.83336117  0.83890897  0.16580377  1
  Te  Te133  1  0.83193463  0.83413973  0.50315179  1
  Te  Te134  1  0.83395040  0.83232161  0.83099621  1
  Te  Te135  1  0.16597893  -0.00438419  0.00037826  1
  Te  Te136  1  0.17299627  -0.00470141  0.32778689  1
  Te  Te137  1  0.16856091  -0.00296593  0.66805074  1
  Te  Te138  1  0.16397243  0.33771641  -0.00070033  1
  Te  Te139  1  0.16380549  0.32839587  0.33388292  1
  Te  Te140  1  0.17103719  0.33712704  0.67175636  1
  Te  Te141  1  0.16415105  0.66874005  -0.00130303  1
  Te  Te142  1  0.16872238  0.66883452  0.33336769  1
  Te  Te143  1  0.16201673  0.67191375  0.67156717  1
  Te  Te144  1  0.49836494  0.00050465  -0.00817569  1
  Te  Te145  1  0.49399942  -0.00071646  0.33102959  1
  Te  Te146  1  0.49983964  0.00155448  0.66979215  1
  Te  Te147  1  0.50006597  0.33430810  -0.00223649  1
  Te  Te148  1  0.50222075  0.33167683  0.33419865  1
  Te  Te149  1  0.49693548  0.33324888  0.66418200  1
  Te  Te150  1  0.50622558  0.66569732  -0.00110617  1
  Te  Te151  1  0.49831616  0.66818488  0.33439843  1
  Te  Te152  1  0.49930000  0.66912055  0.66693461  1
  Te  Te153  1  0.83716651  -0.00673091  0.00148248  1
  Te  Te154  1  0.83039458  0.00023886  0.33356101  1
  Te  Te155  1  0.83137467  -0.00554500  0.66228831  1
  Te  Te156  1  0.83796367  0.33396341  -0.00383509  1
  Te  Te157  1  0.83024496  0.33335165  0.33260247  1
  Te  Te158  1  0.83568386  0.33384259  0.67134068  1
  Te  Te159  1  0.83599996  0.67370731  0.00044716  1
  Te  Te160  1  0.83502299  0.66635610  0.33733752  1
  Te  Te161  1  0.83705840  0.67084541  0.66248112  1
  Te  Te162  1  -0.00018670  0.17254279  -0.00495679  1
  Te  Te163  1  -0.00093963  0.17254752  0.33317332  1
  Te  Te164  1  -0.00209837  0.15969185  0.67174219  1
  Te  Te165  1  -0.00043192  0.49344156  0.00137182  1
  Te  Te166  1  0.00375427  0.49932927  0.33191552  1
  Te  Te167  1  0.00052118  0.50972343  0.66501557  1
  Te  Te168  1  0.00382159  0.83454354  -0.00600835  1
  Te  Te169  1  0.00288063  0.83153679  0.33718601  1
  Te  Te170  1  0.00245939  0.83455098  0.67044814  1
  Te  Te171  1  0.33386701  0.16032331  0.00024364  1
  Te  Te172  1  0.33655180  0.16665294  0.33358328  1
  Te  Te173  1  0.33485121  0.16225553  0.66720069  1
  Te  Te174  1  0.33390322  0.51205950  0.00098315  1
  Te  Te175  1  0.33335986  0.49810277  0.33655079  1
  Te  Te176  1  0.33355957  0.50279205  0.65832235  1
  Te  Te177  1  0.33003115  0.83373139  -0.00143197  1
  Te  Te178  1  0.33080933  0.83423996  0.33488931  1
  Te  Te179  1  0.33374197  0.83851089  0.66280372  1
  Te  Te180  1  0.66706957  0.16700879  0.00321245  1
  Te  Te181  1  0.66086009  0.16846492  0.33804467  1
  Te  Te182  1  0.66341326  0.17199221  0.66337376  1
  Te  Te183  1  0.66695389  0.50758114  0.00531964  1
  Te  Te184  1  0.66636072  0.50113865  0.33164031  1
  Te  Te185  1  0.66683511  0.49281371  0.66694049  1
  Te  Te186  1  0.66091477  0.82767820  -0.00292032  1
  Te  Te187  1  0.66652582  0.82779371  0.33386701  1
  Te  Te188  1  0.65826613  0.83204169  0.67065901  1
  Te  Te189  1  0.00414456  -0.00376154  0.16566638  1
  Te  Te190  1  0.00346020  -0.00402792  0.50008466  1
  Te  Te191  1  0.00012747  0.00007691  0.83394163  1
  Te  Te192  1  0.00274052  0.33132194  0.17024352  1
  Te  Te193  1  -0.00115454  0.33341379  0.49665474  1
  Te  Te194  1  0.00216480  0.33549362  0.83173342  1
  Te  Te195  1  -0.00117122  0.67263795  0.16669953  1
  Te  Te196  1  -0.00125826  0.67169820  0.49595641  1
  Te  Te197  1  0.00325078  0.66808744  0.83748532  1
  Te  Te198  1  0.33142036  -0.00193784  0.16375998  1
  Te  Te199  1  0.33309093  -0.00133398  0.50029982  1
  Te  Te200  1  0.32855460  0.00284277  0.83234371  1
  Te  Te201  1  0.32645644  0.33525120  0.16362201  1
  Te  Te202  1  0.33638579  0.32274356  0.50446720  1
  Te  Te203  1  0.33418256  0.32907369  0.83024817  1
  Te  Te204  1  0.33379221  0.67107195  0.16804126  1
  Te  Te205  1  0.33400952  0.66888021  0.49591970  1
  Te  Te206  1  0.32619675  0.66207800  0.83375893  1
  Te  Te207  1  0.66904942  0.00134655  0.16588185  1
  Te  Te208  1  0.67567888  0.00559650  0.49911462  1
  Te  Te209  1  0.66731004  -0.00553245  0.83288638  1
  Te  Te210  1  0.66785251  0.33678239  0.16917877  1
  Te  Te211  1  0.66543533  0.33013510  0.49937810  1
  Te  Te212  1  0.65955840  0.33396646  0.83160082  1
  Te  Te213  1  0.66750849  0.66370907  0.16909326  1
  Te  Te214  1  0.67064081  0.66524157  0.49541201  1
  Te  Te215  1  0.66656984  0.67100726  0.83496021  1
