# generated using pymatgen
data_AgSbTe2
_symmetry_space_group_name_H-M   'P 1'
_cell_length_a   18.34695493
_cell_length_b   18.36162308
_cell_length_c   18.34809698
_cell_angle_alpha   90.00007744
_cell_angle_beta   90.00186115
_cell_angle_gamma   89.99980304
_symmetry_Int_Tables_number   1
_chemical_formula_structural   AgSbTe2
_chemical_formula_sum   'Ag54 Sb54 Te108'
_cell_volume   6181.10453906
_cell_formula_units_Z   54
loop_
 _symmetry_equiv_pos_site_id
 _symmetry_equiv_pos_as_xyz
  1  'x, y, z'
loop_
 _atom_site_type_symbol
 _atom_site_label
 _atom_site_symmetry_multiplicity
 _atom_site_fract_x
 _atom_site_fract_y
 _atom_site_fract_z
 _atom_site_occupancy
  Ag  Ag0  1  0.17066224  0.33551375  0.15737064  1
  Ag  Ag1  1  0.17226325  0.66049132  0.83334440  1
  Ag  Ag2  1  0.01392343  0.49933644  0.15513554  1
  Ag  Ag3  1  0.01228858  0.49889904  0.84163611  1
  Ag  Ag4  1  0.65978618  0.34306956  0.00814663  1
  Ag  Ag5  1  0.82482810  0.16626565  0.33410459  1
  Ag  Ag6  1  0.33585570  0.82116889  0.50300144  1
  Ag  Ag7  1  0.17358442  0.49702676  0.67852449  1
  Ag  Ag8  1  0.49367220  0.50366331  0.00020149  1
  Ag  Ag9  1  0.83332775  0.34045481  0.49982539  1
  Ag  Ag10  1  0.16917113  0.34091704  0.50139661  1
  Ag  Ag11  1  0.85077878  0.49930146  -0.00196054  1
  Ag  Ag12  1  0.33076736  -0.00053447  0.66686622  1
  Ag  Ag13  1  0.32989347  0.50470216  0.83065019  1
  Ag  Ag14  1  0.66507402  0.16649768  0.49122316  1
  Ag  Ag15  1  0.50137936  -0.00011032  0.50034012  1
  Ag  Ag16  1  0.49155349  0.81995396  0.00311921  1
  Ag  Ag17  1  0.33227791  0.50345587  0.51491871  1
  Ag  Ag18  1  0.01173774  0.00090873  0.66864846  1
  Ag  Ag19  1  0.49800728  0.50172745  0.31845634  1
  Ag  Ag20  1  0.33737044  0.82416855  0.15444192  1
  Ag  Ag21  1  0.33370032  0.66425041  0.33635728  1
  Ag  Ag22  1  0.66190865  0.83445804  0.49230079  1
  Ag  Ag23  1  0.00429160  0.65479771  -0.00063857  1
  Ag  Ag24  1  0.16783845  0.49844106  -0.00443183  1
  Ag  Ag25  1  0.83662780  0.50264542  0.66781260  1
  Ag  Ag26  1  0.65659349  0.65881057  0.00355173  1
  Ag  Ag27  1  0.17902643  0.66098762  0.50752840  1
  Ag  Ag28  1  0.17729037  0.82114844  -0.00169384  1
  Ag  Ag29  1  0.83132495  0.82555731  0.66039299  1
  Ag  Ag30  1  0.33642115  0.50291685  0.15971580  1
  Ag  Ag31  1  0.33264130  0.33909577  -0.00040375  1
  Ag  Ag32  1  0.17122805  0.17875342  -0.00476617  1
  Ag  Ag33  1  0.83384817  0.66470616  0.50150437  1
  Ag  Ag34  1  0.01523046  0.34325967  0.00001653  1
  Ag  Ag35  1  0.66002462  0.49932569  0.16121744  1
  Ag  Ag36  1  0.17002118  -0.00156559  0.83694592  1
  Ag  Ag37  1  0.49692256  0.66336737  0.15950397  1
  Ag  Ag38  1  0.33039514  0.34546511  0.66998116  1
  Ag  Ag39  1  0.17352309  0.17483089  0.67426018  1
  Ag  Ag40  1  0.49078127  0.16946935  -0.00009754  1
  Ag  Ag41  1  0.66781140  0.32855256  0.32779062  1
  Ag  Ag42  1  0.49017925  0.66388418  0.83994930  1
  Ag  Ag43  1  0.33648946  0.17356912  0.16158104  1
  Ag  Ag44  1  0.33089149  0.82201205  0.84001379  1
  Ag  Ag45  1  0.48518708  0.49882357  0.67128730  1
  Ag  Ag46  1  0.82623248  0.83354581  0.34040674  1
  Ag  Ag47  1  0.33224720  0.65986293  0.66778766  1
  Ag  Ag48  1  0.00844281  0.17344724  0.83384624  1
  Ag  Ag49  1  0.49176082  0.17015010  0.67014301  1
  Ag  Ag50  1  0.65920113  0.17687854  0.16960569  1
  Ag  Ag51  1  0.65917330  0.82968795  0.17052751  1
  Ag  Ag52  1  0.66613611  0.00673718  0.33447442  1
  Ag  Ag53  1  0.17082674  0.00763225  0.15734687  1
  Sb  Sb54  1  0.50320713  0.17125545  0.33103691  1
  Sb  Sb55  1  0.49129420  -0.00372489  0.83026560  1
  Sb  Sb56  1  0.82832872  0.66469767  0.16890338  1
  Sb  Sb57  1  0.84249025  -0.00160692  0.82977231  1
  Sb  Sb58  1  0.66219024  0.33514528  0.66580260  1
  Sb  Sb59  1  0.00801962  0.82919247  0.83358506  1
  Sb  Sb60  1  0.49619757  0.34047444  0.16363044  1
  Sb  Sb61  1  0.33809444  -0.00420446  0.33481978  1
  Sb  Sb62  1  0.66194428  0.50064070  0.49746612  1
  Sb  Sb63  1  0.66188124  0.66564520  0.32939330  1
  Sb  Sb64  1  0.83588239  0.66399915  0.83106151  1
  Sb  Sb65  1  0.00351803  0.66487353  0.32935656  1
  Sb  Sb66  1  0.65969265  0.83175894  0.83585162  1
  Sb  Sb67  1  -0.00388601  0.00053551  0.33767663  1
  Sb  Sb68  1  0.32856626  0.16900165  0.83448109  1
  Sb  Sb69  1  0.17626280  0.66246404  0.16023191  1
  Sb  Sb70  1  0.33446039  0.65818306  -0.00618293  1
  Sb  Sb71  1  0.33668541  0.16968232  0.50069631  1
  Sb  Sb72  1  -0.00340999  0.33461805  0.32856531  1
  Sb  Sb73  1  0.82800502  -0.00245214  0.49973515  1
  Sb  Sb74  1  0.83593469  -0.00001340  0.16709823  1
  Sb  Sb75  1  0.00558470  0.66675838  0.67050765  1
  Sb  Sb76  1  0.16821081  0.33715386  0.83667260  1
  Sb  Sb77  1  0.33194254  0.00101525  -0.00199862  1
  Sb  Sb78  1  0.17415277  0.50053986  0.33122320  1
  Sb  Sb79  1  0.83369926  0.17645328  0.00400729  1
  Sb  Sb80  1  0.17065773  0.83121369  0.67124256  1
  Sb  Sb81  1  -0.00308013  0.16886480  0.50453434  1
  Sb  Sb82  1  0.66466345  0.00010142  0.00852937  1
  Sb  Sb83  1  0.66669418  0.16673951  0.83689007  1
  Sb  Sb84  1  0.66299687  0.50109386  0.84175479  1
  Sb  Sb85  1  0.00559393  0.50021857  0.50125463  1
  Sb  Sb86  1  0.33763660  0.33917392  0.33161977  1
  Sb  Sb87  1  0.00417070  0.17219572  0.16036001  1
  Sb  Sb88  1  0.83383628  0.16889961  0.66231305  1
  Sb  Sb89  1  0.16482341  0.16844120  0.33213223  1
  Sb  Sb90  1  0.49789034  0.83097749  0.66816294  1
  Sb  Sb91  1  0.00772074  0.33292630  0.67174482  1
  Sb  Sb92  1  0.83514670  0.33608502  0.83033027  1
  Sb  Sb93  1  0.66207532  -0.00007615  0.66032648  1
  Sb  Sb94  1  0.17400495  -0.00151908  0.50413757  1
  Sb  Sb95  1  0.49792965  0.66742120  0.50078894  1
  Sb  Sb96  1  0.00610148  0.00232951  -0.00391981  1
  Sb  Sb97  1  0.49878162  0.33279315  0.50175722  1
  Sb  Sb98  1  0.49629957  -0.00304911  0.16863636  1
  Sb  Sb99  1  0.49711728  0.33968191  0.83635741  1
  Sb  Sb100  1  0.00134197  0.83179244  0.50233078  1
  Sb  Sb101  1  0.00317057  0.82858366  0.16322375  1
  Sb  Sb102  1  0.16830060  0.83167864  0.32883571  1
  Sb  Sb103  1  0.50150898  0.82852048  0.32980500  1
  Sb  Sb104  1  0.82731780  0.50112060  0.33170317  1
  Sb  Sb105  1  0.66252251  0.66500499  0.66932624  1
  Sb  Sb106  1  0.82979607  0.82371267  -0.00034067  1
  Sb  Sb107  1  0.83187733  0.33568242  0.16831038  1
  Te  Te108  1  0.16834318  0.17002524  0.16476233  1
  Te  Te109  1  0.16597660  0.16774433  0.50271331  1
  Te  Te110  1  0.16636085  0.16407699  0.83306415  1
  Te  Te111  1  0.17158712  0.49791103  0.16504691  1
  Te  Te112  1  0.16956383  0.50139970  0.49759415  1
  Te  Te113  1  0.16809811  0.50088702  0.83422034  1
  Te  Te114  1  0.17126002  0.83210280  0.16082135  1
  Te  Te115  1  0.17117019  0.82957877  0.49910658  1
  Te  Te116  1  0.17131509  0.83345896  0.83762679  1
  Te  Te117  1  0.49954354  0.16442174  0.16424042  1
  Te  Te118  1  0.50439911  0.16469203  0.50178597  1
  Te  Te119  1  0.49976973  0.16459789  0.83147837  1
  Te  Te120  1  0.49866488  0.50220312  0.16165032  1
  Te  Te121  1  0.49555000  0.50017722  0.51231478  1
  Te  Te122  1  0.49760135  0.50433913  0.83059035  1
  Te  Te123  1  0.49747706  0.83109003  0.16348650  1
  Te  Te124  1  0.50101634  0.83499942  0.50034455  1
  Te  Te125  1  0.49324229  0.82896065  0.83819816  1
  Te  Te126  1  0.82819227  0.16677254  0.17182814  1
  Te  Te127  1  0.82811410  0.16861856  0.49632327  1
  Te  Te128  1  0.84077922  0.16617888  0.83282247  1
  Te  Te129  1  0.82299620  0.50035575  0.16217769  1
  Te  Te130  1  0.83330564  0.50100212  0.49918562  1
  Te  Te131  1  0.83419417  0.50071066  0.83481926  1
  Te  Te132  1  0.83059721  0.83314880  0.16850261  1
  Te  Te133  1  0.83387359  0.83179900  0.50043339  1
  Te  Te134  1  0.83256886  0.83279962  0.82766805  1
  Te  Te135  1  0.16641545  0.00297806  -0.00117188  1
  Te  Te136  1  0.16538087  -0.00009970  0.32947697  1
  Te  Te137  1  0.16983749  -0.00161446  0.66787577  1
  Te  Te138  1  0.17164596  0.33540842  0.00045974  1
  Te  Te139  1  0.16524592  0.33240717  0.33986300  1
  Te  Te140  1  0.16930527  0.33444537  0.66260251  1
  Te  Te141  1  0.16511254  0.66419157  -0.00191725  1
  Te  Te142  1  0.17048232  0.66781078  0.34370712  1
  Te  Te143  1  0.16974511  0.66436569  0.66826425  1
  Te  Te144  1  0.50060633  0.01052165  -0.00170413  1
  Te  Te145  1  0.50569411  0.00016663  0.33813528  1
  Te  Te146  1  0.49563610  0.00243137  0.66322838  1
  Te  Te147  1  0.49676536  0.32809700  -0.00002048  1
  Te  Te148  1  0.50639334  0.34032615  0.33516165  1
  Te  Te149  1  0.49486239  0.33328512  0.66856826  1
  Te  Te150  1  0.49736541  0.66469063  0.00087908  1
  Te  Te151  1  0.49477975  0.66198142  0.33147079  1
  Te  Te152  1  0.49599865  0.66318955  0.67116625  1
  Te  Te153  1  0.83503327  -0.00054141  -0.00112753  1
  Te  Te154  1  0.82874672  -0.00115461  0.33314903  1
  Te  Te155  1  0.83412893  -0.00060276  0.66616292  1
  Te  Te156  1  0.82579253  0.34070355  -0.00008429  1
  Te  Te157  1  0.82911992  0.33204634  0.33757771  1
  Te  Te158  1  0.83256683  0.33712596  0.66162360  1
  Te  Te159  1  0.83336166  0.65945486  -0.00045258  1
  Te  Te160  1  0.83436590  0.66945084  0.33799337  1
  Te  Te161  1  0.83300358  0.66530026  0.66410224  1
  Te  Te162  1  0.00276580  0.17033298  -0.00457525  1
  Te  Te163  1  -0.00921773  0.16609007  0.33234139  1
  Te  Te164  1  0.00307423  0.16460977  0.67190278  1
  Te  Te165  1  0.00566234  0.49874886  -0.00084664  1
  Te  Te166  1  -0.00236234  0.50006334  0.32402283  1
  Te  Te167  1  -0.00223313  0.50013327  0.66869739  1
  Te  Te168  1  -0.00042834  0.83043339  -0.00038307  1
  Te  Te169  1  -0.00937967  0.83323931  0.33240330  1
  Te  Te170  1  -0.00618586  0.83704743  0.66792882  1
  Te  Te171  1  0.33077521  0.16776965  0.00096716  1
  Te  Te172  1  0.33391450  0.16686279  0.32587586  1
  Te  Te173  1  0.33226038  0.16364681  0.66617458  1
  Te  Te174  1  0.33397652  0.49835123  -0.00025461  1
  Te  Te175  1  0.33884678  0.50313620  0.32278709  1
  Te  Te176  1  0.32881945  0.50068428  0.66933736  1
  Te  Te177  1  0.33382436  0.83684678  -0.00111923  1
  Te  Te178  1  0.33374159  0.82872753  0.34059561  1
  Te  Te179  1  0.33435024  0.83582287  0.66225438  1
  Te  Te180  1  0.66717233  0.16800303  0.00548160  1
  Te  Te181  1  0.66481437  0.16786721  0.33119617  1
  Te  Te182  1  0.66288802  0.16761809  0.66548633  1
  Te  Te183  1  0.65115748  0.50040243  0.00169242  1
  Te  Te184  1  0.66061570  0.49751208  0.32907140  1
  Te  Te185  1  0.67651721  0.49964202  0.66741686  1
  Te  Te186  1  0.66298291  0.83186560  0.00439189  1
  Te  Te187  1  0.66697279  0.83072657  0.33299961  1
  Te  Te188  1  0.66914527  0.83277350  0.66365511  1
  Te  Te189  1  0.00823639  -0.00000642  0.16845156  1
  Te  Te190  1  0.00161620  0.00040670  0.50707972  1
  Te  Te191  1  0.00877929  0.00085421  0.82872480  1
  Te  Te192  1  0.00458494  0.33819946  0.16126006  1
  Te  Te193  1  -0.00120686  0.33369644  0.49911956  1
  Te  Te194  1  0.00005272  0.33588690  0.83893884  1
  Te  Te195  1  0.00054384  0.66042035  0.16138507  1
  Te  Te196  1  -0.00445422  0.66593099  0.49932430  1
  Te  Te197  1  0.00481382  0.66194113  0.83806953  1
  Te  Te198  1  0.32975937  -0.00158962  0.16929240  1
  Te  Te199  1  0.33908695  0.00153201  0.50243680  1
  Te  Te200  1  0.32800267  -0.00273297  0.82725210  1
  Te  Te201  1  0.33033826  0.33234012  0.16602638  1
  Te  Te202  1  0.33047831  0.33709101  0.50107273  1
  Te  Te203  1  0.33378440  0.33937800  0.83284788  1
  Te  Te204  1  0.33555827  0.66726293  0.17113535  1
  Te  Te205  1  0.33605646  0.66384751  0.50323048  1
  Te  Te206  1  0.33128046  0.66589684  0.83100321  1
  Te  Te207  1  0.66739274  -0.00667594  0.17329537  1
  Te  Te208  1  0.66278680  -0.00187614  0.49546679  1
  Te  Te209  1  0.66759447  -0.00040702  0.83255522  1
  Te  Te210  1  0.66664403  0.33381821  0.16738041  1
  Te  Te211  1  0.66927647  0.33188258  0.49917440  1
  Te  Te212  1  0.66751704  0.33167833  0.84335010  1
  Te  Te213  1  0.66205913  0.66777785  0.16414499  1
  Te  Te214  1  0.67033381  0.67055868  0.50087964  1
  Te  Te215  1  0.66339452  0.66843621  0.84079047  1
