# generated using pymatgen
data_AgSbTe2
_symmetry_space_group_name_H-M   'P 1'
_cell_length_a   18.33088274
_cell_length_b   18.32766096
_cell_length_c   18.33663921
_cell_angle_alpha   90.00132522
_cell_angle_beta   90.00065356
_cell_angle_gamma   90.00354748
_symmetry_Int_Tables_number   1
_chemical_formula_structural   AgSbTe2
_chemical_formula_sum   'Ag54 Sb54 Te108'
_cell_volume   6160.41770776
_cell_formula_units_Z   54
loop_
 _symmetry_equiv_pos_site_id
 _symmetry_equiv_pos_as_xyz
  1  'x, y, z'
loop_
 _atom_site_type_symbol
 _atom_site_label
 _atom_site_symmetry_multiplicity
 _atom_site_fract_x
 _atom_site_fract_y
 _atom_site_fract_z
 _atom_site_occupancy
  Ag  Ag0  1  0.50026805  0.83868009  0.66876323  1
  Ag  Ag1  1  0.00247901  0.49989269  0.83096309  1
  Ag  Ag2  1  0.66579160  0.33649880  0.34017097  1
  Ag  Ag3  1  0.33886572  0.66434837  0.33480660  1
  Ag  Ag4  1  0.33140356  0.82664682  0.83267448  1
  Ag  Ag5  1  0.32874084  -0.00350663  0.00080035  1
  Ag  Ag6  1  0.65562737  0.17046883  0.50217243  1
  Ag  Ag7  1  0.83108910  0.65712768  0.50429080  1
  Ag  Ag8  1  0.17201104  0.00649674  0.49799299  1
  Ag  Ag9  1  0.50184859  0.17279808  0.34773360  1
  Ag  Ag10  1  0.16550706  -0.00284172  0.17721061  1
  Ag  Ag11  1  0.00277581  0.50158184  0.16623785  1
  Ag  Ag12  1  0.00646877  0.83733279  0.83352805  1
  Ag  Ag13  1  0.82973614  0.33450760  0.17578940  1
  Ag  Ag14  1  0.49641443  0.66512835  0.82947367  1
  Ag  Ag15  1  0.00035413  0.16153962  0.82207952  1
  Ag  Ag16  1  0.33810696  0.65358741  0.67055770  1
  Ag  Ag17  1  0.50443483  0.16768110  0.66099080  1
  Ag  Ag18  1  0.82487978  0.33379513  0.50132141  1
  Ag  Ag19  1  0.49290901  0.49564634  0.66222472  1
  Ag  Ag20  1  0.00884707  -0.00112982  -0.00567637  1
  Ag  Ag21  1  0.49586507  0.66459288  0.17031375  1
  Ag  Ag22  1  0.33568088  0.66880816  -0.01166768  1
  Ag  Ag23  1  0.82938038  0.66459958  0.82701053  1
  Ag  Ag24  1  0.33294629  0.33961340  0.66328617  1
  Ag  Ag25  1  0.17947156  0.49361782  0.66797087  1
  Ag  Ag26  1  0.00038661  0.16686935  0.50546041  1
  Ag  Ag27  1  0.66386088  0.17059951  0.17530815  1
  Ag  Ag28  1  0.34277132  0.17221603  0.50195788  1
  Ag  Ag29  1  0.00389149  0.83597369  0.16227171  1
  Ag  Ag30  1  0.66522696  0.33161424  -0.00527743  1
  Ag  Ag31  1  0.33367054  0.50294771  0.16950404  1
  Ag  Ag32  1  0.33475440  0.49331911  0.50866497  1
  Ag  Ag33  1  0.00426071  0.32941989  0.66633185  1
  Ag  Ag34  1  0.65745724  0.00843664  0.66581302  1
  Ag  Ag35  1  0.49188028  0.01247999  0.50447894  1
  Ag  Ag36  1  0.65771823  0.65534613  0.33509920  1
  Ag  Ag37  1  0.83223531  0.83685183  0.66683568  1
  Ag  Ag38  1  0.32947338  -0.00368180  0.33532053  1
  Ag  Ag39  1  0.50073692  0.32662432  0.50270553  1
  Ag  Ag40  1  0.00991778  0.00066176  0.33754526  1
  Ag  Ag41  1  0.17475645  0.32752174  0.50388128  1
  Ag  Ag42  1  0.50064426  0.16598550  -0.00506852  1
  Ag  Ag43  1  0.49697123  -0.00094735  0.82111813  1
  Ag  Ag44  1  0.83371743  0.16734148  0.66341940  1
  Ag  Ag45  1  0.65720799  0.49852494  0.82943514  1
  Ag  Ag46  1  0.66244910  0.32865734  0.65998604  1
  Ag  Ag47  1  0.50022623  0.49771684  0.34018192  1
  Ag  Ag48  1  0.16818517  0.83926971  0.33040572  1
  Ag  Ag49  1  0.16801525  0.83752310  0.00093863  1
  Ag  Ag50  1  0.33697726  0.50601714  0.82075001  1
  Ag  Ag51  1  0.16455631  0.33673137  0.82110644  1
  Ag  Ag52  1  0.82392285  0.49794155  0.33557204  1
  Ag  Ag53  1  -0.00140507  0.01202057  0.66728164  1
  Sb  Sb54  1  0.17317575  0.16128125  0.33833353  1
  Sb  Sb55  1  -0.00371866  0.32903672  -0.00635668  1
  Sb  Sb56  1  0.50333139  0.33607248  0.17251252  1
  Sb  Sb57  1  0.83396459  0.49851026  0.00081612  1
  Sb  Sb58  1  0.66415369  0.82845261  0.83101672  1
  Sb  Sb59  1  0.16931995  0.50333469  -0.00552621  1
  Sb  Sb60  1  0.50168291  0.66346011  0.50223799  1
  Sb  Sb61  1  0.16563385  0.17306237  0.66457661  1
  Sb  Sb62  1  0.16304952  0.33057615  0.17028303  1
  Sb  Sb63  1  0.00107993  0.66872217  0.33296141  1
  Sb  Sb64  1  0.16641305  0.66551909  0.50068225  1
  Sb  Sb65  1  0.49827566  0.33425653  0.82271688  1
  Sb  Sb66  1  0.49495523  -0.00248266  0.16959166  1
  Sb  Sb67  1  0.67121380  0.83710832  0.16840533  1
  Sb  Sb68  1  0.00083194  0.84049219  0.50458898  1
  Sb  Sb69  1  0.00302996  0.49295518  0.50282025  1
  Sb  Sb70  1  0.66785521  0.17192236  0.82452703  1
  Sb  Sb71  1  0.49447368  0.83182187  0.33898939  1
  Sb  Sb72  1  0.33822627  0.33388855  -0.00668599  1
  Sb  Sb73  1  0.17189453  0.50296932  0.33735551  1
  Sb  Sb74  1  0.17244458  0.67089611  0.16703098  1
  Sb  Sb75  1  0.00586400  0.67042327  -0.00272634  1
  Sb  Sb76  1  0.66022829  0.49214420  0.50222211  1
  Sb  Sb77  1  0.66488669  0.49410192  0.16868851  1
  Sb  Sb78  1  0.83057583  0.16806438  -0.00573271  1
  Sb  Sb79  1  0.83533084  0.33800911  0.82587949  1
  Sb  Sb80  1  0.49307198  0.83653231  -0.00740819  1
  Sb  Sb81  1  0.33366865  0.83337101  0.50481380  1
  Sb  Sb82  1  0.66137167  0.00702124  -0.00648963  1
  Sb  Sb83  1  0.66618146  0.83736035  0.50269226  1
  Sb  Sb84  1  0.32921708  0.83038102  0.16307776  1
  Sb  Sb85  1  -0.00439271  0.32931288  0.34065483  1
  Sb  Sb86  1  0.84031992  0.00521647  0.16883157  1
  Sb  Sb87  1  0.84155305  0.83303393  -0.00719543  1
  Sb  Sb88  1  0.49845979  0.49589047  -0.00285714  1
  Sb  Sb89  1  -0.00473748  0.16590334  0.16847284  1
  Sb  Sb90  1  0.17216128  0.66323080  0.83220322  1
  Sb  Sb91  1  0.00066007  0.66387950  0.66862227  1
  Sb  Sb92  1  0.16805296  0.83154481  0.66772882  1
  Sb  Sb93  1  0.82801545  0.17189407  0.34082850  1
  Sb  Sb94  1  0.83903712  0.82782053  0.33987330  1
  Sb  Sb95  1  0.82965150  0.66187063  0.16753633  1
  Sb  Sb96  1  0.33898085  0.16913231  0.17177326  1
  Sb  Sb97  1  0.83164040  0.49718649  0.66254206  1
  Sb  Sb98  1  0.65961168  0.66165964  0.00055835  1
  Sb  Sb99  1  0.33473899  0.00258402  0.66411457  1
  Sb  Sb100  1  0.16830363  0.00271752  0.82854381  1
  Sb  Sb101  1  0.66271705  0.00450675  0.33951788  1
  Sb  Sb102  1  0.83373027  0.00603613  0.50317021  1
  Sb  Sb103  1  0.33904330  0.33591780  0.34246620  1
  Sb  Sb104  1  0.83275466  -0.00293265  0.82846491  1
  Sb  Sb105  1  0.33248035  0.16804776  0.82667034  1
  Sb  Sb106  1  0.17110786  0.16206080  -0.00091947  1
  Sb  Sb107  1  0.66264781  0.66320643  0.66279064  1
  Te  Te108  1  0.16652863  0.16020373  0.16728614  1
  Te  Te109  1  0.16337395  0.16671855  0.49942178  1
  Te  Te110  1  0.16138210  0.17364526  0.83403145  1
  Te  Te111  1  0.16412803  0.49900164  0.16692695  1
  Te  Te112  1  0.17122899  0.49746082  0.50514721  1
  Te  Te113  1  0.16602170  0.49720040  0.83000208  1
  Te  Te114  1  0.16315814  0.83679779  0.16644274  1
  Te  Te115  1  0.16610872  0.83751944  0.49622174  1
  Te  Te116  1  0.16746806  0.83354995  0.83471224  1
  Te  Te117  1  0.50447794  0.16612563  0.16457910  1
  Te  Te118  1  0.49930501  0.16819804  0.50324863  1
  Te  Te119  1  0.50001594  0.16415149  0.83328149  1
  Te  Te120  1  0.49778946  0.50363293  0.16828336  1
  Te  Te121  1  0.49517819  0.49875374  0.49989988  1
  Te  Te122  1  0.49683552  0.49999839  0.83110525  1
  Te  Te123  1  0.50185520  0.82665286  0.16632892  1
  Te  Te124  1  0.50032586  0.83945155  0.50763828  1
  Te  Te125  1  0.49723760  0.83307074  0.82888749  1
  Te  Te126  1  0.82677064  0.17269618  0.16664387  1
  Te  Te127  1  0.83863927  0.17180890  0.50439075  1
  Te  Te128  1  0.83928557  0.16733915  0.82685045  1
  Te  Te129  1  0.83518998  0.49665930  0.17131675  1
  Te  Te130  1  0.83512562  0.49713376  0.49607826  1
  Te  Te131  1  0.83861967  0.50429125  0.83297035  1
  Te  Te132  1  0.84114623  0.83234536  0.16695115  1
  Te  Te133  1  0.83367381  0.82876921  0.50719168  1
  Te  Te134  1  0.83496796  0.82805352  0.82745230  1
  Te  Te135  1  0.16795141  -0.00258270  -0.00489805  1
  Te  Te136  1  0.16780429  -0.00057972  0.33586038  1
  Te  Te137  1  0.16141697  -0.00212981  0.66071598  1
  Te  Te138  1  0.16639764  0.33238751  0.00032430  1
  Te  Te139  1  0.16571842  0.33299127  0.33992710  1
  Te  Te140  1  0.16610580  0.33449053  0.66376448  1
  Te  Te141  1  0.17568353  0.67395604  0.00045481  1
  Te  Te142  1  0.17219087  0.67350511  0.33443739  1
  Te  Te143  1  0.17381116  0.66023543  0.66491445  1
  Te  Te144  1  0.49527841  0.00344629  0.00104815  1
  Te  Te145  1  0.49584530  0.00057917  0.33711546  1
  Te  Te146  1  0.49694441  0.00112203  0.66462504  1
  Te  Te147  1  0.50476067  0.32786671  0.00265903  1
  Te  Te148  1  0.50387553  0.33480971  0.33787126  1
  Te  Te149  1  0.50088153  0.33466453  0.66441628  1
  Te  Te150  1  0.49470119  0.66684037  -0.00435769  1
  Te  Te151  1  0.49950155  0.66603281  0.33519893  1
  Te  Te152  1  0.49861570  0.66414388  0.66886175  1
  Te  Te153  1  0.83759364  -0.00000051  -0.00077612  1
  Te  Te154  1  0.83631083  -0.00194636  0.33477487  1
  Te  Te155  1  0.83751597  0.00044081  0.66635285  1
  Te  Te156  1  0.82730356  0.33252566  0.00472938  1
  Te  Te157  1  0.82974011  0.33676980  0.33646484  1
  Te  Te158  1  0.83167764  0.33010226  0.66237981  1
  Te  Te159  1  0.83089725  0.66663389  -0.00638951  1
  Te  Te160  1  0.83252296  0.66049265  0.33581933  1
  Te  Te161  1  0.83169989  0.66817812  0.66634559  1
  Te  Te162  1  -0.00072679  0.16030469  -0.00070856  1
  Te  Te163  1  -0.00199655  0.16069179  0.33576189  1
  Te  Te164  1  0.00196202  0.16869939  0.66581793  1
  Te  Te165  1  0.00149640  0.49973496  -0.00041821  1
  Te  Te166  1  0.00254231  0.49977263  0.33022888  1
  Te  Te167  1  -0.00072167  0.49683138  0.67057285  1
  Te  Te168  1  0.00556071  0.83719594  -0.00190813  1
  Te  Te169  1  0.00447618  0.83704806  0.33138691  1
  Te  Te170  1  -0.00061609  0.83141372  0.67209490  1
  Te  Te171  1  0.33853933  0.16378044  0.00019773  1
  Te  Te172  1  0.34058755  0.16438465  0.33835023  1
  Te  Te173  1  0.34031527  0.17003271  0.66236041  1
  Te  Te174  1  0.33342096  0.50328872  0.00657280  1
  Te  Te175  1  0.33637444  0.50220799  0.33034527  1
  Te  Te176  1  0.33507438  0.49788245  0.66504002  1
  Te  Te177  1  0.32991554  0.83453755  -0.00363851  1
  Te  Te178  1  0.32996895  0.83389657  0.33259213  1
  Te  Te179  1  0.33571413  0.83255907  0.67223905  1
  Te  Te180  1  0.66327121  0.17098303  -0.00208480  1
  Te  Te181  1  0.66238323  0.16858128  0.33698386  1
  Te  Te182  1  0.66627988  0.16785849  0.66458542  1
  Te  Te183  1  0.66653154  0.49357646  -0.00532428  1
  Te  Te184  1  0.66361118  0.49804244  0.33395671  1
  Te  Te185  1  0.66400576  0.49559610  0.66950881  1
  Te  Te186  1  0.66850081  0.83524433  0.00095904  1
  Te  Te187  1  0.66832547  0.83061281  0.33359643  1
  Te  Te188  1  0.66618186  0.83732989  0.66750251  1
  Te  Te189  1  0.00391204  -0.00153133  0.16748609  1
  Te  Te190  1  0.00018185  0.00388285  0.50182059  1
  Te  Te191  1  0.00028484  -0.00038686  0.83089658  1
  Te  Te192  1  -0.00492206  0.33602240  0.16588674  1
  Te  Te193  1  0.00091543  0.32933917  0.50527628  1
  Te  Te194  1  0.00167392  0.33604708  0.83027036  1
  Te  Te195  1  -0.00071915  0.66415558  0.16487177  1
  Te  Te196  1  -0.00675246  0.66627052  0.49987115  1
  Te  Te197  1  -0.00280481  0.66625500  0.83405589  1
  Te  Te198  1  0.32805609  0.00020150  0.16771563  1
  Te  Te199  1  0.33229407  -0.00063174  0.49773432  1
  Te  Te200  1  0.33572382  0.00059991  0.83603026  1
  Te  Te201  1  0.33086851  0.33858716  0.16525356  1
  Te  Te202  1  0.33478684  0.33269344  0.50248059  1
  Te  Te203  1  0.32841577  0.33733434  0.82834987  1
  Te  Te204  1  0.33696719  0.66442643  0.17330764  1
  Te  Te205  1  0.33329382  0.66479049  0.49864248  1
  Te  Te206  1  0.33464071  0.66587539  0.83141497  1
  Te  Te207  1  0.66773673  0.00600118  0.16572526  1
  Te  Te208  1  0.66459674  0.00678313  0.50516764  1
  Te  Te209  1  0.65994169  -0.00030566  0.82743270  1
  Te  Te210  1  0.66909298  0.33074241  0.17162870  1
  Te  Te211  1  0.66496550  0.33134042  0.50038214  1
  Te  Te212  1  0.66740942  0.33854622  0.83373480  1
  Te  Te213  1  0.66092237  0.66691371  0.17101615  1
  Te  Te214  1  0.67106331  0.66664274  0.49540716  1
  Te  Te215  1  0.66330215  0.66063277  0.83330559  1
