# generated using pymatgen
data_AgSbTe2
_symmetry_space_group_name_H-M   'P 1'
_cell_length_a   18.31188854
_cell_length_b   18.31375746
_cell_length_c   18.31115071
_cell_angle_alpha   89.99886914
_cell_angle_beta   90.00162440
_cell_angle_gamma   89.99771078
_symmetry_Int_Tables_number   1
_chemical_formula_structural   AgSbTe2
_chemical_formula_sum   'Ag54 Sb54 Te108'
_cell_volume   6140.81806733
_cell_formula_units_Z   54
loop_
 _symmetry_equiv_pos_site_id
 _symmetry_equiv_pos_as_xyz
  1  'x, y, z'
loop_
 _atom_site_type_symbol
 _atom_site_label
 _atom_site_symmetry_multiplicity
 _atom_site_fract_x
 _atom_site_fract_y
 _atom_site_fract_z
 _atom_site_occupancy
  Ag  Ag0  1  0.33393042  0.16517418  0.83799931  1
  Ag  Ag1  1  0.50384904  0.50519275  0.00237176  1
  Ag  Ag2  1  0.49236683  0.16997858  -0.00068717  1
  Ag  Ag3  1  0.16348513  -0.00165815  0.17558964  1
  Ag  Ag4  1  0.00769039  0.34320997  0.00149707  1
  Ag  Ag5  1  0.16686220  0.49725945  0.32705245  1
  Ag  Ag6  1  0.82955748  0.32947528  0.16964445  1
  Ag  Ag7  1  -0.00120076  0.83428946  0.16697661  1
  Ag  Ag8  1  0.00075621  0.67266300  0.67294230  1
  Ag  Ag9  1  0.83558834  0.83747291  0.66484095  1
  Ag  Ag10  1  0.66987673  0.33384092  0.33438158  1
  Ag  Ag11  1  0.50392295  0.66768048  0.50688493  1
  Ag  Ag12  1  0.33103572  0.83299696  0.83305256  1
  Ag  Ag13  1  0.66577537  0.16970950  0.16573272  1
  Ag  Ag14  1  0.16349176  0.00329523  0.48997119  1
  Ag  Ag15  1  0.32058282  0.00074998  0.33119922  1
  Ag  Ag16  1  -0.00096586  0.66192848  -0.00511467  1
  Ag  Ag17  1  0.33258397  0.17066978  0.16024949  1
  Ag  Ag18  1  0.66648941  0.83029141  0.17023430  1
  Ag  Ag19  1  0.16897975  0.17060157  0.66317353  1
  Ag  Ag20  1  -0.00294254  0.83418766  0.50444203  1
  Ag  Ag21  1  0.83471847  0.33275882  0.49810647  1
  Ag  Ag22  1  0.66364428  0.66436017  0.66835601  1
  Ag  Ag23  1  0.16718310  0.49704808  0.66697291  1
  Ag  Ag24  1  0.33166904  0.49722434  0.16149513  1
  Ag  Ag25  1  0.32928980  0.33230926  -0.00176951  1
  Ag  Ag26  1  0.83048523  0.16379881  0.66242284  1
  Ag  Ag27  1  0.17011481  0.66567661  0.16611798  1
  Ag  Ag28  1  0.33362435  0.66265901  0.66959634  1
  Ag  Ag29  1  0.83664540  0.00295625  0.16960336  1
  Ag  Ag30  1  0.83606772  0.16759693  0.33236054  1
  Ag  Ag31  1  0.66001434  0.66168593  0.00026299  1
  Ag  Ag32  1  0.16728726  0.84609953  0.33047778  1
  Ag  Ag33  1  0.50083714  0.82086797  0.00425919  1
  Ag  Ag34  1  0.66846686  0.50343732  0.83679898  1
  Ag  Ag35  1  0.16188716  0.33041311  0.50084518  1
  Ag  Ag36  1  0.49991889  0.66745437  0.15969844  1
  Ag  Ag37  1  0.49963135  0.16824606  0.67163542  1
  Ag  Ag38  1  0.16518692  0.15823631  0.33063308  1
  Ag  Ag39  1  0.17376920  0.17353757  0.00695715  1
  Ag  Ag40  1  0.67492078  0.00030504  0.66481639  1
  Ag  Ag41  1  0.66685818  0.50249622  0.50465632  1
  Ag  Ag42  1  0.49851116  0.83199873  0.32804259  1
  Ag  Ag43  1  0.50127971  0.66747262  0.83652652  1
  Ag  Ag44  1  0.66653282  0.33488700  0.66121595  1
  Ag  Ag45  1  0.00867792  -0.00269877  0.33594788  1
  Ag  Ag46  1  -0.00261973  -0.00726077  0.66189042  1
  Ag  Ag47  1  0.00447505  0.82610893  0.82881312  1
  Ag  Ag48  1  0.33080058  0.33235775  0.67039105  1
  Ag  Ag49  1  0.83312950  0.49929035  0.00183865  1
  Ag  Ag50  1  0.16548273  0.49567137  0.00184845  1
  Ag  Ag51  1  0.66290970  0.50341396  0.16171345  1
  Ag  Ag52  1  0.66923500  0.82788330  0.50036003  1
  Ag  Ag53  1  -0.00141492  0.50623017  0.83819766  1
  Sb  Sb54  1  0.00170548  0.50536045  0.16014731  1
  Sb  Sb55  1  0.49972530  0.33880542  0.83435695  1
  Sb  Sb56  1  0.82837490  0.66520347  0.50359270  1
  Sb  Sb57  1  0.66608988  -0.00320468  -0.00120458  1
  Sb  Sb58  1  0.83173190  0.82874570  -0.00154236  1
  Sb  Sb59  1  0.32995317  0.16736675  0.50123957  1
  Sb  Sb60  1  0.33288641  0.49989015  0.83782167  1
  Sb  Sb61  1  0.16794719  0.66597300  0.83645568  1
  Sb  Sb62  1  0.33209462  0.00598872  0.00521738  1
  Sb  Sb63  1  0.33459789  0.50049964  0.49881429  1
  Sb  Sb64  1  0.83799192  0.00322376  0.49891989  1
  Sb  Sb65  1  0.83286487  0.49969698  0.67015329  1
  Sb  Sb66  1  0.33562639  0.66183921  -0.00231570  1
  Sb  Sb67  1  -0.00212718  0.50521538  0.50381593  1
  Sb  Sb68  1  0.83445555  0.49245991  0.32838245  1
  Sb  Sb69  1  0.00147582  -0.00342411  0.00154079  1
  Sb  Sb70  1  0.00510560  0.16738252  0.83206627  1
  Sb  Sb71  1  0.16073754  0.83282560  0.66216604  1
  Sb  Sb72  1  0.50430339  0.83185126  0.66714016  1
  Sb  Sb73  1  0.16381555  0.33342283  0.16729608  1
  Sb  Sb74  1  0.66072948  0.17256369  0.83381755  1
  Sb  Sb75  1  0.00121247  0.16198668  0.16663390  1
  Sb  Sb76  1  0.49858229  0.50526415  0.32769786  1
  Sb  Sb77  1  0.32992349  0.00195875  0.66347237  1
  Sb  Sb78  1  0.83300545  0.33440783  0.83303514  1
  Sb  Sb79  1  0.66601602  0.82595683  0.83182161  1
  Sb  Sb80  1  0.16899178  0.66694603  0.49810831  1
  Sb  Sb81  1  -0.00139406  0.32846815  0.32994804  1
  Sb  Sb82  1  0.49928154  -0.00453182  0.16674934  1
  Sb  Sb83  1  0.00231116  0.16171505  0.50117731  1
  Sb  Sb84  1  0.66863545  0.00242139  0.33502010  1
  Sb  Sb85  1  0.00123416  0.33401379  0.66883674  1
  Sb  Sb86  1  0.66509467  0.34085501  0.00162924  1
  Sb  Sb87  1  0.83361115  0.17264531  0.00266149  1
  Sb  Sb88  1  0.16625389  0.00077803  0.83245006  1
  Sb  Sb89  1  0.49954023  0.50066844  0.67167474  1
  Sb  Sb90  1  0.16749398  0.33358410  0.83206550  1
  Sb  Sb91  1  0.66848831  0.16791576  0.50013135  1
  Sb  Sb92  1  0.66466815  0.66368650  0.33233741  1
  Sb  Sb93  1  0.33261901  0.83239060  0.50246532  1
  Sb  Sb94  1  0.33332752  0.66950992  0.33356525  1
  Sb  Sb95  1  0.00433512  0.67310041  0.33102725  1
  Sb  Sb96  1  0.83138638  0.66661079  0.16449096  1
  Sb  Sb97  1  0.49840843  -0.00402153  0.50108143  1
  Sb  Sb98  1  0.83434543  -0.00085681  0.83248616  1
  Sb  Sb99  1  0.49945415  -0.00491269  0.83253490  1
  Sb  Sb100  1  0.50407372  0.33759068  0.16501519  1
  Sb  Sb101  1  0.33349903  0.33018556  0.33220352  1
  Sb  Sb102  1  0.50211909  0.33832460  0.50308240  1
  Sb  Sb103  1  0.16931980  0.83149406  0.00620839  1
  Sb  Sb104  1  0.83114689  0.66568955  0.83324515  1
  Sb  Sb105  1  0.83494561  0.84010380  0.33507453  1
  Sb  Sb106  1  0.49867914  0.16220102  0.33050404  1
  Sb  Sb107  1  0.33441882  0.83287448  0.16389430  1
  Te  Te108  1  0.16779946  0.16684815  0.16756077  1
  Te  Te109  1  0.16632008  0.16814851  0.49937265  1
  Te  Te110  1  0.17262289  0.16654123  0.83180485  1
  Te  Te111  1  0.16782368  0.49987298  0.16454753  1
  Te  Te112  1  0.16642649  0.49791109  0.50423207  1
  Te  Te113  1  0.16360890  0.50043946  0.83331564  1
  Te  Te114  1  0.16682537  0.83256527  0.17028434  1
  Te  Te115  1  0.16360996  0.83485327  0.49303398  1
  Te  Te116  1  0.16679556  0.83340216  0.83554295  1
  Te  Te117  1  0.50001461  0.16562013  0.16450665  1
  Te  Te118  1  0.49972675  0.16599531  0.50566136  1
  Te  Te119  1  0.49501520  0.16600862  0.83351831  1
  Te  Te120  1  0.50099588  0.50411892  0.16342972  1
  Te  Te121  1  0.50618357  0.50637124  0.49765242  1
  Te  Te122  1  0.50276051  0.50590434  0.83941529  1
  Te  Te123  1  0.50211182  0.82989976  0.16542161  1
  Te  Te124  1  0.50356089  0.82875492  0.49742906  1
  Te  Te125  1  0.49792784  0.82831780  0.83789844  1
  Te  Te126  1  0.83194280  0.16672350  0.16754250  1
  Te  Te127  1  0.83415142  0.17191798  0.50011321  1
  Te  Te128  1  0.83216959  0.16628111  0.82723767  1
  Te  Te129  1  0.82912802  0.49749656  0.16248113  1
  Te  Te130  1  0.82808648  0.49347379  0.49829898  1
  Te  Te131  1  0.83318091  0.49926317  0.83944540  1
  Te  Te132  1  0.83201297  0.83611795  0.16644666  1
  Te  Te133  1  0.83179587  0.83447403  0.50311058  1
  Te  Te134  1  0.83989371  0.83420454  0.82843896  1
  Te  Te135  1  0.16586370  0.00621265  0.00561633  1
  Te  Te136  1  0.16447885  0.00186400  0.33306693  1
  Te  Te137  1  0.16200772  0.00341332  0.66458872  1
  Te  Te138  1  0.16772787  0.33361003  0.00168105  1
  Te  Te139  1  0.16657290  0.33509114  0.33856057  1
  Te  Te140  1  0.16697244  0.33312398  0.66349613  1
  Te  Te141  1  0.16585575  0.66329693  0.00531587  1
  Te  Te142  1  0.16828002  0.65919281  0.32838946  1
  Te  Te143  1  0.16773733  0.66439723  0.66615180  1
  Te  Te144  1  0.50025607  0.00603769  -0.00043144  1
  Te  Te145  1  0.49862235  -0.00792318  0.33495057  1
  Te  Te146  1  0.50236378  0.00628853  0.66585094  1
  Te  Te147  1  0.49507629  0.33032994  -0.00018705  1
  Te  Te148  1  0.50719137  0.33241429  0.33530211  1
  Te  Te149  1  0.49866431  0.32956022  0.66762846  1
  Te  Te150  1  0.49946977  0.66505563  0.00018509  1
  Te  Te151  1  0.49862932  0.67321878  0.33035440  1
  Te  Te152  1  0.50208845  0.66636507  0.66793995  1
  Te  Te153  1  0.83320971  0.00122931  0.00822891  1
  Te  Te154  1  0.83600472  0.00739827  0.32953389  1
  Te  Te155  1  0.83484784  0.00068251  0.66533123  1
  Te  Te156  1  0.83443214  0.33823950  0.00353945  1
  Te  Te157  1  0.83160542  0.32757930  0.33335381  1
  Te  Te158  1  0.83220176  0.33045137  0.66305050  1
  Te  Te159  1  0.83408029  0.66074542  0.00000574  1
  Te  Te160  1  0.83501996  0.66555263  0.33435621  1
  Te  Te161  1  0.83261395  0.66999924  0.66656139  1
  Te  Te162  1  0.00376085  0.17030561  -0.00251762  1
  Te  Te163  1  0.00209581  0.16038959  0.33386234  1
  Te  Te164  1  0.00175738  0.16447855  0.66885328  1
  Te  Te165  1  0.00296963  0.50225448  -0.00104839  1
  Te  Te166  1  0.00640630  0.50068685  0.33418099  1
  Te  Te167  1  0.00243584  0.50382617  0.67097020  1
  Te  Te168  1  -0.00006353  0.82803289  0.00135927  1
  Te  Te169  1  0.00201913  0.83767577  0.33039381  1
  Te  Te170  1  -0.00049703  0.83237268  0.66672810  1
  Te  Te171  1  0.33266734  0.16908204  0.00011961  1
  Te  Te172  1  0.33028177  0.16381707  0.32772318  1
  Te  Te173  1  0.33076263  0.16766774  0.66829726  1
  Te  Te174  1  0.33091626  0.49519455  0.00187452  1
  Te  Te175  1  0.32845759  0.49895983  0.32691588  1
  Te  Te176  1  0.33000478  0.49827181  0.66727588  1
  Te  Te177  1  0.33818957  0.83393416  -0.00530601  1
  Te  Te178  1  0.33160514  0.83661446  0.33337513  1
  Te  Te179  1  0.33332879  0.83168683  0.67130655  1
  Te  Te180  1  0.66401146  0.16671568  0.00398882  1
  Te  Te181  1  0.66755614  0.16955747  0.32864562  1
  Te  Te182  1  0.66734162  0.16914369  0.66770155  1
  Te  Te183  1  0.66431520  0.50121082  0.00112307  1
  Te  Te184  1  0.66664776  0.49442823  0.32959351  1
  Te  Te185  1  0.66703572  0.50191261  0.66586773  1
  Te  Te186  1  0.66396586  0.82870143  0.00272845  1
  Te  Te187  1  0.66630380  0.83373543  0.33241195  1
  Te  Te188  1  0.66948278  0.82896887  0.66554734  1
  Te  Te189  1  0.00086223  -0.00467809  0.16650578  1
  Te  Te190  1  0.00305803  -0.00484307  0.50111664  1
  Te  Te191  1  -0.00003900  -0.00612064  0.82899384  1
  Te  Te192  1  -0.00747500  0.33382780  0.16221170  1
  Te  Te193  1  -0.00016884  0.33612323  0.49950251  1
  Te  Te194  1  -0.00082524  0.33902519  0.84083540  1
  Te  Te195  1  0.00270480  0.67289982  0.16393263  1
  Te  Te196  1  -0.00009676  0.67361248  0.50552077  1
  Te  Te197  1  0.00133271  0.66633360  0.83367062  1
  Te  Te198  1  0.32997917  0.00314087  0.17114490  1
  Te  Te199  1  0.32640540  -0.00027350  0.49388153  1
  Te  Te200  1  0.33344674  0.00012110  0.83267832  1
  Te  Te201  1  0.33386199  0.33355724  0.16439184  1
  Te  Te202  1  0.32883096  0.33473565  0.50501808  1
  Te  Te203  1  0.33376173  0.32869743  0.83140241  1
  Te  Te204  1  0.33351635  0.66263248  0.16625589  1
  Te  Te205  1  0.33982927  0.66612687  0.50842160  1
  Te  Te206  1  0.33708557  0.66842983  0.82881489  1
  Te  Te207  1  0.66932247  -0.00217519  0.16644775  1
  Te  Te208  1  0.66766960  -0.00526242  0.50533769  1
  Te  Te209  1  0.66720175  -0.00041051  0.82478063  1
  Te  Te210  1  0.66903966  0.33248378  0.16738409  1
  Te  Te211  1  0.66795759  0.33496657  0.50159024  1
  Te  Te212  1  0.66660915  0.34103104  0.82467043  1
  Te  Te213  1  0.66455798  0.66754582  0.16512004  1
  Te  Te214  1  0.66382810  0.66683426  0.50023007  1
  Te  Te215  1  0.66357061  0.66281878  0.83427023  1
