# generated using pymatgen
data_AgSbTe2
_symmetry_space_group_name_H-M   'P 1'
_cell_length_a   18.37350880
_cell_length_b   18.37176392
_cell_length_c   18.36886116
_cell_angle_alpha   89.99419583
_cell_angle_beta   90.00004800
_cell_angle_gamma   89.99997755
_symmetry_Int_Tables_number   1
_chemical_formula_structural   AgSbTe2
_chemical_formula_sum   'Ag54 Sb54 Te108'
_cell_volume   6200.47823170
_cell_formula_units_Z   54
loop_
 _symmetry_equiv_pos_site_id
 _symmetry_equiv_pos_as_xyz
  1  'x, y, z'
loop_
 _atom_site_type_symbol
 _atom_site_label
 _atom_site_symmetry_multiplicity
 _atom_site_fract_x
 _atom_site_fract_y
 _atom_site_fract_z
 _atom_site_occupancy
  Ag  Ag0  1  0.66526130  0.17470083  0.15326597  1
  Ag  Ag1  1  -0.01411734  0.50436212  0.50452619  1
  Ag  Ag2  1  0.50824868  0.15862866  0.67485502  1
  Ag  Ag3  1  0.66790449  0.33181413  0.32550701  1
  Ag  Ag4  1  0.16581194  0.16573044  -0.01279592  1
  Ag  Ag5  1  0.34476291  0.15930936  0.83215819  1
  Ag  Ag6  1  0.15287518  0.00114626  0.50598159  1
  Ag  Ag7  1  0.82883639  0.51058056  -0.00706750  1
  Ag  Ag8  1  0.34219538  0.00052551  0.34532195  1
  Ag  Ag9  1  0.66737083  0.00576204  -0.00190905  1
  Ag  Ag10  1  0.67010572  0.16088502  0.50268692  1
  Ag  Ag11  1  0.50246378  -0.00031761  0.83143802  1
  Ag  Ag12  1  0.66838680  0.83699463  0.83856797  1
  Ag  Ag13  1  0.51091895  0.16256296  -0.00511932  1
  Ag  Ag14  1  0.66906112  0.31840121  0.00601559  1
  Ag  Ag15  1  0.33518234  0.83885168  0.51191357  1
  Ag  Ag16  1  0.67190925  0.50092389  0.84218549  1
  Ag  Ag17  1  0.82731604  0.66555636  0.15934013  1
  Ag  Ag18  1  0.15310211  0.32026623  0.50266610  1
  Ag  Ag19  1  0.51173372  0.66433604  0.16278830  1
  Ag  Ag20  1  0.67269182  0.83903419  0.50347590  1
  Ag  Ag21  1  0.83371897  0.83166680  0.66886404  1
  Ag  Ag22  1  0.51427619  0.50001383  0.00280652  1
  Ag  Ag23  1  0.66619085  0.00102804  0.33367753  1
  Ag  Ag24  1  0.66708100  0.83560821  0.15409287  1
  Ag  Ag25  1  0.51293794  0.33191340  0.16290769  1
  Ag  Ag26  1  0.83157243  0.33489763  0.50649028  1
  Ag  Ag27  1  -0.01420850  0.83938309  0.82058673  1
  Ag  Ag28  1  0.32911435  -0.00175887  0.66393387  1
  Ag  Ag29  1  0.82069427  0.16588902  -0.00888136  1
  Ag  Ag30  1  0.83194944  0.67564076  0.83370637  1
  Ag  Ag31  1  -0.01052646  -0.00013571  0.34691746  1
  Ag  Ag32  1  0.83366634  0.51045193  0.66333136  1
  Ag  Ag33  1  -0.01326499  0.15861683  0.82784733  1
  Ag  Ag34  1  -0.00573035  0.32410292  0.66414414  1
  Ag  Ag35  1  0.00132375  -0.00145567  0.66502217  1
  Ag  Ag36  1  0.51505801  0.84155926  -0.00546965  1
  Ag  Ag37  1  0.82900844  0.82733363  -0.01120076  1
  Ag  Ag38  1  0.83430668  -0.00876620  0.50346787  1
  Ag  Ag39  1  0.66721699  0.15890819  0.84009280  1
  Ag  Ag40  1  0.15332438  0.15833377  0.66969950  1
  Ag  Ag41  1  0.66882513  0.66334290  0.33285938  1
  Ag  Ag42  1  -0.01012762  0.83883934  0.51055986  1
  Ag  Ag43  1  -0.00776699  0.68457587  0.66908280  1
  Ag  Ag44  1  0.83181828  0.66946003  0.51299273  1
  Ag  Ag45  1  0.34752271  0.84168584  0.82893323  1
  Ag  Ag46  1  0.34835514  0.16483576  0.15380427  1
  Ag  Ag47  1  0.50750775  0.49987401  0.32399763  1
  Ag  Ag48  1  0.83381016  0.16318823  0.66830542  1
  Ag  Ag49  1  0.82742229  0.33415341  0.16376822  1
  Ag  Ag50  1  0.67101376  0.49740424  0.50079190  1
  Ag  Ag51  1  0.14808026  0.84350891  0.66644934  1
  Ag  Ag52  1  0.50522063  0.84062622  0.67308523  1
  Ag  Ag53  1  -0.00832826  0.66861461  -0.01039917  1
  Sb  Sb54  1  -0.01153237  0.67126188  0.33915577  1
  Sb  Sb55  1  0.67345518  0.66989996  0.00729344  1
  Sb  Sb56  1  0.16885193  0.00091372  0.17283668  1
  Sb  Sb57  1  0.16728513  0.16382556  0.34149817  1
  Sb  Sb58  1  0.17161644  0.00113752  0.82455952  1
  Sb  Sb59  1  -0.00866614  0.16523540  0.15785610  1
  Sb  Sb60  1  0.50613048  -0.00112835  0.50745937  1
  Sb  Sb61  1  0.16737317  0.83642680  0.34326767  1
  Sb  Sb62  1  0.34184662  0.49392173  0.16697799  1
  Sb  Sb63  1  0.34274244  0.32805214  0.00107037  1
  Sb  Sb64  1  0.82904430  0.83334443  0.34052492  1
  Sb  Sb65  1  0.33689918  0.15934716  0.50499364  1
  Sb  Sb66  1  -0.00737396  0.49987828  0.17298134  1
  Sb  Sb67  1  0.50522560  0.32387908  0.83786223  1
  Sb  Sb68  1  0.16401570  0.32652427  0.82821108  1
  Sb  Sb69  1  -0.00977693  0.50204561  0.82620844  1
  Sb  Sb70  1  0.15591096  0.49785316  0.66490124  1
  Sb  Sb71  1  0.82553214  0.50025922  0.34019078  1
  Sb  Sb72  1  0.51155621  0.67529171  0.83860351  1
  Sb  Sb73  1  0.32729315  0.68108867  0.66697385  1
  Sb  Sb74  1  0.82820015  -0.00064593  0.16941842  1
  Sb  Sb75  1  -0.01168708  0.83392897  0.16546141  1
  Sb  Sb76  1  -0.00966410  0.32801149  0.34250000  1
  Sb  Sb77  1  0.50480509  0.00296648  0.16195697  1
  Sb  Sb78  1  -0.01058906  0.33387532  -0.00612077  1
  Sb  Sb79  1  0.50661978  0.83334313  0.33273765  1
  Sb  Sb80  1  0.33868585  0.00261777  -0.00516623  1
  Sb  Sb81  1  0.82668317  -0.00268976  0.82691295  1
  Sb  Sb82  1  0.15748201  0.67021204  0.83193230  1
  Sb  Sb83  1  0.33808128  0.50550341  0.50317119  1
  Sb  Sb84  1  -0.00931074  0.16079689  0.50863483  1
  Sb  Sb85  1  0.16493796  0.32801630  0.17118302  1
  Sb  Sb86  1  0.66896874  0.49803098  0.16501587  1
  Sb  Sb87  1  0.51181728  0.66954515  0.49855685  1
  Sb  Sb88  1  0.34069992  0.32616821  0.33503214  1
  Sb  Sb89  1  0.33378838  0.66964757  -0.00093488  1
  Sb  Sb90  1  0.50509568  0.16791424  0.33002082  1
  Sb  Sb91  1  0.32885847  0.32189089  0.66536824  1
  Sb  Sb92  1  0.15876480  0.49380991  -0.00234727  1
  Sb  Sb93  1  0.51235481  0.50059367  0.66987856  1
  Sb  Sb94  1  0.67378457  0.67222595  0.66279615  1
  Sb  Sb95  1  0.17093874  0.49799361  0.33752644  1
  Sb  Sb96  1  0.16202036  0.66965876  0.16526641  1
  Sb  Sb97  1  0.34408682  0.84028459  0.16326746  1
  Sb  Sb98  1  0.50877322  0.33208712  0.49686189  1
  Sb  Sb99  1  0.66996347  -0.00011497  0.66721180  1
  Sb  Sb100  1  0.34413910  0.67376300  0.33406867  1
  Sb  Sb101  1  0.34667609  0.50134863  0.83203281  1
  Sb  Sb102  1  0.82951070  0.16608055  0.33609367  1
  Sb  Sb103  1  0.15698391  0.67361562  0.50248609  1
  Sb  Sb104  1  0.67222142  0.32912049  0.66647284  1
  Sb  Sb105  1  -0.00869270  -0.00172602  -0.00621571  1
  Sb  Sb106  1  0.82997300  0.33156557  0.83109826  1
  Sb  Sb107  1  0.16206545  0.84101807  -0.00995468  1
  Te  Te108  1  0.16513354  0.16690705  0.16724540  1
  Te  Te109  1  0.16953406  0.16255276  0.50723567  1
  Te  Te110  1  0.16960048  0.16639612  0.82863901  1
  Te  Te111  1  0.16795203  0.49859638  0.16775030  1
  Te  Te112  1  0.16924661  0.49987537  0.50055786  1
  Te  Te113  1  0.17027086  0.49909493  0.83331323  1
  Te  Te114  1  0.16809953  0.83338140  0.16418786  1
  Te  Te115  1  0.17052705  0.83808142  0.50723518  1
  Te  Te116  1  0.16848226  0.83341399  0.82605277  1
  Te  Te117  1  0.50546634  0.16890959  0.16377751  1
  Te  Te118  1  0.50546426  0.16759231  0.50496825  1
  Te  Te119  1  0.50482781  0.16415863  0.83511558  1
  Te  Te120  1  0.50014078  0.49929118  0.16251782  1
  Te  Te121  1  0.50647425  0.50086009  0.50015198  1
  Te  Te122  1  0.50928968  0.50179797  0.83909545  1
  Te  Te123  1  0.50567282  0.82882493  0.16100517  1
  Te  Te124  1  0.49911572  0.83210230  0.50225098  1
  Te  Te125  1  0.50619742  0.83509674  0.83550005  1
  Te  Te126  1  0.82613953  0.16850482  0.16438850  1
  Te  Te127  1  0.82944534  0.17287758  0.50169688  1
  Te  Te128  1  0.82877176  0.16568820  0.83146306  1
  Te  Te129  1  0.83514267  0.49923579  0.15917717  1
  Te  Te130  1  0.83060694  0.49990744  0.50077498  1
  Te  Te131  1  0.83013641  0.50041137  0.83175032  1
  Te  Te132  1  0.82677843  0.83159555  0.16139686  1
  Te  Te133  1  0.83228615  0.83102902  0.50107096  1
  Te  Te134  1  0.82948485  0.83552455  0.83103431  1
  Te  Te135  1  0.16407064  0.00642362  0.00430459  1
  Te  Te136  1  0.17034749  -0.00026495  0.34255488  1
  Te  Te137  1  0.16829667  -0.00037322  0.66394275  1
  Te  Te138  1  0.16333850  0.32711623  0.00211748  1
  Te  Te139  1  0.16634332  0.33214212  0.34198240  1
  Te  Te140  1  0.16111442  0.32992400  0.66110203  1
  Te  Te141  1  0.15788481  0.66515682  0.00036596  1
  Te  Te142  1  0.16742796  0.66651895  0.33255790  1
  Te  Te143  1  0.15577604  0.66928028  0.66632788  1
  Te  Te144  1  0.50402685  0.00023211  -0.00349629  1
  Te  Te145  1  0.50288321  0.00043645  0.33229875  1
  Te  Te146  1  0.49861301  0.00054847  0.67100472  1
  Te  Te147  1  0.50625773  0.33377953  0.00352082  1
  Te  Te148  1  0.50657871  0.33741598  0.32751496  1
  Te  Te149  1  0.49805435  0.33104431  0.66614973  1
  Te  Te150  1  0.49622027  0.66305367  0.00413198  1
  Te  Te151  1  0.50751314  0.66287402  0.32798648  1
  Te  Te152  1  0.49591946  0.66820745  0.66724615  1
  Te  Te153  1  0.82847015  0.00477045  0.00240279  1
  Te  Te154  1  0.83018877  -0.00015481  0.33942063  1
  Te  Te155  1  0.83564501  0.00140199  0.66225184  1
  Te  Te156  1  0.82970931  0.32624529  0.00078844  1
  Te  Te157  1  0.82739076  0.33412514  0.32773954  1
  Te  Te158  1  0.83471510  0.32583251  0.66445541  1
  Te  Te159  1  0.83500847  0.66832460  -0.00213017  1
  Te  Te160  1  0.82754469  0.66563432  0.32046020  1
  Te  Te161  1  0.83533553  0.66803105  0.66947359  1
  Te  Te162  1  0.00336139  0.16623730  -0.00853612  1
  Te  Te163  1  0.00025660  0.16014508  0.32915739  1
  Te  Te164  1  -0.00360951  0.16272290  0.66882537  1
  Te  Te165  1  -0.00693049  0.50347342  -0.00123152  1
  Te  Te166  1  0.00256166  0.50023005  0.34257340  1
  Te  Te167  1  -0.00747113  0.49103340  0.66181269  1
  Te  Te168  1  -0.00480131  0.83015697  -0.00232120  1
  Te  Te169  1  0.00015813  0.83930177  0.33576802  1
  Te  Te170  1  -0.00693372  0.83989070  0.66573272  1
  Te  Te171  1  0.33054023  0.16600849  -0.00399101  1
  Te  Te172  1  0.33548913  0.15971867  0.33370095  1
  Te  Te173  1  0.33944516  0.16072540  0.67139607  1
  Te  Te174  1  0.33174453  0.49888495  -0.00093661  1
  Te  Te175  1  0.34304124  0.50048306  0.33496549  1
  Te  Te176  1  0.33374561  0.50103875  0.66813742  1
  Te  Te177  1  0.33167518  0.83468340  -0.00598085  1
  Te  Te178  1  0.33561138  0.84104918  0.33242653  1
  Te  Te179  1  0.34521536  0.83774216  0.66961874  1
  Te  Te180  1  0.66540176  0.16237684  -0.00122544  1
  Te  Te181  1  0.66655097  0.16590120  0.34237701  1
  Te  Te182  1  0.66780708  0.16663972  0.66484179  1
  Te  Te183  1  0.67006994  0.50475209  -0.00099772  1
  Te  Te184  1  0.66474986  0.49832884  0.33674445  1
  Te  Te185  1  0.67395564  0.49823605  0.66329451  1
  Te  Te186  1  0.66948023  0.83164291  -0.00147238  1
  Te  Te187  1  0.66613781  0.83917110  0.34380229  1
  Te  Te188  1  0.66585640  0.83375516  0.66320519  1
  Te  Te189  1  0.00033416  -0.00046828  0.17331791  1
  Te  Te190  1  -0.00408110  -0.00091272  0.50316419  1
  Te  Te191  1  0.00214343  -0.00104164  0.82995506  1
  Te  Te192  1  -0.00579313  0.33302183  0.16845023  1
  Te  Te193  1  -0.00471520  0.33212993  0.50206275  1
  Te  Te194  1  -0.00036979  0.32939426  0.82617622  1
  Te  Te195  1  -0.00565722  0.66656484  0.16737796  1
  Te  Te196  1  -0.00741857  0.66865229  0.50300039  1
  Te  Te197  1  -0.00682502  0.66851176  0.82950413  1
  Te  Te198  1  0.33518266  0.00718076  0.16869732  1
  Te  Te199  1  0.33955824  -0.00339397  0.50258897  1
  Te  Te200  1  0.33819674  0.00060940  0.83029049  1
  Te  Te201  1  0.33378585  0.32396191  0.16897812  1
  Te  Te202  1  0.33126803  0.33535874  0.49889786  1
  Te  Te203  1  0.33303257  0.32909282  0.83334652  1
  Te  Te204  1  0.33354849  0.66671296  0.16781464  1
  Te  Te205  1  0.33153796  0.67490874  0.49890910  1
  Te  Te206  1  0.33134453  0.67014386  0.83319095  1
  Te  Te207  1  0.66632918  -0.00437658  0.17001721  1
  Te  Te208  1  0.67056156  -0.00020741  0.49983671  1
  Te  Te209  1  0.66330753  -0.00090499  0.83659837  1
  Te  Te210  1  0.66817564  0.33362351  0.16584634  1
  Te  Te211  1  0.67094688  0.33575490  0.49974739  1
  Te  Te212  1  0.66611311  0.33686325  0.84045829  1
  Te  Te213  1  0.66784167  0.66894379  0.17223122  1
  Te  Te214  1  0.67321231  0.66663618  0.49522367  1
  Te  Te215  1  0.67281830  0.66656597  0.82908223  1
