# generated using pymatgen
data_AgSbTe2
_symmetry_space_group_name_H-M   'P 1'
_cell_length_a   18.35599302
_cell_length_b   18.35929439
_cell_length_c   18.36227699
_cell_angle_alpha   89.99785812
_cell_angle_beta   89.99699726
_cell_angle_gamma   89.99998593
_symmetry_Int_Tables_number   1
_chemical_formula_structural   AgSbTe2
_chemical_formula_sum   'Ag54 Sb54 Te108'
_cell_volume   6188.14387986
_cell_formula_units_Z   54
loop_
 _symmetry_equiv_pos_site_id
 _symmetry_equiv_pos_as_xyz
  1  'x, y, z'
loop_
 _atom_site_type_symbol
 _atom_site_label
 _atom_site_symmetry_multiplicity
 _atom_site_fract_x
 _atom_site_fract_y
 _atom_site_fract_z
 _atom_site_occupancy
  Ag  Ag0  1  0.50920304  0.17094578  -0.00477433  1
  Ag  Ag1  1  -0.01424102  0.33409132  0.32026396  1
  Ag  Ag2  1  0.67169996  0.49691657  0.83514820  1
  Ag  Ag3  1  0.16688929  0.17083039  0.00041627  1
  Ag  Ag4  1  0.66517251  0.00893449  -0.00206746  1
  Ag  Ag5  1  0.83570229  0.48771297  0.00175574  1
  Ag  Ag6  1  0.32521599  0.49310347  0.16143027  1
  Ag  Ag7  1  0.82858964  0.83821152  0.33096904  1
  Ag  Ag8  1  0.66873848  0.16657491  0.16516844  1
  Ag  Ag9  1  0.01662493  0.33608839  0.00364158  1
  Ag  Ag10  1  0.16777118  0.65803279  0.83486978  1
  Ag  Ag11  1  -0.00067695  0.49776281  0.83833270  1
  Ag  Ag12  1  0.17021930  0.34138912  0.84736394  1
  Ag  Ag13  1  0.16076513  0.83618527  0.32288437  1
  Ag  Ag14  1  0.83300463  0.48557329  0.32273824  1
  Ag  Ag15  1  0.82721070  0.17145613  0.00065093  1
  Ag  Ag16  1  0.51216947  0.01016939  0.50429940  1
  Ag  Ag17  1  0.16531894  0.49720162  0.68122370  1
  Ag  Ag18  1  -0.01495262  0.16877161  0.50100208  1
  Ag  Ag19  1  0.66917339  0.00936517  0.34592147  1
  Ag  Ag20  1  0.82848195  0.32444877  0.48192665  1
  Ag  Ag21  1  0.66838159  0.84460538  0.16530809  1
  Ag  Ag22  1  0.33576959  0.33251992  0.31840749  1
  Ag  Ag23  1  0.50939972  0.33015270  0.49880858  1
  Ag  Ag24  1  0.50580921  0.65991145  0.83535651  1
  Ag  Ag25  1  0.16783839  0.84382235  -0.00053972  1
  Ag  Ag26  1  0.66411647  0.83466218  0.83405803  1
  Ag  Ag27  1  0.66601000  0.32506697  0.66857289  1
  Ag  Ag28  1  0.66583210  0.00686805  0.65861500  1
  Ag  Ag29  1  0.67158568  0.32718869  0.32783268  1
  Ag  Ag30  1  0.32816811  0.00718966  -0.00242478  1
  Ag  Ag31  1  0.51025028  0.16846028  0.67070999  1
  Ag  Ag32  1  0.34190483  0.00137423  0.67912927  1
  Ag  Ag33  1  0.82970040  0.17113047  0.34407062  1
  Ag  Ag34  1  0.66785252  0.84713839  0.49729169  1
  Ag  Ag35  1  0.66988458  0.16422137  0.50239441  1
  Ag  Ag36  1  0.66896832  0.66676788  0.67057134  1
  Ag  Ag37  1  0.82555181  0.01219702  0.50387615  1
  Ag  Ag38  1  0.65476599  0.32783441  0.00188443  1
  Ag  Ag39  1  0.83223408  0.33258729  0.16482116  1
  Ag  Ag40  1  0.50781930  0.33309491  0.15919651  1
  Ag  Ag41  1  0.82736535  0.16833553  0.65769580  1
  Ag  Ag42  1  0.50407630  0.33673725  0.84573736  1
  Ag  Ag43  1  0.33717325  0.83647810  0.83644916  1
  Ag  Ag44  1  0.16648524  -0.00081778  0.83706333  1
  Ag  Ag45  1  0.83035806  0.64942963  0.16711550  1
  Ag  Ag46  1  0.33446372  0.33047867  0.00099965  1
  Ag  Ag47  1  -0.01088388  0.66293170  0.66901987  1
  Ag  Ag48  1  0.82257217  0.00191323  0.83233022  1
  Ag  Ag49  1  0.16577624  0.33104997  0.16191094  1
  Ag  Ag50  1  0.16337147  0.48672807  -0.00186197  1
  Ag  Ag51  1  0.50550452  0.48489581  -0.00227770  1
  Ag  Ag52  1  0.16996764  0.01249646  0.15387484  1
  Ag  Ag53  1  -0.00285715  0.49347101  0.15753250  1
  Sb  Sb54  1  0.50150105  0.00574304  0.16679327  1
  Sb  Sb55  1  0.33970917  0.17551363  0.16412401  1
  Sb  Sb56  1  0.50282825  0.00616907  0.83130782  1
  Sb  Sb57  1  -0.00401461  0.83019174  0.16615624  1
  Sb  Sb58  1  -0.00113235  0.17210227  0.83331388  1
  Sb  Sb59  1  0.16442736  0.00149811  0.50219180  1
  Sb  Sb60  1  0.83354668  0.83631823  0.00227712  1
  Sb  Sb61  1  0.16781265  0.83126950  0.67308784  1
  Sb  Sb62  1  0.50441488  0.84083691  0.66980929  1
  Sb  Sb63  1  0.83169180  0.00778124  0.16559565  1
  Sb  Sb64  1  0.83189680  0.66791220  0.83649643  1
  Sb  Sb65  1  0.16535218  0.66732053  0.50631127  1
  Sb  Sb66  1  0.66719777  0.66381794  -0.00300411  1
  Sb  Sb67  1  -0.00478910  0.33508238  0.67057333  1
  Sb  Sb68  1  0.82868933  0.32939468  0.84080209  1
  Sb  Sb69  1  0.50819020  0.49340009  0.32546809  1
  Sb  Sb70  1  -0.00456693  -0.00156641  0.66879393  1
  Sb  Sb71  1  0.34149150  0.16705718  0.50047487  1
  Sb  Sb72  1  0.00068925  0.00711917  0.00078159  1
  Sb  Sb73  1  -0.00631785  0.83824813  0.49893285  1
  Sb  Sb74  1  0.67261112  0.48996294  0.15800565  1
  Sb  Sb75  1  0.16379766  0.33157959  0.49799504  1
  Sb  Sb76  1  -0.00308201  0.66185970  0.33498642  1
  Sb  Sb77  1  -0.00650141  0.17474351  0.16669627  1
  Sb  Sb78  1  0.33517592  0.83188169  0.16156644  1
  Sb  Sb79  1  0.16249029  0.66229248  0.15981716  1
  Sb  Sb80  1  0.16214176  0.49872114  0.32721403  1
  Sb  Sb81  1  0.33455160  0.49551170  0.49537782  1
  Sb  Sb82  1  0.50571741  0.66594481  0.50890991  1
  Sb  Sb83  1  0.33271536  0.16313879  0.83842887  1
  Sb  Sb84  1  0.49939918  0.49241717  0.67350531  1
  Sb  Sb85  1  0.66743907  0.16767201  0.83351879  1
  Sb  Sb86  1  0.66858337  0.66627774  0.33526060  1
  Sb  Sb87  1  0.00120264  0.65653393  -0.00370544  1
  Sb  Sb88  1  0.33022167  0.66189788  0.33020419  1
  Sb  Sb89  1  0.16518326  0.17027607  0.67238035  1
  Sb  Sb90  1  0.50828301  0.65918615  0.15959301  1
  Sb  Sb91  1  -0.00758742  0.00581835  0.33198711  1
  Sb  Sb92  1  0.33623332  0.00544145  0.33002385  1
  Sb  Sb93  1  0.83115478  0.66611904  0.49744142  1
  Sb  Sb94  1  0.15977692  0.16491753  0.32696811  1
  Sb  Sb95  1  0.66847823  0.48876937  0.50485582  1
  Sb  Sb96  1  0.00018447  0.82986163  0.83443253  1
  Sb  Sb97  1  0.33843731  0.32828547  0.67275339  1
  Sb  Sb98  1  0.51047889  0.17053944  0.33234660  1
  Sb  Sb99  1  0.50523029  0.83494451  0.33349087  1
  Sb  Sb100  1  -0.00325820  0.49366450  0.50101427  1
  Sb  Sb101  1  0.83368847  0.49437024  0.67006690  1
  Sb  Sb102  1  0.33201029  0.66310995  -0.00209391  1
  Sb  Sb103  1  0.49932416  0.83731330  -0.00334959  1
  Sb  Sb104  1  0.82811452  0.83826351  0.66439000  1
  Sb  Sb105  1  0.33183381  0.50030486  0.83974008  1
  Sb  Sb106  1  0.33778391  0.66898376  0.67306177  1
  Sb  Sb107  1  0.33772485  0.83766940  0.50317165  1
  Te  Te108  1  0.16513876  0.16877476  0.16280486  1
  Te  Te109  1  0.16769035  0.16585043  0.49973745  1
  Te  Te110  1  0.16545090  0.16245431  0.83709668  1
  Te  Te111  1  0.16301112  0.49673301  0.16248097  1
  Te  Te112  1  0.16594325  0.50140988  0.49952930  1
  Te  Te113  1  0.16945045  0.49879204  0.83770538  1
  Te  Te114  1  0.16739513  0.82903176  0.16446135  1
  Te  Te115  1  0.16659383  0.83404521  0.49794294  1
  Te  Te116  1  0.16638351  0.84009304  0.83643963  1
  Te  Te117  1  0.50623633  0.17273792  0.16279282  1
  Te  Te118  1  0.50560949  0.16810118  0.50058995  1
  Te  Te119  1  0.49765253  0.17438371  0.83241187  1
  Te  Te120  1  0.49903001  0.49453584  0.15928339  1
  Te  Te121  1  0.50006063  0.49485784  0.49913543  1
  Te  Te122  1  0.49845753  0.49773903  0.83709886  1
  Te  Te123  1  0.50641603  0.82939491  0.16568815  1
  Te  Te124  1  0.50712525  0.83350911  0.50104570  1
  Te  Te125  1  0.50033496  0.82835837  0.83380824  1
  Te  Te126  1  0.82942513  0.17069016  0.15998243  1
  Te  Te127  1  0.82885752  0.16835088  0.50107784  1
  Te  Te128  1  0.83690250  0.16122391  0.84196912  1
  Te  Te129  1  0.83300214  0.49324431  0.16361121  1
  Te  Te130  1  0.83346160  0.49613441  0.49721156  1
  Te  Te131  1  0.83411117  0.50184980  0.83811294  1
  Te  Te132  1  0.82939638  0.84106881  0.17004132  1
  Te  Te133  1  0.82781104  0.83352662  0.49556454  1
  Te  Te134  1  0.82971712  0.83855466  0.83314538  1
  Te  Te135  1  0.16437012  0.00083127  -0.00163583  1
  Te  Te136  1  0.16665227  -0.00408291  0.33356964  1
  Te  Te137  1  0.16721344  0.00053875  0.67099175  1
  Te  Te138  1  0.17207795  0.33250063  0.00185010  1
  Te  Te139  1  0.17301343  0.33325488  0.32913056  1
  Te  Te140  1  0.16814950  0.33762527  0.66650474  1
  Te  Te141  1  0.16616963  0.67120720  -0.00555278  1
  Te  Te142  1  0.16519228  0.67289663  0.33333888  1
  Te  Te143  1  0.16923743  0.66339604  0.67334490  1
  Te  Te144  1  0.50028496  0.00601051  0.00090887  1
  Te  Te145  1  0.50614887  0.00025660  0.33624914  1
  Te  Te146  1  0.50215244  0.00597120  0.66501745  1
  Te  Te147  1  0.49704655  0.33018042  0.00120678  1
  Te  Te148  1  0.49772735  0.33469138  0.33680882  1
  Te  Te149  1  0.50269899  0.32815904  0.66021399  1
  Te  Te150  1  0.49952682  0.66442222  -0.00638201  1
  Te  Te151  1  0.49818584  0.66319337  0.33384400  1
  Te  Te152  1  0.50543797  0.66330803  0.67503137  1
  Te  Te153  1  0.83299764  0.00288457  -0.00460077  1
  Te  Te154  1  0.82880138  -0.00029477  0.33262434  1
  Te  Te155  1  0.83030734  0.00412596  0.66892477  1
  Te  Te156  1  0.82325640  0.33267313  -0.00183213  1
  Te  Te157  1  0.83125029  0.33050315  0.32777254  1
  Te  Te158  1  0.82759942  0.32985127  0.67201247  1
  Te  Te159  1  0.83489097  0.66840217  0.00606848  1
  Te  Te160  1  0.83375368  0.67656054  0.32957282  1
  Te  Te161  1  0.83073523  0.66428059  0.66730970  1
  Te  Te162  1  0.00289848  0.17509382  0.00059510  1
  Te  Te163  1  -0.00663492  0.17250890  0.33695026  1
  Te  Te164  1  -0.00375990  0.16652102  0.66247114  1
  Te  Te165  1  -0.00116679  0.49635803  -0.00156147  1
  Te  Te166  1  -0.00554000  0.49449493  0.33385520  1
  Te  Te167  1  0.00260641  0.50288254  0.66828581  1
  Te  Te168  1  0.00542406  0.83179681  0.00045241  1
  Te  Te169  1  0.00163547  0.83336558  0.33436902  1
  Te  Te170  1  -0.00072585  0.82500303  0.66533487  1
  Te  Te171  1  0.32749651  0.16560991  0.00225528  1
  Te  Te172  1  0.33074445  0.17212940  0.33288504  1
  Te  Te173  1  0.33313595  0.15939551  0.66633975  1
  Te  Te174  1  0.32874002  0.49785071  0.00242528  1
  Te  Te175  1  0.33273495  0.49481549  0.32702126  1
  Te  Te176  1  0.32664328  0.50010973  0.66371245  1
  Te  Te177  1  0.33148556  0.83675497  -0.00306535  1
  Te  Te178  1  0.33046922  0.83330605  0.33364115  1
  Te  Te179  1  0.33474205  0.84077817  0.67067309  1
  Te  Te180  1  0.66561065  0.16810118  -0.00180591  1
  Te  Te181  1  0.66917835  0.16800600  0.33120212  1
  Te  Te182  1  0.66843873  0.16555408  0.66870802  1
  Te  Te183  1  0.66742004  0.49969330  -0.00536093  1
  Te  Te184  1  0.67510614  0.49778354  0.33664277  1
  Te  Te185  1  0.66647904  0.50204969  0.67362984  1
  Te  Te186  1  0.66712342  0.83348075  0.00010537  1
  Te  Te187  1  0.66839694  0.83355516  0.33188721  1
  Te  Te188  1  0.66704695  0.83458549  0.67175805  1
  Te  Te189  1  0.01119120  -0.00276000  0.16733594  1
  Te  Te190  1  -0.00736282  0.00616707  0.50034227  1
  Te  Te191  1  0.00457687  -0.00122738  0.83356861  1
  Te  Te192  1  -0.00069118  0.33422698  0.16412797  1
  Te  Te193  1  -0.00348576  0.32766792  0.50258896  1
  Te  Te194  1  0.00661444  0.33858799  0.83596549  1
  Te  Te195  1  -0.00752763  0.66001436  0.16827656  1
  Te  Te196  1  0.00000581  0.66718766  0.50788715  1
  Te  Te197  1  0.00242862  0.66251533  0.82947770  1
  Te  Te198  1  0.32971487  -0.00196008  0.16233491  1
  Te  Te199  1  0.33818757  -0.00049706  0.49970642  1
  Te  Te200  1  0.33632371  -0.00242481  0.83653408  1
  Te  Te201  1  0.33060336  0.33416242  0.16218213  1
  Te  Te202  1  0.33574739  0.33318695  0.50288328  1
  Te  Te203  1  0.33161473  0.33398375  0.83787098  1
  Te  Te204  1  0.33564401  0.65823922  0.16656438  1
  Te  Te205  1  0.33554182  0.66782279  0.50066816  1
  Te  Te206  1  0.32937721  0.67556507  0.83276032  1
  Te  Te207  1  0.66564670  0.00378951  0.15661347  1
  Te  Te208  1  0.66874344  0.00192420  0.50178880  1
  Te  Te209  1  0.66441445  -0.00294561  0.83919003  1
  Te  Te210  1  0.66710629  0.33233143  0.16598500  1
  Te  Te211  1  0.66933235  0.32947003  0.50092368  1
  Te  Te212  1  0.66394498  0.33669688  0.83371102  1
  Te  Te213  1  0.67215020  0.67152502  0.16839829  1
  Te  Te214  1  0.66622939  0.66932577  0.50736110  1
  Te  Te215  1  0.66720325  0.66887756  0.83144726  1
