# generated using pymatgen
data_AgSbTe2
_symmetry_space_group_name_H-M   'P 1'
_cell_length_a   18.32454695
_cell_length_b   18.32393108
_cell_length_c   18.32774739
_cell_angle_alpha   89.99908741
_cell_angle_beta   90.00013215
_cell_angle_gamma   90.00218559
_symmetry_Int_Tables_number   1
_chemical_formula_structural   AgSbTe2
_chemical_formula_sum   'Ag54 Sb54 Te108'
_cell_volume   6154.04950642
_cell_formula_units_Z   54
loop_
 _symmetry_equiv_pos_site_id
 _symmetry_equiv_pos_as_xyz
  1  'x, y, z'
loop_
 _atom_site_type_symbol
 _atom_site_label
 _atom_site_symmetry_multiplicity
 _atom_site_fract_x
 _atom_site_fract_y
 _atom_site_fract_z
 _atom_site_occupancy
  Ag  Ag0  1  0.33680989  0.67296048  0.33978501  1
  Ag  Ag1  1  -0.00633181  -0.00196589  0.33336724  1
  Ag  Ag2  1  0.33224339  0.83657372  0.16059761  1
  Ag  Ag3  1  0.66607796  0.33790044  0.66832802  1
  Ag  Ag4  1  0.16666916  0.67244253  0.50276775  1
  Ag  Ag5  1  0.49602824  0.15662626  -0.00280420  1
  Ag  Ag6  1  0.00445214  0.15990634  0.49676845  1
  Ag  Ag7  1  -0.01279591  0.67295610  0.33365645  1
  Ag  Ag8  1  0.82534855  0.50598926  -0.00102527  1
  Ag  Ag9  1  0.49949382  0.00091366  0.16816853  1
  Ag  Ag10  1  0.83104429  0.66753097  0.17363829  1
  Ag  Ag11  1  0.83007773  0.50766514  0.33383536  1
  Ag  Ag12  1  0.82437127  0.50315542  0.66612764  1
  Ag  Ag13  1  0.66881633  0.50631792  0.51028493  1
  Ag  Ag14  1  0.17365215  0.16033542  -0.00124858  1
  Ag  Ag15  1  0.65322893  0.82309086  0.83327435  1
  Ag  Ag16  1  0.17490060  0.33059879  0.83297336  1
  Ag  Ag17  1  0.82459665  -0.00469888  0.82919410  1
  Ag  Ag18  1  0.67078388  0.66978453  0.33561322  1
  Ag  Ag19  1  0.33233454  0.16012698  0.50134657  1
  Ag  Ag20  1  0.17766066  0.83886524  -0.00366326  1
  Ag  Ag21  1  0.34212327  0.83476115  0.83242762  1
  Ag  Ag22  1  0.50236457  -0.00730052  0.83234649  1
  Ag  Ag23  1  0.00227269  0.84008016  0.16750221  1
  Ag  Ag24  1  0.16638236  0.50172760  0.66686320  1
  Ag  Ag25  1  0.33972842  0.67870295  0.66265340  1
  Ag  Ag26  1  0.49375249  0.84066496  0.67619056  1
  Ag  Ag27  1  0.50565020  0.50754868  -0.00464901  1
  Ag  Ag28  1  0.33936203  -0.00037440  0.33827729  1
  Ag  Ag29  1  0.82383879  0.66948164  0.83034045  1
  Ag  Ag30  1  0.17617064  0.83538114  0.67034005  1
  Ag  Ag31  1  0.17290269  0.16419240  0.66508596  1
  Ag  Ag32  1  0.49835692  0.33105008  0.83315947  1
  Ag  Ag33  1  0.49900921  0.15808983  0.66866700  1
  Ag  Ag34  1  0.17576027  -0.00026324  0.50286045  1
  Ag  Ag35  1  0.83385136  0.32968899  0.16721267  1
  Ag  Ag36  1  0.16497100  0.32857065  0.16250891  1
  Ag  Ag37  1  0.82887674  0.00113031  0.17109916  1
  Ag  Ag38  1  0.49846567  0.15947026  0.33430347  1
  Ag  Ag39  1  0.66491706  0.66340489  0.67584329  1
  Ag  Ag40  1  0.66565036  0.51125947  0.82836741  1
  Ag  Ag41  1  0.33881329  -0.00425115  0.66425535  1
  Ag  Ag42  1  0.83279031  -0.00067912  0.49734851  1
  Ag  Ag43  1  0.49211111  0.00249622  0.50043879  1
  Ag  Ag44  1  0.66558782  0.66555602  -0.01210830  1
  Ag  Ag45  1  -0.00427346  0.15993326  0.17160415  1
  Ag  Ag46  1  0.82775701  0.16327239  0.66501712  1
  Ag  Ag47  1  0.33406909  0.32198431  0.33151049  1
  Ag  Ag48  1  0.51191250  0.68116835  0.83169349  1
  Ag  Ag49  1  0.82963115  0.66620678  0.49733839  1
  Ag  Ag50  1  0.66362702  -0.00271390  0.33221744  1
  Ag  Ag51  1  0.33798175  -0.00380560  0.00012808  1
  Ag  Ag52  1  0.66941204  0.16264762  0.16740330  1
  Ag  Ag53  1  0.49549191  0.84010311  -0.01017043  1
  Sb  Sb54  1  0.50059758  0.32613783  0.50468290  1
  Sb  Sb55  1  0.00357245  -0.00062998  0.00580883  1
  Sb  Sb56  1  0.00193961  0.83732372  0.49502719  1
  Sb  Sb57  1  0.82982480  0.33492744  0.83442605  1
  Sb  Sb58  1  0.50151691  0.67355219  0.50570290  1
  Sb  Sb59  1  0.83140717  0.83382308  0.66808529  1
  Sb  Sb60  1  0.66464753  0.33800945  -0.00467988  1
  Sb  Sb61  1  0.66550543  0.16410234  0.49897446  1
  Sb  Sb62  1  0.50423514  0.50109610  0.67081754  1
  Sb  Sb63  1  0.16807198  0.00222740  0.17077894  1
  Sb  Sb64  1  -0.00708953  0.50155214  0.83170858  1
  Sb  Sb65  1  0.66056657  -0.00223403  0.66358025  1
  Sb  Sb66  1  0.16928358  0.83412680  0.33464425  1
  Sb  Sb67  1  -0.00234997  0.66838166  0.66116613  1
  Sb  Sb68  1  0.49783315  0.84020924  0.33321117  1
  Sb  Sb69  1  0.33336573  0.83963765  0.50411641  1
  Sb  Sb70  1  0.00224063  0.33014513  0.33137315  1
  Sb  Sb71  1  0.82848792  0.83127869  0.00100123  1
  Sb  Sb72  1  0.83100935  0.16680833  0.00041500  1
  Sb  Sb73  1  0.50425252  0.49888372  0.32957132  1
  Sb  Sb74  1  0.17115802  0.16454956  0.33480518  1
  Sb  Sb75  1  0.33613955  0.33036803  0.66597738  1
  Sb  Sb76  1  0.66937185  0.49959223  0.16413870  1
  Sb  Sb77  1  0.16354760  0.66746108  0.17074287  1
  Sb  Sb78  1  0.33430673  0.15915939  0.17032868  1
  Sb  Sb79  1  0.00006876  0.33160244  0.00183650  1
  Sb  Sb80  1  0.33986981  0.67557392  -0.00263102  1
  Sb  Sb81  1  0.33450302  0.32564347  0.00281964  1
  Sb  Sb82  1  0.83011200  0.16474245  0.33441690  1
  Sb  Sb83  1  0.83175767  0.33388081  0.49766669  1
  Sb  Sb84  1  0.00150745  0.16457517  0.83276476  1
  Sb  Sb85  1  0.66302913  0.16397460  0.83475879  1
  Sb  Sb86  1  0.00129984  0.83442572  0.83701944  1
  Sb  Sb87  1  0.50174726  0.32411037  0.16294421  1
  Sb  Sb88  1  -0.00799556  0.66926416  0.00628527  1
  Sb  Sb89  1  0.33756263  0.49935596  0.50198423  1
  Sb  Sb90  1  0.34232569  0.50619596  0.83108659  1
  Sb  Sb91  1  0.65887818  -0.00330034  0.00295146  1
  Sb  Sb92  1  -0.00288653  0.33121289  0.66596789  1
  Sb  Sb93  1  0.16408284  0.50225953  0.33810564  1
  Sb  Sb94  1  0.66520703  0.83681561  0.16252972  1
  Sb  Sb95  1  0.66665883  0.83062487  0.50479013  1
  Sb  Sb96  1  0.00229493  0.00088071  0.65985704  1
  Sb  Sb97  1  0.66410513  0.33222171  0.33592584  1
  Sb  Sb98  1  -0.00483010  0.49952725  0.49981690  1
  Sb  Sb99  1  -0.00425115  0.50031035  0.16866771  1
  Sb  Sb100  1  0.16888716  0.66575696  0.82610581  1
  Sb  Sb101  1  0.16822268  0.50013950  -0.00576618  1
  Sb  Sb102  1  0.33375355  0.50476216  0.16682096  1
  Sb  Sb103  1  0.16895162  0.33010094  0.50201280  1
  Sb  Sb104  1  0.17076746  0.00166397  0.82886922  1
  Sb  Sb105  1  0.33621905  0.15977773  0.82863941  1
  Sb  Sb106  1  0.83242315  0.83108827  0.33160915  1
  Sb  Sb107  1  0.50444135  0.67420770  0.16310886  1
  Te  Te108  1  0.16562806  0.16906847  0.16469286  1
  Te  Te109  1  0.16742434  0.16452371  0.50244028  1
  Te  Te110  1  0.16737322  0.16918488  0.83382486  1
  Te  Te111  1  0.16482049  0.49266461  0.16420965  1
  Te  Te112  1  0.16655558  0.50206115  0.50641569  1
  Te  Te113  1  0.16578806  0.49647540  0.82891489  1
  Te  Te114  1  0.16744026  0.83263034  0.16190475  1
  Te  Te115  1  0.16670048  0.83326782  0.50548294  1
  Te  Te116  1  0.16850817  0.83337567  0.83388246  1
  Te  Te117  1  0.50093994  0.16095377  0.16566048  1
  Te  Te118  1  0.49859155  0.16138575  0.50217319  1
  Te  Te119  1  0.49904589  0.16776628  0.83306513  1
  Te  Te120  1  0.50089835  0.49880884  0.15860558  1
  Te  Te121  1  0.50684615  0.49949668  0.49800956  1
  Te  Te122  1  0.50559934  0.49465994  0.83660493  1
  Te  Te123  1  0.49680728  0.84039521  0.16269888  1
  Te  Te124  1  0.50082145  0.84248248  0.50771066  1
  Te  Te125  1  0.49753016  0.83552708  0.83281781  1
  Te  Te126  1  0.83339207  0.16334549  0.16668547  1
  Te  Te127  1  0.83368638  0.16500254  0.50344506  1
  Te  Te128  1  0.83329829  0.16441438  0.82914625  1
  Te  Te129  1  0.83356468  0.50380580  0.16611580  1
  Te  Te130  1  0.83087411  0.50176157  0.50348430  1
  Te  Te131  1  0.82761306  0.50065937  0.83059603  1
  Te  Te132  1  0.83655132  0.83561746  0.16489623  1
  Te  Te133  1  0.83482007  0.83376645  0.50167463  1
  Te  Te134  1  0.83360755  0.83454066  0.83420992  1
  Te  Te135  1  0.17130291  0.00054083  -0.00200319  1
  Te  Te136  1  0.16984441  -0.00035900  0.34110375  1
  Te  Te137  1  0.16888722  0.00365061  0.66384595  1
  Te  Te138  1  0.16749858  0.33172764  -0.00038804  1
  Te  Te139  1  0.17172655  0.33521151  0.32901552  1
  Te  Te140  1  0.16762567  0.32882129  0.66979969  1
  Te  Te141  1  0.16582763  0.66808394  -0.00094475  1
  Te  Te142  1  0.17403170  0.66631176  0.33939850  1
  Te  Te143  1  0.16548782  0.66727623  0.66306777  1
  Te  Te144  1  0.49869714  -0.00057693  -0.00112864  1
  Te  Te145  1  0.50070801  0.00084067  0.33308716  1
  Te  Te146  1  0.50025428  0.00030375  0.66813319  1
  Te  Te147  1  0.49881835  0.32913407  -0.00468744  1
  Te  Te148  1  0.49503803  0.32943360  0.33225613  1
  Te  Te149  1  0.50323971  0.33024003  0.67119006  1
  Te  Te150  1  0.50433580  0.66676268  -0.00252901  1
  Te  Te151  1  0.49754255  0.66713213  0.33310057  1
  Te  Te152  1  0.49951490  0.66692799  0.66953576  1
  Te  Te153  1  0.83300956  0.00044397  0.00313136  1
  Te  Te154  1  0.83212236  0.00031077  0.33188488  1
  Te  Te155  1  0.83190972  0.00150230  0.66546368  1
  Te  Te156  1  0.83249647  0.33734215  0.00585229  1
  Te  Te157  1  0.83332797  0.33834267  0.32733334  1
  Te  Te158  1  0.82927224  0.33430901  0.66728883  1
  Te  Te159  1  0.82773871  0.66517723  0.00023303  1
  Te  Te160  1  0.83178061  0.66744863  0.33523279  1
  Te  Te161  1  0.83071789  0.66630470  0.66411008  1
  Te  Te162  1  0.00416031  0.16586218  0.00537130  1
  Te  Te163  1  -0.00035991  0.16267594  0.33288449  1
  Te  Te164  1  -0.00070334  0.16649859  0.66420925  1
  Te  Te165  1  -0.00689140  0.50076424  0.00002850  1
  Te  Te166  1  -0.00618496  0.50525507  0.33493632  1
  Te  Te167  1  0.00201867  0.49933126  0.66534148  1
  Te  Te168  1  0.00825457  0.83346846  0.00629051  1
  Te  Te169  1  0.00280665  0.83499254  0.32797787  1
  Te  Te170  1  0.01100479  0.83379921  0.66787321  1
  Te  Te171  1  0.33361640  0.15926050  0.00047431  1
  Te  Te172  1  0.33729431  0.16212357  0.33647907  1
  Te  Te173  1  0.33459901  0.16555802  0.66276996  1
  Te  Te174  1  0.33833412  0.50062133  -0.00010243  1
  Te  Te175  1  0.33395589  0.50665526  0.33402879  1
  Te  Te176  1  0.32832038  0.50101608  0.66597264  1
  Te  Te177  1  0.33478170  0.83592107  -0.00115385  1
  Te  Te178  1  0.33343564  0.83468053  0.32782675  1
  Te  Te179  1  0.33300980  0.83473935  0.66702054  1
  Te  Te180  1  0.66227959  0.16777079  0.00588989  1
  Te  Te181  1  0.66124422  0.16444722  0.33065263  1
  Te  Te182  1  0.66643600  0.16820296  0.66669301  1
  Te  Te183  1  0.66656325  0.50368921  -0.00178767  1
  Te  Te184  1  0.67053419  0.50050819  0.33396269  1
  Te  Te185  1  0.66597283  0.50243263  0.66799846  1
  Te  Te186  1  0.66134453  0.82764755  -0.00455192  1
  Te  Te187  1  0.66452195  0.83440660  0.33296465  1
  Te  Te188  1  0.66423570  0.82754023  0.67232219  1
  Te  Te189  1  0.00173491  0.00019213  0.17185237  1
  Te  Te190  1  -0.00615226  0.00211423  0.49394365  1
  Te  Te191  1  -0.01144542  -0.00017713  0.83382233  1
  Te  Te192  1  -0.00132224  0.32661039  0.16801438  1
  Te  Te193  1  0.00053049  0.32137405  0.49786835  1
  Te  Te194  1  0.00809229  0.33322543  0.83390349  1
  Te  Te195  1  -0.00454010  0.67024800  0.17356405  1
  Te  Te196  1  -0.00144300  0.66736149  0.49351084  1
  Te  Te197  1  -0.00974817  0.66739832  0.83502744  1
  Te  Te198  1  0.33441969  -0.00317820  0.16776467  1
  Te  Te199  1  0.33359967  0.00160707  0.50133789  1
  Te  Te200  1  0.33678078  -0.00465226  0.83019813  1
  Te  Te201  1  0.33169775  0.33512033  0.17138890  1
  Te  Te202  1  0.33376016  0.32812543  0.49290361  1
  Te  Te203  1  0.33446251  0.33583533  0.83419811  1
  Te  Te204  1  0.33337049  0.67256248  0.16983265  1
  Te  Te205  1  0.33269691  0.66617213  0.50222520  1
  Te  Te206  1  0.33620722  0.67263639  0.82748259  1
  Te  Te207  1  0.66736760  0.00123909  0.16909183  1
  Te  Te208  1  0.67287136  -0.00174820  0.49415954  1
  Te  Te209  1  0.66539905  -0.00249081  0.83342396  1
  Te  Te210  1  0.67098579  0.32717353  0.16724101  1
  Te  Te211  1  0.66656051  0.34051251  0.50554326  1
  Te  Te212  1  0.66348412  0.33341328  0.82844241  1
  Te  Te213  1  0.67135678  0.66769805  0.17641414  1
  Te  Te214  1  0.66836177  0.66595401  0.49436029  1
  Te  Te215  1  0.66790749  0.66737365  0.83192986  1
