# generated using pymatgen
data_AgSbTe2
_symmetry_space_group_name_H-M   'P 1'
_cell_length_a   18.31828108
_cell_length_b   18.31799966
_cell_length_c   18.32518347
_cell_angle_alpha   90.00079803
_cell_angle_beta   89.99901735
_cell_angle_gamma   89.99679810
_symmetry_Int_Tables_number   1
_chemical_formula_structural   AgSbTe2
_chemical_formula_sum   'Ag54 Sb54 Te108'
_cell_volume   6149.09348941
_cell_formula_units_Z   54
loop_
 _symmetry_equiv_pos_site_id
 _symmetry_equiv_pos_as_xyz
  1  'x, y, z'
loop_
 _atom_site_type_symbol
 _atom_site_label
 _atom_site_symmetry_multiplicity
 _atom_site_fract_x
 _atom_site_fract_y
 _atom_site_fract_z
 _atom_site_occupancy
  Ag  Ag0  1  0.50642433  0.17174506  0.33625146  1
  Ag  Ag1  1  0.67169133  0.83441720  0.82754305  1
  Ag  Ag2  1  0.34373214  0.33708970  0.33677116  1
  Ag  Ag3  1  0.33893903  -0.00289263  -0.00379794  1
  Ag  Ag4  1  0.34170091  -0.00029610  0.67091262  1
  Ag  Ag5  1  0.33681000  0.33171788  0.66535441  1
  Ag  Ag6  1  0.16858190  0.50442586  0.00484836  1
  Ag  Ag7  1  0.66654134  -0.00167923  0.66878932  1
  Ag  Ag8  1  0.16799667  0.00464226  0.49957593  1
  Ag  Ag9  1  0.49946547  0.33151580  0.82908014  1
  Ag  Ag10  1  0.33488038  0.82822002  0.83468553  1
  Ag  Ag11  1  0.16961114  0.49955983  0.32901320  1
  Ag  Ag12  1  0.67457353  0.67425653  0.66743293  1
  Ag  Ag13  1  0.00053650  0.50138079  0.17525673  1
  Ag  Ag14  1  0.00476630  0.66386738  0.33979357  1
  Ag  Ag15  1  0.82851614  0.83553479  0.67019398  1
  Ag  Ag16  1  -0.00358633  0.16219216  0.82625964  1
  Ag  Ag17  1  0.50632056  0.16709831  0.65927936  1
  Ag  Ag18  1  0.50164224  0.00956161  0.49952994  1
  Ag  Ag19  1  0.83144882  -0.00115369  0.83582318  1
  Ag  Ag20  1  0.50541750  0.00935272  0.16778882  1
  Ag  Ag21  1  0.50047037  0.32694977  0.49166659  1
  Ag  Ag22  1  0.50191756  0.32615697  0.17879643  1
  Ag  Ag23  1  0.66394725  0.16708890  0.17389177  1
  Ag  Ag24  1  -0.00680560  0.16790220  0.50238308  1
  Ag  Ag25  1  0.82777528  0.15886588  -0.00048100  1
  Ag  Ag26  1  0.66495711  0.16360064  0.49677405  1
  Ag  Ag27  1  0.66313854  0.50383477  0.83175009  1
  Ag  Ag28  1  0.16783196  0.16619625  0.00433198  1
  Ag  Ag29  1  0.33469386  0.50601442  0.83161243  1
  Ag  Ag30  1  0.49244546  0.48559075  0.33254295  1
  Ag  Ag31  1  0.82496553  0.00298754  0.15857864  1
  Ag  Ag32  1  0.82799423  0.16491201  0.33880298  1
  Ag  Ag33  1  0.16579410  0.16957525  0.33237374  1
  Ag  Ag34  1  -0.01106616  0.83674130  0.83175204  1
  Ag  Ag35  1  0.33367565  0.66755033  0.67297793  1
  Ag  Ag36  1  -0.00039478  0.00717741  0.33550469  1
  Ag  Ag37  1  0.66788925  0.49377645  0.16548633  1
  Ag  Ag38  1  -0.00070641  0.49743923  0.49892796  1
  Ag  Ag39  1  0.17063264  0.66596263  0.83503536  1
  Ag  Ag40  1  0.66915360  0.00215496  -0.00467033  1
  Ag  Ag41  1  0.16961371  0.66284103  0.16473045  1
  Ag  Ag42  1  0.83498728  0.66666260  0.50530101  1
  Ag  Ag43  1  0.83358148  0.50842458  0.66768881  1
  Ag  Ag44  1  0.82950878  0.16341388  0.66463917  1
  Ag  Ag45  1  0.66759750  0.84335663  0.50914413  1
  Ag  Ag46  1  0.50397150  0.16468957  0.00513419  1
  Ag  Ag47  1  -0.00957651  0.66265286  0.66264139  1
  Ag  Ag48  1  0.33033273  0.67126414  -0.00568883  1
  Ag  Ag49  1  0.32687607  0.66067013  0.33118341  1
  Ag  Ag50  1  0.33390862  0.83179380  0.15799391  1
  Ag  Ag51  1  0.65684111  0.32914509  0.33230118  1
  Ag  Ag52  1  -0.00082090  0.33287165  0.66502488  1
  Ag  Ag53  1  0.83130907  0.84118540  -0.01146846  1
  Sb  Sb54  1  0.00269201  0.83099102  0.16309761  1
  Sb  Sb55  1  -0.00579907  0.83444136  0.50454390  1
  Sb  Sb56  1  0.16375229  0.50194336  0.66570717  1
  Sb  Sb57  1  0.16831864  -0.00067566  0.16856044  1
  Sb  Sb58  1  0.00059192  0.33117518  -0.00456332  1
  Sb  Sb59  1  0.66385001  0.83788431  0.16472563  1
  Sb  Sb60  1  0.33841942  0.83502228  0.50414689  1
  Sb  Sb61  1  -0.00477983  0.00057029  0.66373217  1
  Sb  Sb62  1  0.66479565  0.32961444  0.66436135  1
  Sb  Sb63  1  0.49456630  0.66237831  0.83101627  1
  Sb  Sb64  1  0.16452846  -0.00172981  0.83107658  1
  Sb  Sb65  1  0.49585990  0.66533005  0.16862647  1
  Sb  Sb66  1  0.16228981  0.66883262  0.49998880  1
  Sb  Sb67  1  -0.00540849  0.16965054  0.16949825  1
  Sb  Sb68  1  0.66939877  0.16357407  0.83208881  1
  Sb  Sb69  1  0.33337379  0.50355510  0.16641008  1
  Sb  Sb70  1  0.00051321  0.50093612  0.82865345  1
  Sb  Sb71  1  0.83060496  0.33224863  0.50189562  1
  Sb  Sb72  1  -0.00309038  0.00164729  0.00227808  1
  Sb  Sb73  1  0.17018238  0.32814612  0.49863513  1
  Sb  Sb74  1  0.83346431  0.83974118  0.33591050  1
  Sb  Sb75  1  0.49674167  0.49436305  0.00294827  1
  Sb  Sb76  1  0.16338419  0.83269150  0.66799310  1
  Sb  Sb77  1  0.82752800  0.32770288  0.16846813  1
  Sb  Sb78  1  0.33161349  0.16593125  0.83276859  1
  Sb  Sb79  1  0.00071894  0.33285394  0.33864145  1
  Sb  Sb80  1  0.49989400  0.83815973  0.33368416  1
  Sb  Sb81  1  0.33865900  0.16622902  0.50003324  1
  Sb  Sb82  1  0.50348516  0.66548768  0.50152353  1
  Sb  Sb83  1  0.50224532  0.49324338  0.66372017  1
  Sb  Sb84  1  0.17247801  0.33645656  0.16864777  1
  Sb  Sb85  1  0.16533887  0.16492412  0.66391410  1
  Sb  Sb86  1  0.32981243  0.49976735  0.50131875  1
  Sb  Sb87  1  0.50033012  0.84126509  -0.00119005  1
  Sb  Sb88  1  0.17028188  0.33621942  0.83258797  1
  Sb  Sb89  1  0.00485182  0.66664568  -0.00319384  1
  Sb  Sb90  1  0.34169768  0.16304555  0.16711172  1
  Sb  Sb91  1  0.50549943  0.83996277  0.66753675  1
  Sb  Sb92  1  0.33531593  0.33216809  -0.00021456  1
  Sb  Sb93  1  0.83798827  0.67386188  0.82727367  1
  Sb  Sb94  1  0.83532286  0.50052875  -0.00446182  1
  Sb  Sb95  1  0.16738176  0.83376547  -0.00226847  1
  Sb  Sb96  1  0.66201337  0.67173578  -0.00675855  1
  Sb  Sb97  1  0.83708094  0.67038887  0.17092513  1
  Sb  Sb98  1  0.66378851  0.32612130  0.00230206  1
  Sb  Sb99  1  0.50357791  0.00499307  0.83272322  1
  Sb  Sb100  1  0.82908719  0.32737863  0.83035684  1
  Sb  Sb101  1  0.82939915  0.00094579  0.50226406  1
  Sb  Sb102  1  0.66891492  0.00744704  0.33470414  1
  Sb  Sb103  1  0.16737494  0.83157921  0.33333169  1
  Sb  Sb104  1  0.33154261  0.00154159  0.33343880  1
  Sb  Sb105  1  0.83531890  0.49548653  0.33695180  1
  Sb  Sb106  1  0.66971285  0.49667106  0.50177652  1
  Sb  Sb107  1  0.66712872  0.65975195  0.33802910  1
  Te  Te108  1  0.16398029  0.16765520  0.16713475  1
  Te  Te109  1  0.16012776  0.16325370  0.49630769  1
  Te  Te110  1  0.15944416  0.16730789  0.83674467  1
  Te  Te111  1  0.16616386  0.50222740  0.16715638  1
  Te  Te112  1  0.15980833  0.50024499  0.49329237  1
  Te  Te113  1  0.16941982  0.50368402  0.83633745  1
  Te  Te114  1  0.17142714  0.82709491  0.16559211  1
  Te  Te115  1  0.16643664  0.84372257  0.50034400  1
  Te  Te116  1  0.17254765  0.82867761  0.83375382  1
  Te  Te117  1  0.50290434  0.16656298  0.16688158  1
  Te  Te118  1  0.50188878  0.16661827  0.49955365  1
  Te  Te119  1  0.49952453  0.17088229  0.83342365  1
  Te  Te120  1  0.50482245  0.49775339  0.17050555  1
  Te  Te121  1  0.50097672  0.49584987  0.49303400  1
  Te  Te122  1  0.49995892  0.49529016  0.83400078  1
  Te  Te123  1  0.49498765  0.83855393  0.16637260  1
  Te  Te124  1  0.50802630  0.83798670  0.49958872  1
  Te  Te125  1  0.49688311  0.83259452  0.83397137  1
  Te  Te126  1  0.82889242  0.16273286  0.16520661  1
  Te  Te127  1  0.83274834  0.16592239  0.50127715  1
  Te  Te128  1  0.83556635  0.16224931  0.83126790  1
  Te  Te129  1  0.83115583  0.50061530  0.16484769  1
  Te  Te130  1  0.83773247  0.50212848  0.50511355  1
  Te  Te131  1  0.83003848  0.49951644  0.82970767  1
  Te  Te132  1  0.83348505  0.83943267  0.16496948  1
  Te  Te133  1  0.82739990  0.83125161  0.50420221  1
  Te  Te134  1  0.83158060  0.83553976  0.83085437  1
  Te  Te135  1  0.17124747  0.00509655  0.00006022  1
  Te  Te136  1  0.16398950  0.00384860  0.33587565  1
  Te  Te137  1  0.17448612  -0.00000247  0.66219821  1
  Te  Te138  1  0.16768657  0.33009151  0.00077652  1
  Te  Te139  1  0.17027366  0.33307526  0.33366883  1
  Te  Te140  1  0.17106883  0.33352444  0.66579685  1
  Te  Te141  1  0.17018577  0.66597179  0.00116308  1
  Te  Te142  1  0.16544145  0.66445781  0.33369449  1
  Te  Te143  1  0.17263803  0.66663043  0.66846107  1
  Te  Te144  1  0.49935464  0.00544868  0.00044878  1
  Te  Te145  1  0.49846905  0.00604787  0.33323487  1
  Te  Te146  1  0.50199095  0.00585315  0.66623889  1
  Te  Te147  1  0.49894828  0.32587073  -0.00422187  1
  Te  Te148  1  0.50002473  0.33004182  0.33493089  1
  Te  Te149  1  0.49776370  0.32868184  0.66780631  1
  Te  Te150  1  0.49174275  0.66611446  0.00146724  1
  Te  Te151  1  0.49616304  0.66579317  0.33482816  1
  Te  Te152  1  0.49514376  0.66380295  0.66472034  1
  Te  Te153  1  0.83399012  0.00107920  -0.00042766  1
  Te  Te154  1  0.83795412  0.00520454  0.33116802  1
  Te  Te155  1  0.83019371  0.00118447  0.66832525  1
  Te  Te156  1  0.83280163  0.32552478  -0.00080259  1
  Te  Te157  1  0.82943287  0.32565795  0.33426973  1
  Te  Te158  1  0.83733555  0.32742253  0.66653884  1
  Te  Te159  1  0.83221771  0.67093285  0.00113253  1
  Te  Te160  1  0.83724112  0.66635369  0.33918673  1
  Te  Te161  1  0.83249928  0.66712495  0.66664985  1
  Te  Te162  1  0.00069435  0.16700182  -0.00214990  1
  Te  Te163  1  0.00153437  0.16746121  0.33652589  1
  Te  Te164  1  -0.00151569  0.16638991  0.66476151  1
  Te  Te165  1  0.00496741  0.49935687  0.00247475  1
  Te  Te166  1  0.00058034  0.50041731  0.33531750  1
  Te  Te167  1  -0.00314940  0.50115700  0.66381059  1
  Te  Te168  1  -0.00559729  0.83371962  -0.00592772  1
  Te  Te169  1  -0.00027362  0.82847720  0.33289792  1
  Te  Te170  1  -0.00552935  0.83065075  0.67155787  1
  Te  Te171  1  0.33194527  0.16316289  0.00039030  1
  Te  Te172  1  0.32842313  0.16942201  0.33310721  1
  Te  Te173  1  0.33575095  0.16600516  0.66711610  1
  Te  Te174  1  0.32952668  0.50166944  -0.00342594  1
  Te  Te175  1  0.33185651  0.49984963  0.33358703  1
  Te  Te176  1  0.33304360  0.49999719  0.66952402  1
  Te  Te177  1  0.33355438  0.83442356  -0.00234214  1
  Te  Te178  1  0.33382408  0.82782489  0.33276065  1
  Te  Te179  1  0.33453744  0.83366339  0.67061935  1
  Te  Te180  1  0.66731031  0.16110403  -0.00132755  1
  Te  Te181  1  0.66672640  0.16750306  0.33371841  1
  Te  Te182  1  0.66736619  0.16409501  0.66581449  1
  Te  Te183  1  0.66669980  0.50202624  -0.00080091  1
  Te  Te184  1  0.66681972  0.49461778  0.33030123  1
  Te  Te185  1  0.67020991  0.50013149  0.66922412  1
  Te  Te186  1  0.66996341  0.83930713  -0.00358846  1
  Te  Te187  1  0.66711839  0.83043757  0.33725589  1
  Te  Te188  1  0.66786816  0.83452296  0.66772258  1
  Te  Te189  1  -0.00058692  -0.00014828  0.17429937  1
  Te  Te190  1  0.00066005  0.00208950  0.49682546  1
  Te  Te191  1  -0.00344356  -0.00051784  0.83290721  1
  Te  Te192  1  -0.00056736  0.34116361  0.16632521  1
  Te  Te193  1  0.00059020  0.33213160  0.50576905  1
  Te  Te194  1  0.00018820  0.33039285  0.82548635  1
  Te  Te195  1  0.00421147  0.66304031  0.16900201  1
  Te  Te196  1  -0.00263694  0.66771846  0.50223083  1
  Te  Te197  1  0.00629091  0.66930264  0.82862663  1
  Te  Te198  1  0.33582382  -0.00535038  0.16441884  1
  Te  Te199  1  0.33728167  -0.00104184  0.50387186  1
  Te  Te200  1  0.33302319  -0.00247754  0.83244116  1
  Te  Te201  1  0.34091294  0.33441042  0.17105792  1
  Te  Te202  1  0.33827883  0.33347117  0.50225687  1
  Te  Te203  1  0.33680793  0.33632846  0.83051601  1
  Te  Te204  1  0.33063552  0.66968871  0.16922134  1
  Te  Te205  1  0.33274557  0.66813308  0.50017584  1
  Te  Te206  1  0.33213809  0.66557080  0.83387400  1
  Te  Te207  1  0.66543635  0.00211475  0.16574828  1
  Te  Te208  1  0.66427030  0.00273434  0.50194797  1
  Te  Te209  1  0.66946283  -0.00268134  0.83223230  1
  Te  Te210  1  0.66205370  0.33244542  0.16809890  1
  Te  Te211  1  0.66244247  0.32873827  0.49645086  1
  Te  Te212  1  0.66181525  0.33950553  0.83338503  1
  Te  Te213  1  0.66698982  0.66480237  0.16631057  1
  Te  Te214  1  0.67130315  0.66538505  0.50644217  1
  Te  Te215  1  0.66532201  0.66787591  0.82819657  1
