# generated using pymatgen
data_AgSbTe2
_symmetry_space_group_name_H-M   'P 1'
_cell_length_a   18.33480926
_cell_length_b   18.33185909
_cell_length_c   18.33456718
_cell_angle_alpha   90.00098492
_cell_angle_beta   90.00061231
_cell_angle_gamma   90.00248912
_symmetry_Int_Tables_number   1
_chemical_formula_structural   AgSbTe2
_chemical_formula_sum   'Ag54 Sb54 Te108'
_cell_volume   6162.45226453
_cell_formula_units_Z   54
loop_
 _symmetry_equiv_pos_site_id
 _symmetry_equiv_pos_as_xyz
  1  'x, y, z'
loop_
 _atom_site_type_symbol
 _atom_site_label
 _atom_site_symmetry_multiplicity
 _atom_site_fract_x
 _atom_site_fract_y
 _atom_site_fract_z
 _atom_site_occupancy
  Ag  Ag0  1  0.49945875  0.83713421  0.32815058  1
  Ag  Ag1  1  0.16842388  0.66659578  0.16644596  1
  Ag  Ag2  1  0.49701336  -0.00155625  0.16661991  1
  Ag  Ag3  1  0.17475525  0.83491136  0.66214818  1
  Ag  Ag4  1  0.83239048  0.66833715  0.49533122  1
  Ag  Ag5  1  0.65820518  0.83728081  0.83996153  1
  Ag  Ag6  1  0.17793617  0.17771582  0.00300427  1
  Ag  Ag7  1  0.50335955  0.83457084  0.00888344  1
  Ag  Ag8  1  0.17027056  0.49052574  0.00364384  1
  Ag  Ag9  1  0.32989599  0.67849528  0.66605711  1
  Ag  Ag10  1  0.33783607  0.16406447  0.16079027  1
  Ag  Ag11  1  0.33492006  -0.00387318  0.66701861  1
  Ag  Ag12  1  0.01501387  0.34254683  0.00785626  1
  Ag  Ag13  1  0.32852833  0.49920412  0.16128407  1
  Ag  Ag14  1  0.66380921  -0.00682385  -0.00046353  1
  Ag  Ag15  1  0.16975322  0.32717130  0.84674507  1
  Ag  Ag16  1  0.49553862  0.16156272  0.00735664  1
  Ag  Ag17  1  0.17521931  -0.00097974  0.16438712  1
  Ag  Ag18  1  0.17124189  0.00099254  0.83448778  1
  Ag  Ag19  1  -0.00136255  0.66116430  0.00806484  1
  Ag  Ag20  1  0.67044671  0.32127423  0.33215874  1
  Ag  Ag21  1  0.49202610  0.50204294  0.00402693  1
  Ag  Ag22  1  0.50796431  0.67150375  0.49378723  1
  Ag  Ag23  1  0.50530079  0.67594654  0.16691806  1
  Ag  Ag24  1  0.83249206  0.00004223  0.82666063  1
  Ag  Ag25  1  0.66372849  0.67118768  0.32738115  1
  Ag  Ag26  1  0.16344680  0.67485093  0.49819446  1
  Ag  Ag27  1  0.16477629  -0.00676806  0.50745175  1
  Ag  Ag28  1  0.65575987  0.15811493  0.17103722  1
  Ag  Ag29  1  0.32763197  0.33228497  0.00077141  1
  Ag  Ag30  1  -0.00223030  0.33388084  0.32698925  1
  Ag  Ag31  1  0.33775470  0.83718654  0.82934563  1
  Ag  Ag32  1  0.00722561  0.50206353  0.16345400  1
  Ag  Ag33  1  0.66254655  0.83690743  0.49722017  1
  Ag  Ag34  1  0.82473530  0.66559299  0.16733036  1
  Ag  Ag35  1  0.83070958  -0.00054335  0.50246492  1
  Ag  Ag36  1  0.33303422  0.16062164  0.84313629  1
  Ag  Ag37  1  0.33120772  0.49972228  0.84235348  1
  Ag  Ag38  1  0.65886454  -0.00375609  0.66780458  1
  Ag  Ag39  1  0.66345262  0.67340827  0.01018621  1
  Ag  Ag40  1  -0.00028910  0.50387910  0.49506446  1
  Ag  Ag41  1  0.83320827  0.32941060  0.49513655  1
  Ag  Ag42  1  0.33332055  -0.00133044  0.33136071  1
  Ag  Ag43  1  0.82159788  0.16703879  0.33398763  1
  Ag  Ag44  1  0.16643541  0.34000023  0.15912032  1
  Ag  Ag45  1  0.17465523  0.83512996  0.33619225  1
  Ag  Ag46  1  0.00868424  -0.00518431  0.66559288  1
  Ag  Ag47  1  0.50402358  0.15724873  0.32519871  1
  Ag  Ag48  1  0.66647261  0.15522007  0.48826288  1
  Ag  Ag49  1  0.49545395  0.83559175  0.66765550  1
  Ag  Ag50  1  0.00656305  0.67265739  0.66303709  1
  Ag  Ag51  1  0.84488629  0.50245710  0.00220552  1
  Ag  Ag52  1  0.66005463  0.83353143  0.16662684  1
  Ag  Ag53  1  0.49916348  0.15308590  0.66327498  1
  Sb  Sb54  1  0.49991415  0.50350101  0.32699944  1
  Sb  Sb55  1  0.33631701  0.67404814  0.33436866  1
  Sb  Sb56  1  0.83711889  0.33817267  0.17065484  1
  Sb  Sb57  1  0.83117526  0.83543103  0.66559736  1
  Sb  Sb58  1  0.00206071  0.33391437  0.66594036  1
  Sb  Sb59  1  0.66092487  -0.00146633  0.33299288  1
  Sb  Sb60  1  0.49777206  0.67169126  0.83861190  1
  Sb  Sb61  1  0.49666193  -0.00173942  0.83692349  1
  Sb  Sb62  1  0.00337794  0.17106679  0.16679379  1
  Sb  Sb63  1  -0.00022331  0.82770494  0.16561053  1
  Sb  Sb64  1  0.83533414  0.50353570  0.66876381  1
  Sb  Sb65  1  0.49528226  0.33170209  0.83624314  1
  Sb  Sb66  1  0.00275895  0.83398804  0.83200677  1
  Sb  Sb67  1  0.82896555  -0.00342501  0.16914387  1
  Sb  Sb68  1  0.49602919  0.32959089  0.16585095  1
  Sb  Sb69  1  0.33176315  0.32832281  0.67543179  1
  Sb  Sb70  1  0.49656055  0.50809862  0.67039731  1
  Sb  Sb71  1  0.17427144  0.83332070  0.00021754  1
  Sb  Sb72  1  0.33774833  0.00445500  -0.00082607  1
  Sb  Sb73  1  0.50144757  -0.00538613  0.49874234  1
  Sb  Sb74  1  0.00771934  0.16527014  0.83479096  1
  Sb  Sb75  1  0.17139024  0.16140498  0.32712875  1
  Sb  Sb76  1  0.00579225  0.50124328  0.83994517  1
  Sb  Sb77  1  0.66008178  0.15828933  0.83700830  1
  Sb  Sb78  1  0.66550011  0.50333912  0.16586379  1
  Sb  Sb79  1  0.00059466  0.82969580  0.50066265  1
  Sb  Sb80  1  0.83953465  0.32854947  0.83270804  1
  Sb  Sb81  1  0.67108549  0.50443090  0.49930097  1
  Sb  Sb82  1  0.83291974  0.67234459  0.83543736  1
  Sb  Sb83  1  0.83421903  0.49813961  0.33004655  1
  Sb  Sb84  1  0.16708012  0.50728220  0.67182801  1
  Sb  Sb85  1  0.32822660  0.50441497  0.49825183  1
  Sb  Sb86  1  0.33248678  0.32691576  0.32478371  1
  Sb  Sb87  1  0.16893816  0.66919920  0.83553065  1
  Sb  Sb88  1  0.00567266  0.00380195  0.33721994  1
  Sb  Sb89  1  0.33727953  0.83480509  0.50566043  1
  Sb  Sb90  1  -0.00262163  0.66374001  0.33276346  1
  Sb  Sb91  1  0.33827618  0.83474622  0.16183714  1
  Sb  Sb92  1  -0.00158994  -0.00186601  -0.00297465  1
  Sb  Sb93  1  0.50522777  0.33500203  0.49625986  1
  Sb  Sb94  1  0.82467474  0.82806876  0.00051132  1
  Sb  Sb95  1  0.82779209  0.16078724  0.66142773  1
  Sb  Sb96  1  0.82912908  0.83575776  0.33564070  1
  Sb  Sb97  1  0.66461705  0.33296659  0.00607406  1
  Sb  Sb98  1  0.33873302  0.16331998  0.49864151  1
  Sb  Sb99  1  0.66113415  0.50730489  0.83893853  1
  Sb  Sb100  1  0.66579456  0.32235990  0.66138969  1
  Sb  Sb101  1  0.33502271  0.66159535  0.00029107  1
  Sb  Sb102  1  -0.00545995  0.16766522  0.49911847  1
  Sb  Sb103  1  0.16154361  0.33330321  0.49523995  1
  Sb  Sb104  1  0.66419174  0.67585668  0.66405289  1
  Sb  Sb105  1  0.17351220  0.15594932  0.67162477  1
  Sb  Sb106  1  0.83078264  0.16960312  0.00559772  1
  Sb  Sb107  1  0.16549803  0.50566759  0.32492584  1
  Te  Te108  1  0.16957374  0.16002564  0.16344016  1
  Te  Te109  1  0.16654768  0.16307912  0.49909490  1
  Te  Te110  1  0.17268942  0.16352041  0.83745392  1
  Te  Te111  1  0.16690716  0.50240465  0.16446421  1
  Te  Te112  1  0.16073257  0.50280098  0.49986878  1
  Te  Te113  1  0.17222387  0.49875585  0.83908167  1
  Te  Te114  1  0.16777780  0.83361059  0.16848995  1
  Te  Te115  1  0.16619880  0.83398428  0.50008252  1
  Te  Te116  1  0.17062902  0.83904091  0.83137933  1
  Te  Te117  1  0.49918321  0.16589487  0.16646605  1
  Te  Te118  1  0.50608379  0.16803418  0.50093110  1
  Te  Te119  1  0.49372372  0.16668159  0.83593807  1
  Te  Te120  1  0.49612886  0.50281193  0.16326982  1
  Te  Te121  1  0.49832596  0.50917536  0.50058776  1
  Te  Te122  1  0.49281796  0.50096002  0.83928350  1
  Te  Te123  1  0.50075102  0.83553412  0.16783364  1
  Te  Te124  1  0.50302726  0.82974306  0.49744255  1
  Te  Te125  1  0.50008207  0.83396430  0.82879370  1
  Te  Te126  1  0.83095723  0.16610354  0.17250121  1
  Te  Te127  1  0.82811480  0.16423183  0.49604085  1
  Te  Te128  1  0.83297212  0.16086483  0.83457121  1
  Te  Te129  1  0.83575068  0.50562304  0.16257087  1
  Te  Te130  1  0.83808847  0.50655888  0.50073684  1
  Te  Te131  1  0.83195663  0.49851160  0.83996350  1
  Te  Te132  1  0.82777245  0.82660491  0.16819967  1
  Te  Te133  1  0.82783901  0.83324177  0.49929476  1
  Te  Te134  1  0.82842270  0.84071127  0.83331128  1
  Te  Te135  1  0.16341630  -0.00039054  0.00051625  1
  Te  Te136  1  0.17123645  -0.00351079  0.32983782  1
  Te  Te137  1  0.16854062  -0.00375706  0.66719718  1
  Te  Te138  1  0.16966906  0.33319048  0.00270378  1
  Te  Te139  1  0.16301324  0.33220127  0.32795931  1
  Te  Te140  1  0.16584114  0.33218205  0.66811012  1
  Te  Te141  1  0.16374328  0.66733875  0.00350368  1
  Te  Te142  1  0.16757563  0.67213793  0.33448648  1
  Te  Te143  1  0.16744002  0.67164609  0.66676496  1
  Te  Te144  1  0.50394613  -0.00014184  0.00362376  1
  Te  Te145  1  0.49505572  -0.00164341  0.33221841  1
  Te  Te146  1  0.49827368  -0.00356362  0.66388612  1
  Te  Te147  1  0.49694385  0.33496579  0.00043990  1
  Te  Te148  1  0.50478738  0.33078353  0.33349149  1
  Te  Te149  1  0.49978392  0.33137411  0.66596757  1
  Te  Te150  1  0.50136013  0.66851934  0.00416688  1
  Te  Te151  1  0.50202455  0.66994947  0.33195782  1
  Te  Te152  1  0.49638834  0.67253787  0.66213213  1
  Te  Te153  1  0.82888133  0.00066341  -0.00062171  1
  Te  Te154  1  0.83771257  0.00394701  0.33824424  1
  Te  Te155  1  0.83287992  0.00009961  0.66387335  1
  Te  Te156  1  0.83416565  0.33915152  -0.00105155  1
  Te  Te157  1  0.83224521  0.33182937  0.33558278  1
  Te  Te158  1  0.83421540  0.33306381  0.65927699  1
  Te  Te159  1  0.83447638  0.66261321  0.00081559  1
  Te  Te160  1  0.82892740  0.66767529  0.33338016  1
  Te  Te161  1  0.83761334  0.66789433  0.66300489  1
  Te  Te162  1  0.00031926  0.17013402  0.00091702  1
  Te  Te163  1  -0.00269690  0.17320003  0.33356138  1
  Te  Te164  1  0.00029641  0.16041970  0.66679848  1
  Te  Te165  1  0.00407526  0.50152322  0.00121753  1
  Te  Te166  1  0.00007187  0.49533898  0.33074812  1
  Te  Te167  1  0.00013874  0.50364944  0.66389312  1
  Te  Te168  1  -0.00101152  0.82470051  -0.00097623  1
  Te  Te169  1  0.00774030  0.83435917  0.33235174  1
  Te  Te170  1  0.00464502  0.83381846  0.66655133  1
  Te  Te171  1  0.33463916  0.16689772  0.00084158  1
  Te  Te172  1  0.33989639  0.16078966  0.32918889  1
  Te  Te173  1  0.34010973  0.16143549  0.66759448  1
  Te  Te174  1  0.33140813  0.50052365  0.00173038  1
  Te  Te175  1  0.33333565  0.49686525  0.32621004  1
  Te  Te176  1  0.33329674  0.49985350  0.67059835  1
  Te  Te177  1  0.34179844  0.83079524  -0.00862676  1
  Te  Te178  1  0.33530138  0.83882320  0.33127190  1
  Te  Te179  1  0.33401088  0.83560237  0.66825060  1
  Te  Te180  1  0.66197363  0.16471385  0.00514252  1
  Te  Te181  1  0.66424148  0.16299608  0.33240922  1
  Te  Te182  1  0.66023859  0.15802997  0.66700490  1
  Te  Te183  1  0.65951584  0.50380131  -0.00017344  1
  Te  Te184  1  0.66625674  0.50238619  0.33419450  1
  Te  Te185  1  0.66564707  0.49846591  0.66927378  1
  Te  Te186  1  0.66310840  0.83312638  0.00225641  1
  Te  Te187  1  0.66391595  0.83077750  0.33320778  1
  Te  Te188  1  0.66365910  0.83780500  0.66342747  1
  Te  Te189  1  0.00229596  -0.00166277  0.16641776  1
  Te  Te190  1  0.00010758  0.00012682  0.50433387  1
  Te  Te191  1  -0.00209900  -0.00084586  0.82839813  1
  Te  Te192  1  0.00303342  0.33738984  0.16610555  1
  Te  Te193  1  -0.00478501  0.33826928  0.49807459  1
  Te  Te194  1  0.00699473  0.33333515  0.83735535  1
  Te  Te195  1  0.00330430  0.66320630  0.16645962  1
  Te  Te196  1  0.00087717  0.66456696  0.49955097  1
  Te  Te197  1  -0.00062197  0.66697608  0.82610084  1
  Te  Te198  1  0.33490116  0.00067138  0.16576656  1
  Te  Te199  1  0.32609666  0.00115836  0.50261798  1
  Te  Te200  1  0.33108610  0.00036537  0.83174787  1
  Te  Te201  1  0.32865018  0.33193308  0.16217999  1
  Te  Te202  1  0.33229843  0.33425617  0.49946869  1
  Te  Te203  1  0.32929802  0.33415528  0.83900827  1
  Te  Te204  1  0.33024639  0.66502711  0.16763627  1
  Te  Te205  1  0.32569792  0.66594185  0.50388813  1
  Te  Te206  1  0.33334208  0.66824251  0.82723630  1
  Te  Te207  1  0.66544707  -0.00192702  0.16422117  1
  Te  Te208  1  0.66740314  -0.00187435  0.50104307  1
  Te  Te209  1  0.66805579  -0.00368724  0.83277117  1
  Te  Te210  1  0.66788962  0.33048455  0.17264794  1
  Te  Te211  1  0.67252473  0.33414814  0.49458218  1
  Te  Te212  1  0.66982313  0.33315307  0.83182608  1
  Te  Te213  1  0.66491737  0.66637732  0.16695128  1
  Te  Te214  1  0.66784071  0.66986552  0.49928708  1
  Te  Te215  1  0.66665690  0.67546266  0.83574418  1
