# generated using pymatgen
data_AgSbTe2
_symmetry_space_group_name_H-M   'P 1'
_cell_length_a   18.33711384
_cell_length_b   18.32983346
_cell_length_c   18.33060698
_cell_angle_alpha   89.99920414
_cell_angle_beta   89.99681417
_cell_angle_gamma   89.99710406
_symmetry_Int_Tables_number   1
_chemical_formula_structural   AgSbTe2
_chemical_formula_sum   'Ag54 Sb54 Te108'
_cell_volume   6161.21473151
_cell_formula_units_Z   54
loop_
 _symmetry_equiv_pos_site_id
 _symmetry_equiv_pos_as_xyz
  1  'x, y, z'
loop_
 _atom_site_type_symbol
 _atom_site_label
 _atom_site_symmetry_multiplicity
 _atom_site_fract_x
 _atom_site_fract_y
 _atom_site_fract_z
 _atom_site_occupancy
  Ag  Ag0  1  0.16639312  -0.00470886  0.17474083  1
  Ag  Ag1  1  0.16516901  0.49473378  0.00406881  1
  Ag  Ag2  1  0.33354612  0.17201448  0.50447071  1
  Ag  Ag3  1  0.01293537  0.33440037  0.66302515  1
  Ag  Ag4  1  0.49068392  -0.01137325  0.50363622  1
  Ag  Ag5  1  0.33944195  0.83337135  0.17361111  1
  Ag  Ag6  1  0.17413509  0.16976935  0.00288525  1
  Ag  Ag7  1  0.65912331  0.66957609  0.66208446  1
  Ag  Ag8  1  0.66150000  0.16427046  0.16438302  1
  Ag  Ag9  1  0.49890358  0.00130172  0.82399655  1
  Ag  Ag10  1  0.00094471  0.66909368  0.33947986  1
  Ag  Ag11  1  0.33389740  0.16570781  0.16736502  1
  Ag  Ag12  1  0.49769941  0.68087698  0.17221139  1
  Ag  Ag13  1  0.84008317  0.67093003  0.49977889  1
  Ag  Ag14  1  0.17113968  0.83404896  0.65800507  1
  Ag  Ag15  1  0.16328474  0.50273964  0.33263121  1
  Ag  Ag16  1  0.83506282  0.33668128  0.49560852  1
  Ag  Ag17  1  0.17221194  0.33094440  0.50414601  1
  Ag  Ag18  1  0.33745688  0.83403578  0.49845788  1
  Ag  Ag19  1  0.16999053  0.67414498  0.17454695  1
  Ag  Ag20  1  0.00557244  -0.00772565  0.66287816  1
  Ag  Ag21  1  0.33329608  0.16780940  0.82081183  1
  Ag  Ag22  1  0.17167231  -0.00965830  0.50014600  1
  Ag  Ag23  1  0.49768206  0.67688595  0.50336604  1
  Ag  Ag24  1  0.66448278  -0.00620413  0.33257310  1
  Ag  Ag25  1  0.82774772  0.82876567  0.33170692  1
  Ag  Ag26  1  0.16653109  0.33171199  0.82226362  1
  Ag  Ag27  1  0.00211111  0.50102868  0.83038528  1
  Ag  Ag28  1  0.48974377  0.33177486  0.49940719  1
  Ag  Ag29  1  0.49765712  0.50988231  0.66345142  1
  Ag  Ag30  1  0.33363091  0.33215296  0.34286506  1
  Ag  Ag31  1  0.00450937  0.83003358  0.49821187  1
  Ag  Ag32  1  0.66568178  0.32913077  0.00532073  1
  Ag  Ag33  1  0.00347358  0.66797667  0.65766657  1
  Ag  Ag34  1  0.83419203  0.66780327  0.82378866  1
  Ag  Ag35  1  0.65186449  0.83223495  0.49172162  1
  Ag  Ag36  1  0.82525458  0.83132251  0.01001412  1
  Ag  Ag37  1  0.65932354  0.83480989  0.17283517  1
  Ag  Ag38  1  0.82826246  0.32803126  0.17088781  1
  Ag  Ag39  1  0.49288192  0.83151502  0.65256012  1
  Ag  Ag40  1  0.16418125  0.67350536  0.50147413  1
  Ag  Ag41  1  0.50436128  0.83093579  0.33817620  1
  Ag  Ag42  1  0.00252480  0.83318555  0.17312312  1
  Ag  Ag43  1  0.82803272  0.16701672  0.00463262  1
  Ag  Ag44  1  0.49787245  0.16396601  0.00458388  1
  Ag  Ag45  1  0.83884630  0.50833408  0.33425387  1
  Ag  Ag46  1  0.49122444  0.16497185  0.66306561  1
  Ag  Ag47  1  0.66626576  0.67074183  0.00002609  1
  Ag  Ag48  1  0.32996038  0.32596616  0.66100587  1
  Ag  Ag49  1  0.00686585  0.16389518  0.16462526  1
  Ag  Ag50  1  0.33578565  0.66756381  0.66136310  1
  Ag  Ag51  1  0.17214753  0.17307759  0.66367406  1
  Ag  Ag52  1  0.50144881  0.32837539  0.17020043  1
  Ag  Ag53  1  0.50438045  0.83536792  0.00609218  1
  Sb  Sb54  1  0.17149565  0.00518205  0.82793316  1
  Sb  Sb55  1  0.66295423  0.32957412  0.33020492  1
  Sb  Sb56  1  0.16325082  0.66204423  0.82905598  1
  Sb  Sb57  1  0.50321462  0.67225010  0.82779057  1
  Sb  Sb58  1  0.83887540  0.33708258  0.83446663  1
  Sb  Sb59  1  0.83446277  -0.00394260  0.49861338  1
  Sb  Sb60  1  0.66104208  0.33573283  0.66641779  1
  Sb  Sb61  1  0.00236936  0.33857389  0.33789892  1
  Sb  Sb62  1  0.49630810  -0.00155339  0.17029614  1
  Sb  Sb63  1  0.32889316  0.49467621  0.82979868  1
  Sb  Sb64  1  0.33505105  0.00146324  0.00277394  1
  Sb  Sb65  1  0.83348453  0.16657988  0.32938987  1
  Sb  Sb66  1  0.16896218  0.49872916  0.66226272  1
  Sb  Sb67  1  0.33279820  0.49885621  0.50103957  1
  Sb  Sb68  1  0.49815538  0.16238884  0.33320650  1
  Sb  Sb69  1  0.83568400  0.16942802  0.66995702  1
  Sb  Sb70  1  0.16847603  0.82933631  0.33896279  1
  Sb  Sb71  1  0.66980883  0.67231678  0.33535712  1
  Sb  Sb72  1  0.66352453  -0.00606884  0.65988867  1
  Sb  Sb73  1  0.66660107  0.50271334  0.16751959  1
  Sb  Sb74  1  0.00001240  0.83008384  0.82950170  1
  Sb  Sb75  1  0.16940275  0.33113888  0.16933009  1
  Sb  Sb76  1  0.83640375  0.50057421  0.00432314  1
  Sb  Sb77  1  0.65942346  0.16753924  0.84018302  1
  Sb  Sb78  1  0.00602608  0.16404411  0.49816218  1
  Sb  Sb79  1  0.33033894  0.00248662  0.66170824  1
  Sb  Sb80  1  0.00098399  0.00013244  -0.00147461  1
  Sb  Sb81  1  -0.00076873  0.33179496  0.00033642  1
  Sb  Sb82  1  -0.00239913  0.66821597  0.00125097  1
  Sb  Sb83  1  0.33658664  0.66903849  -0.00194416  1
  Sb  Sb84  1  0.49730699  0.49958766  -0.00303312  1
  Sb  Sb85  1  0.66579526  0.83209430  0.83476951  1
  Sb  Sb86  1  0.32933925  0.66513075  0.34003779  1
  Sb  Sb87  1  0.83626267  0.00120149  0.16684087  1
  Sb  Sb88  1  0.82986081  -0.00480476  0.83352400  1
  Sb  Sb89  1  0.33603274  0.00014141  0.33529079  1
  Sb  Sb90  1  0.66645619  0.50770147  0.50007884  1
  Sb  Sb91  1  0.67000243  0.50184629  0.83293510  1
  Sb  Sb92  1  0.33257477  0.50111513  0.16751973  1
  Sb  Sb93  1  0.49994414  0.50384182  0.33742543  1
  Sb  Sb94  1  0.66375228  -0.00182640  0.00605616  1
  Sb  Sb95  1  0.49427694  0.32793411  0.83170385  1
  Sb  Sb96  1  0.00641980  0.16963729  0.83529926  1
  Sb  Sb97  1  0.33570989  0.32905800  0.00017324  1
  Sb  Sb98  1  0.83278690  0.50292186  0.66196648  1
  Sb  Sb99  1  0.00110498  0.50168468  0.16576941  1
  Sb  Sb100  1  0.83230855  0.66964899  0.17096484  1
  Sb  Sb101  1  0.16900335  0.16979762  0.33468677  1
  Sb  Sb102  1  0.33584521  0.83767562  0.82665699  1
  Sb  Sb103  1  0.16860773  0.83523615  0.00333358  1
  Sb  Sb104  1  0.65972976  0.16287846  0.49637462  1
  Sb  Sb105  1  0.00122767  0.50666149  0.50375208  1
  Sb  Sb106  1  0.83304724  0.82972644  0.66139075  1
  Sb  Sb107  1  -0.00195717  -0.00765792  0.33623621  1
  Te  Te108  1  0.16853615  0.16658713  0.16653535  1
  Te  Te109  1  0.17028937  0.16933451  0.50247018  1
  Te  Te110  1  0.17144535  0.17002480  0.83305722  1
  Te  Te111  1  0.16583547  0.50443843  0.16743011  1
  Te  Te112  1  0.16613229  0.50044099  0.49495916  1
  Te  Te113  1  0.16320839  0.49515293  0.83661290  1
  Te  Te114  1  0.16634163  0.83348137  0.16623145  1
  Te  Te115  1  0.16561364  0.83155690  0.50087458  1
  Te  Te116  1  0.16772526  0.83469039  0.82947237  1
  Te  Te117  1  0.49940305  0.16436101  0.16670628  1
  Te  Te118  1  0.49594530  0.17224287  0.49976740  1
  Te  Te119  1  0.49445679  0.16383144  0.83517691  1
  Te  Te120  1  0.49984837  0.49472485  0.16671233  1
  Te  Te121  1  0.50127012  0.49287860  0.50348789  1
  Te  Te122  1  0.49880150  0.49915601  0.82712517  1
  Te  Te123  1  0.49909126  0.83700777  0.16542565  1
  Te  Te124  1  0.49676326  0.83274355  0.49771496  1
  Te  Te125  1  0.49892140  0.83917364  0.84370021  1
  Te  Te126  1  0.83010676  0.16767587  0.16418819  1
  Te  Te127  1  0.83240019  0.16980342  0.49971687  1
  Te  Te128  1  0.83307768  0.16638545  0.84117347  1
  Te  Te129  1  0.83429100  0.49300533  0.17187437  1
  Te  Te130  1  0.83282091  0.49965341  0.49489314  1
  Te  Te131  1  0.83909765  0.50594018  0.83481464  1
  Te  Te132  1  0.83444225  0.83372436  0.16912222  1
  Te  Te133  1  0.84181702  0.83134048  0.49626498  1
  Te  Te134  1  0.83344392  0.82783641  0.84111976  1
  Te  Te135  1  0.16654429  0.00682980  0.00062032  1
  Te  Te136  1  0.16572617  0.00064147  0.33618135  1
  Te  Te137  1  0.16415330  -0.00181872  0.66360769  1
  Te  Te138  1  0.16709770  0.33027716  0.00196871  1
  Te  Te139  1  0.16982917  0.33878507  0.33788127  1
  Te  Te140  1  0.16963853  0.33553465  0.66416347  1
  Te  Te141  1  0.16744757  0.66601193  0.00017781  1
  Te  Te142  1  0.16415553  0.66365003  0.33353427  1
  Te  Te143  1  0.16512942  0.66560291  0.66393840  1
  Te  Te144  1  0.50084476  0.00232843  -0.00116019  1
  Te  Te145  1  0.50255776  -0.00602534  0.34005685  1
  Te  Te146  1  0.50068377  -0.00079662  0.66312228  1
  Te  Te147  1  0.50322938  0.33190621  0.00203025  1
  Te  Te148  1  0.49657983  0.33614677  0.33275615  1
  Te  Te149  1  0.49803150  0.32541244  0.66466795  1
  Te  Te150  1  0.50418361  0.66686937  0.00048076  1
  Te  Te151  1  0.49853652  0.66782950  0.33258419  1
  Te  Te152  1  0.49995862  0.67127598  0.66525345  1
  Te  Te153  1  0.83275812  0.00090820  -0.00143076  1
  Te  Te154  1  0.82841487  -0.00785090  0.33381211  1
  Te  Te155  1  0.84161351  0.00063116  0.66760685  1
  Te  Te156  1  0.83002624  0.33154732  0.00262561  1
  Te  Te157  1  0.83417161  0.33349324  0.33388230  1
  Te  Te158  1  0.83147475  0.33509230  0.66260792  1
  Te  Te159  1  0.82938031  0.66872515  0.00325853  1
  Te  Te160  1  0.83604215  0.66820354  0.33677224  1
  Te  Te161  1  0.83588325  0.66618349  0.66246597  1
  Te  Te162  1  0.00017088  0.16640922  0.00446440  1
  Te  Te163  1  -0.00032016  0.16502570  0.32547455  1
  Te  Te164  1  0.00362571  0.17317859  0.66654864  1
  Te  Te165  1  0.00534381  0.49987310  -0.00470930  1
  Te  Te166  1  0.00035971  0.50573474  0.33279687  1
  Te  Te167  1  0.00007358  0.49950566  0.67016030  1
  Te  Te168  1  -0.00242476  0.83462085  0.00536621  1
  Te  Te169  1  -0.00015259  0.82956931  0.33289286  1
  Te  Te170  1  0.00047788  0.82957512  0.66456537  1
  Te  Te171  1  0.33507384  0.16676278  0.00803923  1
  Te  Te172  1  0.33377881  0.17159491  0.33079493  1
  Te  Te173  1  0.33318083  0.16664713  0.66266468  1
  Te  Te174  1  0.32497535  0.49981950  -0.00175633  1
  Te  Te175  1  0.32949501  0.49331517  0.33257527  1
  Te  Te176  1  0.33801244  0.50394489  0.66775781  1
  Te  Te177  1  0.33789825  0.83354470  0.00576383  1
  Te  Te178  1  0.33833291  0.83165548  0.33343367  1
  Te  Te179  1  0.33246151  0.83064047  0.66326255  1
  Te  Te180  1  0.66435078  0.16696256  0.00477035  1
  Te  Te181  1  0.66654215  0.16022112  0.32586521  1
  Te  Te182  1  0.66328006  0.16527901  0.66724408  1
  Te  Te183  1  0.66687875  0.50259672  -0.00040248  1
  Te  Te184  1  0.67459540  0.49873185  0.33353253  1
  Te  Te185  1  0.65953123  0.50669632  0.66713602  1
  Te  Te186  1  0.66644707  0.83244983  0.00206059  1
  Te  Te187  1  0.66616596  0.83279572  0.33293953  1
  Te  Te188  1  0.66408852  0.82889733  0.66446142  1
  Te  Te189  1  0.00565472  -0.00094854  0.16675003  1
  Te  Te190  1  0.00460320  -0.00372003  0.50329716  1
  Te  Te191  1  -0.00068825  -0.00026807  0.82432668  1
  Te  Te192  1  -0.00342452  0.32940875  0.16877159  1
  Te  Te193  1  -0.00098224  0.33137740  0.50294329  1
  Te  Te194  1  0.00444093  0.33680564  0.82834399  1
  Te  Te195  1  0.00335697  0.66987685  0.16870504  1
  Te  Te196  1  0.00138809  0.66829283  0.50009411  1
  Te  Te197  1  -0.00422279  0.66350533  0.83122911  1
  Te  Te198  1  0.32674919  -0.00041037  0.16899665  1
  Te  Te199  1  0.33164994  -0.00274654  0.49778645  1
  Te  Te200  1  0.33919312  0.00687460  0.83407957  1
  Te  Te201  1  0.33764087  0.33121668  0.16745585  1
  Te  Te202  1  0.33228785  0.33383834  0.50268761  1
  Te  Te203  1  0.32768438  0.32796549  0.82834427  1
  Te  Te204  1  0.33514737  0.66973101  0.16652726  1
  Te  Te205  1  0.33485802  0.66914043  0.50208223  1
  Te  Te206  1  0.33307828  0.66791304  0.82548275  1
  Te  Te207  1  0.66657829  -0.00238373  0.17175985  1
  Te  Te208  1  0.66551358  -0.00530474  0.49446225  1
  Te  Te209  1  0.65995194  0.00047242  0.83057749  1
  Te  Te210  1  0.66431115  0.33226603  0.16524271  1
  Te  Te211  1  0.67160168  0.33186962  0.49908417  1
  Te  Te212  1  0.66862658  0.33427339  0.84076189  1
  Te  Te213  1  0.66231761  0.67118994  0.16468777  1
  Te  Te214  1  0.66301522  0.67243155  0.50161269  1
  Te  Te215  1  0.67227557  0.66631067  0.83385648  1
