# generated using pymatgen
data_AgSbTe2
_symmetry_space_group_name_H-M   'P 1'
_cell_length_a   18.37039701
_cell_length_b   18.36836231
_cell_length_c   18.36542046
_cell_angle_alpha   89.99311260
_cell_angle_beta   90.00316690
_cell_angle_gamma   89.99710906
_symmetry_Int_Tables_number   1
_chemical_formula_structural   AgSbTe2
_chemical_formula_sum   'Ag54 Sb54 Te108'
_cell_volume   6197.11920877
_cell_formula_units_Z   54
loop_
 _symmetry_equiv_pos_site_id
 _symmetry_equiv_pos_as_xyz
  1  'x, y, z'
loop_
 _atom_site_type_symbol
 _atom_site_label
 _atom_site_symmetry_multiplicity
 _atom_site_fract_x
 _atom_site_fract_y
 _atom_site_fract_z
 _atom_site_occupancy
  Ag  Ag0  1  0.33942893  0.67318643  0.00801672  1
  Ag  Ag1  1  0.49933860  0.51487921  0.65967210  1
  Ag  Ag2  1  0.34113785  0.50203967  0.49925014  1
  Ag  Ag3  1  0.50007713  0.51114349  0.34097724  1
  Ag  Ag4  1  0.67100207  0.83437495  0.50490177  1
  Ag  Ag5  1  -0.01047048  0.83660263  0.51491711  1
  Ag  Ag6  1  0.49841065  0.34134919  0.50434759  1
  Ag  Ag7  1  0.66402751  0.67772518  0.66982451  1
  Ag  Ag8  1  0.33794699  0.82878284  0.15651218  1
  Ag  Ag9  1  0.15526450  -0.00684022  0.82957835  1
  Ag  Ag10  1  0.83105867  0.51567304  0.33415199  1
  Ag  Ag11  1  0.34635674  0.67406357  0.66822917  1
  Ag  Ag12  1  0.83868948  0.83158802  -0.01404111  1
  Ag  Ag13  1  0.50210705  0.83415001  -0.00561641  1
  Ag  Ag14  1  -0.00500923  0.31749148  0.66565412  1
  Ag  Ag15  1  0.66629194  0.67061004  0.00024441  1
  Ag  Ag16  1  0.66530161  0.16863926  0.16539395  1
  Ag  Ag17  1  -0.00784727  0.67365660  0.00059983  1
  Ag  Ag18  1  0.50086236  0.15506460  -0.01071602  1
  Ag  Ag19  1  0.84261118  -0.01560375  0.81263496  1
  Ag  Ag20  1  0.83358211  0.15265419  0.66419259  1
  Ag  Ag21  1  0.83429612  0.15197867  0.34537096  1
  Ag  Ag22  1  0.49890410  0.66854645  0.17286901  1
  Ag  Ag23  1  0.33785569  -0.00702176  0.66365349  1
  Ag  Ag24  1  0.17856478  0.67058940  0.16735614  1
  Ag  Ag25  1  0.50157140  0.83130386  0.34292224  1
  Ag  Ag26  1  0.83397560  0.67267656  0.83402655  1
  Ag  Ag27  1  -0.00593084  0.68117978  0.66449649  1
  Ag  Ag28  1  0.33381140  0.83297403  0.83195551  1
  Ag  Ag29  1  0.50437340  0.15765063  0.66298973  1
  Ag  Ag30  1  0.82070910  0.83984035  0.67350443  1
  Ag  Ag31  1  -0.00451921  0.67296756  0.33591525  1
  Ag  Ag32  1  0.66189270  0.50666074  0.16996262  1
  Ag  Ag33  1  -0.00185751  -0.01113777  -0.01635691  1
  Ag  Ag34  1  0.50841519  0.83551276  0.66137654  1
  Ag  Ag35  1  0.84101995  -0.00434367  0.50102226  1
  Ag  Ag36  1  -0.01028853  0.83639544  0.82794910  1
  Ag  Ag37  1  0.17890071  0.50611875  0.33383252  1
  Ag  Ag38  1  -0.00257393  0.14977437  0.82342268  1
  Ag  Ag39  1  0.83728376  0.83397028  0.33864002  1
  Ag  Ag40  1  -0.01072932  -0.00062898  0.66844137  1
  Ag  Ag41  1  0.65929068  0.33090480  0.66438712  1
  Ag  Ag42  1  0.67693552  0.83145021  0.81904876  1
  Ag  Ag43  1  0.15546264  0.83157361  -0.00240653  1
  Ag  Ag44  1  0.67579902  -0.00826654  0.66471333  1
  Ag  Ag45  1  -0.00768605  0.15503761  0.50427050  1
  Ag  Ag46  1  0.83093997  0.67000811  0.16461237  1
  Ag  Ag47  1  0.33099918  -0.00340274  0.34203848  1
  Ag  Ag48  1  0.34045628  0.51089709  0.17886794  1
  Ag  Ag49  1  -0.00182700  -0.01125441  0.34454993  1
  Ag  Ag50  1  0.34313080  0.32739576  0.66267111  1
  Ag  Ag51  1  0.33670175  0.16144501  0.50370951  1
  Ag  Ag52  1  0.50052706  0.67267828  0.50193387  1
  Ag  Ag53  1  0.50282079  -0.00641796  0.50387984  1
  Sb  Sb54  1  0.50004639  0.32997168  0.82097593  1
  Sb  Sb55  1  0.50421812  -0.00654731  0.82315159  1
  Sb  Sb56  1  0.83359524  0.32931812  0.82898418  1
  Sb  Sb57  1  0.17029899  0.66851335  0.49805357  1
  Sb  Sb58  1  -0.00261260  0.33417366  0.34053201  1
  Sb  Sb59  1  0.16286380  0.16338026  0.66438130  1
  Sb  Sb60  1  0.16433120  -0.00304315  0.50459089  1
  Sb  Sb61  1  0.82886813  0.67624788  0.50147736  1
  Sb  Sb62  1  0.66129837  0.50732670  0.49902924  1
  Sb  Sb63  1  0.50108862  0.33957778  0.17146840  1
  Sb  Sb64  1  0.66608412  0.16042891  0.50261650  1
  Sb  Sb65  1  0.50437880  0.67178547  0.83055522  1
  Sb  Sb66  1  0.66971306  0.15916205  0.83049562  1
  Sb  Sb67  1  0.82893380  0.32767030  0.50165509  1
  Sb  Sb68  1  0.33448131  0.50965571  0.82812243  1
  Sb  Sb69  1  0.50375648  0.16194601  0.34054517  1
  Sb  Sb70  1  0.83310254  -0.00636937  0.17091125  1
  Sb  Sb71  1  0.66342859  0.82969357  0.16734566  1
  Sb  Sb72  1  0.16832215  0.51286091  0.00570913  1
  Sb  Sb73  1  -0.00084875  0.51037743  0.82913011  1
  Sb  Sb74  1  0.66856339  -0.00210120  0.33869493  1
  Sb  Sb75  1  0.16869036  0.34334515  0.16757449  1
  Sb  Sb76  1  0.33485974  0.66983563  0.33283325  1
  Sb  Sb77  1  0.00148090  0.50322293  0.50134900  1
  Sb  Sb78  1  -0.00071261  0.33154255  -0.00703310  1
  Sb  Sb79  1  0.33723722  0.83435560  0.50292351  1
  Sb  Sb80  1  0.16385822  0.83517816  0.67032985  1
  Sb  Sb81  1  0.33096760  0.15793215  0.82540866  1
  Sb  Sb82  1  0.66934178  -0.00977179  -0.00471254  1
  Sb  Sb83  1  0.66455127  0.33575337  -0.00426600  1
  Sb  Sb84  1  -0.00015596  0.83033944  0.16150452  1
  Sb  Sb85  1  -0.00058694  0.50745663  0.17071891  1
  Sb  Sb86  1  0.66804570  0.66742529  0.33223103  1
  Sb  Sb87  1  0.16648831  0.32464743  0.82985395  1
  Sb  Sb88  1  0.50027078  0.50753757  0.00114512  1
  Sb  Sb89  1  0.83210592  0.51359078  0.00542928  1
  Sb  Sb90  1  0.16647032  -0.00719772  0.16328785  1
  Sb  Sb91  1  0.17122489  0.33401752  0.50137401  1
  Sb  Sb92  1  0.33267019  -0.01022784  -0.00374982  1
  Sb  Sb93  1  -0.00740465  0.16432402  0.17001852  1
  Sb  Sb94  1  0.33558213  0.33424106  0.34068876  1
  Sb  Sb95  1  0.66661509  0.50945410  0.83297379  1
  Sb  Sb96  1  0.66546878  0.33397900  0.33903839  1
  Sb  Sb97  1  0.50125845  -0.00794270  0.17202072  1
  Sb  Sb98  1  0.16222320  0.16722177  0.33433547  1
  Sb  Sb99  1  0.82923349  0.50661070  0.66208791  1
  Sb  Sb100  1  0.16291256  0.67459313  0.83695702  1
  Sb  Sb101  1  0.82998066  0.15671434  -0.00366460  1
  Sb  Sb102  1  0.16637635  0.82899544  0.32840586  1
  Sb  Sb103  1  0.17117375  0.15736410  -0.00180285  1
  Sb  Sb104  1  0.17315594  0.50252853  0.66292090  1
  Sb  Sb105  1  0.34061675  0.16376380  0.16984969  1
  Sb  Sb106  1  0.83196799  0.33922421  0.16843243  1
  Sb  Sb107  1  0.33686093  0.33823859  -0.00553601  1
  Te  Te108  1  0.16868725  0.16967933  0.16604300  1
  Te  Te109  1  0.17318980  0.16803559  0.49717225  1
  Te  Te110  1  0.15903883  0.15724877  0.83485709  1
  Te  Te111  1  0.17193228  0.50842850  0.17186214  1
  Te  Te112  1  0.17261723  0.50032518  0.49384823  1
  Te  Te113  1  0.16728581  0.49730169  0.83462126  1
  Te  Te114  1  0.17602281  0.82869548  0.16137972  1
  Te  Te115  1  0.14985375  0.83242147  0.49556547  1
  Te  Te116  1  0.17341191  0.83541261  0.83888881  1
  Te  Te117  1  0.50441505  0.16997401  0.17057150  1
  Te  Te118  1  0.49864454  0.15729785  0.50341308  1
  Te  Te119  1  0.49972005  0.16388786  0.83178298  1
  Te  Te120  1  0.49972355  0.50493323  0.16680642  1
  Te  Te121  1  0.50049032  0.50394811  0.50113402  1
  Te  Te122  1  0.49954310  0.49667883  0.82781567  1
  Te  Te123  1  0.49771323  0.82845925  0.16844966  1
  Te  Te124  1  0.49672539  0.83321347  0.50229739  1
  Te  Te125  1  0.49530259  0.83329735  0.83425327  1
  Te  Te126  1  0.82595830  0.16931866  0.16389732  1
  Te  Te127  1  0.83298018  0.16199826  0.50323277  1
  Te  Te128  1  0.83724755  0.16262041  0.82941359  1
  Te  Te129  1  0.82840755  0.50507532  0.17190262  1
  Te  Te130  1  0.83332353  0.49622649  0.49340692  1
  Te  Te131  1  0.83290674  0.50466112  0.83311547  1
  Te  Te132  1  0.83054437  0.82864670  0.17912755  1
  Te  Te133  1  0.83245930  0.83534868  0.49897180  1
  Te  Te134  1  0.83410808  0.82862362  0.83220918  1
  Te  Te135  1  0.16235507  -0.00657990  -0.00391992  1
  Te  Te136  1  0.16607044  0.00157895  0.33191945  1
  Te  Te137  1  0.17848281  0.00045234  0.67103081  1
  Te  Te138  1  0.16740000  0.33304654  -0.00088277  1
  Te  Te139  1  0.16582902  0.34308282  0.33222203  1
  Te  Te140  1  0.16317297  0.33461616  0.66681821  1
  Te  Te141  1  0.16760209  0.67283682  0.00467613  1
  Te  Te142  1  0.16079795  0.66304404  0.33008673  1
  Te  Te143  1  0.15846402  0.66443600  0.66691975  1
  Te  Te144  1  0.50061471  -0.00176878  0.00400345  1
  Te  Te145  1  0.49700622  -0.00508837  0.33905959  1
  Te  Te146  1  0.49765090  -0.00325748  0.66440603  1
  Te  Te147  1  0.49995272  0.33140484  -0.00018828  1
  Te  Te148  1  0.50022017  0.33598232  0.34151857  1
  Te  Te149  1  0.49932413  0.32378008  0.66169861  1
  Te  Te150  1  0.49952901  0.67058453  -0.00155506  1
  Te  Te151  1  0.50081188  0.66847880  0.33429752  1
  Te  Te152  1  0.50298900  0.67195748  0.66847956  1
  Te  Te153  1  0.83760122  -0.00756762  0.00271746  1
  Te  Te154  1  0.83559695  -0.00374061  0.33696792  1
  Te  Te155  1  0.83227179  -0.00080174  0.65929757  1
  Te  Te156  1  0.83330380  0.33471463  -0.00128896  1
  Te  Te157  1  0.83278098  0.32902785  0.33307138  1
  Te  Te158  1  0.83610266  0.33840256  0.66695401  1
  Te  Te159  1  0.83275969  0.67227597  0.00126970  1
  Te  Te160  1  0.83427147  0.67165742  0.33526162  1
  Te  Te161  1  0.83383212  0.67014834  0.66773718  1
  Te  Te162  1  0.00118952  0.16325321  -0.00053295  1
  Te  Te163  1  -0.00529005  0.16706982  0.33884002  1
  Te  Te164  1  -0.00043472  0.16055145  0.66438060  1
  Te  Te165  1  0.00010885  0.50143095  -0.00103294  1
  Te  Te166  1  -0.00938246  0.50146736  0.33517439  1
  Te  Te167  1  -0.00000409  0.50130886  0.66540115  1
  Te  Te168  1  -0.00226290  0.83196704  0.00213089  1
  Te  Te169  1  0.00063471  0.83150837  0.32533576  1
  Te  Te170  1  0.00485512  0.83774686  0.66974383  1
  Te  Te171  1  0.34028698  0.16821412  0.00000665  1
  Te  Te172  1  0.33357294  0.16309851  0.33787827  1
  Te  Te173  1  0.33232224  0.16810612  0.66473850  1
  Te  Te174  1  0.33336867  0.50784843  -0.00004510  1
  Te  Te175  1  0.33791345  0.50041205  0.33629476  1
  Te  Te176  1  0.33835247  0.50553273  0.66270281  1
  Te  Te177  1  0.34190082  0.83221244  0.00035476  1
  Te  Te178  1  0.33466114  0.83649654  0.33585203  1
  Te  Te179  1  0.32907469  0.83211146  0.66710167  1
  Te  Te180  1  0.66110730  0.16778216  -0.00104794  1
  Te  Te181  1  0.67283342  0.16620167  0.33070138  1
  Te  Te182  1  0.66684368  0.16879989  0.66785393  1
  Te  Te183  1  0.66643170  0.50592663  0.00419282  1
  Te  Te184  1  0.66530477  0.49954148  0.33038433  1
  Te  Te185  1  0.66110239  0.49676747  0.66599654  1
  Te  Te186  1  0.66278539  0.82841809  0.00185611  1
  Te  Te187  1  0.66132484  0.83410136  0.33638267  1
  Te  Te188  1  0.66439147  0.83279099  0.66395651  1
  Te  Te189  1  0.00096283  0.00233133  0.17542011  1
  Te  Te190  1  0.00112826  -0.00137234  0.50218921  1
  Te  Te191  1  -0.00294486  -0.00447355  0.82959140  1
  Te  Te192  1  0.00115344  0.33419418  0.16362679  1
  Te  Te193  1  0.00052029  0.33096408  0.50657341  1
  Te  Te194  1  0.00057503  0.33418586  0.82713507  1
  Te  Te195  1  -0.00840808  0.66535959  0.16506486  1
  Te  Te196  1  0.00021057  0.67038607  0.49978502  1
  Te  Te197  1  -0.00297467  0.67342712  0.83347494  1
  Te  Te198  1  0.33304821  -0.00270877  0.16979530  1
  Te  Te199  1  0.33054983  -0.00060775  0.50138585  1
  Te  Te200  1  0.33434646  -0.00484808  0.82980351  1
  Te  Te201  1  0.33348672  0.33758010  0.16384135  1
  Te  Te202  1  0.33754026  0.33239222  0.50409678  1
  Te  Te203  1  0.33230001  0.33288032  0.82516631  1
  Te  Te204  1  0.33685342  0.66743419  0.17017432  1
  Te  Te205  1  0.33626270  0.66468758  0.50407911  1
  Te  Te206  1  0.32993281  0.67200560  0.83023895  1
  Te  Te207  1  0.66691808  0.00844910  0.16467392  1
  Te  Te208  1  0.66311506  -0.00361254  0.50366972  1
  Te  Te209  1  0.67313057  -0.00701656  0.82833018  1
  Te  Te210  1  0.66690712  0.33421937  0.16455925  1
  Te  Te211  1  0.66050445  0.33239974  0.50559820  1
  Te  Te212  1  0.66733459  0.33542691  0.82710019  1
  Te  Te213  1  0.66561874  0.66603235  0.16618713  1
  Te  Te214  1  0.66205920  0.67277592  0.50597943  1
  Te  Te215  1  0.67169531  0.67177167  0.83353571  1
