# generated using pymatgen
data_AgSbTe2
_symmetry_space_group_name_H-M   'P 1'
_cell_length_a   18.33603334
_cell_length_b   18.33500452
_cell_length_c   18.34206956
_cell_angle_alpha   89.99917782
_cell_angle_beta   90.00222122
_cell_angle_gamma   90.00118351
_symmetry_Int_Tables_number   1
_chemical_formula_structural   AgSbTe2
_chemical_formula_sum   'Ag54 Sb54 Te108'
_cell_volume   6166.44336056
_cell_formula_units_Z   54
loop_
 _symmetry_equiv_pos_site_id
 _symmetry_equiv_pos_as_xyz
  1  'x, y, z'
loop_
 _atom_site_type_symbol
 _atom_site_label
 _atom_site_symmetry_multiplicity
 _atom_site_fract_x
 _atom_site_fract_y
 _atom_site_fract_z
 _atom_site_occupancy
  Ag  Ag0  1  0.00000859  0.17383493  0.50928584  1
  Ag  Ag1  1  0.51092449  0.00106868  0.15715970  1
  Ag  Ag2  1  -0.00524977  0.48990013  0.16983661  1
  Ag  Ag3  1  0.00552219  0.16985623  0.82945275  1
  Ag  Ag4  1  0.82703718  0.00138684  0.83309445  1
  Ag  Ag5  1  -0.00393502  0.32793039  0.00204587  1
  Ag  Ag6  1  -0.00338000  0.01041104  0.66448320  1
  Ag  Ag7  1  0.32568314  0.16859901  0.16256507  1
  Ag  Ag8  1  0.16520570  0.16939678  0.66973224  1
  Ag  Ag9  1  0.67204286  0.49270965  0.50731658  1
  Ag  Ag10  1  0.66830178  -0.00754915  0.67206380  1
  Ag  Ag11  1  0.33366720  0.66639590  -0.00869432  1
  Ag  Ag12  1  0.66701551  0.83867177  0.16353753  1
  Ag  Ag13  1  0.50905153  0.00041654  0.83507230  1
  Ag  Ag14  1  0.66916440  0.68061126  0.66445790  1
  Ag  Ag15  1  0.83423633  0.83589989  0.34473793  1
  Ag  Ag16  1  0.67223075  0.49806257  0.16090032  1
  Ag  Ag17  1  0.67013066  0.83392310  0.51369718  1
  Ag  Ag18  1  -0.00169746  0.01049754  0.33888536  1
  Ag  Ag19  1  0.32654209  0.16773612  0.82679513  1
  Ag  Ag20  1  0.00467536  0.32706523  0.65701909  1
  Ag  Ag21  1  0.32418295  0.32496192  0.66032049  1
  Ag  Ag22  1  0.82487782  0.83514028  0.66239957  1
  Ag  Ag23  1  -0.00132160  0.66595604  0.66487471  1
  Ag  Ag24  1  0.82982791  0.00086481  0.16110892  1
  Ag  Ag25  1  0.00438604  0.32813361  0.34389111  1
  Ag  Ag26  1  0.33159096  0.17682241  0.51006458  1
  Ag  Ag27  1  0.16195678  0.83229029  0.33464952  1
  Ag  Ag28  1  0.16560562  0.33122300  0.50381035  1
  Ag  Ag29  1  0.33084317  0.66319847  0.34006972  1
  Ag  Ag30  1  0.16364461  0.16912698  -0.00820170  1
  Ag  Ag31  1  -0.00506421  0.48637603  0.50023602  1
  Ag  Ag32  1  0.66928992  0.49917767  0.82464721  1
  Ag  Ag33  1  0.84819478  0.33485153  0.50273207  1
  Ag  Ag34  1  0.16305155  0.32689501  0.82732430  1
  Ag  Ag35  1  0.83412066  0.17106459  -0.00031000  1
  Ag  Ag36  1  0.15970743  0.32961223  0.16831221  1
  Ag  Ag37  1  0.50503264  0.84413593  -0.00684332  1
  Ag  Ag38  1  0.51201428  0.83678106  0.67013712  1
  Ag  Ag39  1  0.48273438  0.33161802  0.50316014  1
  Ag  Ag40  1  0.67152416  0.32609222  -0.00679725  1
  Ag  Ag41  1  0.00392860  0.17209194  0.16198659  1
  Ag  Ag42  1  0.83121068  0.66032318  0.50385995  1
  Ag  Ag43  1  0.66977953  0.17806921  0.50560964  1
  Ag  Ag44  1  0.83002470  0.49123456  0.00173028  1
  Ag  Ag45  1  0.33232053  0.48822257  0.50303342  1
  Ag  Ag46  1  0.66794721  0.33121371  0.65819144  1
  Ag  Ag47  1  0.66493323  0.00477064  -0.00895538  1
  Ag  Ag48  1  0.16821425  0.66329328  0.82971811  1
  Ag  Ag49  1  0.33181163  0.66714979  0.66515874  1
  Ag  Ag50  1  0.32366604  0.33247106  0.34839736  1
  Ag  Ag51  1  0.50478165  0.16269472  -0.00055493  1
  Ag  Ag52  1  0.66545462  0.84098537  0.82538408  1
  Ag  Ag53  1  0.33562676  0.00999957  0.66763676  1
  Sb  Sb54  1  0.49917648  0.32606864  0.82851672  1
  Sb  Sb55  1  0.16577043  0.49079973  0.66655781  1
  Sb  Sb56  1  0.83597859  0.32873908  0.83077170  1
  Sb  Sb57  1  0.16450753  0.16877456  0.33620744  1
  Sb  Sb58  1  0.33705616  0.49700751  0.82771219  1
  Sb  Sb59  1  0.16248857  0.00852673  0.16743389  1
  Sb  Sb60  1  0.50375077  0.83506085  0.33584773  1
  Sb  Sb61  1  0.67252989  -0.00097592  0.33464616  1
  Sb  Sb62  1  -0.00431904  0.49321674  0.82931987  1
  Sb  Sb63  1  0.49824855  0.32773639  0.16905519  1
  Sb  Sb64  1  0.83432060  0.66931031  0.82700280  1
  Sb  Sb65  1  0.00246952  0.66422564  0.33854319  1
  Sb  Sb66  1  0.50578855  0.49604009  -0.00042033  1
  Sb  Sb67  1  0.83222528  0.00249915  0.50379929  1
  Sb  Sb68  1  0.16559805  0.00568162  0.83213674  1
  Sb  Sb69  1  0.34222198  0.00354584  -0.00551448  1
  Sb  Sb70  1  0.49874650  0.16638246  0.33225174  1
  Sb  Sb71  1  -0.00555188  0.83530834  0.50106369  1
  Sb  Sb72  1  0.50097645  0.67188183  0.16504716  1
  Sb  Sb73  1  0.00327331  0.65857485  -0.00548078  1
  Sb  Sb74  1  0.16517563  0.83706537  0.66388349  1
  Sb  Sb75  1  0.66795176  0.16402232  0.83079787  1
  Sb  Sb76  1  0.32811324  0.00442980  0.33680106  1
  Sb  Sb77  1  0.83949745  0.32952097  0.16667823  1
  Sb  Sb78  1  0.16444951  0.66153324  0.50557529  1
  Sb  Sb79  1  0.66424769  0.66763482  -0.00598280  1
  Sb  Sb80  1  0.66493205  0.66781001  0.34035897  1
  Sb  Sb81  1  0.33255978  0.33139340  -0.00405120  1
  Sb  Sb82  1  0.33785879  0.83899103  0.16684000  1
  Sb  Sb83  1  0.16746632  0.66120421  0.16435160  1
  Sb  Sb84  1  0.83467690  0.50090570  0.33367832  1
  Sb  Sb85  1  -0.00498466  0.83863170  0.16914998  1
  Sb  Sb86  1  0.49989537  0.49842230  0.33522093  1
  Sb  Sb87  1  0.83174750  0.50144597  0.66635214  1
  Sb  Sb88  1  0.33835597  0.83801639  0.83130583  1
  Sb  Sb89  1  0.50266177  0.50026692  0.66557853  1
  Sb  Sb90  1  0.16246621  0.49049952  -0.00134008  1
  Sb  Sb91  1  0.16607599  0.49893073  0.33522730  1
  Sb  Sb92  1  0.49715946  0.16290991  0.67062678  1
  Sb  Sb93  1  0.50290258  0.00522283  0.50426515  1
  Sb  Sb94  1  0.16549079  0.00762489  0.50071789  1
  Sb  Sb95  1  0.82609860  0.83681168  -0.00305634  1
  Sb  Sb96  1  0.67027297  0.33345164  0.33859179  1
  Sb  Sb97  1  0.33831325  0.83314800  0.50209638  1
  Sb  Sb98  1  0.83782987  0.16361881  0.33157957  1
  Sb  Sb99  1  0.33265624  0.49420646  0.16991477  1
  Sb  Sb100  1  0.49861581  0.67277853  0.83141933  1
  Sb  Sb101  1  0.50359495  0.66266995  0.50402427  1
  Sb  Sb102  1  -0.00813428  0.01050220  -0.00326238  1
  Sb  Sb103  1  0.83220563  0.66951602  0.17136043  1
  Sb  Sb104  1  0.66868796  0.16680298  0.16467893  1
  Sb  Sb105  1  0.17226843  0.83743010  0.00186206  1
  Sb  Sb106  1  -0.00516095  0.83866408  0.83079715  1
  Sb  Sb107  1  0.83705845  0.16328874  0.67031978  1
  Te  Te108  1  0.16508692  0.17109217  0.16725838  1
  Te  Te109  1  0.16592554  0.17097364  0.50299633  1
  Te  Te110  1  0.16642530  0.16799307  0.83155698  1
  Te  Te111  1  0.16190255  0.49238813  0.16577442  1
  Te  Te112  1  0.16712472  0.49467368  0.50047620  1
  Te  Te113  1  0.16708680  0.50118025  0.83396252  1
  Te  Te114  1  0.16688905  0.83210429  0.17071508  1
  Te  Te115  1  0.16795686  0.83238325  0.49492697  1
  Te  Te116  1  0.16609990  0.82757477  0.83418682  1
  Te  Te117  1  0.50007400  0.16215543  0.16223203  1
  Te  Te118  1  0.49823188  0.17115277  0.49952161  1
  Te  Te119  1  0.49471600  0.16139215  0.83913367  1
  Te  Te120  1  0.50632785  0.49948374  0.16701186  1
  Te  Te121  1  0.50098939  0.49314296  0.50002964  1
  Te  Te122  1  0.50929445  0.49896891  0.83382543  1
  Te  Te123  1  0.50464944  0.83879703  0.16486319  1
  Te  Te124  1  0.50728378  0.83347762  0.50377727  1
  Te  Te125  1  0.50447302  0.83849875  0.83282801  1
  Te  Te126  1  0.83637911  0.16238073  0.16206817  1
  Te  Te127  1  0.83501592  0.17073452  0.49986356  1
  Te  Te128  1  0.83754913  0.16230121  0.83942038  1
  Te  Te129  1  0.83381178  0.50158906  0.16521938  1
  Te  Te130  1  0.83369141  0.49975730  0.49977921  1
  Te  Te131  1  0.82846307  0.50062486  0.84023548  1
  Te  Te132  1  0.82882319  0.83711311  0.16550739  1
  Te  Te133  1  0.82965533  0.83534103  0.50200575  1
  Te  Te134  1  0.82755590  0.83729946  0.82910337  1
  Te  Te135  1  0.16700605  0.00584613  0.00057254  1
  Te  Te136  1  0.15932565  -0.00736916  0.33370275  1
  Te  Te137  1  0.16466098  0.00436845  0.66671013  1
  Te  Te138  1  0.16575930  0.32780654  -0.00119174  1
  Te  Te139  1  0.16487720  0.33389274  0.33114038  1
  Te  Te140  1  0.16495279  0.32973774  0.66744033  1
  Te  Te141  1  0.17218902  0.66761731  -0.00424279  1
  Te  Te142  1  0.17075926  0.67098704  0.33383538  1
  Te  Te143  1  0.16581486  0.66923897  0.66934896  1
  Te  Te144  1  0.50284955  0.00151546  -0.00188893  1
  Te  Te145  1  0.49780062  -0.00113375  0.32531062  1
  Te  Te146  1  0.50107644  -0.00300281  0.66813902  1
  Te  Te147  1  0.50652418  0.32784807  -0.00026718  1
  Te  Te148  1  0.49299350  0.33240361  0.33831711  1
  Te  Te149  1  0.50340296  0.33309672  0.66293442  1
  Te  Te150  1  0.49448054  0.66876657  -0.00060774  1
  Te  Te151  1  0.48983276  0.66779136  0.33333772  1
  Te  Te152  1  0.50110058  0.67302950  0.66686433  1
  Te  Te153  1  0.82692565  0.00097743  -0.00131826  1
  Te  Te154  1  0.83894511  -0.00393001  0.32987675  1
  Te  Te155  1  0.83292618  -0.00251423  0.66878910  1
  Te  Te156  1  0.83148734  0.33146309  -0.00008123  1
  Te  Te157  1  0.84069088  0.33292039  0.33969595  1
  Te  Te158  1  0.83311297  0.33312399  0.66409966  1
  Te  Te159  1  0.83447729  0.66311300  0.00046659  1
  Te  Te160  1  0.83387863  0.67405023  0.34040584  1
  Te  Te161  1  0.83198395  0.66924078  0.66308042  1
  Te  Te162  1  0.00014789  0.16820781  0.00050818  1
  Te  Te163  1  0.00041446  0.16768350  0.33125419  1
  Te  Te164  1  -0.00053264  0.16756168  0.66749251  1
  Te  Te165  1  -0.00487345  0.49359030  0.00110983  1
  Te  Te166  1  -0.00022430  0.49563922  0.33493560  1
  Te  Te167  1  -0.00091917  0.50033485  0.66182452  1
  Te  Te168  1  0.00206512  0.83113370  0.00063593  1
  Te  Te169  1  -0.00256414  0.83290775  0.33333457  1
  Te  Te170  1  -0.00281773  0.83055390  0.66698287  1
  Te  Te171  1  0.33065025  0.16748648  0.00220473  1
  Te  Te172  1  0.33174806  0.17076207  0.33246431  1
  Te  Te173  1  0.33396308  0.16684516  0.66677880  1
  Te  Te174  1  0.33513314  0.50535554  0.00009532  1
  Te  Te175  1  0.33295866  0.49729866  0.33813203  1
  Te  Te176  1  0.33513900  0.50457997  0.66242462  1
  Te  Te177  1  0.34017103  0.82855253  0.00008841  1
  Te  Te178  1  0.33175376  0.83338813  0.33376202  1
  Te  Te179  1  0.33327592  0.82865501  0.66661982  1
  Te  Te180  1  0.66853631  0.16587732  -0.00062605  1
  Te  Te181  1  0.66741859  0.16582414  0.34412828  1
  Te  Te182  1  0.66638444  0.17103699  0.66475714  1
  Te  Te183  1  0.66927923  0.50031934  0.00190674  1
  Te  Te184  1  0.66752271  0.50192996  0.33371615  1
  Te  Te185  1  0.66701002  0.48999486  0.66532660  1
  Te  Te186  1  0.66284972  0.83478362  0.00305967  1
  Te  Te187  1  0.67127328  0.83237067  0.32526949  1
  Te  Te188  1  0.66801935  0.83608210  0.66912567  1
  Te  Te189  1  -0.00482009  0.00473125  0.16781296  1
  Te  Te190  1  -0.00117829  0.00437053  0.50172240  1
  Te  Te191  1  -0.00313045  0.00533501  0.82879498  1
  Te  Te192  1  -0.00061892  0.33278284  0.16126030  1
  Te  Te193  1  0.00511890  0.33171377  0.50104096  1
  Te  Te194  1  0.00270753  0.33075732  0.83643095  1
  Te  Te195  1  0.00067871  0.65941692  0.16619637  1
  Te  Te196  1  -0.00374187  0.66642920  0.50463163  1
  Te  Te197  1  0.00379907  0.66513136  0.82678058  1
  Te  Te198  1  0.33272937  0.00674139  0.16699660  1
  Te  Te199  1  0.33425784  0.00416923  0.50579571  1
  Te  Te200  1  0.33362028  0.00485438  0.82727802  1
  Te  Te201  1  0.32999731  0.32987239  0.16496881  1
  Te  Te202  1  0.32640878  0.33238618  0.50393528  1
  Te  Te203  1  0.32991201  0.33024995  0.82748553  1
  Te  Te204  1  0.33303269  0.66534381  0.17138898  1
  Te  Te205  1  0.33311544  0.66570088  0.50166816  1
  Te  Te206  1  0.33150917  0.66534651  0.82991029  1
  Te  Te207  1  0.66867808  0.00068375  0.16820280  1
  Te  Te208  1  0.66624463  -0.00405019  0.50437276  1
  Te  Te209  1  0.66661279  0.00159962  0.83201301  1
  Te  Te210  1  0.66763824  0.33646465  0.16873661  1
  Te  Te211  1  0.67094170  0.33493276  0.49783379  1
  Te  Te212  1  0.66704581  0.33395816  0.83553183  1
  Te  Te213  1  0.66643818  0.66355736  0.16695990  1
  Te  Te214  1  0.66993497  0.66642871  0.50451725  1
  Te  Te215  1  0.66662887  0.66543618  0.82658726  1
