# generated using pymatgen
data_AgSbTe2
_symmetry_space_group_name_H-M   'P 1'
_cell_length_a   18.32191903
_cell_length_b   18.31902607
_cell_length_c   18.32283203
_cell_angle_alpha   90.00353259
_cell_angle_beta   90.00171551
_cell_angle_gamma   90.00185416
_symmetry_Int_Tables_number   1
_chemical_formula_structural   AgSbTe2
_chemical_formula_sum   'Ag54 Sb54 Te108'
_cell_volume   6149.87005519
_cell_formula_units_Z   54
loop_
 _symmetry_equiv_pos_site_id
 _symmetry_equiv_pos_as_xyz
  1  'x, y, z'
loop_
 _atom_site_type_symbol
 _atom_site_label
 _atom_site_symmetry_multiplicity
 _atom_site_fract_x
 _atom_site_fract_y
 _atom_site_fract_z
 _atom_site_occupancy
  Ag  Ag0  1  0.16229145  0.83104437  0.33611158  1
  Ag  Ag1  1  0.33336116  0.16902500  0.83427234  1
  Ag  Ag2  1  0.33218822  0.34683324  0.00539486  1
  Ag  Ag3  1  0.83359288  0.83566178  0.66273985  1
  Ag  Ag4  1  -0.00611941  0.15881643  0.49948682  1
  Ag  Ag5  1  0.33574465  -0.00088472  0.34200525  1
  Ag  Ag6  1  0.66119541  0.49596725  0.50855246  1
  Ag  Ag7  1  0.82995779  -0.00070950  0.82125447  1
  Ag  Ag8  1  0.82826913  0.16768773  0.00246224  1
  Ag  Ag9  1  0.33579755  0.50260211  0.83744633  1
  Ag  Ag10  1  0.16741634  0.66977602  0.16486757  1
  Ag  Ag11  1  0.49729967  0.50231134  0.33373213  1
  Ag  Ag12  1  0.50392116  0.50768160  0.66039501  1
  Ag  Ag13  1  0.84375271  0.83486761  0.34463062  1
  Ag  Ag14  1  0.33859433  0.50598773  0.50103166  1
  Ag  Ag15  1  0.82609104  0.50445835  0.66624316  1
  Ag  Ag16  1  0.49089604  0.66209359  0.16575690  1
  Ag  Ag17  1  0.50352850  0.16922076  0.00234793  1
  Ag  Ag18  1  0.82853176  0.00108010  0.50351296  1
  Ag  Ag19  1  0.16490520  0.83041843  0.65938713  1
  Ag  Ag20  1  0.16889955  0.66972514  0.83059742  1
  Ag  Ag21  1  0.32893434  0.66358429  -0.00129743  1
  Ag  Ag22  1  0.16933573  0.33550230  0.17140739  1
  Ag  Ag23  1  0.16478067  0.33809608  0.49926183  1
  Ag  Ag24  1  0.66399300  -0.00079116  0.34559058  1
  Ag  Ag25  1  0.67278573  0.16023206  0.49999237  1
  Ag  Ag26  1  0.00395072  0.67176962  0.33742875  1
  Ag  Ag27  1  0.33805775  0.50278543  0.16379133  1
  Ag  Ag28  1  0.50205259  0.82898831  0.66360179  1
  Ag  Ag29  1  0.16624956  -0.01252902  0.16793866  1
  Ag  Ag30  1  0.50842135  -0.00169327  0.50238933  1
  Ag  Ag31  1  0.83645334  0.32843256  0.50360788  1
  Ag  Ag32  1  0.32935902  0.66974294  0.66533885  1
  Ag  Ag33  1  0.01152386  0.66857312  0.00160842  1
  Ag  Ag34  1  0.00527369  0.83356099  0.17485262  1
  Ag  Ag35  1  0.16644606  0.82801174  0.00577596  1
  Ag  Ag36  1  0.66866260  0.83567624  0.82460849  1
  Ag  Ag37  1  0.00501042  0.83378610  0.50128689  1
  Ag  Ag38  1  0.33509488  -0.01323644  0.65954829  1
  Ag  Ag39  1  0.66816728  0.00247889  0.00075402  1
  Ag  Ag40  1  -0.00860322  -0.01004626  0.66113691  1
  Ag  Ag41  1  0.67213299  -0.00535930  0.66309873  1
  Ag  Ag42  1  -0.00431140  0.33531792  0.65999025  1
  Ag  Ag43  1  0.66925097  0.16659578  0.16574079  1
  Ag  Ag44  1  0.33047355  0.33887830  0.33186188  1
  Ag  Ag45  1  0.49762743  0.49963485  0.00380596  1
  Ag  Ag46  1  -0.00006255  0.16098061  0.17104005  1
  Ag  Ag47  1  0.00671104  0.67191827  0.66285513  1
  Ag  Ag48  1  0.66483212  0.67033559  0.66518212  1
  Ag  Ag49  1  0.67294192  0.34274782  0.66037070  1
  Ag  Ag50  1  0.65700422  0.49878880  0.16850187  1
  Ag  Ag51  1  0.32490201  0.82881851  0.50374677  1
  Ag  Ag52  1  0.82598086  0.49752432  -0.00434461  1
  Ag  Ag53  1  0.16677080  0.67157900  0.50201308  1
  Sb  Sb54  1  0.16961571  0.33955964  0.83101633  1
  Sb  Sb55  1  0.82785998  0.50475466  0.33848540  1
  Sb  Sb56  1  0.66185249  0.50515415  0.82912283  1
  Sb  Sb57  1  0.67095505  0.83351163  0.16585422  1
  Sb  Sb58  1  0.50314825  -0.00091109  0.82624820  1
  Sb  Sb59  1  0.83708095  0.66584313  0.16546618  1
  Sb  Sb60  1  0.16573756  -0.00604118  0.49750689  1
  Sb  Sb61  1  0.49375889  0.66540023  0.83231331  1
  Sb  Sb62  1  0.16725414  0.16278231  0.00226069  1
  Sb  Sb63  1  -0.00391532  -0.00478856  -0.00126608  1
  Sb  Sb64  1  0.00308139  0.50375220  0.16560898  1
  Sb  Sb65  1  0.83306263  0.32980208  0.82703539  1
  Sb  Sb66  1  0.00296972  0.50338313  0.83143337  1
  Sb  Sb67  1  0.66386980  0.33144409  -0.00219936  1
  Sb  Sb68  1  0.83591297  0.00022355  0.16980973  1
  Sb  Sb69  1  0.16650854  0.16062551  0.33384032  1
  Sb  Sb70  1  0.49550819  0.66769135  0.50093971  1
  Sb  Sb71  1  0.17214090  0.50546952  0.33401156  1
  Sb  Sb72  1  0.83769875  0.83291854  -0.00290278  1
  Sb  Sb73  1  0.66346453  0.33179671  0.33707939  1
  Sb  Sb74  1  0.33276627  0.33940277  0.66485544  1
  Sb  Sb75  1  0.00196498  0.16464189  0.83077087  1
  Sb  Sb76  1  0.17006104  0.50878839  0.66433243  1
  Sb  Sb77  1  0.33252465  0.16498436  0.50327438  1
  Sb  Sb78  1  0.50140853  0.16499169  0.66765521  1
  Sb  Sb79  1  0.50011082  0.33371056  0.50078800  1
  Sb  Sb80  1  -0.00203795  0.83241360  0.82493713  1
  Sb  Sb81  1  0.49911923  0.33335718  0.83335983  1
  Sb  Sb82  1  0.33396042  0.83045290  0.82454650  1
  Sb  Sb83  1  0.66930087  0.83497266  0.50536935  1
  Sb  Sb84  1  0.00045087  0.50331505  0.50297235  1
  Sb  Sb85  1  0.66447619  0.66775955  -0.00356585  1
  Sb  Sb86  1  0.33625877  -0.00342895  -0.00110446  1
  Sb  Sb87  1  0.66936215  0.66959462  0.33829141  1
  Sb  Sb88  1  0.66509977  0.16048059  0.83250013  1
  Sb  Sb89  1  0.49579167  0.34085794  0.16638230  1
  Sb  Sb90  1  0.49782098  -0.00437466  0.17057494  1
  Sb  Sb91  1  0.83770396  0.33336541  0.17143718  1
  Sb  Sb92  1  0.49744801  0.83036985  0.34018366  1
  Sb  Sb93  1  0.16610491  0.16080207  0.66401097  1
  Sb  Sb94  1  0.33348168  0.17081832  0.16326384  1
  Sb  Sb95  1  0.50067154  0.16917819  0.32994835  1
  Sb  Sb96  1  0.17243797  0.50779269  0.00154294  1
  Sb  Sb97  1  0.83726042  0.66949765  0.82944812  1
  Sb  Sb98  1  0.83258434  0.16248125  0.66623486  1
  Sb  Sb99  1  -0.00009509  -0.00718113  0.33780318  1
  Sb  Sb100  1  0.00378852  0.33677009  -0.00134705  1
  Sb  Sb101  1  0.16448788  -0.00668503  0.83344822  1
  Sb  Sb102  1  0.49694780  0.83102601  -0.00387353  1
  Sb  Sb103  1  0.83279193  0.16137532  0.33443898  1
  Sb  Sb104  1  0.32631126  0.82831878  0.17283220  1
  Sb  Sb105  1  0.32859978  0.66625142  0.33511232  1
  Sb  Sb106  1  0.83856643  0.66973948  0.50468770  1
  Sb  Sb107  1  0.00646891  0.33673683  0.33839856  1
  Te  Te108  1  0.16334576  0.17099272  0.16706199  1
  Te  Te109  1  0.16087151  0.17431850  0.49950863  1
  Te  Te110  1  0.17195924  0.16602855  0.83386059  1
  Te  Te111  1  0.17129345  0.49925507  0.16775349  1
  Te  Te112  1  0.17125272  0.49894387  0.49926718  1
  Te  Te113  1  0.17444215  0.50740069  0.83286780  1
  Te  Te114  1  0.16488015  0.83054102  0.16852956  1
  Te  Te115  1  0.16533520  0.83325668  0.49986794  1
  Te  Te116  1  0.16640946  0.82821801  0.83385222  1
  Te  Te117  1  0.50533546  0.16446491  0.16210602  1
  Te  Te118  1  0.50435881  0.16113362  0.49939837  1
  Te  Te119  1  0.49499013  0.16616899  0.84046094  1
  Te  Te120  1  0.49935482  0.50216175  0.16478845  1
  Te  Te121  1  0.50003878  0.50036382  0.50105320  1
  Te  Te122  1  0.49446471  0.49991873  0.83694677  1
  Te  Te123  1  0.50066383  0.82564400  0.16663479  1
  Te  Te124  1  0.49389687  0.83620426  0.50475986  1
  Te  Te125  1  0.50608152  0.83210108  0.82612975  1
  Te  Te126  1  0.83276603  0.16740688  0.16413003  1
  Te  Te127  1  0.83367262  0.16558936  0.50002158  1
  Te  Te128  1  0.83399549  0.16162775  0.84174203  1
  Te  Te129  1  0.82830414  0.49822350  0.16538608  1
  Te  Te130  1  0.82795492  0.49813446  0.50432973  1
  Te  Te131  1  0.83151711  0.49854163  0.83196210  1
  Te  Te132  1  0.84049702  0.83305038  0.16836172  1
  Te  Te133  1  0.83647180  0.83559390  0.50191604  1
  Te  Te134  1  0.82989340  0.83830244  0.82896848  1
  Te  Te135  1  0.16596761  -0.00733181  0.00407716  1
  Te  Te136  1  0.17020318  -0.00567285  0.32904135  1
  Te  Te137  1  0.17021042  -0.00712516  0.66783084  1
  Te  Te138  1  0.17122747  0.33226505  0.00105624  1
  Te  Te139  1  0.17141414  0.33378471  0.33388684  1
  Te  Te140  1  0.16353247  0.33350832  0.66297119  1
  Te  Te141  1  0.16831510  0.66803459  0.00367505  1
  Te  Te142  1  0.16355687  0.67096474  0.33438393  1
  Te  Te143  1  0.16726022  0.66951262  0.66339457  1
  Te  Te144  1  0.50497550  0.00024372  0.00139139  1
  Te  Te145  1  0.49911924  -0.00061853  0.33797676  1
  Te  Te146  1  0.49685786  -0.00154140  0.66231412  1
  Te  Te147  1  0.49553358  0.33380120  0.00008663  1
  Te  Te148  1  0.49285164  0.33979502  0.33340914  1
  Te  Te149  1  0.50357177  0.33894412  0.66615579  1
  Te  Te150  1  0.49624418  0.66360820  0.00339933  1
  Te  Te151  1  0.50130225  0.66248992  0.32832663  1
  Te  Te152  1  0.49855182  0.66737518  0.66622591  1
  Te  Te153  1  0.82908282  0.00196433  0.00107170  1
  Te  Te154  1  0.82942795  -0.00506328  0.33856728  1
  Te  Te155  1  0.83297213  -0.00097132  0.66427279  1
  Te  Te156  1  0.83395836  0.33488631  0.00029107  1
  Te  Te157  1  0.83443278  0.33474447  0.34243075  1
  Te  Te158  1  0.83262828  0.33338174  0.66311094  1
  Te  Te159  1  0.83389131  0.66121562  -0.00292727  1
  Te  Te160  1  0.83834093  0.67401580  0.33457645  1
  Te  Te161  1  0.83334546  0.66715917  0.66744871  1
  Te  Te162  1  -0.00316318  0.16704030  0.00306448  1
  Te  Te163  1  -0.00101464  0.16746486  0.33315031  1
  Te  Te164  1  -0.00014189  0.16871276  0.66224762  1
  Te  Te165  1  -0.00743831  0.50421472  -0.00071888  1
  Te  Te166  1  -0.00252265  0.50946725  0.33300466  1
  Te  Te167  1  -0.00586660  0.50152210  0.66705336  1
  Te  Te168  1  0.00350359  0.82934704  0.00303831  1
  Te  Te169  1  0.00117623  0.83265605  0.33517943  1
  Te  Te170  1  -0.00072603  0.83192920  0.66374899  1
  Te  Te171  1  0.33645421  0.16449388  -0.00407839  1
  Te  Te172  1  0.33425371  0.16357502  0.33309716  1
  Te  Te173  1  0.33424346  0.16777344  0.67258800  1
  Te  Te174  1  0.33495235  0.50298991  0.00186772  1
  Te  Te175  1  0.33659794  0.50002459  0.33586609  1
  Te  Te176  1  0.33668800  0.50278698  0.66199370  1
  Te  Te177  1  0.32940962  0.82737170  -0.00072929  1
  Te  Te178  1  0.33048817  0.83722746  0.34013256  1
  Te  Te179  1  0.33308864  0.83068774  0.66471132  1
  Te  Te180  1  0.66608043  0.16616850  0.00063750  1
  Te  Te181  1  0.66655102  0.16188141  0.33341910  1
  Te  Te182  1  0.66540093  0.16102755  0.66232753  1
  Te  Te183  1  0.66415864  0.49929090  0.00044659  1
  Te  Te184  1  0.66112808  0.50067836  0.33033411  1
  Te  Te185  1  0.66555182  0.50268462  0.66728597  1
  Te  Te186  1  0.66714538  0.83797501  -0.00343872  1
  Te  Te187  1  0.66718950  0.83857649  0.33307565  1
  Te  Te188  1  0.66752842  0.83291742  0.66429969  1
  Te  Te189  1  0.00402675  0.00043245  0.16737911  1
  Te  Te190  1  -0.00031143  0.00062715  0.50223994  1
  Te  Te191  1  -0.00557444  0.00069581  0.82569035  1
  Te  Te192  1  0.00656726  0.33082940  0.16780662  1
  Te  Te193  1  0.00072315  0.33573090  0.50150347  1
  Te  Te194  1  0.00192054  0.33342505  0.82431911  1
  Te  Te195  1  0.00428540  0.66867431  0.16376051  1
  Te  Te196  1  0.00462109  0.66977901  0.50222510  1
  Te  Te197  1  0.00721603  0.66705288  0.83413378  1
  Te  Te198  1  0.32883931  0.00075946  0.16880518  1
  Te  Te199  1  0.33140824  0.00122552  0.50125202  1
  Te  Te200  1  0.33344126  0.00194719  0.82963075  1
  Te  Te201  1  0.32974545  0.33604571  0.16664828  1
  Te  Te202  1  0.32993247  0.33287120  0.49630110  1
  Te  Te203  1  0.33226427  0.33646390  0.83782393  1
  Te  Te204  1  0.33037102  0.66339561  0.16883182  1
  Te  Te205  1  0.33015258  0.66639895  0.50171275  1
  Te  Te206  1  0.32973934  0.66468224  0.83123000  1
  Te  Te207  1  0.66602011  0.00212346  0.16322440  1
  Te  Te208  1  0.66785568  -0.00137119  0.50185139  1
  Te  Te209  1  0.66945416  -0.00268689  0.82947515  1
  Te  Te210  1  0.66845887  0.33190142  0.16761564  1
  Te  Te211  1  0.66760339  0.33399279  0.50145252  1
  Te  Te212  1  0.66695143  0.33168544  0.82336065  1
  Te  Te213  1  0.66635964  0.66291574  0.16623937  1
  Te  Te214  1  0.66561001  0.66042457  0.50462680  1
  Te  Te215  1  0.66689606  0.67323739  0.82725600  1
