# generated using pymatgen
data_AgSbTe2
_symmetry_space_group_name_H-M   'P 1'
_cell_length_a   18.33530653
_cell_length_b   18.33350216
_cell_length_c   18.32873268
_cell_angle_alpha   90.00139309
_cell_angle_beta   90.00115496
_cell_angle_gamma   90.00179123
_symmetry_Int_Tables_number   1
_chemical_formula_structural   AgSbTe2
_chemical_formula_sum   'Ag54 Sb54 Te108'
_cell_volume   6161.21048443
_cell_formula_units_Z   54
loop_
 _symmetry_equiv_pos_site_id
 _symmetry_equiv_pos_as_xyz
  1  'x, y, z'
loop_
 _atom_site_type_symbol
 _atom_site_label
 _atom_site_symmetry_multiplicity
 _atom_site_fract_x
 _atom_site_fract_y
 _atom_site_fract_z
 _atom_site_occupancy
  Ag  Ag0  1  -0.00178828  0.16635158  0.83402313  1
  Ag  Ag1  1  0.49605783  0.50151714  0.66240722  1
  Ag  Ag2  1  0.65819986  0.00029990  0.66932749  1
  Ag  Ag3  1  -0.00210071  0.17230842  0.50537770  1
  Ag  Ag4  1  0.82985196  0.83810766  0.32393478  1
  Ag  Ag5  1  0.65859447  0.49906562  0.84146784  1
  Ag  Ag6  1  0.65831960  0.49385036  0.50157409  1
  Ag  Ag7  1  0.66182135  0.65473852  0.00373318  1
  Ag  Ag8  1  0.66972476  0.17531055  0.16472158  1
  Ag  Ag9  1  0.33645071  0.00533604  -0.00292649  1
  Ag  Ag10  1  0.34238862  0.49359152  0.51037043  1
  Ag  Ag11  1  0.66298072  0.17427518  0.49554290  1
  Ag  Ag12  1  0.34291775  0.33499062  -0.00121483  1
  Ag  Ag13  1  0.49743551  0.33427482  0.83927398  1
  Ag  Ag14  1  0.83076037  -0.00354162  0.15964285  1
  Ag  Ag15  1  0.49862711  0.00214887  0.51031273  1
  Ag  Ag16  1  0.66338794  0.66701479  0.32022974  1
  Ag  Ag17  1  0.18044506  0.49418960  -0.00413753  1
  Ag  Ag18  1  0.49633665  0.83632684  0.66439800  1
  Ag  Ag19  1  0.17643466  0.83053360  0.66648363  1
  Ag  Ag20  1  0.82538128  0.33485705  0.16348296  1
  Ag  Ag21  1  0.34143311  0.49650897  0.83505767  1
  Ag  Ag22  1  0.49971834  0.65732742  0.50045400  1
  Ag  Ag23  1  0.82714495  0.16871439  0.00542206  1
  Ag  Ag24  1  0.17573373  0.33346114  0.50800916  1
  Ag  Ag25  1  0.34306543  0.17345689  0.50066731  1
  Ag  Ag26  1  0.17331131  0.33591693  0.83304519  1
  Ag  Ag27  1  -0.00731663  0.84009570  0.83613352  1
  Ag  Ag28  1  0.50249748  0.83303777  0.33769560  1
  Ag  Ag29  1  0.66699905  0.83522724  0.83442693  1
  Ag  Ag30  1  0.50632317  0.34021167  0.15564904  1
  Ag  Ag31  1  0.34093429  0.65353862  -0.00128835  1
  Ag  Ag32  1  0.50662726  0.65847066  0.16593785  1
  Ag  Ag33  1  0.83174495  0.83509975  0.00586054  1
  Ag  Ag34  1  0.66471578  0.49656596  0.15929467  1
  Ag  Ag35  1  0.17334087  0.17659202  -0.00154023  1
  Ag  Ag36  1  0.17829186  0.49800606  0.67334325  1
  Ag  Ag37  1  0.34488536  0.49998032  0.15414679  1
  Ag  Ag38  1  0.50115154  0.33599356  0.50200907  1
  Ag  Ag39  1  0.34126151  -0.00559439  0.66795794  1
  Ag  Ag40  1  0.82486289  0.66297816  0.16390523  1
  Ag  Ag41  1  0.83076897  0.16364006  0.32448201  1
  Ag  Ag42  1  -0.00889448  0.82917065  0.16354121  1
  Ag  Ag43  1  0.82314009  0.33012044  0.49525356  1
  Ag  Ag44  1  0.50215836  0.17016927  -0.00003802  1
  Ag  Ag45  1  0.17043188  0.83433287  0.33701178  1
  Ag  Ag46  1  0.66153627  0.33562300  0.00370559  1
  Ag  Ag47  1  0.33862929  0.65999403  0.66949314  1
  Ag  Ag48  1  0.00298560  0.33360405  0.66602778  1
  Ag  Ag49  1  0.82498075  -0.00081630  0.83950730  1
  Ag  Ag50  1  0.33706808  -0.00072854  0.33690656  1
  Ag  Ag51  1  -0.01495131  0.50109748  0.16168616  1
  Ag  Ag52  1  0.50349017  0.00322135  0.82709836  1
  Ag  Ag53  1  0.82146471  0.49727479  0.00339769  1
  Sb  Sb54  1  0.66802380  0.16773580  0.83576513  1
  Sb  Sb55  1  0.50515819  0.83617925  -0.00221064  1
  Sb  Sb56  1  -0.00060928  0.49323915  0.49799753  1
  Sb  Sb57  1  0.16442689  -0.00105319  0.16544300  1
  Sb  Sb58  1  0.50085784  0.49320015  -0.00451845  1
  Sb  Sb59  1  0.66364168  -0.00361311  0.33477130  1
  Sb  Sb60  1  0.16385329  0.83124534  -0.00230365  1
  Sb  Sb61  1  0.66332145  0.83289270  0.50266269  1
  Sb  Sb62  1  0.33292285  0.33693478  0.66974269  1
  Sb  Sb63  1  0.33573637  0.33094700  0.33300462  1
  Sb  Sb64  1  0.34095482  0.66975720  0.33275603  1
  Sb  Sb65  1  -0.00103334  0.00072296  -0.00077713  1
  Sb  Sb66  1  0.49873482  0.16675792  0.66775833  1
  Sb  Sb67  1  0.82936904  0.49750591  0.32440449  1
  Sb  Sb68  1  0.16843152  0.66123570  0.83465404  1
  Sb  Sb69  1  -0.00239286  0.33255826  0.33611120  1
  Sb  Sb70  1  0.65996081  0.66828878  0.66963189  1
  Sb  Sb71  1  0.33941597  0.17084619  0.16583231  1
  Sb  Sb72  1  0.16393345  0.16399297  0.33180205  1
  Sb  Sb73  1  0.16933781  0.50313237  0.33265444  1
  Sb  Sb74  1  -0.00678935  0.66856727  0.33102596  1
  Sb  Sb75  1  0.33670714  0.83373545  0.50135981  1
  Sb  Sb76  1  0.83002863  0.83442322  0.66904014  1
  Sb  Sb77  1  0.33255978  0.17060794  0.83252972  1
  Sb  Sb78  1  0.33614030  0.83109644  0.83141973  1
  Sb  Sb79  1  0.49985351  0.66326857  0.83497748  1
  Sb  Sb80  1  0.50505012  0.16187551  0.33354379  1
  Sb  Sb81  1  0.17013922  0.00397887  0.83324109  1
  Sb  Sb82  1  0.82991720  0.49855399  0.67154619  1
  Sb  Sb83  1  -0.00008066  0.49731126  0.83807435  1
  Sb  Sb84  1  0.33324435  0.82984607  0.16605168  1
  Sb  Sb85  1  0.50181933  0.50518492  0.33598737  1
  Sb  Sb86  1  0.17540212  0.00556056  0.50196768  1
  Sb  Sb87  1  0.00036698  0.83963003  0.50056236  1
  Sb  Sb88  1  0.16819303  0.33563597  0.16292221  1
  Sb  Sb89  1  0.66526743  0.33694392  0.32844832  1
  Sb  Sb90  1  0.82931658  0.67170438  0.84139227  1
  Sb  Sb91  1  0.50470025  0.00041272  0.16473009  1
  Sb  Sb92  1  0.82148589  0.65994379  0.49100101  1
  Sb  Sb93  1  -0.00111890  0.33358045  -0.00291820  1
  Sb  Sb94  1  0.82634971  0.00665257  0.49979581  1
  Sb  Sb95  1  0.16884982  0.66480448  0.16620456  1
  Sb  Sb96  1  0.66646644  0.33105505  0.66709625  1
  Sb  Sb97  1  0.83114211  0.32992102  0.83786534  1
  Sb  Sb98  1  0.17651546  0.66130906  0.50128662  1
  Sb  Sb99  1  0.83327204  0.16755934  0.66750836  1
  Sb  Sb100  1  0.00048504  -0.00002902  0.33285278  1
  Sb  Sb101  1  0.67141419  0.82885539  0.16164424  1
  Sb  Sb102  1  -0.00361106  0.66551773  0.00128407  1
  Sb  Sb103  1  0.00188664  0.00299356  0.66860214  1
  Sb  Sb104  1  -0.00896892  0.16906478  0.16365256  1
  Sb  Sb105  1  0.16875018  0.17078948  0.66966545  1
  Sb  Sb106  1  0.66654675  0.00321170  -0.00284101  1
  Sb  Sb107  1  0.00735964  0.66317373  0.66726286  1
  Te  Te108  1  0.16439709  0.16700581  0.16009085  1
  Te  Te109  1  0.16369398  0.17257977  0.49896818  1
  Te  Te110  1  0.16310806  0.17175080  0.83740247  1
  Te  Te111  1  0.17228358  0.49988020  0.16253162  1
  Te  Te112  1  0.16776916  0.49409184  0.50222169  1
  Te  Te113  1  0.16509211  0.49533427  0.83379314  1
  Te  Te114  1  0.15894278  0.83240238  0.16883587  1
  Te  Te115  1  0.16576801  0.83320900  0.50132193  1
  Te  Te116  1  0.16359969  0.83412841  0.82935829  1
  Te  Te117  1  0.50610348  0.16967245  0.16432478  1
  Te  Te118  1  0.50080584  0.16619729  0.49897892  1
  Te  Te119  1  0.50000659  0.16944054  0.83759279  1
  Te  Te120  1  0.50320601  0.49912201  0.17109978  1
  Te  Te121  1  0.49914020  0.49952855  0.50034787  1
  Te  Te122  1  0.49995564  0.49748337  0.82801030  1
  Te  Te123  1  0.50095552  0.83176124  0.17000389  1
  Te  Te124  1  0.50033705  0.83791294  0.50251587  1
  Te  Te125  1  0.50324573  0.83695752  0.82950878  1
  Te  Te126  1  0.83171598  0.17041291  0.16545426  1
  Te  Te127  1  0.83097142  0.16981193  0.50082425  1
  Te  Te128  1  0.83597098  0.16244178  0.83766292  1
  Te  Te129  1  0.82693444  0.49816866  0.16394494  1
  Te  Te130  1  0.83071547  0.49267653  0.50041622  1
  Te  Te131  1  0.83031843  0.50075302  0.83996927  1
  Te  Te132  1  0.83215384  0.83490234  0.16601052  1
  Te  Te133  1  0.83302019  0.83232593  0.49484778  1
  Te  Te134  1  0.83084385  0.83789764  0.83444285  1
  Te  Te135  1  0.17393519  0.00189984  -0.00014331  1
  Te  Te136  1  0.17250731  -0.00542653  0.33347962  1
  Te  Te137  1  0.17059838  -0.00741003  0.66681521  1
  Te  Te138  1  0.16595612  0.33457809  -0.00236736  1
  Te  Te139  1  0.16665586  0.33322781  0.34019978  1
  Te  Te140  1  0.16582699  0.33604983  0.66894311  1
  Te  Te141  1  0.17582723  0.66165120  0.00037571  1
  Te  Te142  1  0.16683514  0.67530989  0.33463593  1
  Te  Te143  1  0.17475345  0.66575219  0.66728061  1
  Te  Te144  1  0.49731646  0.00430041  -0.00252848  1
  Te  Te145  1  0.49634930  -0.00585001  0.33272268  1
  Te  Te146  1  0.49890610  0.00196277  0.66889395  1
  Te  Te147  1  0.50117372  0.33005753  -0.00019079  1
  Te  Te148  1  0.49955945  0.32970533  0.34035008  1
  Te  Te149  1  0.50043764  0.33659432  0.66481001  1
  Te  Te150  1  0.50040412  0.67116997  0.00293391  1
  Te  Te151  1  0.50341134  0.67292819  0.33354733  1
  Te  Te152  1  0.49649216  0.66755797  0.66674156  1
  Te  Te153  1  0.83344324  -0.00003973  -0.00058106  1
  Te  Te154  1  0.83255934  -0.00043661  0.33231874  1
  Te  Te155  1  0.83064680  -0.00066992  0.67132224  1
  Te  Te156  1  0.83159624  0.33306760  0.00218927  1
  Te  Te157  1  0.83174651  0.32782255  0.33303737  1
  Te  Te158  1  0.83901704  0.33470217  0.66285401  1
  Te  Te159  1  0.83002926  0.66494322  0.00481505  1
  Te  Te160  1  0.82660702  0.67127482  0.32645821  1
  Te  Te161  1  0.83511999  0.66645304  0.66261122  1
  Te  Te162  1  -0.00151365  0.16643205  -0.00386507  1
  Te  Te163  1  -0.00572298  0.16562708  0.33677004  1
  Te  Te164  1  0.00143954  0.17052938  0.66839596  1
  Te  Te165  1  0.00001407  0.50082472  0.00398733  1
  Te  Te166  1  0.00054645  0.50088479  0.32302222  1
  Te  Te167  1  0.00298277  0.49567745  0.66831321  1
  Te  Te168  1  -0.00464672  0.83297902  -0.00094184  1
  Te  Te169  1  -0.00310831  0.83398300  0.33054970  1
  Te  Te170  1  0.00223463  0.83239732  0.67026540  1
  Te  Te171  1  0.33412911  0.16874479  0.00005886  1
  Te  Te172  1  0.33172560  0.16038840  0.33662275  1
  Te  Te173  1  0.33166446  0.15771058  0.66058223  1
  Te  Te174  1  0.33685322  0.49683389  -0.00239886  1
  Te  Te175  1  0.33201304  0.50098764  0.33428960  1
  Te  Te176  1  0.33442873  0.49908139  0.66817856  1
  Te  Te177  1  0.33255580  0.83868691  -0.00035551  1
  Te  Te178  1  0.33308998  0.83715395  0.33264680  1
  Te  Te179  1  0.33558197  0.83238076  0.66728064  1
  Te  Te180  1  0.66739156  0.16984128  0.00157033  1
  Te  Te181  1  0.67127223  0.16454824  0.33462753  1
  Te  Te182  1  0.66643530  0.16166145  0.66067274  1
  Te  Te183  1  0.66487364  0.49771614  -0.00056964  1
  Te  Te184  1  0.66823884  0.50741759  0.34064235  1
  Te  Te185  1  0.66260140  0.50032245  0.66423437  1
  Te  Te186  1  0.67172571  0.83380766  -0.00596839  1
  Te  Te187  1  0.66612569  0.82953686  0.33433188  1
  Te  Te188  1  0.66216584  0.83613201  0.67202927  1
  Te  Te189  1  -0.00688542  -0.00452794  0.16634482  1
  Te  Te190  1  -0.00020070  0.00967473  0.50139287  1
  Te  Te191  1  -0.00184916  0.00116898  0.83303131  1
  Te  Te192  1  -0.00254345  0.33753706  0.16716503  1
  Te  Te193  1  -0.00151088  0.33046269  0.50275255  1
  Te  Te194  1  -0.00020893  0.33047005  0.82942205  1
  Te  Te195  1  -0.00447644  0.66648897  0.16609278  1
  Te  Te196  1  -0.00045142  0.66594181  0.49968480  1
  Te  Te197  1  -0.00146963  0.67579274  0.83293850  1
  Te  Te198  1  0.33372089  0.00046786  0.16368308  1
  Te  Te199  1  0.33835745  0.00097403  0.50128682  1
  Te  Te200  1  0.33798485  0.00069396  0.83289587  1
  Te  Te201  1  0.33685016  0.33792199  0.16297516  1
  Te  Te202  1  0.33579451  0.33278527  0.49942724  1
  Te  Te203  1  0.33447595  0.33542118  0.83634518  1
  Te  Te204  1  0.33843691  0.66205717  0.16371183  1
  Te  Te205  1  0.34075594  0.65995469  0.50299350  1
  Te  Te206  1  0.33389000  0.66123438  0.83520327  1
  Te  Te207  1  0.67206881  0.00727445  0.16701786  1
  Te  Te208  1  0.66037204  0.00171053  0.50474456  1
  Te  Te209  1  0.66484203  0.00112260  0.83111652  1
  Te  Te210  1  0.66547124  0.33558303  0.16629243  1
  Te  Te211  1  0.66474826  0.33296737  0.50085826  1
  Te  Te212  1  0.66345671  0.33659713  0.83572170  1
  Te  Te213  1  0.66551918  0.66657713  0.16296961  1
  Te  Te214  1  0.65853340  0.66232799  0.50170897  1
  Te  Te215  1  0.66598530  0.66292287  0.83899571  1
