# generated using pymatgen
data_AgSbTe2
_symmetry_space_group_name_H-M   'P 1'
_cell_length_a   18.34337541
_cell_length_b   18.34472529
_cell_length_c   18.34345450
_cell_angle_alpha   90.00341361
_cell_angle_beta   89.99996534
_cell_angle_gamma   89.99973939
_symmetry_Int_Tables_number   1
_chemical_formula_structural   AgSbTe2
_chemical_formula_sum   'Ag54 Sb54 Te108'
_cell_volume   6172.64915511
_cell_formula_units_Z   54
loop_
 _symmetry_equiv_pos_site_id
 _symmetry_equiv_pos_as_xyz
  1  'x, y, z'
loop_
 _atom_site_type_symbol
 _atom_site_label
 _atom_site_symmetry_multiplicity
 _atom_site_fract_x
 _atom_site_fract_y
 _atom_site_fract_z
 _atom_site_occupancy
  Ag  Ag0  1  0.00208684  0.18329043  0.83420984  1
  Ag  Ag1  1  0.33367187  0.66465873  -0.00393120  1
  Ag  Ag2  1  0.83714048  0.50069445  -0.00579540  1
  Ag  Ag3  1  0.33009291  -0.01202316  0.65731796  1
  Ag  Ag4  1  0.16522880  0.17769573  0.66908292  1
  Ag  Ag5  1  0.83540813  0.18228993  0.00351416  1
  Ag  Ag6  1  0.32750954  0.66797293  0.67191697  1
  Ag  Ag7  1  0.31843066  0.50299541  0.83198921  1
  Ag  Ag8  1  0.66905518  0.66872681  0.32567640  1
  Ag  Ag9  1  0.16481268  0.50353228  0.33289623  1
  Ag  Ag10  1  0.67794146  0.50172280  0.16656168  1
  Ag  Ag11  1  0.50088998  -0.01578179  0.17735978  1
  Ag  Ag12  1  0.16212777  0.33746562  0.50113499  1
  Ag  Ag13  1  -0.00139549  0.66167314  -0.00354071  1
  Ag  Ag14  1  0.84248533  0.34259970  0.49711375  1
  Ag  Ag15  1  0.15966778  0.34177924  0.83169886  1
  Ag  Ag16  1  0.16446011  0.66342565  0.16345054  1
  Ag  Ag17  1  0.15963504  0.34420043  0.16780281  1
  Ag  Ag18  1  0.34216463  -0.00614711  0.33948342  1
  Ag  Ag19  1  0.50908477  0.14995814  0.33258620  1
  Ag  Ag20  1  0.49330156  0.83672704  0.32775211  1
  Ag  Ag21  1  0.50660491  0.50594273  -0.00328272  1
  Ag  Ag22  1  0.16209606  0.66044651  0.83399405  1
  Ag  Ag23  1  0.17193904  0.83202860  0.33159058  1
  Ag  Ag24  1  0.16069577  0.50171364  0.67115554  1
  Ag  Ag25  1  0.00405025  0.82262783  0.17003006  1
  Ag  Ag26  1  0.50012324  0.33994706  0.83444030  1
  Ag  Ag27  1  0.49516407  0.66877361  0.16105008  1
  Ag  Ag28  1  0.84356608  0.50405608  0.67729313  1
  Ag  Ag29  1  0.33715129  0.83047463  0.17402878  1
  Ag  Ag30  1  0.48984892  -0.00650048  0.48797059  1
  Ag  Ag31  1  0.49616864  0.50800844  0.67460275  1
  Ag  Ag32  1  -0.00103592  0.50270496  0.16029777  1
  Ag  Ag33  1  0.66076333  0.66486183  0.00459094  1
  Ag  Ag34  1  0.65557627  -0.00369259  0.32954660  1
  Ag  Ag35  1  0.00215585  0.66277465  0.67383396  1
  Ag  Ag36  1  0.17084271  -0.00028957  0.50081040  1
  Ag  Ag37  1  -0.00016639  0.50073653  0.50967765  1
  Ag  Ag38  1  0.84121050  0.34066337  0.84236799  1
  Ag  Ag39  1  0.83268603  0.83491718  0.33455731  1
  Ag  Ag40  1  0.50022182  0.82266258  0.01268691  1
  Ag  Ag41  1  0.00108828  0.50082492  0.83569118  1
  Ag  Ag42  1  0.83977695  0.33791869  0.16421541  1
  Ag  Ag43  1  -0.00361061  0.34486191  -0.00164603  1
  Ag  Ag44  1  0.83488010  0.66245105  0.50647492  1
  Ag  Ag45  1  0.49419116  0.82888981  0.66475871  1
  Ag  Ag46  1  0.16699864  -0.00474698  0.82532459  1
  Ag  Ag47  1  0.67108359  0.33639242  0.33146541  1
  Ag  Ag48  1  0.83033532  0.16650284  0.33054072  1
  Ag  Ag49  1  0.83289211  0.82148358  0.66059540  1
  Ag  Ag50  1  0.33385727  0.83599207  0.49332462  1
  Ag  Ag51  1  0.66559727  -0.00712662  0.00865349  1
  Ag  Ag52  1  0.00053971  -0.00449667  0.33316832  1
  Ag  Ag53  1  0.84095098  0.65846749  0.82986986  1
  Sb  Sb54  1  0.49170332  0.16432918  0.66334295  1
  Sb  Sb55  1  0.33164214  0.15899514  0.49950295  1
  Sb  Sb56  1  0.33439516  0.67240960  0.33248648  1
  Sb  Sb57  1  0.50296100  0.67155118  0.49800980  1
  Sb  Sb58  1  0.33427622  0.32899573  0.33259776  1
  Sb  Sb59  1  0.66626299  0.83127123  0.83548976  1
  Sb  Sb60  1  0.16756773  0.82675558  0.66198768  1
  Sb  Sb61  1  0.33226874  0.82664646  0.83284415  1
  Sb  Sb62  1  0.67283974  0.50189513  0.49456020  1
  Sb  Sb63  1  0.66733381  0.17028543  0.16896142  1
  Sb  Sb64  1  0.32777584  0.50855050  0.15999569  1
  Sb  Sb65  1  0.67356656  0.16908079  0.83654514  1
  Sb  Sb66  1  0.49978085  0.33999139  0.16315926  1
  Sb  Sb67  1  -0.00256219  0.66768423  0.33099449  1
  Sb  Sb68  1  0.49901262  0.33231113  0.50169233  1
  Sb  Sb69  1  0.83931837  0.00016618  0.83362540  1
  Sb  Sb70  1  0.66878983  0.33653226  0.66391695  1
  Sb  Sb71  1  0.00096090  0.17258945  0.50355169  1
  Sb  Sb72  1  -0.00097170  0.16884282  0.16456444  1
  Sb  Sb73  1  0.82778026  0.00113877  0.16932551  1
  Sb  Sb74  1  0.33768789  -0.00854769  0.00090603  1
  Sb  Sb75  1  0.84213050  0.17189402  0.66649619  1
  Sb  Sb76  1  0.00587125  -0.00774986  0.66380146  1
  Sb  Sb77  1  0.66046301  -0.00346961  0.66218966  1
  Sb  Sb78  1  0.00092462  0.82565277  0.83683169  1
  Sb  Sb79  1  0.32642205  0.50691513  0.50595735  1
  Sb  Sb80  1  0.16965982  -0.00475447  0.17072659  1
  Sb  Sb81  1  0.17074999  0.82930696  0.00556579  1
  Sb  Sb82  1  0.83474543  0.66226414  0.16532619  1
  Sb  Sb83  1  -0.00314003  -0.00386047  0.00334773  1
  Sb  Sb84  1  0.16305635  0.66592562  0.49955282  1
  Sb  Sb85  1  0.83869082  0.50035180  0.33199927  1
  Sb  Sb86  1  0.49678085  0.50542873  0.33170790  1
  Sb  Sb87  1  -0.00404516  0.33252166  0.32906014  1
  Sb  Sb88  1  0.49824831  0.66177455  0.83789958  1
  Sb  Sb89  1  0.15963778  0.50280304  -0.00346184  1
  Sb  Sb90  1  0.66259544  0.83273334  0.49506604  1
  Sb  Sb91  1  0.00115106  0.34454008  0.67424122  1
  Sb  Sb92  1  0.66847472  0.66465751  0.66959560  1
  Sb  Sb93  1  0.66807740  0.16681223  0.49635891  1
  Sb  Sb94  1  0.67228187  0.50103568  0.83940800  1
  Sb  Sb95  1  0.67379229  0.33929954  0.00446961  1
  Sb  Sb96  1  0.00222509  0.82831122  0.49487762  1
  Sb  Sb97  1  0.66551434  0.82626344  0.16970067  1
  Sb  Sb98  1  0.83556982  -0.00225215  0.49663357  1
  Sb  Sb99  1  0.32610095  0.17213260  0.83236294  1
  Sb  Sb100  1  0.32752563  0.34333322  -0.00158535  1
  Sb  Sb101  1  0.16420982  0.16463676  0.33669607  1
  Sb  Sb102  1  0.50737684  0.16680293  0.00339117  1
  Sb  Sb103  1  0.32920642  0.33974435  0.66753722  1
  Sb  Sb104  1  0.33276278  0.15997116  0.16718554  1
  Sb  Sb105  1  0.15976253  0.16941628  -0.00532885  1
  Sb  Sb106  1  0.49459227  0.00209178  0.83349519  1
  Sb  Sb107  1  0.82990400  0.82562652  0.00327208  1
  Te  Te108  1  0.16672218  0.17290927  0.16654087  1
  Te  Te109  1  0.16551063  0.16840267  0.50510248  1
  Te  Te110  1  0.16192402  0.17146744  0.82978481  1
  Te  Te111  1  0.16425289  0.50241755  0.16711885  1
  Te  Te112  1  0.16220083  0.49899044  0.50151612  1
  Te  Te113  1  0.16290374  0.50207462  0.83276374  1
  Te  Te114  1  0.16605838  0.83113764  0.17173275  1
  Te  Te115  1  0.16963641  0.83570105  0.49391670  1
  Te  Te116  1  0.16689110  0.83347197  0.83410691  1
  Te  Te117  1  0.49892515  0.16922226  0.17260896  1
  Te  Te118  1  0.49976664  0.16283557  0.49452116  1
  Te  Te119  1  0.49994293  0.17350714  0.83326650  1
  Te  Te120  1  0.49606598  0.50617498  0.16274889  1
  Te  Te121  1  0.49763199  0.49946059  0.50514938  1
  Te  Te122  1  0.50676993  0.49898717  0.83384265  1
  Te  Te123  1  0.50172254  0.82905898  0.16797007  1
  Te  Te124  1  0.49659730  0.83550760  0.50299865  1
  Te  Te125  1  0.49924917  0.83466101  0.82534026  1
  Te  Te126  1  0.83354993  0.17262282  0.16755383  1
  Te  Te127  1  0.83502017  0.17222443  0.49677991  1
  Te  Te128  1  0.84057302  0.17036996  0.83529964  1
  Te  Te129  1  0.83660978  0.49683456  0.16636828  1
  Te  Te130  1  0.83822096  0.50097351  0.49855779  1
  Te  Te131  1  0.83484995  0.49825896  0.83365219  1
  Te  Te132  1  0.84011646  0.83426425  0.17164387  1
  Te  Te133  1  0.83403816  0.83077461  0.49900998  1
  Te  Te134  1  0.83400563  0.83161134  0.82993217  1
  Te  Te135  1  0.16757101  0.00060805  -0.00283812  1
  Te  Te136  1  0.16458323  -0.00088402  0.33486760  1
  Te  Te137  1  0.16961348  -0.00736251  0.66429208  1
  Te  Te138  1  0.16035816  0.33324553  -0.00100414  1
  Te  Te139  1  0.16645695  0.33277522  0.33336173  1
  Te  Te140  1  0.16599480  0.33695885  0.66760836  1
  Te  Te141  1  0.16761492  0.66819594  0.00049497  1
  Te  Te142  1  0.16692371  0.66781627  0.33036996  1
  Te  Te143  1  0.16618901  0.66271532  0.66733976  1
  Te  Te144  1  0.50502656  -0.00035800  0.00112387  1
  Te  Te145  1  0.49947589  -0.00532634  0.33258626  1
  Te  Te146  1  0.49363473  -0.00266722  0.66474091  1
  Te  Te147  1  0.50062899  0.33543345  -0.00376920  1
  Te  Te148  1  0.50468509  0.33535174  0.33343756  1
  Te  Te149  1  0.49872414  0.33348817  0.67055513  1
  Te  Te150  1  0.50024577  0.66626331  -0.00051399  1
  Te  Te151  1  0.50392419  0.67209975  0.32937519  1
  Te  Te152  1  0.50162788  0.66796573  0.66707444  1
  Te  Te153  1  0.82715084  -0.00379976  0.00053935  1
  Te  Te154  1  0.83692916  -0.00107307  0.33373915  1
  Te  Te155  1  0.83137670  -0.00173345  0.66557454  1
  Te  Te156  1  0.83499965  0.33829190  0.00112771  1
  Te  Te157  1  0.83169187  0.33341817  0.33344299  1
  Te  Te158  1  0.83337990  0.33839389  0.66051594  1
  Te  Te159  1  0.83746484  0.66327315  -0.00173817  1
  Te  Te160  1  0.83027002  0.66918965  0.33444521  1
  Te  Te161  1  0.83090835  0.66329356  0.66781616  1
  Te  Te162  1  -0.00718623  0.16346181  -0.00457143  1
  Te  Te163  1  -0.00492564  0.16150470  0.33400745  1
  Te  Te164  1  0.00629683  0.16062932  0.67273287  1
  Te  Te165  1  -0.00186235  0.50162206  -0.00051224  1
  Te  Te166  1  0.00590925  0.50004958  0.32746403  1
  Te  Te167  1  -0.00008624  0.50514948  0.66783697  1
  Te  Te168  1  -0.00065855  0.82881743  0.00835331  1
  Te  Te169  1  -0.00128953  0.83378989  0.33085331  1
  Te  Te170  1  -0.00571042  0.82499730  0.66550039  1
  Te  Te171  1  0.33638590  0.16688305  0.00007624  1
  Te  Te172  1  0.33666137  0.15879337  0.33238326  1
  Te  Te173  1  0.32539692  0.15952954  0.66680920  1
  Te  Te174  1  0.34253671  0.50619621  -0.00590609  1
  Te  Te175  1  0.32586772  0.49924693  0.33490484  1
  Te  Te176  1  0.33484114  0.50543061  0.67100364  1
  Te  Te177  1  0.33998976  0.82651693  0.00313643  1
  Te  Te178  1  0.33361742  0.83420200  0.33323295  1
  Te  Te179  1  0.33383448  0.82964457  0.66756206  1
  Te  Te180  1  0.67507050  0.16187777  0.00167041  1
  Te  Te181  1  0.66934263  0.16377436  0.33238542  1
  Te  Te182  1  0.66614115  0.16547167  0.66753145  1
  Te  Te183  1  0.66819462  0.50313687  0.00625103  1
  Te  Te184  1  0.66447109  0.50266028  0.32803503  1
  Te  Te185  1  0.65909584  0.49999155  0.66261431  1
  Te  Te186  1  0.66178834  0.83092188  0.00185063  1
  Te  Te187  1  0.67147516  0.83376633  0.33249539  1
  Te  Te188  1  0.66905663  0.83292159  0.66582233  1
  Te  Te189  1  0.00072197  -0.00119394  0.17108920  1
  Te  Te190  1  0.00468580  0.00014547  0.49585641  1
  Te  Te191  1  0.00707938  -0.00363685  0.83380326  1
  Te  Te192  1  -0.00032906  0.33499903  0.16295148  1
  Te  Te193  1  0.00151921  0.33852159  0.49826124  1
  Te  Te194  1  -0.00075015  0.33901771  0.83586470  1
  Te  Te195  1  0.00184094  0.66384107  0.16574501  1
  Te  Te196  1  -0.00435130  0.66132829  0.50242063  1
  Te  Te197  1  0.00151916  0.66414905  0.83417437  1
  Te  Te198  1  0.33806242  -0.00689247  0.16853054  1
  Te  Te199  1  0.33079565  -0.00386501  0.49926521  1
  Te  Te200  1  0.32680195  0.00269446  0.83259043  1
  Te  Te201  1  0.32580017  0.33350671  0.16594301  1
  Te  Te202  1  0.32619831  0.33316747  0.49936514  1
  Te  Te203  1  0.33223942  0.34092213  0.83323757  1
  Te  Te204  1  0.33160771  0.67160054  0.16572457  1
  Te  Te205  1  0.33424039  0.67389702  0.50624114  1
  Te  Te206  1  0.33221057  0.66245253  0.83314025  1
  Te  Te207  1  0.66181553  0.00150604  0.16921094  1
  Te  Te208  1  0.66349325  0.00023072  0.49300014  1
  Te  Te209  1  0.66623079  0.00098352  0.83571129  1
  Te  Te210  1  0.66827491  0.34047600  0.17102147  1
  Te  Te211  1  0.66824945  0.33413610  0.49250981  1
  Te  Te212  1  0.66718858  0.33290609  0.83302863  1
  Te  Te213  1  0.66802543  0.66137588  0.16472571  1
  Te  Te214  1  0.67374416  0.66643594  0.49278559  1
  Te  Te215  1  0.67587295  0.66744872  0.84148880  1
