# generated using pymatgen
data_AgSbTe2
_symmetry_space_group_name_H-M   'P 1'
_cell_length_a   18.34669685
_cell_length_b   18.35033614
_cell_length_c   18.33862655
_cell_angle_alpha   90.00093705
_cell_angle_beta   89.99756322
_cell_angle_gamma   90.00442954
_symmetry_Int_Tables_number   1
_chemical_formula_structural   AgSbTe2
_chemical_formula_sum   'Ag54 Sb54 Te108'
_cell_volume   6174.02969355
_cell_formula_units_Z   54
loop_
 _symmetry_equiv_pos_site_id
 _symmetry_equiv_pos_as_xyz
  1  'x, y, z'
loop_
 _atom_site_type_symbol
 _atom_site_label
 _atom_site_symmetry_multiplicity
 _atom_site_fract_x
 _atom_site_fract_y
 _atom_site_fract_z
 _atom_site_occupancy
  Ag  Ag0  1  0.65472405  0.17194040  0.49516032  1
  Ag  Ag1  1  0.83547181  0.83269378  0.01411181  1
  Ag  Ag2  1  0.33569818  0.17465873  0.49843336  1
  Ag  Ag3  1  0.32974070  0.33566893  0.65510004  1
  Ag  Ag4  1  0.50445673  0.83121211  0.33862886  1
  Ag  Ag5  1  -0.00070189  0.82699042  0.16942517  1
  Ag  Ag6  1  0.33972722  0.65749154  0.34183502  1
  Ag  Ag7  1  0.17350748  0.34143890  0.17227025  1
  Ag  Ag8  1  0.32624964  0.00820438  0.66316284  1
  Ag  Ag9  1  0.01394806  -0.00408225  0.66221984  1
  Ag  Ag10  1  0.50059104  0.17822315  0.33519612  1
  Ag  Ag11  1  0.01326619  0.34005930  0.66610245  1
  Ag  Ag12  1  0.67147025  0.83417625  0.17637915  1
  Ag  Ag13  1  0.16522389  0.50239542  -0.00190788  1
  Ag  Ag14  1  0.65408429  0.49805498  0.49688924  1
  Ag  Ag15  1  0.00435868  0.66524970  -0.00131601  1
  Ag  Ag16  1  0.49478858  -0.00234235  0.49775315  1
  Ag  Ag17  1  0.33503426  0.17425262  0.17377898  1
  Ag  Ag18  1  0.33595986  0.33779715  0.33628900  1
  Ag  Ag19  1  0.16969595  -0.00356744  0.82057055  1
  Ag  Ag20  1  0.01284338  0.50340193  0.16778910  1
  Ag  Ag21  1  0.01456814  0.66599332  0.66936196  1
  Ag  Ag22  1  0.33020444  0.00192417  -0.00153419  1
  Ag  Ag23  1  0.49474866  0.82380833  0.65830313  1
  Ag  Ag24  1  0.48975306  0.50306173  0.65418130  1
  Ag  Ag25  1  0.66349073  0.50094443  0.82304896  1
  Ag  Ag26  1  0.16768990  0.84449987  0.66674028  1
  Ag  Ag27  1  0.00002637  -0.00273047  0.33735094  1
  Ag  Ag28  1  0.82254944  0.83004218  0.33135081  1
  Ag  Ag29  1  0.16587757  0.65724328  0.16594961  1
  Ag  Ag30  1  0.17156938  0.15742419  0.66413391  1
  Ag  Ag31  1  0.65309706  0.33551932  0.33360218  1
  Ag  Ag32  1  0.17290748  0.33120892  0.50491082  1
  Ag  Ag33  1  0.49298001  0.33353465  0.17655244  1
  Ag  Ag34  1  0.49731093  0.33600573  0.82996566  1
  Ag  Ag35  1  0.65829485  0.66411278  0.65731833  1
  Ag  Ag36  1  0.83996382  0.16480341  0.66503419  1
  Ag  Ag37  1  0.49887844  0.66304808  0.49865128  1
  Ag  Ag38  1  0.17321248  0.50040151  0.66804402  1
  Ag  Ag39  1  0.65841711  0.66362532  0.33787654  1
  Ag  Ag40  1  0.17371613  0.00619613  0.50881711  1
  Ag  Ag41  1  0.33236280  0.16735307  0.81577428  1
  Ag  Ag42  1  0.33112526  0.66197120  0.66094286  1
  Ag  Ag43  1  0.16504644  0.66408970  0.82043520  1
  Ag  Ag44  1  0.32921529  0.49180083  0.17543465  1
  Ag  Ag45  1  0.00460967  0.50276475  0.82656462  1
  Ag  Ag46  1  0.83788382  0.83267179  0.66300002  1
  Ag  Ag47  1  0.16848647  0.00042316  0.16852585  1
  Ag  Ag48  1  0.82947136  0.33422058  0.17126993  1
  Ag  Ag49  1  0.66489750  -0.00367923  0.33513341  1
  Ag  Ag50  1  0.33649911  0.49488535  0.49652893  1
  Ag  Ag51  1  0.65862682  0.16869359  0.17795605  1
  Ag  Ag52  1  0.82408205  0.50250487  0.33158410  1
  Ag  Ag53  1  0.50072859  0.49704687  0.33799210  1
  Sb  Sb54  1  0.83924398  0.50413800  0.00601839  1
  Sb  Sb55  1  0.32668694  0.66816474  -0.00101231  1
  Sb  Sb56  1  0.66355974  0.83114712  0.49466767  1
  Sb  Sb57  1  0.00424687  0.33177565  0.33478840  1
  Sb  Sb58  1  0.49403421  0.17125361  0.65566435  1
  Sb  Sb59  1  0.83615376  0.33339211  0.49712669  1
  Sb  Sb60  1  0.00435542  0.16867091  0.16805783  1
  Sb  Sb61  1  0.67213040  0.66540907  0.00255513  1
  Sb  Sb62  1  0.50320222  0.83382234  0.00443717  1
  Sb  Sb63  1  0.16914039  0.16983030  -0.00263434  1
  Sb  Sb64  1  0.00112076  0.66818091  0.33472237  1
  Sb  Sb65  1  0.17136163  0.33521718  0.82698605  1
  Sb  Sb66  1  0.49382632  0.50072083  0.00213793  1
  Sb  Sb67  1  0.83175504  0.00071210  0.49880361  1
  Sb  Sb68  1  0.49413968  0.66259334  0.17729204  1
  Sb  Sb69  1  0.66056140  -0.00127998  0.00849831  1
  Sb  Sb70  1  0.16878115  0.83535927  0.33637574  1
  Sb  Sb71  1  0.00170978  0.82753667  0.83201123  1
  Sb  Sb72  1  0.65844263  0.17208189  0.82671484  1
  Sb  Sb73  1  0.17349750  0.16581481  0.33792774  1
  Sb  Sb74  1  0.49264040  0.00475442  0.82227527  1
  Sb  Sb75  1  0.66668815  0.82852446  0.83104041  1
  Sb  Sb76  1  0.00774869  -0.00761903  -0.00050321  1
  Sb  Sb77  1  0.00305945  0.34101135  -0.00285136  1
  Sb  Sb78  1  0.66378404  0.49979724  0.17416966  1
  Sb  Sb79  1  0.49634164  0.16716212  0.00740057  1
  Sb  Sb80  1  0.33533127  0.83406027  0.50170111  1
  Sb  Sb81  1  0.00450272  0.16571324  0.50162341  1
  Sb  Sb82  1  0.84143736  -0.00097711  0.82922452  1
  Sb  Sb83  1  0.33194365  0.33182739  0.00369801  1
  Sb  Sb84  1  0.66352887  -0.00420223  0.65954262  1
  Sb  Sb85  1  0.83050335  0.33535020  0.83452874  1
  Sb  Sb86  1  0.16377082  0.82954044  -0.00161974  1
  Sb  Sb87  1  0.83178271  0.16209931  -0.00067395  1
  Sb  Sb88  1  0.17419666  0.66625950  0.50243820  1
  Sb  Sb89  1  0.83666306  0.00074377  0.16963587  1
  Sb  Sb90  1  0.83842396  0.66491184  0.83052431  1
  Sb  Sb91  1  0.49380691  0.66125259  0.82167632  1
  Sb  Sb92  1  0.82675129  0.66633156  0.49961961  1
  Sb  Sb93  1  0.33524764  0.00184138  0.33853172  1
  Sb  Sb94  1  0.33098451  0.83314376  0.16989822  1
  Sb  Sb95  1  0.00473760  0.50022367  0.49844667  1
  Sb  Sb96  1  0.00693770  0.17088284  0.82679395  1
  Sb  Sb97  1  0.33228223  0.83719094  0.82828976  1
  Sb  Sb98  1  0.49280664  0.33778120  0.49653497  1
  Sb  Sb99  1  0.83392904  0.50102846  0.66123661  1
  Sb  Sb100  1  0.82401018  0.16707145  0.33751777  1
  Sb  Sb101  1  0.66631488  0.33588138  0.00893419  1
  Sb  Sb102  1  0.00064347  0.83381871  0.49991235  1
  Sb  Sb103  1  0.49600325  0.00386818  0.17679808  1
  Sb  Sb104  1  0.83726377  0.66572239  0.16954214  1
  Sb  Sb105  1  0.33102652  0.49494585  0.82780736  1
  Sb  Sb106  1  0.17256870  0.50031284  0.33451625  1
  Sb  Sb107  1  0.66212504  0.33882009  0.65792257  1
  Te  Te108  1  0.17077048  0.16476376  0.16654972  1
  Te  Te109  1  0.17008691  0.16705682  0.50368352  1
  Te  Te110  1  0.17288590  0.16458331  0.82984509  1
  Te  Te111  1  0.16875208  0.50026688  0.17221434  1
  Te  Te112  1  0.17106410  0.49687545  0.50523494  1
  Te  Te113  1  0.16499544  0.50122500  0.83246997  1
  Te  Te114  1  0.16310910  0.83667753  0.16694674  1
  Te  Te115  1  0.16725002  0.84005702  0.50561007  1
  Te  Te116  1  0.16608063  0.83094652  0.82980134  1
  Te  Te117  1  0.49932848  0.16989757  0.17302876  1
  Te  Te118  1  0.49734340  0.16365989  0.49534439  1
  Te  Te119  1  0.49320766  0.17204251  0.83506001  1
  Te  Te120  1  0.49495348  0.49572169  0.16909006  1
  Te  Te121  1  0.49809573  0.50028510  0.49838587  1
  Te  Te122  1  0.50190617  0.49688628  0.83484274  1
  Te  Te123  1  0.50518904  0.83326533  0.17123504  1
  Te  Te124  1  0.50093878  0.83326636  0.50037718  1
  Te  Te125  1  0.50111334  0.83425424  0.82852820  1
  Te  Te126  1  0.83145600  0.17163396  0.16568479  1
  Te  Te127  1  0.83030321  0.16726112  0.50568999  1
  Te  Te128  1  0.82949946  0.16689207  0.82737516  1
  Te  Te129  1  0.83161526  0.49649884  0.17053248  1
  Te  Te130  1  0.83056200  0.49916326  0.49262767  1
  Te  Te131  1  0.83617239  0.49891572  0.83537998  1
  Te  Te132  1  0.83523102  0.83403964  0.17146399  1
  Te  Te133  1  0.83309715  0.83381364  0.50184574  1
  Te  Te134  1  0.83364478  0.83318724  0.82380450  1
  Te  Te135  1  0.17106761  -0.00023737  0.00522888  1
  Te  Te136  1  0.16382822  -0.00032909  0.33075174  1
  Te  Te137  1  0.16952237  0.00085481  0.66475781  1
  Te  Te138  1  0.16543666  0.33950928  0.00750914  1
  Te  Te139  1  0.17087855  0.33164881  0.33405359  1
  Te  Te140  1  0.16989540  0.33809127  0.66746559  1
  Te  Te141  1  0.16297376  0.66379200  0.00508193  1
  Te  Te142  1  0.17021850  0.66874162  0.33111269  1
  Te  Te143  1  0.17044056  0.66042941  0.66360421  1
  Te  Te144  1  0.49192790  -0.00080848  -0.00323822  1
  Te  Te145  1  0.50215989  -0.00609912  0.33828795  1
  Te  Te146  1  0.49671978  -0.00247876  0.65897295  1
  Te  Te147  1  0.50064089  0.33436803  -0.00096111  1
  Te  Te148  1  0.49707822  0.33529860  0.33356871  1
  Te  Te149  1  0.49649895  0.33814349  0.66950680  1
  Te  Te150  1  0.50084037  0.66882274  -0.00218876  1
  Te  Te151  1  0.49947000  0.66448749  0.33614710  1
  Te  Te152  1  0.49871516  0.66423445  0.66204974  1
  Te  Te153  1  0.83419163  -0.00701326  -0.00224431  1
  Te  Te154  1  0.83249033  -0.00483375  0.33353822  1
  Te  Te155  1  0.83274048  -0.00103527  0.66589634  1
  Te  Te156  1  0.83468325  0.33131125  0.00839298  1
  Te  Te157  1  0.83743552  0.33467193  0.32968627  1
  Te  Te158  1  0.83331849  0.32953414  0.66639638  1
  Te  Te159  1  0.84074216  0.67273193  -0.00039751  1
  Te  Te160  1  0.83136014  0.66868678  0.33389339  1
  Te  Te161  1  0.82958601  0.67003364  0.66615795  1
  Te  Te162  1  -0.00178720  0.16565131  -0.00334266  1
  Te  Te163  1  -0.00345739  0.15851628  0.33346073  1
  Te  Te164  1  0.00192537  0.16382268  0.66658720  1
  Te  Te165  1  0.00420083  0.50582102  0.00427768  1
  Te  Te166  1  -0.00614640  0.50018082  0.33044222  1
  Te  Te167  1  -0.00161841  0.50088129  0.66578388  1
  Te  Te168  1  -0.00369366  0.82776579  0.00468945  1
  Te  Te169  1  -0.00002828  0.83587021  0.33042702  1
  Te  Te170  1  0.00208066  0.83295018  0.66649036  1
  Te  Te171  1  0.33225087  0.16092985  0.01181719  1
  Te  Te172  1  0.33804678  0.16761864  0.33475448  1
  Te  Te173  1  0.33273069  0.16875128  0.65997217  1
  Te  Te174  1  0.32626034  0.50132329  0.00573662  1
  Te  Te175  1  0.33440058  0.49872569  0.33481205  1
  Te  Te176  1  0.33376765  0.49786010  0.66810922  1
  Te  Te177  1  0.33461580  0.84049300  0.00035688  1
  Te  Te178  1  0.33990672  0.82631549  0.33376579  1
  Te  Te179  1  0.33368774  0.82795627  0.66678456  1
  Te  Te180  1  0.66590174  0.16686013  0.00534476  1
  Te  Te181  1  0.66399485  0.16871031  0.33506585  1
  Te  Te182  1  0.66610654  0.16668603  0.66120161  1
  Te  Te183  1  0.66761392  0.50121001  -0.00730312  1
  Te  Te184  1  0.66384841  0.50048253  0.33450678  1
  Te  Te185  1  0.66783262  0.50308804  0.66346265  1
  Te  Te186  1  0.67263224  0.83307052  0.00496291  1
  Te  Te187  1  0.66602918  0.83294677  0.33343539  1
  Te  Te188  1  0.66562919  0.82790506  0.66666162  1
  Te  Te189  1  0.00418724  -0.00089182  0.16774140  1
  Te  Te190  1  0.00353111  0.00002385  0.50119185  1
  Te  Te191  1  0.00837946  0.00122653  0.82790894  1
  Te  Te192  1  0.00646293  0.33698707  0.16673235  1
  Te  Te193  1  0.00816736  0.33305810  0.50592301  1
  Te  Te194  1  -0.00113875  0.33977224  0.82762803  1
  Te  Te195  1  0.00357930  0.66590787  0.16971844  1
  Te  Te196  1  0.00061766  0.66591608  0.50793091  1
  Te  Te197  1  0.00483650  0.66207189  0.82990944  1
  Te  Te198  1  0.33043703  0.00004334  0.17002966  1
  Te  Te199  1  0.33323978  0.00169739  0.50177569  1
  Te  Te200  1  0.32859557  0.00461050  0.82689973  1
  Te  Te201  1  0.33354419  0.33260748  0.16646615  1
  Te  Te202  1  0.33066209  0.33449014  0.49787291  1
  Te  Te203  1  0.33671740  0.32805650  0.83587589  1
  Te  Te204  1  0.32741281  0.66597846  0.16624038  1
  Te  Te205  1  0.33722781  0.66265272  0.50104444  1
  Te  Te206  1  0.32654187  0.66580643  0.83072478  1
  Te  Te207  1  0.66656594  0.00138725  0.17304483  1
  Te  Te208  1  0.66383751  0.00634319  0.49455396  1
  Te  Te209  1  0.66491944  0.00194786  0.83706568  1
  Te  Te210  1  0.66566236  0.33238863  0.17272485  1
  Te  Te211  1  0.66948704  0.33411082  0.49319018  1
  Te  Te212  1  0.66244631  0.33806295  0.83347730  1
  Te  Te213  1  0.66600947  0.67089144  0.17033049  1
  Te  Te214  1  0.66188623  0.66246737  0.49808952  1
  Te  Te215  1  0.66577464  0.66135345  0.83201864  1
