# generated using pymatgen
data_AgSbTe2
_symmetry_space_group_name_H-M   'P 1'
_cell_length_a   18.33741610
_cell_length_b   18.35165381
_cell_length_c   18.34037473
_cell_angle_alpha   89.99894910
_cell_angle_beta   89.99924498
_cell_angle_gamma   90.00063261
_symmetry_Int_Tables_number   1
_chemical_formula_structural   AgSbTe2
_chemical_formula_sum   'Ag54 Sb54 Te108'
_cell_volume   6171.93796842
_cell_formula_units_Z   54
loop_
 _symmetry_equiv_pos_site_id
 _symmetry_equiv_pos_as_xyz
  1  'x, y, z'
loop_
 _atom_site_type_symbol
 _atom_site_label
 _atom_site_symmetry_multiplicity
 _atom_site_fract_x
 _atom_site_fract_y
 _atom_site_fract_z
 _atom_site_occupancy
  Ag  Ag0  1  0.50439187  0.33066501  0.15797490  1
  Ag  Ag1  1  0.16306903  0.50278940  0.66965032  1
  Ag  Ag2  1  0.83565607  0.49779224  0.66416987  1
  Ag  Ag3  1  -0.00138029  0.83445196  0.83419000  1
  Ag  Ag4  1  0.33861709  0.00437431  0.33748844  1
  Ag  Ag5  1  0.16791667  0.66991328  0.82862699  1
  Ag  Ag6  1  0.66669710  -0.00075919  0.00488027  1
  Ag  Ag7  1  0.00041549  0.83672881  0.49910749  1
  Ag  Ag8  1  -0.00501090  0.33334093  0.33531150  1
  Ag  Ag9  1  -0.01129385  0.66976573  0.00214957  1
  Ag  Ag10  1  0.66521311  -0.00442467  0.32039485  1
  Ag  Ag11  1  0.16797104  0.83325096  0.66824757  1
  Ag  Ag12  1  0.51257630  -0.00303616  0.16159115  1
  Ag  Ag13  1  0.82110335  0.00352788  0.83602940  1
  Ag  Ag14  1  0.33418130  -0.00008732  0.66546860  1
  Ag  Ag15  1  0.82653972  0.16496557  0.00318445  1
  Ag  Ag16  1  0.66646703  0.32878290  -0.00445676  1
  Ag  Ag17  1  0.16565131  0.33735367  0.82608430  1
  Ag  Ag18  1  0.49997861  0.83840627  0.67472443  1
  Ag  Ag19  1  -0.01096631  0.83265467  0.16562707  1
  Ag  Ag20  1  0.83235846  0.49615870  0.33581693  1
  Ag  Ag21  1  0.66834275  0.15251658  0.15703213  1
  Ag  Ag22  1  0.50643319  0.82908914  -0.00151108  1
  Ag  Ag23  1  0.82434711  -0.00484719  0.16874273  1
  Ag  Ag24  1  0.15919086  0.67537096  0.50709963  1
  Ag  Ag25  1  0.83676589  0.66662106  0.49308733  1
  Ag  Ag26  1  0.50549978  0.50875804  -0.00324546  1
  Ag  Ag27  1  0.66638824  0.83951937  0.16034243  1
  Ag  Ag28  1  0.32545833  0.16391638  0.49943412  1
  Ag  Ag29  1  0.82625825  0.67388445  0.16962454  1
  Ag  Ag30  1  0.83707484  0.33061248  0.49931485  1
  Ag  Ag31  1  0.16909086  -0.00465435  0.82829749  1
  Ag  Ag32  1  0.50106973  0.15861410  0.66961006  1
  Ag  Ag33  1  0.51170324  0.68088042  0.15508335  1
  Ag  Ag34  1  0.66654889  0.67502786  0.00256626  1
  Ag  Ag35  1  0.66782514  0.17081203  0.83886271  1
  Ag  Ag36  1  0.50479584  0.83705224  0.32273324  1
  Ag  Ag37  1  0.34500639  0.49741649  0.83244736  1
  Ag  Ag38  1  0.16567651  -0.00239473  0.16912155  1
  Ag  Ag39  1  0.82350597  0.33058801  0.82826633  1
  Ag  Ag40  1  0.66944086  0.67576413  0.31893948  1
  Ag  Ag41  1  0.33264123  0.32862579  0.33622530  1
  Ag  Ag42  1  0.50757339  0.67268096  0.83797910  1
  Ag  Ag43  1  0.51263218  0.33590540  0.83652755  1
  Ag  Ag44  1  0.00009876  0.16173053  0.49833621  1
  Ag  Ag45  1  0.66328575  0.48559103  0.83588127  1
  Ag  Ag46  1  -0.00343063  0.50951847  0.16656653  1
  Ag  Ag47  1  0.65994244  0.83808558  0.84115884  1
  Ag  Ag48  1  0.50586536  -0.00676373  0.83727180  1
  Ag  Ag49  1  0.16233331  0.00087835  0.50263155  1
  Ag  Ag50  1  0.83152708  0.16673640  0.33402788  1
  Ag  Ag51  1  0.83729775  0.00395305  0.49722096  1
  Ag  Ag52  1  0.15702482  0.32812849  0.50434934  1
  Ag  Ag53  1  0.66753721  0.33306067  0.68090727  1
  Sb  Sb54  1  0.66304407  0.00232818  0.67221256  1
  Sb  Sb55  1  0.34033235  0.83631878  0.16861950  1
  Sb  Sb56  1  0.66727201  0.66447828  0.67261117  1
  Sb  Sb57  1  0.83017018  0.66786013  0.83671587  1
  Sb  Sb58  1  0.33901929  0.66809966  0.33539827  1
  Sb  Sb59  1  0.16344027  0.67224635  0.16488747  1
  Sb  Sb60  1  0.82917976  0.83532142  0.33188094  1
  Sb  Sb61  1  0.33986080  0.00138904  -0.00155844  1
  Sb  Sb62  1  -0.00359393  0.50410911  0.83768816  1
  Sb  Sb63  1  0.16855238  0.83376261  -0.00618048  1
  Sb  Sb64  1  0.33981855  0.66639465  -0.00275052  1
  Sb  Sb65  1  0.50506848  0.16205139  0.33548346  1
  Sb  Sb66  1  -0.00371681  0.33388050  0.66286848  1
  Sb  Sb67  1  0.34113034  0.16885455  0.82902102  1
  Sb  Sb68  1  0.82643703  0.49813042  -0.00027173  1
  Sb  Sb69  1  0.66833491  0.33194793  0.33069513  1
  Sb  Sb70  1  -0.00649949  0.33762557  0.00246207  1
  Sb  Sb71  1  0.16959396  0.83572545  0.33708663  1
  Sb  Sb72  1  0.32826958  0.49499339  0.50549084  1
  Sb  Sb73  1  0.67006301  0.49963601  0.50523230  1
  Sb  Sb74  1  0.33678766  0.83206267  0.83191568  1
  Sb  Sb75  1  0.33098130  0.67019166  0.66810238  1
  Sb  Sb76  1  -0.00727735  0.66503762  0.33009688  1
  Sb  Sb77  1  -0.00815340  -0.00649676  -0.00020787  1
  Sb  Sb78  1  -0.00280508  0.50078350  0.49651194  1
  Sb  Sb79  1  0.50081309  -0.00085944  0.50083770  1
  Sb  Sb80  1  0.16958281  0.50128560  -0.00759098  1
  Sb  Sb81  1  0.16290019  0.16538382  0.33513406  1
  Sb  Sb82  1  0.50796894  0.16472389  -0.00360685  1
  Sb  Sb83  1  0.34180594  0.16336938  0.17277994  1
  Sb  Sb84  1  0.83255498  0.83150202  0.66749215  1
  Sb  Sb85  1  0.32749238  0.84044239  0.50200281  1
  Sb  Sb86  1  0.50410830  0.67020106  0.50195554  1
  Sb  Sb87  1  -0.00837440  0.16217352  0.17135032  1
  Sb  Sb88  1  0.50257969  0.33142996  0.50290423  1
  Sb  Sb89  1  -0.00584547  0.16252385  0.82763310  1
  Sb  Sb90  1  0.33232735  0.49852598  0.16385600  1
  Sb  Sb91  1  0.33611607  0.32950410  0.66522382  1
  Sb  Sb92  1  0.50692150  0.50289902  0.32426079  1
  Sb  Sb93  1  0.50078352  0.50112449  0.67583184  1
  Sb  Sb94  1  0.82610763  0.83718962  0.00039539  1
  Sb  Sb95  1  0.67176531  0.83535315  0.49945398  1
  Sb  Sb96  1  -0.00409697  0.00141411  0.33423605  1
  Sb  Sb97  1  0.67025644  0.50442514  0.16056279  1
  Sb  Sb98  1  0.00381067  -0.00197259  0.66487147  1
  Sb  Sb99  1  0.17146816  0.16423706  0.66482994  1
  Sb  Sb100  1  0.34205540  0.33302764  -0.00025093  1
  Sb  Sb101  1  0.82838032  0.33207424  0.16747081  1
  Sb  Sb102  1  0.15538084  0.16411913  -0.00243068  1
  Sb  Sb103  1  0.16827014  0.32947439  0.16812523  1
  Sb  Sb104  1  0.82675460  0.16978361  0.66490548  1
  Sb  Sb105  1  0.66999828  0.16470117  0.50063194  1
  Sb  Sb106  1  0.00023107  0.66695730  0.66977442  1
  Sb  Sb107  1  0.16194303  0.49872306  0.33861709  1
  Te  Te108  1  0.16474783  0.15974456  0.16592650  1
  Te  Te109  1  0.16434879  0.16618194  0.49976327  1
  Te  Te110  1  0.16528900  0.16403860  0.83228635  1
  Te  Te111  1  0.16203142  0.50044844  0.16635661  1
  Te  Te112  1  0.16434683  0.49546125  0.50650240  1
  Te  Te113  1  0.16239599  0.50163720  0.82982013  1
  Te  Te114  1  0.16656085  0.83724808  0.16618458  1
  Te  Te115  1  0.16180821  0.83590227  0.50329137  1
  Te  Te116  1  0.16904378  0.83244516  0.82962437  1
  Te  Te117  1  0.50724721  0.16336357  0.16729810  1
  Te  Te118  1  0.49785933  0.16736403  0.50645621  1
  Te  Te119  1  0.50376640  0.16719193  0.83021643  1
  Te  Te120  1  0.49813541  0.49355676  0.15967516  1
  Te  Te121  1  0.49814815  0.50207662  0.50007618  1
  Te  Te122  1  0.50280361  0.49770016  0.83524268  1
  Te  Te123  1  0.50343954  0.83644356  0.16534279  1
  Te  Te124  1  0.49964809  0.83158944  0.50683395  1
  Te  Te125  1  0.49889700  0.83356753  0.83500111  1
  Te  Te126  1  0.82841793  0.16445525  0.16888697  1
  Te  Te127  1  0.83559192  0.16658626  0.49850191  1
  Te  Te128  1  0.83030747  0.16480213  0.83080021  1
  Te  Te129  1  0.83746932  0.50060310  0.16930165  1
  Te  Te130  1  0.83397166  0.49871250  0.50046881  1
  Te  Te131  1  0.82920087  0.49832116  0.83069879  1
  Te  Te132  1  0.83075917  0.83430825  0.16626946  1
  Te  Te133  1  0.83987455  0.83407245  0.50113599  1
  Te  Te134  1  0.83905915  0.83708216  0.83198771  1
  Te  Te135  1  0.16752423  -0.00045652  -0.00349930  1
  Te  Te136  1  0.17095492  -0.00009418  0.33736411  1
  Te  Te137  1  0.17007974  -0.00195258  0.66416095  1
  Te  Te138  1  0.16640595  0.33255710  -0.00264766  1
  Te  Te139  1  0.16788507  0.33291413  0.33695333  1
  Te  Te140  1  0.16698943  0.33389025  0.66445144  1
  Te  Te141  1  0.16694554  0.66690031  -0.00496799  1
  Te  Te142  1  0.16905572  0.66617436  0.33895746  1
  Te  Te143  1  0.16566389  0.66877598  0.66665307  1
  Te  Te144  1  0.50353064  -0.00107123  -0.00093053  1
  Te  Te145  1  0.50141383  -0.00183867  0.33327993  1
  Te  Te146  1  0.49742739  -0.00102811  0.66807764  1
  Te  Te147  1  0.50449118  0.33100138  -0.00233641  1
  Te  Te148  1  0.49760196  0.33379183  0.33318379  1
  Te  Te149  1  0.50427529  0.33446144  0.67157453  1
  Te  Te150  1  0.50313719  0.66714899  -0.00173605  1
  Te  Te151  1  0.50617568  0.67119419  0.33315543  1
  Te  Te152  1  0.49895432  0.67117570  0.67251149  1
  Te  Te153  1  0.82839495  0.00325812  -0.00250426  1
  Te  Te154  1  0.83141726  0.00175778  0.33213779  1
  Te  Te155  1  0.83284507  -0.00005521  0.66650049  1
  Te  Te156  1  0.82913189  0.33035733  -0.00520476  1
  Te  Te157  1  0.83363343  0.33395538  0.33467436  1
  Te  Te158  1  0.83049177  0.33624697  0.66757243  1
  Te  Te159  1  0.82999913  0.66516636  0.00467187  1
  Te  Te160  1  0.82972318  0.66573112  0.33163623  1
  Te  Te161  1  0.83300923  0.66070866  0.66021740  1
  Te  Te162  1  -0.01184553  0.16712794  0.00005670  1
  Te  Te163  1  -0.00635608  0.17133540  0.33820734  1
  Te  Te164  1  -0.00004514  0.16644155  0.65765857  1
  Te  Te165  1  -0.00005665  0.50584565  0.00647922  1
  Te  Te166  1  -0.00511883  0.49615257  0.32763083  1
  Te  Te167  1  0.00034539  0.50012007  0.66929918  1
  Te  Te168  1  0.00174818  0.82862683  0.00019903  1
  Te  Te169  1  0.00172127  0.83273742  0.33182392  1
  Te  Te170  1  0.00418426  0.83216072  0.66831895  1
  Te  Te171  1  0.32708080  0.16733259  0.00207924  1
  Te  Te172  1  0.33441594  0.16546273  0.33846865  1
  Te  Te173  1  0.33911597  0.16188461  0.66206736  1
  Te  Te174  1  0.34022453  0.49877703  -0.00633901  1
  Te  Te175  1  0.33415563  0.49550093  0.33364562  1
  Te  Te176  1  0.32696445  0.49900466  0.67264408  1
  Te  Te177  1  0.34343107  0.83424133  0.00124874  1
  Te  Te178  1  0.34199986  0.83792253  0.33524571  1
  Te  Te179  1  0.33302239  0.83944291  0.66636010  1
  Te  Te180  1  0.66931459  0.16456536  -0.00091234  1
  Te  Te181  1  0.67147579  0.16346888  0.33185470  1
  Te  Te182  1  0.66091295  0.17111426  0.67013569  1
  Te  Te183  1  0.66391147  0.49795776  -0.00523515  1
  Te  Te184  1  0.67268165  0.50286085  0.33488012  1
  Te  Te185  1  0.66900809  0.49660731  0.67297458  1
  Te  Te186  1  0.66458507  0.83483601  0.00114974  1
  Te  Te187  1  0.66353351  0.83426863  0.33352083  1
  Te  Te188  1  0.66338517  0.83268385  0.66960385  1
  Te  Te189  1  0.00291822  -0.00537469  0.16659678  1
  Te  Te190  1  -0.00053656  -0.00099183  0.49895207  1
  Te  Te191  1  0.00765154  -0.00495204  0.83379677  1
  Te  Te192  1  0.00061988  0.33157233  0.17136413  1
  Te  Te193  1  -0.00208822  0.33435726  0.49688354  1
  Te  Te194  1  0.00626319  0.33188837  0.83438587  1
  Te  Te195  1  -0.00049513  0.67160454  0.16384008  1
  Te  Te196  1  -0.00095172  0.67007164  0.49797973  1
  Te  Te197  1  -0.00110482  0.67180412  0.83959043  1
  Te  Te198  1  0.32673741  0.00136816  0.17075662  1
  Te  Te199  1  0.33319960  0.00407292  0.49958684  1
  Te  Te200  1  0.33073886  0.00217724  0.83097884  1
  Te  Te201  1  0.33788217  0.33150754  0.17228780  1
  Te  Te202  1  0.33294772  0.32798991  0.49752873  1
  Te  Te203  1  0.32475421  0.33525506  0.83286337  1
  Te  Te204  1  0.33819952  0.66553448  0.16824280  1
  Te  Te205  1  0.32463245  0.66533425  0.49996137  1
  Te  Te206  1  0.32924994  0.65969800  0.83280278  1
  Te  Te207  1  0.66822507  -0.00240870  0.16509369  1
  Te  Te208  1  0.67438389  0.00008092  0.49640441  1
  Te  Te209  1  0.66473749  -0.00340905  0.83188337  1
  Te  Te210  1  0.66313720  0.33664984  0.16285569  1
  Te  Te211  1  0.67381616  0.33265012  0.49990744  1
  Te  Te212  1  0.66814888  0.32902041  0.83707985  1
  Te  Te213  1  0.66659534  0.66476629  0.16379492  1
  Te  Te214  1  0.67351121  0.66700369  0.49928076  1
  Te  Te215  1  0.66643005  0.67891144  0.83791542  1
