# generated using pymatgen
data_AgSbTe2
_symmetry_space_group_name_H-M   'P 1'
_cell_length_a   18.31668005
_cell_length_b   18.31645662
_cell_length_c   18.31311738
_cell_angle_alpha   90.00070839
_cell_angle_beta   90.00481531
_cell_angle_gamma   90.00327383
_symmetry_Int_Tables_number   1
_chemical_formula_structural   AgSbTe2
_chemical_formula_sum   'Ag54 Sb54 Te108'
_cell_volume   6143.98997002
_cell_formula_units_Z   54
loop_
 _symmetry_equiv_pos_site_id
 _symmetry_equiv_pos_as_xyz
  1  'x, y, z'
loop_
 _atom_site_type_symbol
 _atom_site_label
 _atom_site_symmetry_multiplicity
 _atom_site_fract_x
 _atom_site_fract_y
 _atom_site_fract_z
 _atom_site_occupancy
  Ag  Ag0  1  0.83052424  0.83540929  0.66842137  1
  Ag  Ag1  1  0.66828924  0.33599027  0.33888296  1
  Ag  Ag2  1  0.33467024  -0.00580201  -0.00969691  1
  Ag  Ag3  1  0.50319408  0.33148604  0.15967625  1
  Ag  Ag4  1  0.50346349  0.16473071  0.33181349  1
  Ag  Ag5  1  0.16917585  0.16699367  0.66836665  1
  Ag  Ag6  1  0.15841125  0.32943525  0.50674402  1
  Ag  Ag7  1  -0.00318664  0.67125542  0.32978853  1
  Ag  Ag8  1  0.83381259  0.67641189  0.83383678  1
  Ag  Ag9  1  0.33010144  0.83604332  0.83372231  1
  Ag  Ag10  1  -0.00024029  0.66783771  -0.00460211  1
  Ag  Ag11  1  0.33436814  0.50608953  0.83297142  1
  Ag  Ag12  1  0.50459685  -0.00321863  0.16465478  1
  Ag  Ag13  1  0.16367896  0.49102139  0.66619927  1
  Ag  Ag14  1  0.66874086  0.67321839  0.32680150  1
  Ag  Ag15  1  0.83706189  -0.00382142  0.50571410  1
  Ag  Ag16  1  0.65906106  0.66889671  0.00260759  1
  Ag  Ag17  1  0.83685561  0.50011454  0.66824430  1
  Ag  Ag18  1  0.49690674  0.66984734  0.83845841  1
  Ag  Ag19  1  -0.00055217  0.33377343  -0.00964210  1
  Ag  Ag20  1  0.82791734  -0.00341023  0.16194776  1
  Ag  Ag21  1  0.00241792  0.32743934  0.66604675  1
  Ag  Ag22  1  0.33281467  0.15996342  0.82933352  1
  Ag  Ag23  1  0.50619011  0.83885706  0.67202682  1
  Ag  Ag24  1  0.15992306  0.00033657  0.51352603  1
  Ag  Ag25  1  0.49474709  0.16462505  0.67381041  1
  Ag  Ag26  1  0.16725565  0.83078019  -0.01115390  1
  Ag  Ag27  1  0.33238315  0.32593830  0.67050828  1
  Ag  Ag28  1  0.66409937  0.82918219  0.17004178  1
  Ag  Ag29  1  0.49841429  0.33098359  0.83455135  1
  Ag  Ag30  1  -0.00562526  0.83730711  0.50660228  1
  Ag  Ag31  1  0.67468238  0.83678761  0.49874230  1
  Ag  Ag32  1  0.66730513  0.16405387  0.50141556  1
  Ag  Ag33  1  0.50598289  0.66991917  0.15763523  1
  Ag  Ag34  1  0.50920847  0.83430628  0.33249284  1
  Ag  Ag35  1  0.82863202  0.16423139  -0.00327248  1
  Ag  Ag36  1  0.34148498  0.67200990  -0.00597759  1
  Ag  Ag37  1  0.66716722  0.83064155  0.83135707  1
  Ag  Ag38  1  0.84071058  -0.00637083  0.82859377  1
  Ag  Ag39  1  0.00248935  0.16089031  0.83016149  1
  Ag  Ag40  1  0.00371394  0.00195227  0.67019940  1
  Ag  Ag41  1  0.66397605  0.50907337  0.16741544  1
  Ag  Ag42  1  0.82870089  0.83272133  0.34040520  1
  Ag  Ag43  1  0.66808767  0.33144945  0.66260653  1
  Ag  Ag44  1  0.50282678  0.17000001  -0.00515807  1
  Ag  Ag45  1  0.83641808  0.32755821  0.50375049  1
  Ag  Ag46  1  0.32614682  0.00450147  0.67333686  1
  Ag  Ag47  1  -0.00402656  0.33577853  0.34222746  1
  Ag  Ag48  1  0.50044686  0.50453104  -0.00117746  1
  Ag  Ag49  1  0.16064044  0.82992003  0.33456246  1
  Ag  Ag50  1  0.16482546  0.50529739  0.33932842  1
  Ag  Ag51  1  0.16822282  0.67612607  0.83489077  1
  Ag  Ag52  1  0.16714489  -0.00522053  0.82976550  1
  Ag  Ag53  1  -0.00087345  0.83707088  0.82886904  1
  Sb  Sb54  1  0.83395381  0.67304267  0.50345953  1
  Sb  Sb55  1  0.82906467  0.16334561  0.33246050  1
  Sb  Sb56  1  0.17055017  0.50454734  -0.00430153  1
  Sb  Sb57  1  0.33819553  0.16563170  0.50960925  1
  Sb  Sb58  1  0.66358684  0.16432452  0.17054410  1
  Sb  Sb59  1  -0.00647037  0.83371197  0.16553524  1
  Sb  Sb60  1  0.33471391  -0.00147060  0.33460415  1
  Sb  Sb61  1  0.33189175  0.66952686  0.67671478  1
  Sb  Sb62  1  0.34010229  0.83375224  0.16045610  1
  Sb  Sb63  1  0.16904916  0.66856685  0.16165300  1
  Sb  Sb64  1  0.83374381  0.16329846  0.67004763  1
  Sb  Sb65  1  0.16939833  0.33445247  0.17118856  1
  Sb  Sb66  1  0.16339790  0.66992511  0.50427833  1
  Sb  Sb67  1  0.49762629  0.83194990  -0.00297291  1
  Sb  Sb68  1  0.82994797  0.49949431  -0.00493836  1
  Sb  Sb69  1  0.66310960  -0.00517491  -0.00100825  1
  Sb  Sb70  1  0.49496961  -0.00155204  0.83515526  1
  Sb  Sb71  1  -0.00141369  0.16692486  0.15977598  1
  Sb  Sb72  1  0.33899864  0.50050924  0.16034352  1
  Sb  Sb73  1  0.50219009  -0.00021881  0.49958958  1
  Sb  Sb74  1  0.49946059  0.50105694  0.32557721  1
  Sb  Sb75  1  0.49933949  0.49766145  0.67552517  1
  Sb  Sb76  1  0.83515936  0.50407514  0.33873857  1
  Sb  Sb77  1  0.16417956  0.83820349  0.67044121  1
  Sb  Sb78  1  0.83578742  0.83601098  -0.00736603  1
  Sb  Sb79  1  -0.00474342  0.16500218  0.50632042  1
  Sb  Sb80  1  -0.00014394  0.67017586  0.67022704  1
  Sb  Sb81  1  0.00117766  -0.00187118  -0.00967779  1
  Sb  Sb82  1  0.33480246  0.33322673  0.34015169  1
  Sb  Sb83  1  0.33367474  0.33276433  -0.00880961  1
  Sb  Sb84  1  0.82824619  0.32958983  0.16949565  1
  Sb  Sb85  1  -0.00536417  0.50125468  0.16771623  1
  Sb  Sb86  1  0.16957706  0.16602817  0.34440410  1
  Sb  Sb87  1  0.33029601  0.49796375  0.50906448  1
  Sb  Sb88  1  0.83102630  0.33214640  0.82785037  1
  Sb  Sb89  1  0.66755471  -0.00535925  0.33325322  1
  Sb  Sb90  1  0.66744863  0.66780940  0.66947692  1
  Sb  Sb91  1  0.17005232  0.33211235  0.82569561  1
  Sb  Sb92  1  0.66797652  -0.00006385  0.66709397  1
  Sb  Sb93  1  0.82590197  0.67267274  0.16220240  1
  Sb  Sb94  1  0.33793965  0.16580770  0.15810469  1
  Sb  Sb95  1  0.33154497  0.83598249  0.50740150  1
  Sb  Sb96  1  0.50252809  0.67069664  0.50081770  1
  Sb  Sb97  1  0.50366816  0.33065952  0.50447668  1
  Sb  Sb98  1  0.66543191  0.16152609  0.82928701  1
  Sb  Sb99  1  0.66572858  0.33603249  -0.00121302  1
  Sb  Sb100  1  -0.00148259  -0.00237698  0.34045776  1
  Sb  Sb101  1  0.66833339  0.50032074  0.49738413  1
  Sb  Sb102  1  0.33462644  0.66896925  0.32616254  1
  Sb  Sb103  1  -0.00056519  0.50029359  0.50139686  1
  Sb  Sb104  1  0.16791631  0.16241152  -0.01015287  1
  Sb  Sb105  1  0.16643546  -0.00333566  0.16245075  1
  Sb  Sb106  1  0.00412885  0.50234716  0.83160409  1
  Sb  Sb107  1  0.66282831  0.50598637  0.83576821  1
  Te  Te108  1  0.16806176  0.16637878  0.16849268  1
  Te  Te109  1  0.16614970  0.16445804  0.50711513  1
  Te  Te110  1  0.16611811  0.16388350  0.82797439  1
  Te  Te111  1  0.16700946  0.50023365  0.17260815  1
  Te  Te112  1  0.16584406  0.49818542  0.50160622  1
  Te  Te113  1  0.17190705  0.50291110  0.83037241  1
  Te  Te114  1  0.16773190  0.83357604  0.17294485  1
  Te  Te115  1  0.16340069  0.83731793  0.49837924  1
  Te  Te116  1  0.16609702  0.83386448  0.83132457  1
  Te  Te117  1  0.49964743  0.16610283  0.16605423  1
  Te  Te118  1  0.50686657  0.16560833  0.49806798  1
  Te  Te119  1  0.49961852  0.16616389  0.83278003  1
  Te  Te120  1  0.50330901  0.50029540  0.16069060  1
  Te  Te121  1  0.49864015  0.50097692  0.49962059  1
  Te  Te122  1  0.49633782  0.50102288  0.83839899  1
  Te  Te123  1  0.50380349  0.83405062  0.16797273  1
  Te  Te124  1  0.50299522  0.83446465  0.49837903  1
  Te  Te125  1  0.50211633  0.83269335  0.83134009  1
  Te  Te126  1  0.83202399  0.15928749  0.16043351  1
  Te  Te127  1  0.82773370  0.16480113  0.49946596  1
  Te  Te128  1  0.83496599  0.16441036  0.83729632  1
  Te  Te129  1  0.82476065  0.49926770  0.16637552  1
  Te  Te130  1  0.83339375  0.49344510  0.50782146  1
  Te  Te131  1  0.83282568  0.50337410  0.82704221  1
  Te  Te132  1  0.82691390  0.83816359  0.17020565  1
  Te  Te133  1  0.83426786  0.83402837  0.50202717  1
  Te  Te134  1  0.83572375  0.83352293  0.83215636  1
  Te  Te135  1  0.17165669  -0.00523007  -0.00418855  1
  Te  Te136  1  0.16686239  -0.00435518  0.33379388  1
  Te  Te137  1  0.16540817  0.00018487  0.66944622  1
  Te  Te138  1  0.15989564  0.33390502  0.00204912  1
  Te  Te139  1  0.16488159  0.33446579  0.33953449  1
  Te  Te140  1  0.16400057  0.33168011  0.66601012  1
  Te  Te141  1  0.16285215  0.66967991  -0.00405627  1
  Te  Te142  1  0.16535494  0.66811423  0.33341578  1
  Te  Te143  1  0.16604338  0.65814158  0.67218442  1
  Te  Te144  1  0.49637912  0.00375493  0.00324240  1
  Te  Te145  1  0.49902852  -0.00025380  0.32987389  1
  Te  Te146  1  0.49800007  0.00037737  0.66627462  1
  Te  Te147  1  0.49964452  0.33006815  -0.00255387  1
  Te  Te148  1  0.50303946  0.33208794  0.33419651  1
  Te  Te149  1  0.50026525  0.33120430  0.66965958  1
  Te  Te150  1  0.50111212  0.66846141  -0.00153534  1
  Te  Te151  1  0.50300905  0.67081131  0.33047224  1
  Te  Te152  1  0.49979698  0.67073263  0.67112718  1
  Te  Te153  1  0.83385501  0.00362399  -0.00086642  1
  Te  Te154  1  0.83430622  -0.00476094  0.33769346  1
  Te  Te155  1  0.83466035  -0.00309882  0.66688964  1
  Te  Te156  1  0.83785838  0.32989575  0.00049113  1
  Te  Te157  1  0.83330137  0.33420649  0.33733487  1
  Te  Te158  1  0.83310086  0.33087442  0.66364209  1
  Te  Te159  1  0.83802528  0.66584759  -0.00597060  1
  Te  Te160  1  0.83414874  0.67005841  0.33270208  1
  Te  Te161  1  0.83352587  0.66819069  0.67185740  1
  Te  Te162  1  -0.00023162  0.17000106  -0.00652028  1
  Te  Te163  1  0.00054696  0.17308240  0.33222125  1
  Te  Te164  1  0.00056257  0.16597082  0.67011990  1
  Te  Te165  1  0.00041510  0.49965664  0.00047936  1
  Te  Te166  1  0.00338235  0.49935398  0.33384919  1
  Te  Te167  1  -0.00066956  0.49613887  0.66612235  1
  Te  Te168  1  0.00469439  0.82937720  -0.00249306  1
  Te  Te169  1  -0.00062913  0.83237888  0.33242865  1
  Te  Te170  1  -0.00280883  0.83488219  0.66747780  1
  Te  Te171  1  0.33651456  0.16386372  -0.00862258  1
  Te  Te172  1  0.34103810  0.16679289  0.33314640  1
  Te  Te173  1  0.33468896  0.16539088  0.66946903  1
  Te  Te174  1  0.33788116  0.50260611  -0.00666425  1
  Te  Te175  1  0.32598436  0.50033568  0.33407006  1
  Te  Te176  1  0.33052479  0.49621431  0.67441697  1
  Te  Te177  1  0.32970094  0.83312851  -0.00396973  1
  Te  Te178  1  0.33385156  0.83318880  0.33490544  1
  Te  Te179  1  0.33857807  0.83750875  0.67209142  1
  Te  Te180  1  0.66460233  0.16703590  0.00001598  1
  Te  Te181  1  0.66327040  0.17211192  0.33713084  1
  Te  Te182  1  0.66235928  0.17030931  0.66331537  1
  Te  Te183  1  0.66267136  0.50420500  0.00417455  1
  Te  Te184  1  0.66703729  0.49892891  0.32958366  1
  Te  Te185  1  0.66947745  0.49521991  0.66611980  1
  Te  Te186  1  0.66781387  0.82762376  -0.00244682  1
  Te  Te187  1  0.66697063  0.83256715  0.33498738  1
  Te  Te188  1  0.66712769  0.83286764  0.66733327  1
  Te  Te189  1  -0.00558979  0.00106031  0.16660270  1
  Te  Te190  1  -0.00106692  -0.00155305  0.50555690  1
  Te  Te191  1  0.00072031  -0.00101944  0.83111966  1
  Te  Te192  1  -0.00044574  0.33410455  0.16954398  1
  Te  Te193  1  -0.00122704  0.33251111  0.50209006  1
  Te  Te194  1  -0.00106955  0.33159270  0.83159675  1
  Te  Te195  1  0.00000321  0.66635232  0.16756506  1
  Te  Te196  1  0.00009599  0.67461617  0.49227176  1
  Te  Te197  1  0.00054368  0.66850917  0.83511472  1
  Te  Te198  1  0.33744848  -0.00010083  0.16190478  1
  Te  Te199  1  0.32574424  0.00006573  0.50584610  1
  Te  Te200  1  0.33338205  -0.00171460  0.83283734  1
  Te  Te201  1  0.34185030  0.33379858  0.16686512  1
  Te  Te202  1  0.32612470  0.33262090  0.50863836  1
  Te  Te203  1  0.33683577  0.32990066  0.82920617  1
  Te  Te204  1  0.34091542  0.66598958  0.15705769  1
  Te  Te205  1  0.33295317  0.66650564  0.49916230  1
  Te  Te206  1  0.33426664  0.67057415  0.83633267  1
  Te  Te207  1  0.66628114  -0.00527129  0.16596604  1
  Te  Te208  1  0.67050072  -0.00134105  0.50045961  1
  Te  Te209  1  0.67581195  -0.00763063  0.83359707  1
  Te  Te210  1  0.66192801  0.33369432  0.16880855  1
  Te  Te211  1  0.66961898  0.33419282  0.50068825  1
  Te  Te212  1  0.66125393  0.33346242  0.82907243  1
  Te  Te213  1  0.66524748  0.66872462  0.16600274  1
  Te  Te214  1  0.66767983  0.67233788  0.49255071  1
  Te  Te215  1  0.66609911  0.67080632  0.83523924  1
