# generated using pymatgen
data_AgSbTe2
_symmetry_space_group_name_H-M   'P 1'
_cell_length_a   18.35287067
_cell_length_b   18.34006093
_cell_length_c   18.33531901
_cell_angle_alpha   89.99982541
_cell_angle_beta   90.00179532
_cell_angle_gamma   90.00318042
_symmetry_Int_Tables_number   1
_chemical_formula_structural   AgSbTe2
_chemical_formula_sum   'Ag54 Sb54 Te108'
_cell_volume   6171.53573448
_cell_formula_units_Z   54
loop_
 _symmetry_equiv_pos_site_id
 _symmetry_equiv_pos_as_xyz
  1  'x, y, z'
loop_
 _atom_site_type_symbol
 _atom_site_label
 _atom_site_symmetry_multiplicity
 _atom_site_fract_x
 _atom_site_fract_y
 _atom_site_fract_z
 _atom_site_occupancy
  Ag  Ag0  1  0.67583738  0.16240678  0.82687425  1
  Ag  Ag1  1  0.16699537  0.82247231  0.33177499  1
  Ag  Ag2  1  -0.00347906  0.65952580  0.33349651  1
  Ag  Ag3  1  0.49952127  0.82513408  0.33524290  1
  Ag  Ag4  1  0.83813712  0.81885772  -0.00391151  1
  Ag  Ag5  1  0.82873165  -0.00214171  0.50259241  1
  Ag  Ag6  1  0.00108712  0.50104250  0.83566768  1
  Ag  Ag7  1  0.32896358  0.00445352  -0.00082092  1
  Ag  Ag8  1  0.50370052  0.33817631  0.16634876  1
  Ag  Ag9  1  0.16764826  0.50224743  0.33600016  1
  Ag  Ag10  1  0.83123904  0.17876626  0.66918544  1
  Ag  Ag11  1  0.50222153  0.50026869  -0.00582591  1
  Ag  Ag12  1  0.32341518  0.33702437  -0.00062518  1
  Ag  Ag13  1  -0.00285598  0.65612904  0.67977397  1
  Ag  Ag14  1  -0.00723254  0.65702947  -0.00703514  1
  Ag  Ag15  1  0.83407745  0.66640231  0.83961744  1
  Ag  Ag16  1  0.66375511  0.49886906  0.49884046  1
  Ag  Ag17  1  0.16296564  0.17727720  -0.00761080  1
  Ag  Ag18  1  0.83171545  0.34119292  0.16473338  1
  Ag  Ag19  1  0.15808972  0.50129965  -0.00373994  1
  Ag  Ag20  1  0.67867495  0.66383545  -0.00343576  1
  Ag  Ag21  1  0.16767565  0.33875516  0.50117646  1
  Ag  Ag22  1  0.66774520  0.33341040  0.66568555  1
  Ag  Ag23  1  -0.00319479  0.17472801  0.83303473  1
  Ag  Ag24  1  0.66998754  0.83153738  0.83819312  1
  Ag  Ag25  1  0.15951784  0.17266433  0.67174970  1
  Ag  Ag26  1  0.00506235  0.34180653  0.33405263  1
  Ag  Ag27  1  0.51413784  0.18093231  0.66685845  1
  Ag  Ag28  1  0.83318395  0.49764966  0.67072772  1
  Ag  Ag29  1  0.66545500  -0.00513155  0.33611848  1
  Ag  Ag30  1  0.51022880  0.00142280  0.49680284  1
  Ag  Ag31  1  0.15952871  0.82760034  0.00090905  1
  Ag  Ag32  1  0.67503132  -0.00524945  -0.00321870  1
  Ag  Ag33  1  0.50982574  0.66218388  0.83426768  1
  Ag  Ag34  1  0.33474329  0.49692741  0.50273440  1
  Ag  Ag35  1  0.15130214  0.66354320  0.83530665  1
  Ag  Ag36  1  0.50459311  0.49747836  0.66725565  1
  Ag  Ag37  1  0.83747203  0.50619429  -0.00831202  1
  Ag  Ag38  1  0.33728101  0.00191280  0.33516980  1
  Ag  Ag39  1  0.83227327  0.65987615  0.15174139  1
  Ag  Ag40  1  0.83136598  -0.00183688  0.83459644  1
  Ag  Ag41  1  0.00379361  0.33965315  -0.00813390  1
  Ag  Ag42  1  0.33299011  0.33699888  0.66546615  1
  Ag  Ag43  1  0.15764288  0.65783809  0.49950468  1
  Ag  Ag44  1  0.67354843  0.66437793  0.33175628  1
  Ag  Ag45  1  0.66679555  0.17292277  0.50696689  1
  Ag  Ag46  1  0.32780375  0.50043754  0.83256950  1
  Ag  Ag47  1  0.32842436  0.33723281  0.33606250  1
  Ag  Ag48  1  -0.00175890  -0.00117753  0.33246099  1
  Ag  Ag49  1  0.83839703  0.66487394  0.50215834  1
  Ag  Ag50  1  0.66784240  0.50081870  0.16704642  1
  Ag  Ag51  1  -0.00298281  -0.00030956  -0.00259356  1
  Ag  Ag52  1  0.49903974  0.50128042  0.33724662  1
  Ag  Ag53  1  -0.00131269  0.33659494  0.67397624  1
  Sb  Sb54  1  -0.00704368  0.49929866  0.16109059  1
  Sb  Sb55  1  0.66903154  0.50075150  0.83273684  1
  Sb  Sb56  1  0.83643442  0.33658297  0.50087951  1
  Sb  Sb57  1  0.49664544  0.33434666  0.50005695  1
  Sb  Sb58  1  0.16519607  0.33930324  0.83060899  1
  Sb  Sb59  1  -0.00006863  0.50105090  0.50360495  1
  Sb  Sb60  1  0.49774864  0.17132018  -0.00721471  1
  Sb  Sb61  1  0.33010010  0.17314173  0.83291907  1
  Sb  Sb62  1  0.33295795  0.82809166  0.49721904  1
  Sb  Sb63  1  0.50212492  0.66408077  0.50147895  1
  Sb  Sb64  1  0.83209729  0.00013031  0.16293207  1
  Sb  Sb65  1  0.50124601  0.82937948  0.00471031  1
  Sb  Sb66  1  -0.00078458  0.83014492  0.49712871  1
  Sb  Sb67  1  0.83356154  0.16571081  0.33969928  1
  Sb  Sb68  1  -0.00151918  0.83137774  0.16456471  1
  Sb  Sb69  1  0.16543842  0.00005872  0.16553390  1
  Sb  Sb70  1  0.66691674  0.33760174  0.33684554  1
  Sb  Sb71  1  0.16451416  0.33616778  0.16663158  1
  Sb  Sb72  1  0.66951501  0.33708020  -0.00436567  1
  Sb  Sb73  1  0.16408280  0.49498596  0.66663985  1
  Sb  Sb74  1  0.83482751  0.50277393  0.33415780  1
  Sb  Sb75  1  0.66794952  0.82695839  0.16444994  1
  Sb  Sb76  1  0.33505256  0.01128658  0.66627625  1
  Sb  Sb77  1  0.32902057  0.66044538  -0.00243343  1
  Sb  Sb78  1  0.50648019  -0.00369126  0.83122721  1
  Sb  Sb79  1  0.66785391  0.83161535  0.50145765  1
  Sb  Sb80  1  0.50019712  0.33983091  0.83261247  1
  Sb  Sb81  1  0.66880883  0.00751830  0.66456380  1
  Sb  Sb82  1  0.83455353  0.33659444  0.83403229  1
  Sb  Sb83  1  0.32737996  0.65641630  0.66729186  1
  Sb  Sb84  1  -0.00454179  0.16904034  0.50620574  1
  Sb  Sb85  1  0.33941068  0.49728778  0.16565306  1
  Sb  Sb86  1  0.16469276  0.17077299  0.33532528  1
  Sb  Sb87  1  0.83447671  0.83050604  0.32906069  1
  Sb  Sb88  1  0.33379961  0.83415417  0.16706701  1
  Sb  Sb89  1  0.50234757  0.00450741  0.17066118  1
  Sb  Sb90  1  0.50263246  0.82829709  0.66413913  1
  Sb  Sb91  1  -0.00524538  0.82927095  0.83771404  1
  Sb  Sb92  1  0.66786947  0.17153315  0.16585465  1
  Sb  Sb93  1  0.15826188  0.66362507  0.16558780  1
  Sb  Sb94  1  0.33370302  0.16963203  0.16585730  1
  Sb  Sb95  1  -0.00350274  0.00372355  0.66939876  1
  Sb  Sb96  1  0.33683235  0.82773284  0.83681541  1
  Sb  Sb97  1  0.16490110  0.83166834  0.66826946  1
  Sb  Sb98  1  0.67370625  0.65818146  0.66808640  1
  Sb  Sb99  1  0.33703289  0.17259609  0.50163107  1
  Sb  Sb100  1  0.50127636  0.17043641  0.33965216  1
  Sb  Sb101  1  -0.00121942  0.16967961  0.15958757  1
  Sb  Sb102  1  0.16101757  -0.00361935  0.83812641  1
  Sb  Sb103  1  0.50906170  0.65887077  0.16438743  1
  Sb  Sb104  1  0.33200842  0.66108784  0.33488532  1
  Sb  Sb105  1  0.16447713  0.00161367  0.49745912  1
  Sb  Sb106  1  0.83774838  0.16985389  -0.00844559  1
  Sb  Sb107  1  0.83308421  0.82902232  0.67235038  1
  Te  Te108  1  0.16638826  0.16801263  0.15339491  1
  Te  Te109  1  0.16653023  0.17132064  0.50418259  1
  Te  Te110  1  0.16321399  0.16371759  0.83352928  1
  Te  Te111  1  0.16862503  0.50017206  0.16854395  1
  Te  Te112  1  0.16711345  0.49900146  0.49938015  1
  Te  Te113  1  0.16598512  0.50474282  0.83503611  1
  Te  Te114  1  0.16742732  0.83154115  0.16761472  1
  Te  Te115  1  0.16690921  0.82948074  0.49475131  1
  Te  Te116  1  0.16869232  0.82466541  0.83698553  1
  Te  Te117  1  0.50143975  0.17684886  0.16492658  1
  Te  Te118  1  0.50428628  0.16324150  0.50704125  1
  Te  Te119  1  0.50023158  0.16461677  0.82506294  1
  Te  Te120  1  0.50600924  0.49718171  0.16916793  1
  Te  Te121  1  0.50063430  0.50095819  0.49959448  1
  Te  Te122  1  0.50276943  0.50277813  0.83324275  1
  Te  Te123  1  0.50069390  0.83413185  0.17661739  1
  Te  Te124  1  0.50027264  0.83723881  0.49388956  1
  Te  Te125  1  0.50530073  0.82555228  0.83421116  1
  Te  Te126  1  0.83230941  0.17420862  0.16747629  1
  Te  Te127  1  0.82818823  0.16323589  0.50680982  1
  Te  Te128  1  0.83554936  0.16576288  0.82862703  1
  Te  Te129  1  0.82784946  0.50091453  0.16850442  1
  Te  Te130  1  0.82894563  0.50200094  0.50458082  1
  Te  Te131  1  0.83475941  0.50287552  0.83223068  1
  Te  Te132  1  0.83226867  0.82869111  0.15714069  1
  Te  Te133  1  0.83259019  0.83708468  0.50008269  1
  Te  Te134  1  0.82946711  0.83456826  0.83811291  1
  Te  Te135  1  0.16497455  -0.00718442  0.00036938  1
  Te  Te136  1  0.16536557  0.00178961  0.33293227  1
  Te  Te137  1  0.16662969  0.00572165  0.66703680  1
  Te  Te138  1  0.16426695  0.33829275  0.00064406  1
  Te  Te139  1  0.16710423  0.33560905  0.33378990  1
  Te  Te140  1  0.16352768  0.33074803  0.66469525  1
  Te  Te141  1  0.16236089  0.66404409  -0.00105244  1
  Te  Te142  1  0.16537941  0.66415998  0.33320658  1
  Te  Te143  1  0.16051018  0.66769714  0.66549412  1
  Te  Te144  1  0.49918321  -0.00001188  0.00132355  1
  Te  Te145  1  0.50038371  0.00387939  0.33531957  1
  Te  Te146  1  0.49890135  -0.00162079  0.65969972  1
  Te  Te147  1  0.50109859  0.33825372  0.00190059  1
  Te  Te148  1  0.49855459  0.33836841  0.33153607  1
  Te  Te149  1  0.49828674  0.33711083  0.66646305  1
  Te  Te150  1  0.49898081  0.66210443  -0.00273173  1
  Te  Te151  1  0.50254046  0.66349766  0.33341926  1
  Te  Te152  1  0.50002461  0.65988642  0.67031478  1
  Te  Te153  1  0.83325301  0.00409820  -0.00152204  1
  Te  Te154  1  0.83356401  -0.00192323  0.33322522  1
  Te  Te155  1  0.83443303  -0.00230791  0.66748013  1
  Te  Te156  1  0.83751873  0.33808376  0.00285569  1
  Te  Te157  1  0.83867559  0.33346645  0.33099775  1
  Te  Te158  1  0.83751292  0.33666353  0.66587144  1
  Te  Te159  1  0.83427618  0.66405766  -0.00324590  1
  Te  Te160  1  0.83306676  0.66888276  0.34312645  1
  Te  Te161  1  0.83798707  0.66317868  0.66106566  1
  Te  Te162  1  0.00321563  0.16581404  -0.00592764  1
  Te  Te163  1  0.00076897  0.16278242  0.33300908  1
  Te  Te164  1  -0.00245077  0.16954220  0.67193865  1
  Te  Te165  1  -0.00130705  0.49986057  -0.00171025  1
  Te  Te166  1  0.00304087  0.50014826  0.33330276  1
  Te  Te167  1  -0.00242497  0.49785576  0.67013617  1
  Te  Te168  1  0.00007187  0.83875785  0.00042946  1
  Te  Te169  1  0.00495017  0.83771882  0.33097561  1
  Te  Te170  1  0.00138267  0.82507820  0.66641880  1
  Te  Te171  1  0.32842672  0.16750931  -0.00131628  1
  Te  Te172  1  0.33259462  0.16618908  0.33356614  1
  Te  Te173  1  0.32851201  0.17706580  0.66710198  1
  Te  Te174  1  0.33668069  0.49658979  -0.00179628  1
  Te  Te175  1  0.33343363  0.49687284  0.33463097  1
  Te  Te176  1  0.33553776  0.49455788  0.66701602  1
  Te  Te177  1  0.33050714  0.84049512  0.00066556  1
  Te  Te178  1  0.33135737  0.83915211  0.33334006  1
  Te  Te179  1  0.33366400  0.83518001  0.66695313  1
  Te  Te180  1  0.66603965  0.16309318  -0.00260562  1
  Te  Te181  1  0.66663894  0.16176597  0.33778033  1
  Te  Te182  1  0.66989218  0.16963966  0.66545275  1
  Te  Te183  1  0.66603349  0.50165149  -0.00074150  1
  Te  Te184  1  0.66661264  0.50140447  0.33739432  1
  Te  Te185  1  0.66637377  0.49500795  0.66497693  1
  Te  Te186  1  0.66572209  0.83294696  -0.00168136  1
  Te  Te187  1  0.66505534  0.83290269  0.33316064  1
  Te  Te188  1  0.66590963  0.83233382  0.67590864  1
  Te  Te189  1  -0.00223486  0.00225072  0.16852321  1
  Te  Te190  1  -0.00486311  0.00043507  0.49747180  1
  Te  Te191  1  -0.00584478  0.00053156  0.83658043  1
  Te  Te192  1  -0.00423447  0.33361414  0.17197054  1
  Te  Te193  1  0.00474551  0.33350964  0.49520111  1
  Te  Te194  1  0.00024408  0.33516388  0.83363060  1
  Te  Te195  1  -0.00833214  0.66535072  0.17377727  1
  Te  Te196  1  0.00036117  0.66665790  0.49102626  1
  Te  Te197  1  -0.00461645  0.66532187  0.83633659  1
  Te  Te198  1  0.33428948  0.00179803  0.16700715  1
  Te  Te199  1  0.33314851  0.00024772  0.49692220  1
  Te  Te200  1  0.33455205  -0.00122988  0.83720058  1
  Te  Te201  1  0.33783665  0.33374816  0.16566561  1
  Te  Te202  1  0.33048667  0.33797592  0.49786288  1
  Te  Te203  1  0.33343475  0.34046341  0.83676337  1
  Te  Te204  1  0.33475112  0.66652588  0.16655864  1
  Te  Te205  1  0.32811053  0.65823032  0.50065290  1
  Te  Te206  1  0.33772104  0.66012388  0.83269603  1
  Te  Te207  1  0.66749987  0.00178690  0.16774346  1
  Te  Te208  1  0.66853197  -0.00262180  0.49786732  1
  Te  Te209  1  0.66986751  0.00183225  0.83506684  1
  Te  Te210  1  0.66798982  0.33829438  0.16743763  1
  Te  Te211  1  0.66736909  0.33375040  0.50409158  1
  Te  Te212  1  0.66672879  0.32405523  0.82737365  1
  Te  Te213  1  0.67273700  0.66139559  0.16897763  1
  Te  Te214  1  0.66818612  0.66376110  0.49807397  1
  Te  Te215  1  0.67168619  0.66597465  0.83504214  1
