# generated using pymatgen
data_AgSbTe2
_symmetry_space_group_name_H-M   'P 1'
_cell_length_a   18.31257805
_cell_length_b   18.31111914
_cell_length_c   18.31073343
_cell_angle_alpha   89.99606136
_cell_angle_beta   89.99831134
_cell_angle_gamma   90.00168909
_symmetry_Int_Tables_number   1
_chemical_formula_structural   AgSbTe2
_chemical_formula_sum   'Ag54 Sb54 Te108'
_cell_volume   6140.02466451
_cell_formula_units_Z   54
loop_
 _symmetry_equiv_pos_site_id
 _symmetry_equiv_pos_as_xyz
  1  'x, y, z'
loop_
 _atom_site_type_symbol
 _atom_site_label
 _atom_site_symmetry_multiplicity
 _atom_site_fract_x
 _atom_site_fract_y
 _atom_site_fract_z
 _atom_site_occupancy
  Ag  Ag0  1  0.50152067  -0.00063833  0.50682191  1
  Ag  Ag1  1  0.17780718  0.83590168  0.67448519  1
  Ag  Ag2  1  0.82770254  0.00242411  0.50245170  1
  Ag  Ag3  1  0.67348046  0.67385597  0.32559173  1
  Ag  Ag4  1  0.17113888  0.83271927  -0.00089354  1
  Ag  Ag5  1  0.49609295  0.83633641  0.67247322  1
  Ag  Ag6  1  0.34099639  -0.00574266  0.66568437  1
  Ag  Ag7  1  0.83107222  0.66795681  0.16278323  1
  Ag  Ag8  1  -0.00320088  0.33863614  -0.00287585  1
  Ag  Ag9  1  0.66941127  0.16278999  0.16644337  1
  Ag  Ag10  1  0.83475005  0.50146144  -0.00029850  1
  Ag  Ag11  1  0.32851785  0.16513432  0.49771681  1
  Ag  Ag12  1  0.66213043  0.83581387  0.84018227  1
  Ag  Ag13  1  0.33026394  0.50055984  0.15677755  1
  Ag  Ag14  1  0.15858528  0.33419502  0.84113400  1
  Ag  Ag15  1  0.83382311  0.16093833  0.33606264  1
  Ag  Ag16  1  0.49853349  0.33171410  0.50327495  1
  Ag  Ag17  1  0.50505658  -0.00640851  0.82493450  1
  Ag  Ag18  1  0.50031620  0.66940269  0.50289148  1
  Ag  Ag19  1  0.67317019  0.67141603  0.00472155  1
  Ag  Ag20  1  0.33368598  0.66978904  -0.00278363  1
  Ag  Ag21  1  0.66683740  0.32839550  0.66961939  1
  Ag  Ag22  1  0.33741500  0.67554203  0.67431609  1
  Ag  Ag23  1  0.83663040  0.33530657  0.15971922  1
  Ag  Ag24  1  0.00237056  0.49233176  0.83726083  1
  Ag  Ag25  1  -0.00369017  0.17245629  0.83149569  1
  Ag  Ag26  1  0.16895068  0.00358324  0.49763502  1
  Ag  Ag27  1  0.33199279  0.16679888  0.16872367  1
  Ag  Ag28  1  0.33518945  0.83013000  0.83596125  1
  Ag  Ag29  1  0.17124281  -0.00311068  0.17225728  1
  Ag  Ag30  1  0.16477024  0.33069222  0.16385535  1
  Ag  Ag31  1  0.33059599  0.50499198  0.83768545  1
  Ag  Ag32  1  0.66213519  0.00044320  0.66361200  1
  Ag  Ag33  1  0.67079018  -0.00671744  0.33752315  1
  Ag  Ag34  1  0.33097768  0.83251619  0.15719972  1
  Ag  Ag35  1  0.49988366  0.83136715  -0.00767212  1
  Ag  Ag36  1  0.32819651  0.34071848  0.00111816  1
  Ag  Ag37  1  0.00002178  0.83364151  0.83763274  1
  Ag  Ag38  1  -0.00685904  0.66586683  0.00280702  1
  Ag  Ag39  1  0.16506841  0.49922798  0.33285410  1
  Ag  Ag40  1  0.82976891  0.82744160  0.00305545  1
  Ag  Ag41  1  0.00170929  0.16736022  0.50192413  1
  Ag  Ag42  1  0.16848814  0.32674668  0.49833693  1
  Ag  Ag43  1  0.82992629  0.00086453  0.82964041  1
  Ag  Ag44  1  0.66468558  0.49899763  0.50043417  1
  Ag  Ag45  1  0.83839651  0.32862736  0.84206862  1
  Ag  Ag46  1  -0.00409982  0.66570044  0.32777581  1
  Ag  Ag47  1  0.83266134  0.83624556  0.32588738  1
  Ag  Ag48  1  0.66802307  0.83425885  0.16050571  1
  Ag  Ag49  1  0.67647339  0.33880142  -0.00269268  1
  Ag  Ag50  1  0.16251753  0.83283515  0.32914907  1
  Ag  Ag51  1  0.00140296  0.33620129  0.32767436  1
  Ag  Ag52  1  0.83255779  0.16345725  0.66457095  1
  Ag  Ag53  1  0.49906002  0.50514288  0.66507031  1
  Sb  Sb54  1  0.83299303  0.16961166  0.00013728  1
  Sb  Sb55  1  0.49777929  0.50077111  0.33871975  1
  Sb  Sb56  1  0.33673431  0.49620139  0.50202983  1
  Sb  Sb57  1  0.50041411  0.16351425  0.00022914  1
  Sb  Sb58  1  0.83408947  0.66956985  0.84098848  1
  Sb  Sb59  1  0.49790671  0.67432946  0.82964073  1
  Sb  Sb60  1  0.66747500  -0.00605509  -0.00119143  1
  Sb  Sb61  1  0.16831785  0.66623937  0.83611088  1
  Sb  Sb62  1  0.17240271  0.50198703  0.66575967  1
  Sb  Sb63  1  0.50351932  0.66855231  0.16809291  1
  Sb  Sb64  1  0.83423983  0.32706317  0.50002723  1
  Sb  Sb65  1  0.17027411  0.66862966  0.49782014  1
  Sb  Sb66  1  0.83400823  -0.00047780  0.16587711  1
  Sb  Sb67  1  0.50116701  0.83343832  0.33449443  1
  Sb  Sb68  1  0.16669458  0.16664534  0.00103049  1
  Sb  Sb69  1  0.50526126  0.16575582  0.33521095  1
  Sb  Sb70  1  0.66124698  0.67023241  0.66778143  1
  Sb  Sb71  1  0.83719259  0.50140942  0.32754821  1
  Sb  Sb72  1  0.49906943  0.33360457  0.16845360  1
  Sb  Sb73  1  0.33279981  0.83811711  0.50582663  1
  Sb  Sb74  1  -0.00177288  0.00002833  0.66667437  1
  Sb  Sb75  1  0.16326908  0.16239220  0.66457401  1
  Sb  Sb76  1  0.16552903  -0.00206261  0.83109738  1
  Sb  Sb77  1  0.67248828  0.16247385  0.83636359  1
  Sb  Sb78  1  0.66578361  0.83413697  0.49905246  1
  Sb  Sb79  1  0.33471767  -0.00101482  0.33768376  1
  Sb  Sb80  1  0.66546554  0.50265049  0.83160250  1
  Sb  Sb81  1  0.49774849  -0.00315210  0.16784594  1
  Sb  Sb82  1  0.66852835  0.16633043  0.49799873  1
  Sb  Sb83  1  0.16018897  0.16654158  0.33415879  1
  Sb  Sb84  1  0.00143272  0.83740383  0.50231586  1
  Sb  Sb85  1  0.33304369  -0.00658641  -0.00299125  1
  Sb  Sb86  1  0.50133945  0.33009869  0.83062803  1
  Sb  Sb87  1  0.32608911  0.33350714  0.32885005  1
  Sb  Sb88  1  -0.00065980  -0.00281295  -0.00131476  1
  Sb  Sb89  1  -0.00138916  0.17069713  0.16692347  1
  Sb  Sb90  1  0.00420104  0.49883206  0.16127028  1
  Sb  Sb91  1  0.00471993  0.66876948  0.67043302  1
  Sb  Sb92  1  0.82918918  0.67207262  0.49208846  1
  Sb  Sb93  1  0.49971873  0.50511705  -0.00571628  1
  Sb  Sb94  1  -0.00413131  -0.00130687  0.33421881  1
  Sb  Sb95  1  0.33328621  0.66906908  0.33124750  1
  Sb  Sb96  1  0.33689978  0.33194746  0.66900769  1
  Sb  Sb97  1  -0.00346369  0.49427851  0.50218978  1
  Sb  Sb98  1  0.82794479  0.49524385  0.67271161  1
  Sb  Sb99  1  -0.00300460  0.33213767  0.67161782  1
  Sb  Sb100  1  0.67294936  0.33315693  0.33275075  1
  Sb  Sb101  1  0.16444880  0.66753641  0.16560846  1
  Sb  Sb102  1  0.50477274  0.16182163  0.66490920  1
  Sb  Sb103  1  0.66518730  0.50180909  0.16850150  1
  Sb  Sb104  1  0.83017523  0.83867993  0.67113466  1
  Sb  Sb105  1  0.16518026  0.50007098  0.00205941  1
  Sb  Sb106  1  -0.00022540  0.83153441  0.16199089  1
  Sb  Sb107  1  0.32832065  0.16504068  0.83351418  1
  Te  Te108  1  0.17069611  0.16935980  0.16796232  1
  Te  Te109  1  0.16577641  0.16575922  0.49933031  1
  Te  Te110  1  0.15938940  0.17209116  0.83261409  1
  Te  Te111  1  0.17154722  0.49512757  0.17073362  1
  Te  Te112  1  0.16615585  0.49565161  0.49586561  1
  Te  Te113  1  0.16893524  0.49393631  0.83222713  1
  Te  Te114  1  0.16667221  0.83377216  0.16684895  1
  Te  Te115  1  0.16641384  0.83711606  0.49425970  1
  Te  Te116  1  0.16817410  0.83387537  0.83461976  1
  Te  Te117  1  0.49768945  0.16514444  0.16788297  1
  Te  Te118  1  0.49537237  0.16566424  0.50002852  1
  Te  Te119  1  0.49878941  0.15657224  0.83301010  1
  Te  Te120  1  0.48996192  0.50048226  0.16687380  1
  Te  Te121  1  0.50226337  0.49689296  0.50421042  1
  Te  Te122  1  0.49493109  0.49775617  0.82601647  1
  Te  Te123  1  0.50085796  0.83373653  0.16317104  1
  Te  Te124  1  0.49913943  0.83603262  0.50374890  1
  Te  Te125  1  0.49826730  0.83559394  0.83337639  1
  Te  Te126  1  0.83094356  0.16827411  0.16990079  1
  Te  Te127  1  0.83546650  0.16250545  0.49896895  1
  Te  Te128  1  0.83653596  0.16591947  0.83328717  1
  Te  Te129  1  0.83225465  0.49696747  0.16029892  1
  Te  Te130  1  0.82738064  0.50060886  0.50177127  1
  Te  Te131  1  0.83435632  0.49592098  0.83880834  1
  Te  Te132  1  0.83170419  0.83309898  0.16660261  1
  Te  Te133  1  0.83409684  0.84092679  0.49588907  1
  Te  Te134  1  0.83488552  0.83574287  0.83513166  1
  Te  Te135  1  0.16621490  -0.00597084  0.00414362  1
  Te  Te136  1  0.16679741  -0.00372339  0.33502670  1
  Te  Te137  1  0.16947851  -0.00460710  0.66274919  1
  Te  Te138  1  0.16679740  0.33401271  0.00126214  1
  Te  Te139  1  0.16175443  0.33288346  0.33284928  1
  Te  Te140  1  0.16734580  0.33320615  0.66256681  1
  Te  Te141  1  0.16744557  0.67192147  0.00175909  1
  Te  Te142  1  0.16178351  0.66826610  0.33279125  1
  Te  Te143  1  0.17398472  0.67347993  0.66489301  1
  Te  Te144  1  0.50001478  -0.00690408  -0.00378684  1
  Te  Te145  1  0.50806069  -0.00071226  0.34045084  1
  Te  Te146  1  0.50168435  -0.00118022  0.66519493  1
  Te  Te147  1  0.49969687  0.33440418  -0.00066970  1
  Te  Te148  1  0.50075736  0.33398778  0.34216051  1
  Te  Te149  1  0.50475297  0.33280953  0.66339133  1
  Te  Te150  1  0.49879343  0.67144202  0.00066932  1
  Te  Te151  1  0.50613010  0.66680953  0.34136120  1
  Te  Te152  1  0.49728150  0.66861120  0.66269276  1
  Te  Te153  1  0.83389742  -0.00688448  -0.00446917  1
  Te  Te154  1  0.83046831  -0.00189615  0.33278384  1
  Te  Te155  1  0.83048954  0.00243974  0.66643506  1
  Te  Te156  1  0.83444867  0.33255687  0.00043982  1
  Te  Te157  1  0.83964044  0.33337530  0.32908980  1
  Te  Te158  1  0.82775353  0.32907216  0.66911348  1
  Te  Te159  1  0.83394854  0.66638832  0.00231433  1
  Te  Te160  1  0.83406514  0.66877649  0.32758881  1
  Te  Te161  1  0.83396457  0.66707826  0.66383084  1
  Te  Te162  1  -0.00000683  0.17314043  -0.00527016  1
  Te  Te163  1  -0.00636633  0.16965731  0.33610098  1
  Te  Te164  1  -0.00689294  0.16632945  0.66617659  1
  Te  Te165  1  -0.00081266  0.50126584  -0.00409831  1
  Te  Te166  1  0.00412545  0.50008727  0.33496147  1
  Te  Te167  1  0.00088890  0.50202658  0.67605604  1
  Te  Te168  1  -0.00187768  0.83035677  -0.00311562  1
  Te  Te169  1  -0.00120543  0.82973311  0.33389318  1
  Te  Te170  1  0.00361334  0.83256375  0.67373155  1
  Te  Te171  1  0.33406414  0.17219801  0.00373787  1
  Te  Te172  1  0.33363388  0.16608572  0.33221715  1
  Te  Te173  1  0.33256229  0.16192122  0.66370518  1
  Te  Te174  1  0.33310520  0.50245003  -0.00213646  1
  Te  Te175  1  0.32722348  0.50167234  0.33068721  1
  Te  Te176  1  0.33810414  0.50212880  0.67062558  1
  Te  Te177  1  0.33246547  0.83181574  -0.00155833  1
  Te  Te178  1  0.32938636  0.83286865  0.32476988  1
  Te  Te179  1  0.33426062  0.83370836  0.66765502  1
  Te  Te180  1  0.66567692  0.17353978  0.00663749  1
  Te  Te181  1  0.67267750  0.16512342  0.32790325  1
  Te  Te182  1  0.67249845  0.16582907  0.66793180  1
  Te  Te183  1  0.66851642  0.50050250  0.00041918  1
  Te  Te184  1  0.66720387  0.50447351  0.33763481  1
  Te  Te185  1  0.66079562  0.49895882  0.66420797  1
  Te  Te186  1  0.66785925  0.83213713  0.00100953  1
  Te  Te187  1  0.66787991  0.83301988  0.33180782  1
  Te  Te188  1  0.66230790  0.83826794  0.67100310  1
  Te  Te189  1  0.01080714  0.00265736  0.16653816  1
  Te  Te190  1  0.00330812  0.00565420  0.49985960  1
  Te  Te191  1  -0.00409577  -0.00122864  0.83278395  1
  Te  Te192  1  0.00086571  0.33431021  0.16540826  1
  Te  Te193  1  0.00356366  0.32912572  0.49915725  1
  Te  Te194  1  -0.00056787  0.33347309  0.83452724  1
  Te  Te195  1  -0.00610801  0.66494518  0.16607484  1
  Te  Te196  1  -0.00053292  0.66473790  0.49487395  1
  Te  Te197  1  0.00120001  0.66952013  0.83848451  1
  Te  Te198  1  0.33045654  0.00002642  0.16685302  1
  Te  Te199  1  0.33213759  0.00328596  0.50332406  1
  Te  Te200  1  0.33392740  -0.00294028  0.82827186  1
  Te  Te201  1  0.33288410  0.33183479  0.16287000  1
  Te  Te202  1  0.33166788  0.32859319  0.50000722  1
  Te  Te203  1  0.33251464  0.33321122  0.83757297  1
  Te  Te204  1  0.33377695  0.66895211  0.16312640  1
  Te  Te205  1  0.33888923  0.66577962  0.50055720  1
  Te  Te206  1  0.33305532  0.66751516  0.83549967  1
  Te  Te207  1  0.66596473  -0.00116019  0.16996626  1
  Te  Te208  1  0.66781654  0.00138455  0.50072536  1
  Te  Te209  1  0.66863175  -0.00318689  0.83233372  1
  Te  Te210  1  0.66773388  0.33297098  0.16342298  1
  Te  Te211  1  0.66549082  0.33427316  0.50228176  1
  Te  Te212  1  0.66937044  0.33353123  0.83424305  1
  Te  Te213  1  0.66960891  0.66898975  0.16570093  1
  Te  Te214  1  0.66291998  0.66417050  0.49950558  1
  Te  Te215  1  0.66641652  0.67283961  0.83909356  1
