# generated using pymatgen
data_AgSbTe2
_symmetry_space_group_name_H-M   'P 1'
_cell_length_a   18.31828624
_cell_length_b   18.32583955
_cell_length_c   18.32497609
_cell_angle_alpha   90.00088497
_cell_angle_beta   89.99787955
_cell_angle_gamma   90.00111193
_symmetry_Int_Tables_number   1
_chemical_formula_structural   AgSbTe2
_chemical_formula_sum   'Ag54 Sb54 Te108'
_cell_volume   6151.65734897
_cell_formula_units_Z   54
loop_
 _symmetry_equiv_pos_site_id
 _symmetry_equiv_pos_as_xyz
  1  'x, y, z'
loop_
 _atom_site_type_symbol
 _atom_site_label
 _atom_site_symmetry_multiplicity
 _atom_site_fract_x
 _atom_site_fract_y
 _atom_site_fract_z
 _atom_site_occupancy
  Ag  Ag0  1  0.83932742  0.51127395  0.33117786  1
  Ag  Ag1  1  0.00542031  0.33672719  0.33752231  1
  Ag  Ag2  1  0.83828930  0.66484363  0.83953523  1
  Ag  Ag3  1  0.00428082  0.33008277  0.66742906  1
  Ag  Ag4  1  0.49164040  0.34135905  0.50117478  1
  Ag  Ag5  1  0.83523482  0.00040316  0.49871521  1
  Ag  Ag6  1  0.33569516  0.49350788  0.50866294  1
  Ag  Ag7  1  0.32942568  0.17539870  0.50196788  1
  Ag  Ag8  1  0.83363772  0.82774456  0.00015548  1
  Ag  Ag9  1  0.49094852  0.50220384  0.67169497  1
  Ag  Ag10  1  0.16629507  0.17386862  -0.01040337  1
  Ag  Ag11  1  0.83156013  0.67005978  0.16267010  1
  Ag  Ag12  1  0.49730296  0.50470126  -0.00984199  1
  Ag  Ag13  1  -0.00258421  0.66538955  0.67351156  1
  Ag  Ag14  1  0.49650610  0.66068422  0.50491670  1
  Ag  Ag15  1  0.32845334  0.33933678  0.66271763  1
  Ag  Ag16  1  0.67695023  0.00267318  0.67259495  1
  Ag  Ag17  1  -0.00483350  0.00827540  0.66254893  1
  Ag  Ag18  1  0.83696878  0.50988041  -0.00322996  1
  Ag  Ag19  1  -0.00298953  -0.00538786  0.33958846  1
  Ag  Ag20  1  0.32618047  0.33559122  0.34114826  1
  Ag  Ag21  1  0.00340066  0.16668160  0.50457206  1
  Ag  Ag22  1  0.66975054  0.00133123  -0.00248983  1
  Ag  Ag23  1  0.50091437  0.66114853  0.83653808  1
  Ag  Ag24  1  0.15992400  0.66337204  0.83423255  1
  Ag  Ag25  1  0.16753120  0.33179307  0.83348981  1
  Ag  Ag26  1  0.16610001  0.01150437  0.83293030  1
  Ag  Ag27  1  0.33045128  0.65715903  0.67053417  1
  Ag  Ag28  1  0.32533050  0.17359105  0.83010947  1
  Ag  Ag29  1  0.67729140  0.66910727  0.33168745  1
  Ag  Ag30  1  -0.00430555  0.66661132  0.33498900  1
  Ag  Ag31  1  0.33463751  0.50053883  0.82939161  1
  Ag  Ag32  1  0.15718492  0.82971751  0.33086903  1
  Ag  Ag33  1  0.33448637  0.82581144  0.16804701  1
  Ag  Ag34  1  0.83067691  -0.00796660  0.17313302  1
  Ag  Ag35  1  0.32718827  0.00405839  0.33195232  1
  Ag  Ag36  1  0.16510696  0.50166973  0.32859437  1
  Ag  Ag37  1  0.84264593  0.15663603  0.66830933  1
  Ag  Ag38  1  0.83794393  0.82936674  0.32953650  1
  Ag  Ag39  1  0.16540412  0.49849742  -0.00272594  1
  Ag  Ag40  1  0.00281349  0.34158808  -0.01074662  1
  Ag  Ag41  1  -0.00662325  0.66227655  -0.00881368  1
  Ag  Ag42  1  0.50168942  0.66636370  0.16316566  1
  Ag  Ag43  1  0.67904655  -0.00405155  0.33056455  1
  Ag  Ag44  1  0.66504244  0.16621015  0.83349567  1
  Ag  Ag45  1  0.33411115  0.16833103  0.17079886  1
  Ag  Ag46  1  0.83535779  0.50473684  0.67075397  1
  Ag  Ag47  1  0.33502385  0.50036466  0.16706605  1
  Ag  Ag48  1  -0.00105477  0.82914805  0.83159673  1
  Ag  Ag49  1  0.66722371  0.16060305  0.16333003  1
  Ag  Ag50  1  0.66360102  0.50121853  0.83380305  1
  Ag  Ag51  1  0.16213693  0.16893522  0.67170256  1
  Ag  Ag52  1  0.50568520  0.82234082  0.00013926  1
  Ag  Ag53  1  0.83830679  0.83414311  0.66897712  1
  Sb  Sb54  1  0.16931768  0.66394067  0.50383841  1
  Sb  Sb55  1  0.16756729  0.33396330  0.16201965  1
  Sb  Sb56  1  0.67201240  0.33174542  -0.00234813  1
  Sb  Sb57  1  0.33032461  0.00362551  0.66312994  1
  Sb  Sb58  1  0.16065397  0.83535051  0.66609239  1
  Sb  Sb59  1  0.16399107  0.82961159  0.00157501  1
  Sb  Sb60  1  0.66412268  0.50012838  0.16265825  1
  Sb  Sb61  1  0.49676453  0.17010015  -0.00104370  1
  Sb  Sb62  1  -0.00060335  0.83197685  0.16686488  1
  Sb  Sb63  1  0.16806735  0.16965739  0.33466066  1
  Sb  Sb64  1  0.66832371  0.33400399  0.33358285  1
  Sb  Sb65  1  0.83561952  0.16172293  0.33595136  1
  Sb  Sb66  1  0.83305272  0.33052428  0.50157535  1
  Sb  Sb67  1  0.66814088  0.83277497  0.49895570  1
  Sb  Sb68  1  0.32899767  0.82961049  0.83701725  1
  Sb  Sb69  1  0.16520168  0.66532184  0.16381325  1
  Sb  Sb70  1  0.49581889  0.33854176  0.16904371  1
  Sb  Sb71  1  0.50366367  -0.00490202  0.16634250  1
  Sb  Sb72  1  0.33040498  0.66320031  0.33516993  1
  Sb  Sb73  1  0.32778031  0.33631289  -0.00322262  1
  Sb  Sb74  1  0.17142853  0.33384740  0.50577433  1
  Sb  Sb75  1  0.49269180  0.34105671  0.82922612  1
  Sb  Sb76  1  0.00400883  0.49561544  0.49890959  1
  Sb  Sb77  1  0.49776389  0.17222947  0.66742621  1
  Sb  Sb78  1  0.49775562  0.50277570  0.33540504  1
  Sb  Sb79  1  0.16745835  0.49700365  0.67169342  1
  Sb  Sb80  1  0.66779666  0.83643186  0.16570030  1
  Sb  Sb81  1  0.16493315  0.00014470  0.16509194  1
  Sb  Sb82  1  0.83387273  0.33600533  0.16722408  1
  Sb  Sb83  1  0.50409429  0.82513322  0.67285569  1
  Sb  Sb84  1  0.84041117  0.34033217  0.83135629  1
  Sb  Sb85  1  0.00305823  0.50648744  0.83475097  1
  Sb  Sb86  1  0.49797613  -0.00393287  0.83328891  1
  Sb  Sb87  1  0.16117275  0.00245536  0.50189710  1
  Sb  Sb88  1  0.67292699  0.83066359  0.83479253  1
  Sb  Sb89  1  0.33323447  0.83264608  0.49565871  1
  Sb  Sb90  1  -0.00242907  0.83645604  0.50137645  1
  Sb  Sb91  1  0.49791245  0.16668022  0.33313123  1
  Sb  Sb92  1  0.33312653  0.66258920  -0.00396173  1
  Sb  Sb93  1  0.83247532  0.66823991  0.49916788  1
  Sb  Sb94  1  0.00220089  0.50157769  0.16657930  1
  Sb  Sb95  1  0.50173272  0.83016979  0.32781014  1
  Sb  Sb96  1  0.33515208  0.00170621  0.00373670  1
  Sb  Sb97  1  0.83714934  0.16593963  -0.00518380  1
  Sb  Sb98  1  0.67084931  0.66777010  0.66567533  1
  Sb  Sb99  1  -0.00366016  -0.00150336  -0.00179025  1
  Sb  Sb100  1  0.00259883  0.16324461  0.82656164  1
  Sb  Sb101  1  0.66801683  0.33166817  0.66852848  1
  Sb  Sb102  1  0.66293992  0.50123256  0.50509942  1
  Sb  Sb103  1  0.50296582  -0.00082004  0.49962944  1
  Sb  Sb104  1  0.83693057  -0.00506771  0.82974463  1
  Sb  Sb105  1  0.66733504  0.16406734  0.50203063  1
  Sb  Sb106  1  0.67027031  0.66877885  0.00222697  1
  Sb  Sb107  1  0.00060988  0.16563855  0.17009988  1
  Te  Te108  1  0.17206280  0.16598199  0.16132271  1
  Te  Te109  1  0.16793640  0.16683765  0.50505092  1
  Te  Te110  1  0.16580762  0.16774655  0.83252413  1
  Te  Te111  1  0.17396526  0.50028505  0.16495342  1
  Te  Te112  1  0.17520876  0.50008948  0.49008400  1
  Te  Te113  1  0.17056551  0.50314966  0.83609237  1
  Te  Te114  1  0.17415067  0.83343648  0.17181293  1
  Te  Te115  1  0.16711609  0.83340733  0.48903263  1
  Te  Te116  1  0.16131433  0.82425216  0.83379757  1
  Te  Te117  1  0.49646051  0.16658478  0.16443873  1
  Te  Te118  1  0.49310014  0.16854070  0.50113774  1
  Te  Te119  1  0.50093543  0.16561739  0.83401471  1
  Te  Te120  1  0.49711804  0.50541439  0.16342900  1
  Te  Te121  1  0.49649636  0.50209651  0.50275556  1
  Te  Te122  1  0.49759771  0.50189633  0.83200009  1
  Te  Te123  1  0.49550853  0.82839919  0.16051903  1
  Te  Te124  1  0.49976218  0.82467104  0.50207024  1
  Te  Te125  1  0.49892249  0.82671777  0.84109395  1
  Te  Te126  1  0.83026535  0.16485221  0.16442097  1
  Te  Te127  1  0.83515055  0.16288141  0.50684748  1
  Te  Te128  1  0.82783965  0.16823650  0.82815128  1
  Te  Te129  1  0.83130097  0.50447828  0.16558150  1
  Te  Te130  1  0.83229204  0.49951631  0.50184796  1
  Te  Te131  1  0.83218569  0.50374029  0.83363924  1
  Te  Te132  1  0.83379524  0.83140902  0.16740101  1
  Te  Te133  1  0.83333651  0.83942239  0.50072879  1
  Te  Te134  1  0.83703165  0.82817754  0.83309051  1
  Te  Te135  1  0.16610438  -0.00045784  -0.00556132  1
  Te  Te136  1  0.16398663  -0.00090199  0.33326356  1
  Te  Te137  1  0.16212913  0.00270156  0.67063811  1
  Te  Te138  1  0.16191006  0.33599046  -0.00449040  1
  Te  Te139  1  0.16671943  0.33644277  0.33203837  1
  Te  Te140  1  0.16637823  0.33148089  0.67140626  1
  Te  Te141  1  0.16018547  0.66309556  -0.00358586  1
  Te  Te142  1  0.16209412  0.66560632  0.33240371  1
  Te  Te143  1  0.16395838  0.66714638  0.67092767  1
  Te  Te144  1  0.50654510  -0.00156081  -0.00055513  1
  Te  Te145  1  0.49865981  -0.00207690  0.33436040  1
  Te  Te146  1  0.50473099  -0.00334928  0.66566061  1
  Te  Te147  1  0.50147561  0.34268153  0.00031909  1
  Te  Te148  1  0.49588376  0.33468432  0.33833549  1
  Te  Te149  1  0.49679401  0.33978125  0.66299164  1
  Te  Te150  1  0.50101790  0.66460064  -0.00005338  1
  Te  Te151  1  0.50161847  0.66710796  0.32801327  1
  Te  Te152  1  0.50200983  0.66235538  0.66923088  1
  Te  Te153  1  0.83083109  -0.00185277  0.00227813  1
  Te  Te154  1  0.83607214  0.00034765  0.33313402  1
  Te  Te155  1  0.83499020  -0.00163019  0.66870568  1
  Te  Te156  1  0.84281893  0.33764254  -0.00016682  1
  Te  Te157  1  0.83798431  0.33830498  0.33444238  1
  Te  Te158  1  0.83798591  0.33915010  0.66583879  1
  Te  Te159  1  0.83278439  0.66720078  0.00030819  1
  Te  Te160  1  0.83453264  0.66829633  0.33716147  1
  Te  Te161  1  0.83576889  0.66698597  0.66545305  1
  Te  Te162  1  0.00573119  0.16870185  0.00127707  1
  Te  Te163  1  0.00179049  0.16869886  0.33844483  1
  Te  Te164  1  0.00025973  0.16746870  0.66549924  1
  Te  Te165  1  -0.00007259  0.50099364  0.00151901  1
  Te  Te166  1  0.00018014  0.50078781  0.33301618  1
  Te  Te167  1  -0.00096504  0.49989496  0.66471855  1
  Te  Te168  1  -0.00422587  0.82952705  -0.00227663  1
  Te  Te169  1  -0.00172299  0.83373507  0.33327999  1
  Te  Te170  1  -0.00259000  0.82797588  0.66770437  1
  Te  Te171  1  0.32884308  0.16876014  -0.00372164  1
  Te  Te172  1  0.33154412  0.16775114  0.33392694  1
  Te  Te173  1  0.33103255  0.16764582  0.66832409  1
  Te  Te174  1  0.33171491  0.49962308  -0.00089445  1
  Te  Te175  1  0.33137411  0.49838656  0.33009154  1
  Te  Te176  1  0.33052778  0.49987922  0.66763735  1
  Te  Te177  1  0.33474061  0.83334539  0.00638344  1
  Te  Te178  1  0.33407975  0.83540611  0.32852190  1
  Te  Te179  1  0.33351265  0.83062070  0.66609193  1
  Te  Te180  1  0.66713476  0.16373689  -0.00205216  1
  Te  Te181  1  0.66687686  0.16390175  0.32994514  1
  Te  Te182  1  0.66736088  0.16358620  0.66993499  1
  Te  Te183  1  0.66967192  0.49933372  -0.00504699  1
  Te  Te184  1  0.67250602  0.50215888  0.33204178  1
  Te  Te185  1  0.67180705  0.49925447  0.67237591  1
  Te  Te186  1  0.66923720  0.84020643  -0.00023007  1
  Te  Te187  1  0.67182001  0.83425518  0.33248442  1
  Te  Te188  1  0.67328184  0.84045275  0.66713436  1
  Te  Te189  1  -0.00636819  -0.00034259  0.17156891  1
  Te  Te190  1  -0.00404801  0.00367722  0.50141131  1
  Te  Te191  1  0.00417147  -0.00615038  0.83014248  1
  Te  Te192  1  -0.00031938  0.33232036  0.17552460  1
  Te  Te193  1  -0.00031425  0.32805261  0.50137158  1
  Te  Te194  1  0.00644744  0.33158333  0.83095754  1
  Te  Te195  1  -0.00599619  0.66714335  0.17184774  1
  Te  Te196  1  0.00090817  0.66503138  0.49756237  1
  Te  Te197  1  -0.00253481  0.66774915  0.83243590  1
  Te  Te198  1  0.33313044  0.00590994  0.17091277  1
  Te  Te199  1  0.33387317  0.00336937  0.49353510  1
  Te  Te200  1  0.32837974  0.00190238  0.83322339  1
  Te  Te201  1  0.33356537  0.33301898  0.17257153  1
  Te  Te202  1  0.33381851  0.33331814  0.50140523  1
  Te  Te203  1  0.32866839  0.33347773  0.83051266  1
  Te  Te204  1  0.33548928  0.66456706  0.16628922  1
  Te  Te205  1  0.33695152  0.66449356  0.50567271  1
  Te  Te206  1  0.33524395  0.66501122  0.83027908  1
  Te  Te207  1  0.66940578  0.00214179  0.16951058  1
  Te  Te208  1  0.67101131  0.00049577  0.49522898  1
  Te  Te209  1  0.66613450  0.00202601  0.83336553  1
  Te  Te210  1  0.66498070  0.32201230  0.16659076  1
  Te  Te211  1  0.65554284  0.33218691  0.49972196  1
  Te  Te212  1  0.66598448  0.33273769  0.83337981  1
  Te  Te213  1  0.66837522  0.66566010  0.17124445  1
  Te  Te214  1  0.65895114  0.66627331  0.49316007  1
  Te  Te215  1  0.66618384  0.66270431  0.83312555  1
