# generated using pymatgen
data_AgSbTe2
_symmetry_space_group_name_H-M   'P 1'
_cell_length_a   18.33340148
_cell_length_b   18.33599806
_cell_length_c   18.32967499
_cell_angle_alpha   89.99879691
_cell_angle_beta   89.99692974
_cell_angle_gamma   90.00062394
_symmetry_Int_Tables_number   1
_chemical_formula_structural   AgSbTe2
_chemical_formula_sum   'Ag54 Sb54 Te108'
_cell_volume   6161.72578501
_cell_formula_units_Z   54
loop_
 _symmetry_equiv_pos_site_id
 _symmetry_equiv_pos_as_xyz
  1  'x, y, z'
loop_
 _atom_site_type_symbol
 _atom_site_label
 _atom_site_symmetry_multiplicity
 _atom_site_fract_x
 _atom_site_fract_y
 _atom_site_fract_z
 _atom_site_occupancy
  Ag  Ag0  1  0.49502448  0.48812090  0.33069385  1
  Ag  Ag1  1  0.00391981  0.49940539  0.16988966  1
  Ag  Ag2  1  0.65867405  0.66615651  0.66798785  1
  Ag  Ag3  1  0.17130471  0.00272705  0.17118868  1
  Ag  Ag4  1  0.66414516  0.83127989  0.83482605  1
  Ag  Ag5  1  0.33836454  0.49953292  0.50037534  1
  Ag  Ag6  1  0.33229912  0.83478351  0.17078470  1
  Ag  Ag7  1  0.00938932  0.33237004  0.33004367  1
  Ag  Ag8  1  0.17183783  0.49274651  0.33030580  1
  Ag  Ag9  1  0.17022252  0.66768332  0.16958821  1
  Ag  Ag10  1  0.00448399  0.66276056  0.32967345  1
  Ag  Ag11  1  0.65406735  0.33046954  0.33218217  1
  Ag  Ag12  1  0.66042526  0.66635812  0.00065461  1
  Ag  Ag13  1  0.49917376  0.67007120  0.16401840  1
  Ag  Ag14  1  0.49151466  0.00036378  0.16412266  1
  Ag  Ag15  1  0.33909317  0.32625721  0.00215290  1
  Ag  Ag16  1  0.82965492  0.67106795  0.49678111  1
  Ag  Ag17  1  0.65701648  0.49067128  0.49883090  1
  Ag  Ag18  1  0.65516798  0.33352430  0.65917709  1
  Ag  Ag19  1  0.33709534  0.66895481  0.66605886  1
  Ag  Ag20  1  0.81728878  0.16483526  0.00317046  1
  Ag  Ag21  1  0.83196305  0.33481675  0.16793595  1
  Ag  Ag22  1  0.17074630  0.66731020  0.84132319  1
  Ag  Ag23  1  0.33216377  0.83613370  0.49911473  1
  Ag  Ag24  1  0.49655291  0.17008323  0.33469759  1
  Ag  Ag25  1  0.50070042  0.84055495  0.00201058  1
  Ag  Ag26  1  0.49826715  0.17102294  0.66076073  1
  Ag  Ag27  1  0.17996094  0.16334818  0.00841657  1
  Ag  Ag28  1  0.83271104  0.83532914  0.66328089  1
  Ag  Ag29  1  0.66082312  0.17023615  0.49347971  1
  Ag  Ag30  1  0.65558344  0.32648970  0.00709663  1
  Ag  Ag31  1  0.49724340  0.00930035  0.49499989  1
  Ag  Ag32  1  0.33676322  0.00603589  0.00237732  1
  Ag  Ag33  1  0.33829695  0.33027574  0.66704993  1
  Ag  Ag34  1  0.65411170  0.00922244  0.00356714  1
  Ag  Ag35  1  0.17210063  0.83647037  0.66099779  1
  Ag  Ag36  1  0.33221549  -0.00165387  0.66399662  1
  Ag  Ag37  1  0.50009673  0.32762055  0.49806975  1
  Ag  Ag38  1  0.82893090  0.66436719  0.16965494  1
  Ag  Ag39  1  0.00579573  0.00289139  0.00900441  1
  Ag  Ag40  1  0.83176590  -0.00361320  0.50069858  1
  Ag  Ag41  1  0.33702586  0.17171240  0.83793570  1
  Ag  Ag42  1  0.33665013  0.33493243  0.33031765  1
  Ag  Ag43  1  0.16909661  0.84167493  0.33336305  1
  Ag  Ag44  1  0.33729940  0.49252183  0.82876192  1
  Ag  Ag45  1  0.66302400  0.17007922  0.16418860  1
  Ag  Ag46  1  0.17217616  0.16654392  0.32752898  1
  Ag  Ag47  1  0.49830224  0.16834120  0.00382885  1
  Ag  Ag48  1  0.01120379  -0.00099820  0.65802779  1
  Ag  Ag49  1  0.16671235  0.32535699  0.17168558  1
  Ag  Ag50  1  0.17303449  -0.00103949  0.49001944  1
  Ag  Ag51  1  0.00914407  0.00198286  0.33374624  1
  Ag  Ag52  1  0.49882595  0.48579333  0.00760375  1
  Ag  Ag53  1  0.49672316  0.33179790  0.83507763  1
  Sb  Sb54  1  0.65991136  0.83502642  0.16284687  1
  Sb  Sb55  1  0.49232992  0.83698642  0.33017340  1
  Sb  Sb56  1  0.00661501  0.83194813  0.16831392  1
  Sb  Sb57  1  0.16662368  0.67159599  0.49374977  1
  Sb  Sb58  1  0.33832493  0.66609303  -0.00112162  1
  Sb  Sb59  1  0.17173649  0.50409325  0.65925074  1
  Sb  Sb60  1  0.50137682  0.66481486  0.49649680  1
  Sb  Sb61  1  0.00896906  0.16621414  0.83654684  1
  Sb  Sb62  1  0.49716439  0.49255030  0.66205675  1
  Sb  Sb63  1  0.82097536  0.33099032  0.83957614  1
  Sb  Sb64  1  0.00285416  0.32741554  0.65873369  1
  Sb  Sb65  1  0.66212469  0.83513633  0.50344750  1
  Sb  Sb66  1  0.49738787  0.32855272  0.16811255  1
  Sb  Sb67  1  0.32975977  0.00679403  0.33345107  1
  Sb  Sb68  1  0.66867055  0.66011777  0.33260791  1
  Sb  Sb69  1  0.83124800  0.16818766  0.32900541  1
  Sb  Sb70  1  0.82559339  0.83812344  -0.00157805  1
  Sb  Sb71  1  0.17614086  0.16096060  0.66390051  1
  Sb  Sb72  1  0.33315689  0.50136763  0.16961576  1
  Sb  Sb73  1  0.00206699  0.67183916  0.66021987  1
  Sb  Sb74  1  0.16963689  -0.00307686  0.83511813  1
  Sb  Sb75  1  -0.00296677  0.67175542  0.00792912  1
  Sb  Sb76  1  0.49848106  0.00527672  0.83831739  1
  Sb  Sb77  1  0.66696502  0.00609055  0.33072310  1
  Sb  Sb78  1  0.00634702  0.83648261  0.49992257  1
  Sb  Sb79  1  0.83391552  0.66740744  0.83379107  1
  Sb  Sb80  1  0.33721250  0.16244606  0.16291750  1
  Sb  Sb81  1  0.00057748  0.16939533  0.16691378  1
  Sb  Sb82  1  0.00254075  0.50130764  0.49168387  1
  Sb  Sb83  1  -0.00057240  0.83390459  0.83273923  1
  Sb  Sb84  1  0.33631899  0.83393823  0.83319268  1
  Sb  Sb85  1  0.32942033  0.66223135  0.33592541  1
  Sb  Sb86  1  0.49591246  0.66123050  0.83672561  1
  Sb  Sb87  1  0.66047788  0.00101620  0.66861789  1
  Sb  Sb88  1  0.17735469  0.33594618  0.83947951  1
  Sb  Sb89  1  0.65869247  0.50124740  0.83113365  1
  Sb  Sb90  1  0.17405646  0.83808102  0.00313272  1
  Sb  Sb91  1  0.00154992  0.32848714  0.00693619  1
  Sb  Sb92  1  0.17520934  0.49612917  0.00881663  1
  Sb  Sb93  1  0.34132856  0.16505801  0.50208737  1
  Sb  Sb94  1  0.66438367  0.49420943  0.17020721  1
  Sb  Sb95  1  0.83505762  0.00009377  0.16934248  1
  Sb  Sb96  1  0.82304825  0.33237860  0.49353900  1
  Sb  Sb97  1  0.49712819  0.83813834  0.67012889  1
  Sb  Sb98  1  0.82947450  0.50504682  0.66340204  1
  Sb  Sb99  1  0.83180587  0.00066250  0.83134796  1
  Sb  Sb100  1  -0.00422729  0.16360432  0.49654443  1
  Sb  Sb101  1  0.83964546  0.83289163  0.33704387  1
  Sb  Sb102  1  0.82538356  0.16245418  0.66859122  1
  Sb  Sb103  1  0.65811467  0.16414376  0.83730532  1
  Sb  Sb104  1  0.82492857  0.49602584  0.00323748  1
  Sb  Sb105  1  0.01184062  0.50010222  0.84127913  1
  Sb  Sb106  1  0.83399432  0.49898029  0.33159303  1
  Sb  Sb107  1  0.17859154  0.32627443  0.49169000  1
  Te  Te108  1  0.16603828  0.16496572  0.16741912  1
  Te  Te109  1  0.16401256  0.15932109  0.49591203  1
  Te  Te110  1  0.17590812  0.16795710  0.83773883  1
  Te  Te111  1  0.16644343  0.50400896  0.17151501  1
  Te  Te112  1  0.17113937  0.49921183  0.49154108  1
  Te  Te113  1  0.17590284  0.50536141  0.83357734  1
  Te  Te114  1  0.17145522  0.83493306  0.16912291  1
  Te  Te115  1  0.17208625  0.83765689  0.49995414  1
  Te  Te116  1  0.16755856  0.82689477  0.83052707  1
  Te  Te117  1  0.50260081  0.16260198  0.16870021  1
  Te  Te118  1  0.50311654  0.16655543  0.49699724  1
  Te  Te119  1  0.49568330  0.17126353  0.83508239  1
  Te  Te120  1  0.49973042  0.50673203  0.16831466  1
  Te  Te121  1  0.49885056  0.49987345  0.49492889  1
  Te  Te122  1  0.49524687  0.49434731  0.83874465  1
  Te  Te123  1  0.49456666  0.83618370  0.16379845  1
  Te  Te124  1  0.49342905  0.83667578  0.49974959  1
  Te  Te125  1  0.50377234  0.83172070  0.83813428  1
  Te  Te126  1  0.82758067  0.16797447  0.16250776  1
  Te  Te127  1  0.82439967  0.16287546  0.50084775  1
  Te  Te128  1  0.83609891  0.16750698  0.84187647  1
  Te  Te129  1  0.83734867  0.50186283  0.16611664  1
  Te  Te130  1  0.83034056  0.50431938  0.49925119  1
  Te  Te131  1  0.83747298  0.49936573  0.83363250  1
  Te  Te132  1  0.83350324  0.82682473  0.16754068  1
  Te  Te133  1  0.83024915  0.83425133  0.50327175  1
  Te  Te134  1  0.82815022  0.83264747  0.82625504  1
  Te  Te135  1  0.16927728  0.00190067  0.00232975  1
  Te  Te136  1  0.16740515  0.00172287  0.33221253  1
  Te  Te137  1  0.16992523  -0.00257991  0.66748576  1
  Te  Te138  1  0.16946480  0.32848678  0.00664206  1
  Te  Te139  1  0.16880872  0.33162803  0.33105244  1
  Te  Te140  1  0.17043289  0.33152326  0.66563464  1
  Te  Te141  1  0.16673404  0.66706863  0.00473215  1
  Te  Te142  1  0.16448953  0.66673480  0.32977493  1
  Te  Te143  1  0.16886462  0.67198137  0.66202395  1
  Te  Te144  1  0.49747997  0.00288304  0.00079340  1
  Te  Te145  1  0.50000476  0.00445497  0.33137590  1
  Te  Te146  1  0.49476177  0.00503089  0.66348259  1
  Te  Te147  1  0.49834657  0.33079395  0.00490544  1
  Te  Te148  1  0.49817405  0.33175131  0.33167118  1
  Te  Te149  1  0.49870835  0.33216423  0.66298956  1
  Te  Te150  1  0.50185558  0.67062372  0.00243687  1
  Te  Te151  1  0.50030287  0.66732179  0.32714552  1
  Te  Te152  1  0.49913778  0.66739731  0.66656518  1
  Te  Te153  1  0.83702048  0.00399038  0.00059835  1
  Te  Te154  1  0.83946013  0.00003751  0.33908136  1
  Te  Te155  1  0.82995727  -0.00301114  0.66227922  1
  Te  Te156  1  0.83276040  0.32843920  0.00670766  1
  Te  Te157  1  0.83809573  0.33286222  0.32704186  1
  Te  Te158  1  0.83271691  0.33254307  0.66715663  1
  Te  Te159  1  0.82804507  0.66779157  0.00344978  1
  Te  Te160  1  0.83686635  0.66637292  0.33131912  1
  Te  Te161  1  0.83339859  0.67205106  0.66500441  1
  Te  Te162  1  0.00468754  0.16142615  0.00000524  1
  Te  Te163  1  0.00401935  0.16604388  0.33292392  1
  Te  Te164  1  -0.00160125  0.15909281  0.66814176  1
  Te  Te165  1  0.00028211  0.50110423  0.00789188  1
  Te  Te166  1  0.00254254  0.49953900  0.32926487  1
  Te  Te167  1  0.00196968  0.49839747  0.66765224  1
  Te  Te168  1  -0.00176889  0.84188791  -0.00064538  1
  Te  Te169  1  0.00728247  0.83613706  0.33402988  1
  Te  Te170  1  0.00009422  0.83967965  0.66680484  1
  Te  Te171  1  0.33669790  0.16646349  0.00057135  1
  Te  Te172  1  0.33366065  0.17393169  0.33508937  1
  Te  Te173  1  0.33857531  0.16802400  0.66918417  1
  Te  Te174  1  0.33914848  0.49719284  -0.00228656  1
  Te  Te175  1  0.33427844  0.49633769  0.33586712  1
  Te  Te176  1  0.33274265  0.50045835  0.66447928  1
  Te  Te177  1  0.33899591  0.83698082  0.00185374  1
  Te  Te178  1  0.32772793  0.83041204  0.33478928  1
  Te  Te179  1  0.33195793  0.83490887  0.66608223  1
  Te  Te180  1  0.66145258  0.16784083  -0.00065136  1
  Te  Te181  1  0.66466650  0.17086645  0.33165013  1
  Te  Te182  1  0.65995563  0.17066630  0.66791648  1
  Te  Te183  1  0.65939721  0.50116501  -0.00057552  1
  Te  Te184  1  0.66281718  0.49326818  0.33804518  1
  Te  Te185  1  0.66535111  0.50121088  0.66251970  1
  Te  Te186  1  0.66196266  0.82936976  -0.00256632  1
  Te  Te187  1  0.66703312  0.83315908  0.33306044  1
  Te  Te188  1  0.66719340  0.83069510  0.66974355  1
  Te  Te189  1  0.00315863  -0.00061707  0.16887958  1
  Te  Te190  1  -0.00053735  -0.00009262  0.49905583  1
  Te  Te191  1  0.00035557  -0.00045168  0.83119465  1
  Te  Te192  1  0.00206684  0.33613444  0.17043622  1
  Te  Te193  1  -0.00323171  0.33319925  0.49295693  1
  Te  Te194  1  0.00022232  0.33467942  0.82965979  1
  Te  Te195  1  0.00254164  0.66510795  0.17022327  1
  Te  Te196  1  -0.00831199  0.66684734  0.49292983  1
  Te  Te197  1  0.00833441  0.66576597  0.83366248  1
  Te  Te198  1  0.33246784  -0.00283774  0.16617302  1
  Te  Te199  1  0.33437957  -0.00087022  0.50007409  1
  Te  Te200  1  0.33391029  0.00284729  0.83073327  1
  Te  Te201  1  0.32780080  0.33517468  0.16636668  1
  Te  Te202  1  0.33944933  0.33585464  0.50283851  1
  Te  Te203  1  0.33694296  0.33319852  0.83258105  1
  Te  Te204  1  0.33352895  0.67087325  0.16648062  1
  Te  Te205  1  0.33375465  0.66575981  0.50525794  1
  Te  Te206  1  0.32965340  0.66559081  0.82871119  1
  Te  Te207  1  0.66686679  0.00318693  0.16238158  1
  Te  Te208  1  0.66285439  0.00337861  0.49977135  1
  Te  Te209  1  0.66599528  -0.00640031  0.84097000  1
  Te  Te210  1  0.66824312  0.33158258  0.16643034  1
  Te  Te211  1  0.66244330  0.33211217  0.49944613  1
  Te  Te212  1  0.65827296  0.33389832  0.83381716  1
  Te  Te213  1  0.66540609  0.66571766  0.16521876  1
  Te  Te214  1  0.66922263  0.66687547  0.50277685  1
  Te  Te215  1  0.66707464  0.66811762  0.83129563  1
