# generated using pymatgen
data_AgSbTe2
_symmetry_space_group_name_H-M   'P 1'
_cell_length_a   18.30695132
_cell_length_b   18.31037662
_cell_length_c   18.31359814
_cell_angle_alpha   89.99824815
_cell_angle_beta   90.00390667
_cell_angle_gamma   90.00427208
_symmetry_Int_Tables_number   1
_chemical_formula_structural   AgSbTe2
_chemical_formula_sum   'Ag54 Sb54 Te108'
_cell_volume   6138.84943434
_cell_formula_units_Z   54
loop_
 _symmetry_equiv_pos_site_id
 _symmetry_equiv_pos_as_xyz
  1  'x, y, z'
loop_
 _atom_site_type_symbol
 _atom_site_label
 _atom_site_symmetry_multiplicity
 _atom_site_fract_x
 _atom_site_fract_y
 _atom_site_fract_z
 _atom_site_occupancy
  Ag  Ag0  1  0.32663021  0.16614867  0.17232081  1
  Ag  Ag1  1  -0.00269500  0.00202590  -0.00495232  1
  Ag  Ag2  1  0.17157775  0.83459401  0.33479687  1
  Ag  Ag3  1  0.17212894  0.49092848  0.33239143  1
  Ag  Ag4  1  0.66241636  0.67043403  0.33180962  1
  Ag  Ag5  1  -0.00269830  0.49173377  0.16859980  1
  Ag  Ag6  1  0.49508128  0.16741402  0.66646060  1
  Ag  Ag7  1  0.16635758  0.32966985  0.84037369  1
  Ag  Ag8  1  0.83472817  0.00358729  0.16287778  1
  Ag  Ag9  1  0.33170410  0.33821638  0.00553506  1
  Ag  Ag10  1  0.49094846  0.00025499  0.83430695  1
  Ag  Ag11  1  0.33531813  0.83324069  0.49735908  1
  Ag  Ag12  1  0.16949549  0.83516915  0.66809999  1
  Ag  Ag13  1  0.00201604  0.33134947  0.65716505  1
  Ag  Ag14  1  0.33058397  0.83375542  0.83478381  1
  Ag  Ag15  1  0.49338189  0.50282509  0.33138373  1
  Ag  Ag16  1  0.49986660  0.50572777  0.00326624  1
  Ag  Ag17  1  0.84479000  -0.00057237  0.84160747  1
  Ag  Ag18  1  0.33361619  0.49981271  0.49730298  1
  Ag  Ag19  1  0.49689871  0.82496479  0.00012488  1
  Ag  Ag20  1  0.00453973  0.49190756  0.49563169  1
  Ag  Ag21  1  0.84037742  0.33418852  0.49083697  1
  Ag  Ag22  1  0.84447813  0.33320444  0.16787194  1
  Ag  Ag23  1  0.33202343  0.50365462  0.83657291  1
  Ag  Ag24  1  0.33262931  0.83692386  0.16749014  1
  Ag  Ag25  1  0.83080396  0.49907077  0.00307163  1
  Ag  Ag26  1  0.00514507  0.16317576  0.83510962  1
  Ag  Ag27  1  0.00758923  0.17426626  0.50048425  1
  Ag  Ag28  1  0.00772507  0.00538709  0.67469411  1
  Ag  Ag29  1  0.50039375  0.66328399  0.16434183  1
  Ag  Ag30  1  0.66730734  0.50132821  0.16364105  1
  Ag  Ag31  1  0.33206928  0.00121786  0.33594588  1
  Ag  Ag32  1  0.33714976  0.66243709  -0.00125308  1
  Ag  Ag33  1  0.32775051  0.16740612  0.49378729  1
  Ag  Ag34  1  0.49984138  0.66471442  0.49668196  1
  Ag  Ag35  1  0.32909747  -0.00237190  0.66749152  1
  Ag  Ag36  1  0.16680313  0.00017351  0.83309986  1
  Ag  Ag37  1  0.16821736  0.66807599  0.83484991  1
  Ag  Ag38  1  0.16360960  0.33065621  0.16826332  1
  Ag  Ag39  1  0.00786397  0.17351471  0.16614733  1
  Ag  Ag40  1  0.16851930  0.17354207  0.32710031  1
  Ag  Ag41  1  0.83149422  0.83606030  0.33267183  1
  Ag  Ag42  1  0.66214973  0.66640924  0.66610573  1
  Ag  Ag43  1  0.65679409  0.66402547  0.00292687  1
  Ag  Ag44  1  0.16650650  0.16858223  0.00500076  1
  Ag  Ag45  1  0.65973178  0.82962634  0.49585621  1
  Ag  Ag46  1  0.66350912  0.34430317  0.00298612  1
  Ag  Ag47  1  0.00483473  0.66598921  -0.00253857  1
  Ag  Ag48  1  0.67048638  -0.00198313  0.00291482  1
  Ag  Ag49  1  0.32291028  0.33064503  0.32914303  1
  Ag  Ag50  1  0.66343578  -0.00706864  0.32743965  1
  Ag  Ag51  1  0.49631657  0.50144039  0.66695834  1
  Ag  Ag52  1  0.00238781  0.66399593  0.67022391  1
  Ag  Ag53  1  0.00594285  0.33381268  0.33281823  1
  Sb  Sb54  1  0.33278796  0.66964326  0.67067154  1
  Sb  Sb55  1  0.66048963  0.83315109  0.83269964  1
  Sb  Sb56  1  0.66935195  0.16434094  0.83494703  1
  Sb  Sb57  1  0.84106724  0.16784952  0.00172143  1
  Sb  Sb58  1  0.16250784  0.33304559  0.49557940  1
  Sb  Sb59  1  0.49376507  0.16695206  -0.00269826  1
  Sb  Sb60  1  0.16898812  0.00067978  0.50366651  1
  Sb  Sb61  1  0.00778352  0.83927530  0.83267634  1
  Sb  Sb62  1  0.49337604  0.83090386  0.66943204  1
  Sb  Sb63  1  0.00390307  0.83314801  0.50018207  1
  Sb  Sb64  1  0.66741910  0.33507915  0.32762258  1
  Sb  Sb65  1  0.84181661  0.33058692  0.83885902  1
  Sb  Sb66  1  0.49275875  0.33107337  0.83488998  1
  Sb  Sb67  1  0.32751945  0.33047151  0.66503154  1
  Sb  Sb68  1  0.00538732  0.00531364  0.33203698  1
  Sb  Sb69  1  0.17041236  0.66278303  0.16394515  1
  Sb  Sb70  1  0.82923449  0.83319079  0.00452191  1
  Sb  Sb71  1  0.16728310  0.16353050  0.66653641  1
  Sb  Sb72  1  0.16871341  0.49631188  0.00394974  1
  Sb  Sb73  1  0.49959179  0.33911593  0.49957699  1
  Sb  Sb74  1  0.33386827  0.49843041  0.16772079  1
  Sb  Sb75  1  0.00475835  0.83407054  0.16653685  1
  Sb  Sb76  1  0.33204468  -0.00056360  -0.00080310  1
  Sb  Sb77  1  0.16930822  0.50184412  0.66403103  1
  Sb  Sb78  1  0.32668958  0.16459513  0.83340928  1
  Sb  Sb79  1  0.00447112  0.33224032  0.00549155  1
  Sb  Sb80  1  0.66434119  0.16290877  0.49772932  1
  Sb  Sb81  1  0.83794910  0.83421301  0.66330984  1
  Sb  Sb82  1  0.00694121  0.49701369  0.83505654  1
  Sb  Sb83  1  0.66649761  0.16889657  0.16542319  1
  Sb  Sb84  1  0.17229253  0.83550130  -0.00044585  1
  Sb  Sb85  1  0.66476090  0.50508530  0.49479583  1
  Sb  Sb86  1  0.82967199  0.66467762  0.16523981  1
  Sb  Sb87  1  0.66926733  0.33840851  0.67078055  1
  Sb  Sb88  1  0.83588069  0.16616917  0.66646819  1
  Sb  Sb89  1  0.49554498  -0.00464827  0.50186101  1
  Sb  Sb90  1  0.33712916  0.66652797  0.32987161  1
  Sb  Sb91  1  0.49722976  0.82840592  0.33065824  1
  Sb  Sb92  1  0.84039661  0.16436023  0.33158941  1
  Sb  Sb93  1  0.49592510  0.33882911  0.16573929  1
  Sb  Sb94  1  0.49347434  0.66827872  0.83683785  1
  Sb  Sb95  1  0.83878471  0.67108014  0.83607632  1
  Sb  Sb96  1  0.16455455  0.00730739  0.16272049  1
  Sb  Sb97  1  0.83364219  0.50151978  0.32838686  1
  Sb  Sb98  1  0.83528978  0.00254953  0.49708566  1
  Sb  Sb99  1  0.50147865  -0.00421209  0.16304654  1
  Sb  Sb100  1  0.83046677  0.66346272  0.49880472  1
  Sb  Sb101  1  -0.00162147  0.66135934  0.33240630  1
  Sb  Sb102  1  0.83260550  0.50005974  0.67014341  1
  Sb  Sb103  1  0.66458535  -0.00549871  0.66822670  1
  Sb  Sb104  1  0.49004568  0.17002747  0.33683208  1
  Sb  Sb105  1  0.66317036  0.82885746  0.16926063  1
  Sb  Sb106  1  0.65885585  0.50181171  0.84181166  1
  Sb  Sb107  1  0.17174082  0.66607921  0.50176439  1
  Te  Te108  1  0.16756461  0.16808999  0.16689546  1
  Te  Te109  1  0.16773378  0.16647301  0.49521343  1
  Te  Te110  1  0.16324358  0.16552750  0.83334332  1
  Te  Te111  1  0.16215693  0.49565501  0.17204313  1
  Te  Te112  1  0.16837608  0.50031174  0.49457347  1
  Te  Te113  1  0.17306016  0.50214422  0.83359683  1
  Te  Te114  1  0.17277821  0.83280028  0.17062440  1
  Te  Te115  1  0.17204704  0.83299658  0.49866808  1
  Te  Te116  1  0.17200941  0.83373712  0.83261357  1
  Te  Te117  1  0.49238120  0.16713779  0.16713337  1
  Te  Te118  1  0.49534774  0.16774459  0.50544153  1
  Te  Te119  1  0.49935609  0.16216115  0.82863645  1
  Te  Te120  1  0.50120984  0.50304890  0.16510424  1
  Te  Te121  1  0.49822224  0.50430942  0.49878617  1
  Te  Te122  1  0.49211551  0.49897411  0.83366355  1
  Te  Te123  1  0.49457315  0.82821318  0.16172060  1
  Te  Te124  1  0.49726909  0.82738217  0.50065618  1
  Te  Te125  1  0.49331630  0.83829438  0.83759411  1
  Te  Te126  1  0.83590601  0.16754243  0.16654484  1
  Te  Te127  1  0.83663721  0.17251275  0.49904119  1
  Te  Te128  1  0.84077998  0.16023479  0.83406027  1
  Te  Te129  1  0.83499828  0.49808887  0.16349893  1
  Te  Te130  1  0.83695850  0.49483106  0.50137069  1
  Te  Te131  1  0.83369467  0.49994206  0.84149263  1
  Te  Te132  1  0.83410136  0.83866701  0.17261609  1
  Te  Te133  1  0.83147960  0.83363720  0.49364780  1
  Te  Te134  1  0.83226175  0.84086281  0.83271675  1
  Te  Te135  1  0.16194577  0.00330456  -0.00450887  1
  Te  Te136  1  0.17183987  -0.00343907  0.33162768  1
  Te  Te137  1  0.16769200  -0.00237450  0.67062764  1
  Te  Te138  1  0.17031573  0.33064269  0.00147943  1
  Te  Te139  1  0.16659413  0.33391886  0.33180311  1
  Te  Te140  1  0.16063952  0.33313793  0.67451815  1
  Te  Te141  1  0.16660627  0.66661202  -0.00341613  1
  Te  Te142  1  0.16630066  0.66980159  0.33320619  1
  Te  Te143  1  0.16313309  0.67030642  0.67039349  1
  Te  Te144  1  0.50321039  -0.00020176  -0.00410200  1
  Te  Te145  1  0.49754971  0.00056821  0.33275678  1
  Te  Te146  1  0.49659341  0.00132423  0.67097383  1
  Te  Te147  1  0.49880852  0.33679955  -0.00091013  1
  Te  Te148  1  0.49797084  0.34117054  0.33384506  1
  Te  Te149  1  0.50058848  0.33689401  0.66720644  1
  Te  Te150  1  0.49800137  0.66579441  -0.00164498  1
  Te  Te151  1  0.50323439  0.66268630  0.33208857  1
  Te  Te152  1  0.50220048  0.66291904  0.66784560  1
  Te  Te153  1  0.83400158  -0.00017282  0.00176608  1
  Te  Te154  1  0.83271517  -0.00328516  0.32985392  1
  Te  Te155  1  0.83586878  -0.00055967  0.67089458  1
  Te  Te156  1  0.82976447  0.33673425  0.00440022  1
  Te  Te157  1  0.83567579  0.33337159  0.32923291  1
  Te  Te158  1  0.83938509  0.33377468  0.66711854  1
  Te  Te159  1  0.83493840  0.66337902  -0.00039635  1
  Te  Te160  1  0.82709666  0.67365276  0.33290685  1
  Te  Te161  1  0.83633808  0.66718003  0.66776389  1
  Te  Te162  1  0.00476880  0.16501730  0.00195859  1
  Te  Te163  1  0.00609600  0.17061188  0.33351475  1
  Te  Te164  1  0.00071412  0.16562168  0.66342533  1
  Te  Te165  1  -0.00071072  0.50291452  0.00220435  1
  Te  Te166  1  0.00017678  0.49690133  0.33346012  1
  Te  Te167  1  0.00021083  0.50126287  0.66440525  1
  Te  Te168  1  -0.00169826  0.83108947  0.00031089  1
  Te  Te169  1  0.00471295  0.83331166  0.33410341  1
  Te  Te170  1  0.00628908  0.83169393  0.66532147  1
  Te  Te171  1  0.32843725  0.17078538  0.00355835  1
  Te  Te172  1  0.32954014  0.16668823  0.33401405  1
  Te  Te173  1  0.33516354  0.16331613  0.66233380  1
  Te  Te174  1  0.33489755  0.49970934  0.00038722  1
  Te  Te175  1  0.33284306  0.49991960  0.33469740  1
  Te  Te176  1  0.33641606  0.49896832  0.66226116  1
  Te  Te177  1  0.33638815  0.83243264  -0.00021427  1
  Te  Te178  1  0.33208937  0.83360023  0.33501556  1
  Te  Te179  1  0.32912982  0.83672794  0.66580839  1
  Te  Te180  1  0.66386438  0.16097371  0.00070047  1
  Te  Te181  1  0.66422937  0.16013815  0.33302348  1
  Te  Te182  1  0.65924989  0.16810098  0.66637529  1
  Te  Te183  1  0.66332774  0.50230425  0.00253382  1
  Te  Te184  1  0.66406636  0.50326155  0.32708307  1
  Te  Te185  1  0.66232232  0.50532336  0.66710792  1
  Te  Te186  1  0.66181473  0.83276276  0.00089585  1
  Te  Te187  1  0.66379379  0.83329602  0.33479015  1
  Te  Te188  1  0.66755177  0.82661232  0.66155902  1
  Te  Te189  1  -0.00381033  0.00234406  0.16348996  1
  Te  Te190  1  -0.00095572  0.00444874  0.50521955  1
  Te  Te191  1  0.00330838  0.00127672  0.83420466  1
  Te  Te192  1  0.00211150  0.33292345  0.16737320  1
  Te  Te193  1  -0.00066381  0.33411172  0.49876050  1
  Te  Te194  1  0.00578985  0.32884911  0.83220558  1
  Te  Te195  1  0.00029329  0.66379503  0.16249697  1
  Te  Te196  1  -0.00009315  0.66246910  0.50272406  1
  Te  Te197  1  0.00597068  0.66566444  0.83366525  1
  Te  Te198  1  0.33348573  -0.00001350  0.16915936  1
  Te  Te199  1  0.33381394  -0.00146982  0.49850691  1
  Te  Te200  1  0.33089025  -0.00145960  0.83209654  1
  Te  Te201  1  0.33004909  0.33183115  0.16776133  1
  Te  Te202  1  0.33403105  0.33456129  0.49606998  1
  Te  Te203  1  0.32661762  0.33510993  0.83514409  1
  Te  Te204  1  0.33735003  0.66989736  0.16037083  1
  Te  Te205  1  0.33860717  0.66545547  0.50068544  1
  Te  Te206  1  0.32915298  0.66681416  0.83704853  1
  Te  Te207  1  0.66967586  0.00037009  0.16618145  1
  Te  Te208  1  0.66664567  -0.00613818  0.49615142  1
  Te  Te209  1  0.66556304  -0.00072995  0.83750561  1
  Te  Te210  1  0.66905647  0.33646400  0.16200355  1
  Te  Te211  1  0.67535222  0.33262440  0.50021261  1
  Te  Te212  1  0.66926132  0.33279542  0.84109355  1
  Te  Te213  1  0.66313728  0.66352735  0.16414749  1
  Te  Te214  1  0.66321523  0.66935770  0.49861704  1
  Te  Te215  1  0.66909363  0.66754516  0.83414611  1
