# generated using pymatgen
data_AgSbTe2
_symmetry_space_group_name_H-M   'P 1'
_cell_length_a   18.32255110
_cell_length_b   18.32118481
_cell_length_c   18.32298208
_cell_angle_alpha   89.99809904
_cell_angle_beta   89.99920179
_cell_angle_gamma   89.99920921
_symmetry_Int_Tables_number   1
_chemical_formula_structural   AgSbTe2
_chemical_formula_sum   'Ag54 Sb54 Te108'
_cell_volume   6150.85733223
_cell_formula_units_Z   54
loop_
 _symmetry_equiv_pos_site_id
 _symmetry_equiv_pos_as_xyz
  1  'x, y, z'
loop_
 _atom_site_type_symbol
 _atom_site_label
 _atom_site_symmetry_multiplicity
 _atom_site_fract_x
 _atom_site_fract_y
 _atom_site_fract_z
 _atom_site_occupancy
  Ag  Ag0  1  -0.00081420  0.16918305  0.50029383  1
  Ag  Ag1  1  0.32400360  0.66385993  -0.00040676  1
  Ag  Ag2  1  0.16696373  -0.00708077  0.16938075  1
  Ag  Ag3  1  0.83548377  0.17310318  0.33462043  1
  Ag  Ag4  1  0.33312880  0.82918306  0.82974373  1
  Ag  Ag5  1  0.49711320  0.50449334  0.33568220  1
  Ag  Ag6  1  0.49419199  0.82670756  0.00155139  1
  Ag  Ag7  1  0.00265364  0.83278887  0.50172880  1
  Ag  Ag8  1  0.67158273  -0.01015951  0.66777803  1
  Ag  Ag9  1  0.01154263  0.66107323  0.00033250  1
  Ag  Ag10  1  0.32926361  0.17860381  0.83186832  1
  Ag  Ag11  1  0.00833927  0.34233815  -0.00552452  1
  Ag  Ag12  1  0.49374927  0.33640169  0.49960418  1
  Ag  Ag13  1  0.84550272  0.50237711  -0.00037934  1
  Ag  Ag14  1  0.32702264  0.50126572  0.50018146  1
  Ag  Ag15  1  0.49488891  0.66910703  0.16898773  1
  Ag  Ag16  1  0.67359131  0.16166507  0.83266734  1
  Ag  Ag17  1  0.66504598  0.83064293  0.82774120  1
  Ag  Ag18  1  0.00132177  0.17106645  0.16809570  1
  Ag  Ag19  1  0.66496593  0.83233490  0.50722614  1
  Ag  Ag20  1  0.00741906  0.33692104  0.67279270  1
  Ag  Ag21  1  0.66576174  0.66886410  0.00011226  1
  Ag  Ag22  1  0.17112232  0.82147306  -0.00547805  1
  Ag  Ag23  1  0.16955221  0.66625934  0.15666540  1
  Ag  Ag24  1  0.33799612  0.34086624  0.33723605  1
  Ag  Ag25  1  0.83689117  0.66905659  0.83622973  1
  Ag  Ag26  1  0.16293557  0.33797885  0.16441865  1
  Ag  Ag27  1  0.82812946  0.83418585  0.66638464  1
  Ag  Ag28  1  0.16516698  -0.00533935  0.49963149  1
  Ag  Ag29  1  0.16551985  0.66523131  0.84153361  1
  Ag  Ag30  1  0.49168847  0.33492598  0.83155536  1
  Ag  Ag31  1  0.16658964  0.50452415  0.67311859  1
  Ag  Ag32  1  0.84018208  -0.00449500  0.50416357  1
  Ag  Ag33  1  0.16848949  0.82867142  0.66788659  1
  Ag  Ag34  1  0.00053754  0.66426034  0.33030140  1
  Ag  Ag35  1  0.32707589  0.33654187  0.67272157  1
  Ag  Ag36  1  0.32652498  0.50005469  0.83147950  1
  Ag  Ag37  1  0.49928004  0.82202132  0.33140330  1
  Ag  Ag38  1  0.84181873  0.33475878  0.16913090  1
  Ag  Ag39  1  0.33178725  0.83192546  0.50339390  1
  Ag  Ag40  1  0.00659806  0.49839712  0.83694493  1
  Ag  Ag41  1  0.83179419  -0.00689826  0.82612382  1
  Ag  Ag42  1  0.32659848  0.34429639  -0.00906198  1
  Ag  Ag43  1  0.66958853  0.67379086  0.67234145  1
  Ag  Ag44  1  0.33177650  -0.00778664  0.34286861  1
  Ag  Ag45  1  0.83267178  0.49957454  0.33232047  1
  Ag  Ag46  1  0.66592399  0.82981855  0.16725329  1
  Ag  Ag47  1  0.16291989  0.50846392  -0.00609304  1
  Ag  Ag48  1  0.00108676  0.17539339  0.83297142  1
  Ag  Ag49  1  0.66434383  0.34231018  0.33321465  1
  Ag  Ag50  1  0.00575380  0.50012944  0.50339454  1
  Ag  Ag51  1  0.66340507  0.66649410  0.32997593  1
  Ag  Ag52  1  0.33616528  0.66549567  0.32933316  1
  Ag  Ag53  1  0.33145130  -0.00740131  0.66436421  1
  Sb  Sb54  1  0.49724644  0.00001617  0.50015430  1
  Sb  Sb55  1  0.50303333  0.17048459  0.33369276  1
  Sb  Sb56  1  0.16949396  0.34248778  0.83787180  1
  Sb  Sb57  1  0.00055777  0.49664177  0.16227326  1
  Sb  Sb58  1  0.00067940  0.82872107  0.82901637  1
  Sb  Sb59  1  0.66617305  0.33425649  0.66483824  1
  Sb  Sb60  1  0.49845992  0.16594938  -0.00304879  1
  Sb  Sb61  1  0.82913573  0.82955079  0.33983460  1
  Sb  Sb62  1  0.66811333  -0.00912290  -0.00663891  1
  Sb  Sb63  1  0.49851631  0.16765807  0.66775700  1
  Sb  Sb64  1  0.16583794  0.16819057  0.66822047  1
  Sb  Sb65  1  0.16669912  0.50244476  0.33262702  1
  Sb  Sb66  1  0.49722190  0.34029523  0.16782468  1
  Sb  Sb67  1  0.16490901  -0.00718127  0.83100355  1
  Sb  Sb68  1  0.00206126  0.00052270  0.66536866  1
  Sb  Sb69  1  0.00331761  -0.00326355  0.33654290  1
  Sb  Sb70  1  0.83567759  0.16101984  0.66546525  1
  Sb  Sb71  1  0.00164694  -0.00168388  -0.00164227  1
  Sb  Sb72  1  0.33485850  0.66661863  0.66802354  1
  Sb  Sb73  1  0.83309692  0.33178088  0.49520371  1
  Sb  Sb74  1  0.33024764  0.50206834  0.16826662  1
  Sb  Sb75  1  0.49979738  0.83147719  0.66620749  1
  Sb  Sb76  1  0.67189177  0.16250168  0.50315956  1
  Sb  Sb77  1  0.16295200  0.16687225  0.33295132  1
  Sb  Sb78  1  0.16902426  0.33327605  0.49735685  1
  Sb  Sb79  1  0.33452733  0.82964239  0.16726783  1
  Sb  Sb80  1  0.83417528  0.67090080  0.50227080  1
  Sb  Sb81  1  0.16566233  0.17027195  -0.00119090  1
  Sb  Sb82  1  0.83482714  0.82451778  -0.00730304  1
  Sb  Sb83  1  0.83527149  0.33624551  0.83657240  1
  Sb  Sb84  1  0.16639883  0.66972796  0.50085947  1
  Sb  Sb85  1  0.49767446  0.66522641  0.83951477  1
  Sb  Sb86  1  0.32768980  0.16647075  0.50361399  1
  Sb  Sb87  1  0.83604068  0.17287165  0.00069129  1
  Sb  Sb88  1  0.66623133  0.50489835  0.49727898  1
  Sb  Sb89  1  0.66388887  -0.00530315  0.33818511  1
  Sb  Sb90  1  0.83728578  0.00261201  0.16866170  1
  Sb  Sb91  1  0.49428634  0.50612006  0.00205193  1
  Sb  Sb92  1  0.67266887  0.16386661  0.16329579  1
  Sb  Sb93  1  0.49372332  -0.00912287  0.16904286  1
  Sb  Sb94  1  0.49918010  0.66580630  0.49322710  1
  Sb  Sb95  1  0.32732894  0.16858324  0.16372948  1
  Sb  Sb96  1  0.83464763  0.66245417  0.16315061  1
  Sb  Sb97  1  0.50189404  -0.00000898  0.83216951  1
  Sb  Sb98  1  0.84028107  0.50475449  0.66683038  1
  Sb  Sb99  1  -0.00014206  0.33794707  0.33182765  1
  Sb  Sb100  1  0.66634949  0.33983774  0.00304243  1
  Sb  Sb101  1  0.66703061  0.50463700  0.83332831  1
  Sb  Sb102  1  0.49279311  0.50024980  0.66238987  1
  Sb  Sb103  1  -0.00071593  0.83291742  0.17020356  1
  Sb  Sb104  1  0.66781933  0.50716295  0.16862694  1
  Sb  Sb105  1  0.33038598  -0.00571294  -0.00318242  1
  Sb  Sb106  1  -0.00056523  0.66401576  0.66918232  1
  Sb  Sb107  1  0.17258264  0.83133087  0.33534429  1
  Te  Te108  1  0.16036876  0.16820365  0.16573762  1
  Te  Te109  1  0.15901901  0.15869199  0.50068389  1
  Te  Te110  1  0.16532768  0.16136087  0.83334089  1
  Te  Te111  1  0.16627811  0.50177778  0.15971098  1
  Te  Te112  1  0.16701122  0.50071372  0.50428181  1
  Te  Te113  1  0.16712225  0.50326294  0.83292695  1
  Te  Te114  1  0.16486559  0.83143822  0.16448530  1
  Te  Te115  1  0.17005869  0.83487641  0.50158527  1
  Te  Te116  1  0.16785213  0.82831741  0.83139830  1
  Te  Te117  1  0.50191223  0.16444177  0.16510454  1
  Te  Te118  1  0.50067268  0.17523643  0.49910185  1
  Te  Te119  1  0.49496453  0.17187506  0.83462096  1
  Te  Te120  1  0.50018510  0.50761105  0.17406923  1
  Te  Te121  1  0.49576094  0.49566057  0.49550583  1
  Te  Te122  1  0.49517565  0.49564876  0.83324860  1
  Te  Te123  1  0.50385430  0.82848263  0.16714144  1
  Te  Te124  1  0.49693261  0.83431301  0.49532469  1
  Te  Te125  1  0.49935099  0.83246882  0.83708797  1
  Te  Te126  1  0.83911765  0.17042186  0.17084788  1
  Te  Te127  1  0.83837855  0.16148682  0.49627090  1
  Te  Te128  1  0.83445169  0.16588051  0.83316150  1
  Te  Te129  1  0.83380226  0.49452493  0.17005726  1
  Te  Te130  1  0.83882647  0.50051695  0.49678232  1
  Te  Te131  1  0.83610637  0.50453681  0.83521774  1
  Te  Te132  1  0.82802014  0.83586072  0.16659367  1
  Te  Te133  1  0.83377270  0.83617538  0.50542508  1
  Te  Te134  1  0.83320774  0.83216855  0.82770462  1
  Te  Te135  1  0.16665951  -0.00526324  0.00479990  1
  Te  Te136  1  0.17168050  -0.00092822  0.33404793  1
  Te  Te137  1  0.17036060  -0.00505685  0.66372582  1
  Te  Te138  1  0.16772023  0.33526404  0.00439864  1
  Te  Te139  1  0.17260050  0.33454672  0.32675091  1
  Te  Te140  1  0.16724903  0.33640872  0.66444845  1
  Te  Te141  1  0.16736466  0.66569678  -0.00061125  1
  Te  Te142  1  0.16812921  0.66616022  0.32889615  1
  Te  Te143  1  0.16735160  0.66788576  0.67055646  1
  Te  Te144  1  0.49927733  -0.01015037  0.00102049  1
  Te  Te145  1  0.49203432  -0.00097916  0.33377905  1
  Te  Te146  1  0.49390365  0.00035310  0.66614727  1
  Te  Te147  1  0.49584480  0.33484944  -0.00230056  1
  Te  Te148  1  0.49937752  0.33698838  0.33332250  1
  Te  Te149  1  0.49659406  0.33447082  0.66694785  1
  Te  Te150  1  0.50435280  0.66933027  0.00617901  1
  Te  Te151  1  0.49931465  0.66524965  0.33137482  1
  Te  Te152  1  0.51030519  0.66517257  0.66591394  1
  Te  Te153  1  0.83460254  0.00008582  -0.00453443  1
  Te  Te154  1  0.83318379  0.00210236  0.33786557  1
  Te  Te155  1  0.83382778  -0.00450103  0.66596946  1
  Te  Te156  1  0.83435797  0.34054762  0.00508356  1
  Te  Te157  1  0.83268811  0.33614830  0.33080907  1
  Te  Te158  1  0.83675481  0.33430151  0.66611426  1
  Te  Te159  1  0.82998443  0.66159059  -0.00319709  1
  Te  Te160  1  0.83280227  0.66256816  0.33225193  1
  Te  Te161  1  0.83040141  0.67207010  0.67161968  1
  Te  Te162  1  -0.00061865  0.17082781  -0.00300676  1
  Te  Te163  1  -0.00389530  0.16689901  0.33541443  1
  Te  Te164  1  0.00008308  0.17386612  0.66760533  1
  Te  Te165  1  0.00124248  0.50047385  -0.00188749  1
  Te  Te166  1  -0.00073272  0.50413936  0.33854527  1
  Te  Te167  1  0.00474181  0.49759269  0.66527114  1
  Te  Te168  1  0.00462667  0.82731179  0.00078101  1
  Te  Te169  1  -0.00163145  0.82640895  0.33912450  1
  Te  Te170  1  0.00433008  0.83227294  0.66138294  1
  Te  Te171  1  0.33321758  0.16925075  -0.00731340  1
  Te  Te172  1  0.33401279  0.16914851  0.33361731  1
  Te  Te173  1  0.33188107  0.17119693  0.67191456  1
  Te  Te174  1  0.33096275  0.50273581  -0.00226465  1
  Te  Te175  1  0.33289701  0.50195604  0.33653235  1
  Te  Te176  1  0.32819264  0.49917230  0.66507272  1
  Te  Te177  1  0.33201949  0.82955921  -0.00166167  1
  Te  Te178  1  0.33700983  0.83063937  0.33490817  1
  Te  Te179  1  0.33315901  0.83244325  0.66537281  1
  Te  Te180  1  0.66697909  0.16646168  -0.00682580  1
  Te  Te181  1  0.67256989  0.16642784  0.33288930  1
  Te  Te182  1  0.66701683  0.16433181  0.67299718  1
  Te  Te183  1  0.66903748  0.50698532  0.00078147  1
  Te  Te184  1  0.66828480  0.50132820  0.33445614  1
  Te  Te185  1  0.66790050  0.50485647  0.66474540  1
  Te  Te186  1  0.66810556  0.82816134  -0.00557286  1
  Te  Te187  1  0.66236522  0.83085333  0.33652384  1
  Te  Te188  1  0.66378435  0.83332958  0.66711524  1
  Te  Te189  1  0.00573996  0.00540481  0.16690320  1
  Te  Te190  1  0.00089136  -0.00343040  0.50073658  1
  Te  Te191  1  -0.00591240  0.00490526  0.83268726  1
  Te  Te192  1  0.00135325  0.33092369  0.16606115  1
  Te  Te193  1  0.00103634  0.33419947  0.50106702  1
  Te  Te194  1  -0.00018765  0.33601354  0.83435966  1
  Te  Te195  1  0.00297864  0.66702253  0.16647165  1
  Te  Te196  1  0.00060076  0.66613556  0.49687561  1
  Te  Te197  1  -0.00010654  0.66343065  0.83574057  1
  Te  Te198  1  0.32618293  0.00085333  0.16921947  1
  Te  Te199  1  0.33110965  -0.00098833  0.50192732  1
  Te  Te200  1  0.33352638  -0.00814307  0.82878719  1
  Te  Te201  1  0.33000624  0.33282167  0.16774755  1
  Te  Te202  1  0.33356325  0.33381835  0.49912311  1
  Te  Te203  1  0.33164652  0.33668365  0.83239788  1
  Te  Te204  1  0.33171182  0.66705642  0.16618320  1
  Te  Te205  1  0.33263367  0.66686174  0.49746465  1
  Te  Te206  1  0.33228023  0.66847898  0.83494738  1
  Te  Te207  1  0.66735178  -0.00703244  0.16718394  1
  Te  Te208  1  0.66737461  -0.00475290  0.50653492  1
  Te  Te209  1  0.66880649  -0.00209404  0.82810662  1
  Te  Te210  1  0.66734161  0.33089941  0.17243488  1
  Te  Te211  1  0.66241180  0.33273948  0.49500703  1
  Te  Te212  1  0.66367693  0.33128892  0.83293956  1
  Te  Te213  1  0.66860738  0.67172549  0.16947827  1
  Te  Te214  1  0.66690515  0.67235277  0.49459260  1
  Te  Te215  1  0.66585057  0.66910703  0.83488810  1
