# generated using pymatgen
data_AgSbTe2
_symmetry_space_group_name_H-M   'P 1'
_cell_length_a   18.32336835
_cell_length_b   18.32722998
_cell_length_c   18.32558562
_cell_angle_alpha   89.99836055
_cell_angle_beta   89.99944768
_cell_angle_gamma   89.99760969
_symmetry_Int_Tables_number   1
_chemical_formula_structural   AgSbTe2
_chemical_formula_sum   'Ag54 Sb54 Te108'
_cell_volume   6154.03558506
_cell_formula_units_Z   54
loop_
 _symmetry_equiv_pos_site_id
 _symmetry_equiv_pos_as_xyz
  1  'x, y, z'
loop_
 _atom_site_type_symbol
 _atom_site_label
 _atom_site_symmetry_multiplicity
 _atom_site_fract_x
 _atom_site_fract_y
 _atom_site_fract_z
 _atom_site_occupancy
  Ag  Ag0  1  0.83070290  0.33095921  0.50385563  1
  Ag  Ag1  1  0.50291568  0.17482963  0.68025139  1
  Ag  Ag2  1  0.83292580  0.83648639  0.33249545  1
  Ag  Ag3  1  0.16769517  0.66517873  0.49679221  1
  Ag  Ag4  1  0.34217740  0.33383330  0.66599905  1
  Ag  Ag5  1  0.17071260  0.50467471  0.00117334  1
  Ag  Ag6  1  0.16137930  0.16142327  0.33164802  1
  Ag  Ag7  1  0.66099932  0.16373830  0.15729225  1
  Ag  Ag8  1  -0.00940130  0.17124772  0.49989168  1
  Ag  Ag9  1  0.50646532  0.16822670  -0.00725625  1
  Ag  Ag10  1  -0.00730295  0.00025420  -0.00466003  1
  Ag  Ag11  1  0.17155893  0.00025451  0.16065805  1
  Ag  Ag12  1  0.50152456  0.66311339  0.83203736  1
  Ag  Ag13  1  0.34854106  0.16680586  0.83894322  1
  Ag  Ag14  1  0.49860265  0.50465976  0.32556648  1
  Ag  Ag15  1  0.66342342  0.83700758  0.16654111  1
  Ag  Ag16  1  0.66467135  0.16618458  0.50146058  1
  Ag  Ag17  1  -0.00766635  0.66526901  0.66171206  1
  Ag  Ag18  1  0.34389277  0.50087234  0.49585413  1
  Ag  Ag19  1  0.50472196  0.32524612  0.83018115  1
  Ag  Ag20  1  -0.00865629  0.16081683  0.83145146  1
  Ag  Ag21  1  0.66539727  0.00105375  0.67514761  1
  Ag  Ag22  1  0.00425737  0.66579697  0.34038843  1
  Ag  Ag23  1  0.50405733  0.49272175  0.01128142  1
  Ag  Ag24  1  0.50056257  0.82692968  0.32999763  1
  Ag  Ag25  1  0.82861600  0.32354239  0.83020940  1
  Ag  Ag26  1  0.65641186  0.50061120  0.16359688  1
  Ag  Ag27  1  0.83053427  0.00659987  0.83691073  1
  Ag  Ag28  1  0.50508401  0.49276407  0.66531391  1
  Ag  Ag29  1  0.83503847  0.16500620  0.33354771  1
  Ag  Ag30  1  0.66696130  0.66906908  0.66702066  1
  Ag  Ag31  1  0.83592799  0.84437933  -0.00586302  1
  Ag  Ag32  1  0.49813019  0.65480000  0.49659961  1
  Ag  Ag33  1  0.50114763  0.00644866  0.16483761  1
  Ag  Ag34  1  0.15849071  0.83829883  0.00509397  1
  Ag  Ag35  1  0.82461522  0.50164115  0.66869191  1
  Ag  Ag36  1  -0.00203117  0.33206605  0.33722019  1
  Ag  Ag37  1  0.34591343  0.16964458  0.16413300  1
  Ag  Ag38  1  0.50354682  0.33550736  0.50316326  1
  Ag  Ag39  1  0.66446063  0.16274903  0.83678155  1
  Ag  Ag40  1  0.82574192  0.16120730  -0.00778297  1
  Ag  Ag41  1  0.33920821  0.66410316  0.33468646  1
  Ag  Ag42  1  0.50150709  0.65297240  0.17393367  1
  Ag  Ag43  1  0.50302424  0.00807413  0.49890634  1
  Ag  Ag44  1  -0.00391134  0.84116647  0.83585086  1
  Ag  Ag45  1  0.66875164  0.00278488  -0.00341625  1
  Ag  Ag46  1  0.50749527  0.01068996  0.83605455  1
  Ag  Ag47  1  0.34399655  0.49635508  0.17124071  1
  Ag  Ag48  1  0.16480121  0.83353342  0.32793665  1
  Ag  Ag49  1  0.00044121  0.49896210  0.49911847  1
  Ag  Ag50  1  0.83140357  0.82925647  0.67271751  1
  Ag  Ag51  1  0.82800663  0.49753839  -0.00431401  1
  Ag  Ag52  1  0.50067541  0.33855031  0.16519980  1
  Ag  Ag53  1  0.15503647  0.00105523  0.84016555  1
  Sb  Sb54  1  -0.00328255  0.32960152  0.00208787  1
  Sb  Sb55  1  0.33538914  -0.00106502  0.33230872  1
  Sb  Sb56  1  0.66225895  0.66743818  0.33657800  1
  Sb  Sb57  1  0.33580302  0.66443858  0.00493413  1
  Sb  Sb58  1  0.33900305  0.49466728  0.83386878  1
  Sb  Sb59  1  0.33667661  0.00152013  0.00041026  1
  Sb  Sb60  1  0.16801984  0.50179060  0.66781433  1
  Sb  Sb61  1  -0.00109873  0.33580929  0.66287413  1
  Sb  Sb62  1  0.66542393  0.83783941  0.49757610  1
  Sb  Sb63  1  0.82677131  0.66741282  0.16782497  1
  Sb  Sb64  1  0.16955802  0.67091443  0.83018985  1
  Sb  Sb65  1  0.33781782  0.33299207  -0.00219504  1
  Sb  Sb66  1  0.33890030  0.17275157  0.49812980  1
  Sb  Sb67  1  0.15851417  0.83323300  0.66742268  1
  Sb  Sb68  1  0.16644273  0.33727973  0.49815242  1
  Sb  Sb69  1  -0.00804780  -0.00131202  0.67358463  1
  Sb  Sb70  1  0.83014689  0.49860438  0.33407004  1
  Sb  Sb71  1  0.50634433  0.83300478  0.66385436  1
  Sb  Sb72  1  0.50376905  0.83682196  0.00398033  1
  Sb  Sb73  1  -0.00033376  0.50037205  0.17017838  1
  Sb  Sb74  1  -0.00278526  0.16491136  0.16726892  1
  Sb  Sb75  1  0.66558986  0.00118932  0.32945405  1
  Sb  Sb76  1  0.82837070  0.00578924  0.50449171  1
  Sb  Sb77  1  0.66187213  0.33076478  0.66694497  1
  Sb  Sb78  1  -0.00116769  0.66978275  -0.00090597  1
  Sb  Sb79  1  0.17300167  0.67041807  0.17234524  1
  Sb  Sb80  1  -0.00196993  0.83283404  0.50131977  1
  Sb  Sb81  1  0.17039488  0.50213404  0.33163934  1
  Sb  Sb82  1  0.33251797  0.84005983  0.83480099  1
  Sb  Sb83  1  0.66305905  0.49599025  0.50012138  1
  Sb  Sb84  1  0.17022464  0.16479334  0.66446235  1
  Sb  Sb85  1  0.66491637  0.32573748  0.00008927  1
  Sb  Sb86  1  0.82517177  0.16871626  0.67015190  1
  Sb  Sb87  1  0.67078697  0.84122075  0.83629716  1
  Sb  Sb88  1  0.83112768  0.66221868  0.50152752  1
  Sb  Sb89  1  0.17326268  0.32953131  0.16780608  1
  Sb  Sb90  1  0.16843387  0.32718137  0.83500568  1
  Sb  Sb91  1  0.33441837  0.33628169  0.33590567  1
  Sb  Sb92  1  0.33953180  0.83384698  0.16778207  1
  Sb  Sb93  1  0.66755503  0.33173313  0.33350527  1
  Sb  Sb94  1  -0.00046306  -0.00011186  0.32936263  1
  Sb  Sb95  1  0.16682955  0.16247658  0.00248114  1
  Sb  Sb96  1  0.34084994  0.66039405  0.66126025  1
  Sb  Sb97  1  -0.00374452  0.83470140  0.16380207  1
  Sb  Sb98  1  -0.00257960  0.49903489  0.83015286  1
  Sb  Sb99  1  0.82876691  0.00074776  0.15959326  1
  Sb  Sb100  1  0.50267534  0.16856032  0.32941927  1
  Sb  Sb101  1  0.66410565  0.49432142  0.83680186  1
  Sb  Sb102  1  0.33625878  0.82643470  0.49734379  1
  Sb  Sb103  1  0.34374652  0.00577037  0.66909034  1
  Sb  Sb104  1  0.82831227  0.66797651  0.83144533  1
  Sb  Sb105  1  0.82647195  0.33077326  0.16635501  1
  Sb  Sb106  1  0.66506324  0.67012899  -0.00336938  1
  Sb  Sb107  1  0.16992415  -0.00256907  0.49898236  1
  Te  Te108  1  0.16666299  0.16234330  0.16982003  1
  Te  Te109  1  0.16669499  0.16540085  0.49449514  1
  Te  Te110  1  0.15998823  0.16069007  0.83354093  1
  Te  Te111  1  0.16896340  0.50011976  0.16200530  1
  Te  Te112  1  0.16193826  0.50458005  0.49985530  1
  Te  Te113  1  0.16763008  0.50040482  0.84005794  1
  Te  Te114  1  0.16806364  0.83721308  0.16710399  1
  Te  Te115  1  0.16655683  0.82900246  0.49422225  1
  Te  Te116  1  0.16269819  0.83871414  0.83626789  1
  Te  Te117  1  0.50153736  0.16443558  0.17038696  1
  Te  Te118  1  0.50198638  0.16846199  0.49410386  1
  Te  Te119  1  0.50379040  0.16695590  0.83577151  1
  Te  Te120  1  0.49956043  0.49732704  0.16663119  1
  Te  Te121  1  0.50266170  0.49687468  0.50506205  1
  Te  Te122  1  0.50004702  0.50079770  0.82608682  1
  Te  Te123  1  0.50338839  0.84185565  0.16880865  1
  Te  Te124  1  0.50054260  0.83575435  0.49487863  1
  Te  Te125  1  0.49942805  0.83044861  0.83404971  1
  Te  Te126  1  0.82735980  0.16738777  0.16836500  1
  Te  Te127  1  0.83245619  0.17039667  0.50166205  1
  Te  Te128  1  0.83194366  0.16695921  0.83270515  1
  Te  Te129  1  0.82951640  0.49894328  0.16281607  1
  Te  Te130  1  0.83393949  0.49434167  0.50217929  1
  Te  Te131  1  0.83142500  0.49847944  0.83255485  1
  Te  Te132  1  0.82750403  0.83387322  0.16893189  1
  Te  Te133  1  0.83302491  0.83532526  0.49554427  1
  Te  Te134  1  0.83549998  0.83340397  0.83473932  1
  Te  Te135  1  0.16738402  -0.00111253  -0.00035988  1
  Te  Te136  1  0.16727349  -0.00284129  0.33150012  1
  Te  Te137  1  0.16875136  -0.00112400  0.67235205  1
  Te  Te138  1  0.16541210  0.34204133  0.00071426  1
  Te  Te139  1  0.15952360  0.32892121  0.33259940  1
  Te  Te140  1  0.17486157  0.33363315  0.66718391  1
  Te  Te141  1  0.16639545  0.66654380  0.00013963  1
  Te  Te142  1  0.16505444  0.66880131  0.33640636  1
  Te  Te143  1  0.16304852  0.66733391  0.66049899  1
  Te  Te144  1  0.50318838  0.00136963  -0.00047541  1
  Te  Te145  1  0.49982488  -0.00542111  0.33335353  1
  Te  Te146  1  0.50608334  0.00025789  0.66802633  1
  Te  Te147  1  0.50013064  0.33291416  -0.00162119  1
  Te  Te148  1  0.49978107  0.33903335  0.33670505  1
  Te  Te149  1  0.50111738  0.33225620  0.66721879  1
  Te  Te150  1  0.49968126  0.66689725  -0.00175740  1
  Te  Te151  1  0.50067691  0.66659904  0.33421618  1
  Te  Te152  1  0.50357341  0.66689204  0.66379763  1
  Te  Te153  1  0.83314613  0.00165047  -0.00155390  1
  Te  Te154  1  0.83407393  -0.00044984  0.33360321  1
  Te  Te155  1  0.82648716  -0.00353042  0.67153600  1
  Te  Te156  1  0.83320096  0.33495536  -0.00382916  1
  Te  Te157  1  0.83758358  0.33083934  0.33674824  1
  Te  Te158  1  0.83414946  0.33870443  0.66698155  1
  Te  Te159  1  0.83349420  0.66244182  -0.00019119  1
  Te  Te160  1  0.83724893  0.67000665  0.33388157  1
  Te  Te161  1  0.83233813  0.66470675  0.66662048  1
  Te  Te162  1  -0.00285795  0.16263792  -0.00278279  1
  Te  Te163  1  -0.00303396  0.16639720  0.33456884  1
  Te  Te164  1  0.00091664  0.16696418  0.66548521  1
  Te  Te165  1  -0.00534898  0.50031359  0.00044623  1
  Te  Te166  1  -0.00016851  0.50189114  0.33786210  1
  Te  Te167  1  -0.00029999  0.50383308  0.66184643  1
  Te  Te168  1  -0.00288429  0.83554885  -0.00278077  1
  Te  Te169  1  -0.00053567  0.83021447  0.33312085  1
  Te  Te170  1  -0.00809492  0.82930729  0.67059847  1
  Te  Te171  1  0.33601813  0.16754800  0.00192787  1
  Te  Te172  1  0.32700248  0.16764323  0.32914000  1
  Te  Te173  1  0.33959588  0.17213003  0.66704176  1
  Te  Te174  1  0.33834914  0.49930191  0.00425494  1
  Te  Te175  1  0.33572048  0.50260252  0.33372563  1
  Te  Te176  1  0.33627924  0.49551528  0.66308492  1
  Te  Te177  1  0.32162440  0.83164684  0.00026978  1
  Te  Te178  1  0.33300667  0.82685001  0.33234491  1
  Te  Te179  1  0.33055626  0.83204122  0.66638022  1
  Te  Te180  1  0.66603746  0.16336900  -0.00053186  1
  Te  Te181  1  0.67411352  0.16625209  0.33856573  1
  Te  Te182  1  0.66232427  0.16355385  0.66472574  1
  Te  Te183  1  0.66502409  0.50292909  0.00299542  1
  Te  Te184  1  0.66122454  0.50000553  0.32622517  1
  Te  Te185  1  0.66645062  0.50464333  0.66767158  1
  Te  Te186  1  0.67185582  0.83818945  0.00489328  1
  Te  Te187  1  0.66815998  0.83408366  0.32815039  1
  Te  Te188  1  0.67295906  0.83348322  0.66678187  1
  Te  Te189  1  0.00765919  -0.00029487  0.15853646  1
  Te  Te190  1  0.00172420  0.00758256  0.50160825  1
  Te  Te191  1  -0.00354205  0.00043531  0.83506310  1
  Te  Te192  1  0.00027248  0.33347547  0.17456689  1
  Te  Te193  1  -0.00030112  0.33221573  0.49803062  1
  Te  Te194  1  -0.00341486  0.32929600  0.83285374  1
  Te  Te195  1  0.00074320  0.66663158  0.17340634  1
  Te  Te196  1  -0.00200429  0.66605501  0.50078780  1
  Te  Te197  1  0.00182807  0.66852671  0.82851482  1
  Te  Te198  1  0.33460075  0.00473388  0.16658980  1
  Te  Te199  1  0.34064677  0.00017293  0.50082901  1
  Te  Te200  1  0.34036835  0.00751894  0.83343750  1
  Te  Te201  1  0.33967212  0.33248311  0.16736407  1
  Te  Te202  1  0.33664019  0.33996318  0.50306549  1
  Te  Te203  1  0.33642016  0.32713817  0.82843874  1
  Te  Te204  1  0.34020760  0.66274245  0.17215692  1
  Te  Te205  1  0.33605142  0.66069132  0.49597784  1
  Te  Te206  1  0.33896809  0.66738637  0.83127094  1
  Te  Te207  1  0.66390499  0.00252178  0.16357061  1
  Te  Te208  1  0.66199578  0.00491973  0.50288031  1
  Te  Te209  1  0.66821796  0.00178226  0.83493655  1
  Te  Te210  1  0.65960301  0.33083774  0.16729894  1
  Te  Te211  1  0.66662719  0.32811381  0.49981928  1
  Te  Te212  1  0.66723422  0.32627097  0.83306487  1
  Te  Te213  1  0.65973691  0.66686570  0.16656445  1
  Te  Te214  1  0.66112414  0.66750957  0.50561814  1
  Te  Te215  1  0.66093917  0.66786809  0.82815834  1
