# generated using pymatgen
data_AgSbTe2
_symmetry_space_group_name_H-M   'P 1'
_cell_length_a   18.32121396
_cell_length_b   18.32308549
_cell_length_c   18.32083343
_cell_angle_alpha   89.99850720
_cell_angle_beta   90.00226139
_cell_angle_gamma   89.99623826
_symmetry_Int_Tables_number   1
_chemical_formula_structural   AgSbTe2
_chemical_formula_sum   'Ag54 Sb54 Te108'
_cell_volume   6150.32519259
_cell_formula_units_Z   54
loop_
 _symmetry_equiv_pos_site_id
 _symmetry_equiv_pos_as_xyz
  1  'x, y, z'
loop_
 _atom_site_type_symbol
 _atom_site_label
 _atom_site_symmetry_multiplicity
 _atom_site_fract_x
 _atom_site_fract_y
 _atom_site_fract_z
 _atom_site_occupancy
  Ag  Ag0  1  0.49420989  0.65976325  0.83205237  1
  Ag  Ag1  1  0.16590672  0.82469400  0.66305932  1
  Ag  Ag2  1  0.16416323  0.16528506  0.33523836  1
  Ag  Ag3  1  0.33009201  0.66220253  0.66413857  1
  Ag  Ag4  1  0.66400153  0.50312268  0.16604194  1
  Ag  Ag5  1  0.00276808  0.16495871  0.83077707  1
  Ag  Ag6  1  0.65443633  0.49007377  0.49919579  1
  Ag  Ag7  1  0.33441546  0.16189171  0.17238745  1
  Ag  Ag8  1  0.50962706  0.34313281  0.50500392  1
  Ag  Ag9  1  0.66728531  0.33393725  0.34522643  1
  Ag  Ag10  1  0.83603679  0.17792203  0.66033693  1
  Ag  Ag11  1  0.66872175  0.83169757  0.83985916  1
  Ag  Ag12  1  0.33004503  0.83432715  0.16968541  1
  Ag  Ag13  1  0.83092935  -0.00377161  0.16396993  1
  Ag  Ag14  1  0.67391106  0.33709920  0.65829969  1
  Ag  Ag15  1  0.83201040  0.49921384  -0.00296642  1
  Ag  Ag16  1  0.33462596  0.50178723  0.82747126  1
  Ag  Ag17  1  0.00140442  0.00179752  -0.00529149  1
  Ag  Ag18  1  0.00618469  0.83794832  0.83590183  1
  Ag  Ag19  1  0.66616519  0.16977926  0.17209692  1
  Ag  Ag20  1  0.50237361  0.50061530  0.34861155  1
  Ag  Ag21  1  0.16284269  -0.00199707  0.82950456  1
  Ag  Ag22  1  0.66786884  -0.00660169  0.00255738  1
  Ag  Ag23  1  -0.00313582  0.33406121  0.66954479  1
  Ag  Ag24  1  0.66403050  0.66570064  0.00321211  1
  Ag  Ag25  1  0.00141958  0.83330417  0.16278432  1
  Ag  Ag26  1  0.66836788  0.82610328  0.16311171  1
  Ag  Ag27  1  0.49584384  0.50018997  0.66237778  1
  Ag  Ag28  1  0.00272632  0.33385606  -0.00864378  1
  Ag  Ag29  1  0.32922099  0.82861544  0.49782678  1
  Ag  Ag30  1  0.49682803  0.34323076  0.82592508  1
  Ag  Ag31  1  0.16694209  0.49852495  -0.01100712  1
  Ag  Ag32  1  0.00219592  0.49945822  0.50458787  1
  Ag  Ag33  1  0.66243175  0.17863629  0.49494050  1
  Ag  Ag34  1  0.49094910  0.00346160  0.50235064  1
  Ag  Ag35  1  0.34168966  0.50531243  0.50904369  1
  Ag  Ag36  1  0.16606583  0.33420122  0.16358967  1
  Ag  Ag37  1  0.82222834  0.33520649  0.50465920  1
  Ag  Ag38  1  0.00242574  0.00459892  0.67330483  1
  Ag  Ag39  1  0.83359060  0.16863456  0.33675611  1
  Ag  Ag40  1  0.33651172  0.16610432  0.49716159  1
  Ag  Ag41  1  0.17028452  -0.00688370  0.50585195  1
  Ag  Ag42  1  0.50116118  0.50190938  -0.00506921  1
  Ag  Ag43  1  0.16630387  0.83457782  0.33927643  1
  Ag  Ag44  1  0.00160690  0.66665286  0.33348528  1
  Ag  Ag45  1  0.50570800  0.66349672  0.16549597  1
  Ag  Ag46  1  0.17108107  0.66046636  0.82566451  1
  Ag  Ag47  1  0.17532360  0.66742263  0.50738168  1
  Ag  Ag48  1  0.17189452  0.50333809  0.66880677  1
  Ag  Ag49  1  0.82391018  0.66848921  0.16570632  1
  Ag  Ag50  1  0.32751742  0.00004320  0.00013481  1
  Ag  Ag51  1  0.83362830  0.49571614  0.66603464  1
  Ag  Ag52  1  0.16565521  0.34177074  0.83350060  1
  Ag  Ag53  1  0.49345445  0.65493371  0.50096898  1
  Sb  Sb54  1  0.83496446  0.33426964  0.16918635  1
  Sb  Sb55  1  0.33729796  0.66786799  -0.00264907  1
  Sb  Sb56  1  0.66784492  0.00596085  0.32890486  1
  Sb  Sb57  1  0.16904805  0.66429401  0.16660766  1
  Sb  Sb58  1  0.32979170  0.82828344  0.83273844  1
  Sb  Sb59  1  0.49995913  0.17146379  0.00092147  1
  Sb  Sb60  1  0.65855543  0.83027575  0.49837662  1
  Sb  Sb61  1  0.83601144  0.33494937  0.82670588  1
  Sb  Sb62  1  -0.00260833  0.33628284  0.33597828  1
  Sb  Sb63  1  0.00657638  0.66255310  0.66436991  1
  Sb  Sb64  1  0.50423335  0.17566686  0.66324182  1
  Sb  Sb65  1  0.50260931  -0.00378704  0.16813674  1
  Sb  Sb66  1  0.66968363  0.33810136  -0.00104885  1
  Sb  Sb67  1  0.33798244  0.50231008  0.16643098  1
  Sb  Sb68  1  0.33309929  0.00022813  0.33329785  1
  Sb  Sb69  1  0.00851778  0.82944392  0.50071942  1
  Sb  Sb70  1  0.33659662  0.33284343  0.33540408  1
  Sb  Sb71  1  0.67155011  0.00394802  0.66977107  1
  Sb  Sb72  1  0.32701968  -0.00468485  0.66628932  1
  Sb  Sb73  1  0.83726405  0.83550654  0.33042951  1
  Sb  Sb74  1  0.00739271  0.49965711  0.82932267  1
  Sb  Sb75  1  0.16597443  0.17028398  0.00292933  1
  Sb  Sb76  1  0.65796849  0.50272408  0.83260637  1
  Sb  Sb77  1  0.83405012  0.17013427  0.00101441  1
  Sb  Sb78  1  0.32886492  0.33258036  0.00030696  1
  Sb  Sb79  1  0.32976406  0.66725214  0.34028864  1
  Sb  Sb80  1  -0.00117691  0.16335279  0.16371073  1
  Sb  Sb81  1  0.00040811  0.17080709  0.50441223  1
  Sb  Sb82  1  -0.00356480  0.50339698  0.16808170  1
  Sb  Sb83  1  0.00280384  -0.00258294  0.33304421  1
  Sb  Sb84  1  0.83220111  0.83024693  0.00252951  1
  Sb  Sb85  1  0.49638130  -0.00191501  0.83059283  1
  Sb  Sb86  1  0.33262510  0.33984206  0.66598975  1
  Sb  Sb87  1  0.66802987  0.66091381  0.32761261  1
  Sb  Sb88  1  0.16299067  0.16906566  0.66289621  1
  Sb  Sb89  1  0.49535592  0.82645537  0.33276171  1
  Sb  Sb90  1  0.83176059  0.65838960  0.49636613  1
  Sb  Sb91  1  0.17014987  0.50033784  0.33821127  1
  Sb  Sb92  1  0.84044525  0.83135572  0.66692609  1
  Sb  Sb93  1  -0.00250498  0.66525361  0.00126353  1
  Sb  Sb94  1  0.50176271  0.82857452  0.00015484  1
  Sb  Sb95  1  0.49893405  0.33910138  0.16793892  1
  Sb  Sb96  1  0.50114868  0.17187054  0.33623146  1
  Sb  Sb97  1  0.16597389  0.83046626  -0.00183826  1
  Sb  Sb98  1  0.49454289  0.82584775  0.66560721  1
  Sb  Sb99  1  0.82819272  0.49599665  0.33536551  1
  Sb  Sb100  1  0.83348283  0.66412026  0.83665543  1
  Sb  Sb101  1  0.16510551  0.00120324  0.16516577  1
  Sb  Sb102  1  0.32733650  0.17024174  0.83055626  1
  Sb  Sb103  1  0.84141150  -0.00005666  0.83887493  1
  Sb  Sb104  1  0.67079333  0.16528975  0.83279269  1
  Sb  Sb105  1  0.66177340  0.65976381  0.67043304  1
  Sb  Sb106  1  0.16881670  0.33657333  0.50299674  1
  Sb  Sb107  1  0.83547406  0.00739062  0.49764616  1
  Te  Te108  1  0.16924169  0.16876525  0.17081699  1
  Te  Te109  1  0.16909764  0.16710224  0.49601397  1
  Te  Te110  1  0.16272852  0.16496596  0.83346468  1
  Te  Te111  1  0.16819172  0.49547694  0.16703674  1
  Te  Te112  1  0.16646260  0.50340117  0.50250933  1
  Te  Te113  1  0.16849760  0.50100849  0.83125088  1
  Te  Te114  1  0.16709814  0.83293891  0.16866332  1
  Te  Te115  1  0.16900436  0.83118800  0.50051177  1
  Te  Te116  1  0.16574000  0.83395756  0.83132380  1
  Te  Te117  1  0.49889574  0.16684237  0.16844442  1
  Te  Te118  1  0.50010154  0.16444140  0.49932278  1
  Te  Te119  1  0.49800508  0.17187845  0.83213367  1
  Te  Te120  1  0.50265769  0.50319867  0.15686091  1
  Te  Te121  1  0.49831240  0.49902433  0.50502835  1
  Te  Te122  1  0.49735392  0.50108216  0.83468325  1
  Te  Te123  1  0.50031707  0.82799696  0.16749849  1
  Te  Te124  1  0.49140336  0.83658081  0.49941749  1
  Te  Te125  1  0.50313998  0.82873251  0.83214605  1
  Te  Te126  1  0.83007964  0.16550237  0.16942406  1
  Te  Te127  1  0.83146950  0.17061025  0.49998578  1
  Te  Te128  1  0.83949215  0.16708698  0.82746889  1
  Te  Te129  1  0.82886687  0.50279399  0.16533913  1
  Te  Te130  1  0.83594601  0.49589358  0.50270915  1
  Te  Te131  1  0.83354852  0.50038651  0.83339964  1
  Te  Te132  1  0.83237788  0.83249296  0.16704236  1
  Te  Te133  1  0.83167391  0.83425457  0.49918296  1
  Te  Te134  1  0.83123709  0.83227615  0.83326646  1
  Te  Te135  1  0.16404137  -0.00042457  -0.00319804  1
  Te  Te136  1  0.16692755  0.00001116  0.33748176  1
  Te  Te137  1  0.16299294  0.00240184  0.66677498  1
  Te  Te138  1  0.16334578  0.33633491  -0.00327973  1
  Te  Te139  1  0.16542445  0.32953165  0.32979388  1
  Te  Te140  1  0.16217163  0.33683364  0.67146661  1
  Te  Te141  1  0.16709444  0.65991218  -0.00318028  1
  Te  Te142  1  0.16258139  0.66890092  0.33481589  1
  Te  Te143  1  0.16791115  0.66503323  0.66594653  1
  Te  Te144  1  0.50371946  0.00162179  -0.00145679  1
  Te  Te145  1  0.50087124  -0.00131687  0.34136651  1
  Te  Te146  1  0.50116643  -0.00124796  0.66291460  1
  Te  Te147  1  0.50003021  0.33904997  -0.00382683  1
  Te  Te148  1  0.50594801  0.33880514  0.33561722  1
  Te  Te149  1  0.50016525  0.33892591  0.66660930  1
  Te  Te150  1  0.50333374  0.66305958  -0.00178694  1
  Te  Te151  1  0.50043938  0.66092788  0.33446559  1
  Te  Te152  1  0.49558772  0.66135476  0.66637184  1
  Te  Te153  1  0.83340275  0.00200593  0.00473102  1
  Te  Te154  1  0.83525363  0.00675385  0.32705877  1
  Te  Te155  1  0.84056574  0.00040112  0.66664199  1
  Te  Te156  1  0.83945840  0.33881399  0.00023602  1
  Te  Te157  1  0.83009038  0.32845712  0.33795844  1
  Te  Te158  1  0.83468316  0.33609072  0.66472069  1
  Te  Te159  1  0.82905871  0.65999964  0.00443818  1
  Te  Te160  1  0.83910527  0.66701549  0.32760910  1
  Te  Te161  1  0.83325349  0.65962003  0.66630048  1
  Te  Te162  1  -0.00039950  0.16680177  -0.00485901  1
  Te  Te163  1  0.00112552  0.16751522  0.33280603  1
  Te  Te164  1  -0.00310047  0.16852408  0.66959724  1
  Te  Te165  1  0.00124675  0.49682546  0.00039136  1
  Te  Te166  1  0.00010819  0.50414404  0.33751051  1
  Te  Te167  1  -0.00018367  0.49731995  0.66513840  1
  Te  Te168  1  -0.00071803  0.83596079  0.00065212  1
  Te  Te169  1  0.00477120  0.83012088  0.32954901  1
  Te  Te170  1  0.00530464  0.83654524  0.67049691  1
  Te  Te171  1  0.33355316  0.16075453  0.00333517  1
  Te  Te172  1  0.33003283  0.16674879  0.33326163  1
  Te  Te173  1  0.33433789  0.16498789  0.66001487  1
  Te  Te174  1  0.33091524  0.49992035  -0.00185728  1
  Te  Te175  1  0.34002543  0.49991417  0.33635132  1
  Te  Te176  1  0.33207425  0.50132694  0.66682491  1
  Te  Te177  1  0.33368689  0.83896450  0.00384417  1
  Te  Te178  1  0.32744607  0.83370000  0.33197995  1
  Te  Te179  1  0.32681458  0.82750071  0.66361019  1
  Te  Te180  1  0.66751940  0.16401191  0.00409844  1
  Te  Te181  1  0.66775690  0.17130071  0.33387891  1
  Te  Te182  1  0.67263507  0.17090700  0.66342863  1
  Te  Te183  1  0.66731392  0.50220258  0.00073000  1
  Te  Te184  1  0.66325916  0.49634319  0.33276521  1
  Te  Te185  1  0.66713295  0.49690073  0.66554506  1
  Te  Te186  1  0.66679839  0.83243617  0.00218567  1
  Te  Te187  1  0.66690539  0.83395625  0.32737009  1
  Te  Te188  1  0.66859630  0.83379811  0.66912708  1
  Te  Te189  1  -0.00327152  -0.00433459  0.16303346  1
  Te  Te190  1  0.00454042  -0.00024921  0.50424557  1
  Te  Te191  1  0.00231713  -0.00138669  0.83455607  1
  Te  Te192  1  0.00423543  0.33290397  0.16507864  1
  Te  Te193  1  0.00083667  0.33835694  0.50393653  1
  Te  Te194  1  0.00213920  0.33375944  0.83212964  1
  Te  Te195  1  0.00045262  0.67163812  0.16858365  1
  Te  Te196  1  -0.00042725  0.66257938  0.49640327  1
  Te  Te197  1  0.00424496  0.67398843  0.83346609  1
  Te  Te198  1  0.33457728  -0.00039745  0.16215143  1
  Te  Te199  1  0.33039295  0.00109751  0.50107660  1
  Te  Te200  1  0.32817012  0.00057553  0.83766152  1
  Te  Te201  1  0.32908582  0.32919776  0.16736264  1
  Te  Te202  1  0.33707914  0.33024379  0.49964256  1
  Te  Te203  1  0.33168458  0.33733667  0.83333031  1
  Te  Te204  1  0.33774934  0.67174083  0.16642442  1
  Te  Te205  1  0.33385358  0.66580041  0.50173992  1
  Te  Te206  1  0.33268622  0.66380678  0.83091037  1
  Te  Te207  1  0.66770924  0.00160909  0.16314640  1
  Te  Te208  1  0.66578356  0.00008260  0.50079380  1
  Te  Te209  1  0.66554958  -0.00408336  0.83858891  1
  Te  Te210  1  0.66693956  0.33178430  0.16636458  1
  Te  Te211  1  0.66595152  0.33441309  0.50163971  1
  Te  Te212  1  0.66116979  0.33102178  0.82979519  1
  Te  Te213  1  0.66608747  0.66487216  0.16590146  1
  Te  Te214  1  0.66216544  0.66420235  0.49952017  1
  Te  Te215  1  0.66522192  0.67153145  0.83802202  1
