# generated using pymatgen
data_AgSbTe2
_symmetry_space_group_name_H-M   'P 1'
_cell_length_a   18.30986556
_cell_length_b   18.30739486
_cell_length_c   18.31380098
_cell_angle_alpha   90.00019290
_cell_angle_beta   90.00236396
_cell_angle_gamma   90.00092854
_symmetry_Int_Tables_number   1
_chemical_formula_structural   AgSbTe2
_chemical_formula_sum   'Ag54 Sb54 Te108'
_cell_volume   6138.89483978
_cell_formula_units_Z   54
loop_
 _symmetry_equiv_pos_site_id
 _symmetry_equiv_pos_as_xyz
  1  'x, y, z'
loop_
 _atom_site_type_symbol
 _atom_site_label
 _atom_site_symmetry_multiplicity
 _atom_site_fract_x
 _atom_site_fract_y
 _atom_site_fract_z
 _atom_site_occupancy
  Ag  Ag0  1  0.49912386  0.66205304  0.84154924  1
  Ag  Ag1  1  0.83488241  0.50027592  0.33024160  1
  Ag  Ag2  1  -0.00074607  0.50220404  0.16110307  1
  Ag  Ag3  1  0.33027992  0.33179158  0.67332416  1
  Ag  Ag4  1  0.16276596  0.00244705  0.50028389  1
  Ag  Ag5  1  0.34088835  0.66274296  0.00686452  1
  Ag  Ag6  1  0.00193204  0.83136487  0.16432299  1
  Ag  Ag7  1  0.66356074  0.66298473  -0.00011746  1
  Ag  Ag8  1  -0.00388353  0.33867356  -0.00065462  1
  Ag  Ag9  1  0.49949206  0.49975477  0.32979385  1
  Ag  Ag10  1  0.00101876  0.66152599  0.33423113  1
  Ag  Ag11  1  0.33113529  -0.00542896  0.33265237  1
  Ag  Ag12  1  0.49741093  0.33739476  0.83546919  1
  Ag  Ag13  1  0.67031246  0.34605816  -0.00306892  1
  Ag  Ag14  1  0.33292670  0.83373432  0.50049158  1
  Ag  Ag15  1  0.83537958  -0.00209347  0.50382444  1
  Ag  Ag16  1  0.16137639  0.49847196  0.00460147  1
  Ag  Ag17  1  0.16179163  0.16651498  0.66455775  1
  Ag  Ag18  1  0.83781676  0.50229774  0.66929981  1
  Ag  Ag19  1  -0.00327663  0.66232555  0.66386565  1
  Ag  Ag20  1  0.83546136  0.16149766  -0.00199039  1
  Ag  Ag21  1  0.82915517  0.83675077  -0.00212577  1
  Ag  Ag22  1  0.33416810  0.83467362  0.83596191  1
  Ag  Ag23  1  -0.00593592  0.49696519  0.83988922  1
  Ag  Ag24  1  0.33148815  0.66646429  0.32455615  1
  Ag  Ag25  1  -0.00133498  0.16556967  0.50625375  1
  Ag  Ag26  1  0.67362875  0.50410077  0.50058206  1
  Ag  Ag27  1  0.16025625  -0.00055118  0.16983136  1
  Ag  Ag28  1  0.33190835  0.16724725  0.83132272  1
  Ag  Ag29  1  0.83341399  0.66815936  0.50240044  1
  Ag  Ag30  1  0.83722552  0.00036287  0.16049458  1
  Ag  Ag31  1  0.16014883  0.49739454  0.66637550  1
  Ag  Ag32  1  -0.00334831  0.16439542  0.16529613  1
  Ag  Ag33  1  0.83695333  0.84002086  0.66600501  1
  Ag  Ag34  1  0.67299287  0.83066101  0.50369147  1
  Ag  Ag35  1  0.67397897  -0.00342669  -0.00307026  1
  Ag  Ag36  1  -0.00300495  0.17231692  0.83076581  1
  Ag  Ag37  1  0.32929695  0.82509529  0.16437268  1
  Ag  Ag38  1  0.83623458  0.16568432  0.33303315  1
  Ag  Ag39  1  0.50005350  0.17047403  0.33495622  1
  Ag  Ag40  1  0.49512158  0.66461723  0.16046829  1
  Ag  Ag41  1  0.33157423  0.50714192  0.16464393  1
  Ag  Ag42  1  0.67318949  0.50243981  0.15903747  1
  Ag  Ag43  1  0.83879799  0.15901914  0.66828507  1
  Ag  Ag44  1  0.67328808  0.50023568  0.84153853  1
  Ag  Ag45  1  0.33388639  0.34124976  -0.00481511  1
  Ag  Ag46  1  0.16673083  0.33262346  0.50418231  1
  Ag  Ag47  1  0.16431041  0.50135671  0.32791012  1
  Ag  Ag48  1  0.67455807  0.00025473  0.66956250  1
  Ag  Ag49  1  0.83259801  0.49937501  0.00000170  1
  Ag  Ag50  1  0.83205203  0.00227428  0.83343236  1
  Ag  Ag51  1  0.50389604  0.82735909  -0.00101980  1
  Ag  Ag52  1  0.16284598  0.83575267  0.66452611  1
  Ag  Ag53  1  0.49605870  0.16721214  0.66765886  1
  Sb  Sb54  1  0.66711369  0.00043077  0.33306845  1
  Sb  Sb55  1  0.83163486  0.33184690  0.83580363  1
  Sb  Sb56  1  0.33269603  0.33622582  0.33207120  1
  Sb  Sb57  1  0.83452885  0.33322120  0.16281161  1
  Sb  Sb58  1  0.00428298  0.33522048  0.67241390  1
  Sb  Sb59  1  0.67327879  0.17047416  0.16466338  1
  Sb  Sb60  1  0.33342798  0.00204316  0.66404754  1
  Sb  Sb61  1  0.16315601  0.16904824  0.33794941  1
  Sb  Sb62  1  0.66702958  0.66314139  0.32912003  1
  Sb  Sb63  1  0.33330275  0.50411523  0.49582840  1
  Sb  Sb64  1  0.66436344  0.33180858  0.67137022  1
  Sb  Sb65  1  0.66560720  0.83014679  0.83386218  1
  Sb  Sb66  1  0.32834925  0.16311891  0.50424043  1
  Sb  Sb67  1  0.50052592  0.49687933  0.66621620  1
  Sb  Sb68  1  0.32899547  0.16668185  0.16299738  1
  Sb  Sb69  1  0.15925206  0.17191674  -0.00421308  1
  Sb  Sb70  1  0.00013319  0.33756007  0.32904258  1
  Sb  Sb71  1  0.16188360  0.66715047  0.50028009  1
  Sb  Sb72  1  0.49619408  0.33292005  0.50410211  1
  Sb  Sb73  1  0.50481451  0.00075922  0.83356830  1
  Sb  Sb74  1  0.33399915  0.49942136  0.83939199  1
  Sb  Sb75  1  0.00217721  -0.00209354  0.33144366  1
  Sb  Sb76  1  0.66758070  0.82945433  0.16509807  1
  Sb  Sb77  1  0.16796723  0.82996526  0.33608382  1
  Sb  Sb78  1  -0.00544568  0.00058585  0.66625105  1
  Sb  Sb79  1  0.83788550  0.33307110  0.50196944  1
  Sb  Sb80  1  0.49656410  0.83010383  0.32905886  1
  Sb  Sb81  1  0.67355642  0.16667466  0.50164879  1
  Sb  Sb82  1  0.33616968  -0.00295564  0.00271131  1
  Sb  Sb83  1  -0.00079021  0.83606735  0.49960163  1
  Sb  Sb84  1  0.49928169  0.33955465  0.16097261  1
  Sb  Sb85  1  0.50139381  0.83668824  0.67102372  1
  Sb  Sb86  1  0.83470391  0.83289457  0.33429179  1
  Sb  Sb87  1  -0.00325186  0.49677417  0.50013767  1
  Sb  Sb88  1  0.66960659  0.16995294  0.83404184  1
  Sb  Sb89  1  0.50189969  0.00009327  0.49964462  1
  Sb  Sb90  1  0.83069283  0.66603810  0.83136125  1
  Sb  Sb91  1  0.50093754  -0.00370833  0.16634552  1
  Sb  Sb92  1  0.17141909  0.33478643  0.82922438  1
  Sb  Sb93  1  0.17011448  0.66659779  0.16699909  1
  Sb  Sb94  1  0.66671223  0.33730812  0.32900644  1
  Sb  Sb95  1  0.50412755  0.66652013  0.49915106  1
  Sb  Sb96  1  0.83235002  0.66629468  0.16795657  1
  Sb  Sb97  1  0.50394511  0.16604421  -0.00072979  1
  Sb  Sb98  1  0.16265129  0.00124513  0.83224423  1
  Sb  Sb99  1  0.50404001  0.50659924  0.00443249  1
  Sb  Sb100  1  0.16967248  0.66422898  0.83330123  1
  Sb  Sb101  1  0.67206984  0.66800488  0.67017210  1
  Sb  Sb102  1  -0.00619199  0.00506291  0.00244054  1
  Sb  Sb103  1  0.00014064  0.83145247  0.83552601  1
  Sb  Sb104  1  -0.00240263  0.66039980  0.00132569  1
  Sb  Sb105  1  0.16575357  0.33417456  0.16772466  1
  Sb  Sb106  1  0.16659109  0.82893474  -0.00084162  1
  Sb  Sb107  1  0.32957683  0.66487960  0.66737212  1
  Te  Te108  1  0.16020231  0.16160199  0.16712093  1
  Te  Te109  1  0.16227849  0.16315607  0.50363301  1
  Te  Te110  1  0.16506358  0.16555187  0.82740951  1
  Te  Te111  1  0.16433599  0.49874712  0.16671816  1
  Te  Te112  1  0.16595561  0.49865735  0.50442613  1
  Te  Te113  1  0.16141142  0.49995509  0.82965805  1
  Te  Te114  1  0.16657928  0.83874719  0.16699322  1
  Te  Te115  1  0.16815385  0.83727636  0.50442146  1
  Te  Te116  1  0.17042649  0.83420127  0.82686644  1
  Te  Te117  1  0.49958034  0.16606763  0.17180709  1
  Te  Te118  1  0.50092561  0.16736102  0.49951271  1
  Te  Te119  1  0.49757338  0.16858582  0.83138785  1
  Te  Te120  1  0.49696874  0.50327812  0.17069643  1
  Te  Te121  1  0.50574965  0.50003952  0.49394213  1
  Te  Te122  1  0.50240644  0.50050257  0.83167422  1
  Te  Te123  1  0.49717133  0.82853093  0.16161645  1
  Te  Te124  1  0.49803148  0.83333596  0.50101193  1
  Te  Te125  1  0.49573302  0.83131951  0.83804101  1
  Te  Te126  1  0.83684714  0.16382572  0.16630445  1
  Te  Te127  1  0.83765825  0.16519452  0.50184200  1
  Te  Te128  1  0.83518319  0.16474385  0.83252016  1
  Te  Te129  1  0.83517103  0.50094436  0.16664881  1
  Te  Te130  1  0.83218932  0.49986967  0.50066255  1
  Te  Te131  1  0.83379031  0.49986642  0.83294140  1
  Te  Te132  1  0.83511328  0.83588071  0.16528470  1
  Te  Te133  1  0.83323829  0.83486110  0.50197237  1
  Te  Te134  1  0.83369746  0.83729721  0.83240017  1
  Te  Te135  1  0.16650989  -0.00031428  0.00505353  1
  Te  Te136  1  0.16985377  0.00057041  0.33501488  1
  Te  Te137  1  0.16614707  0.00009545  0.66394579  1
  Te  Te138  1  0.16929425  0.33888611  0.00062872  1
  Te  Te139  1  0.16760378  0.34056794  0.34084168  1
  Te  Te140  1  0.16941915  0.33244409  0.66346893  1
  Te  Te141  1  0.17367038  0.65956678  -0.00042756  1
  Te  Te142  1  0.16730400  0.66064302  0.33442389  1
  Te  Te143  1  0.16130611  0.66601300  0.66597703  1
  Te  Te144  1  0.50823117  -0.00633659  0.00019976  1
  Te  Te145  1  0.49500968  0.00465584  0.33260996  1
  Te  Te146  1  0.50798300  0.00671929  0.66700194  1
  Te  Te147  1  0.49876360  0.33094797  -0.00520147  1
  Te  Te148  1  0.49909227  0.33299251  0.33298786  1
  Te  Te149  1  0.49445810  0.32817398  0.67143952  1
  Te  Te150  1  0.49955850  0.66860550  -0.00059632  1
  Te  Te151  1  0.49615043  0.66204660  0.33180249  1
  Te  Te152  1  0.49968524  0.66706096  0.67212559  1
  Te  Te153  1  0.83275739  -0.00073361  0.00090304  1
  Te  Te154  1  0.83420513  0.00341160  0.33683567  1
  Te  Te155  1  0.83270011  -0.00056425  0.66431891  1
  Te  Te156  1  0.83182883  0.33753072  -0.00104772  1
  Te  Te157  1  0.83311786  0.33268470  0.33362775  1
  Te  Te158  1  0.83306991  0.33569768  0.66774895  1
  Te  Te159  1  0.82961569  0.66615336  -0.00056686  1
  Te  Te160  1  0.83490631  0.66277925  0.33726527  1
  Te  Te161  1  0.83601864  0.66368169  0.66467965  1
  Te  Te162  1  -0.00487078  0.17258131  -0.00018383  1
  Te  Te163  1  -0.00403304  0.16825365  0.32785755  1
  Te  Te164  1  -0.00066926  0.16846939  0.66930033  1
  Te  Te165  1  -0.00193796  0.49950829  0.00010370  1
  Te  Te166  1  -0.00224662  0.50227337  0.33233569  1
  Te  Te167  1  -0.00147892  0.50050612  0.66654780  1
  Te  Te168  1  -0.00286117  0.82900973  0.00416229  1
  Te  Te169  1  0.00128232  0.82508244  0.32527137  1
  Te  Te170  1  -0.00190321  0.82856223  0.66796122  1
  Te  Te171  1  0.33233889  0.16728891  -0.00591294  1
  Te  Te172  1  0.33496738  0.16637030  0.33270202  1
  Te  Te173  1  0.33198387  0.16811475  0.66973605  1
  Te  Te174  1  0.33347450  0.50113720  0.00312254  1
  Te  Te175  1  0.33245082  0.50216625  0.33008024  1
  Te  Te176  1  0.33008550  0.49571986  0.66595847  1
  Te  Te177  1  0.33170413  0.83173367  0.00069507  1
  Te  Te178  1  0.33293379  0.83140573  0.33066974  1
  Te  Te179  1  0.33153225  0.83375326  0.66746555  1
  Te  Te180  1  0.67349110  0.16238568  0.00008835  1
  Te  Te181  1  0.66779025  0.16882161  0.33319158  1
  Te  Te182  1  0.67110901  0.16383077  0.66701052  1
  Te  Te183  1  0.66858438  0.50226378  0.00000415  1
  Te  Te184  1  0.67113327  0.49955823  0.33229518  1
  Te  Te185  1  0.66979383  0.49962708  0.66551704  1
  Te  Te186  1  0.66997047  0.83230916  0.00019321  1
  Te  Te187  1  0.66483998  0.83210349  0.34172530  1
  Te  Te188  1  0.67035853  0.83660658  0.66443136  1
  Te  Te189  1  -0.00158867  -0.00069837  0.16769646  1
  Te  Te190  1  -0.00031871  0.00425396  0.49785724  1
  Te  Te191  1  -0.00619064  0.00348277  0.83419478  1
  Te  Te192  1  0.00129078  0.33581224  0.16016674  1
  Te  Te193  1  0.00599990  0.32580999  0.49926783  1
  Te  Te194  1  0.00153727  0.33389437  0.83968407  1
  Te  Te195  1  0.00014942  0.66446851  0.16967105  1
  Te  Te196  1  -0.00555627  0.66760873  0.49925648  1
  Te  Te197  1  -0.00004909  0.66200417  0.82884197  1
  Te  Te198  1  0.33251418  -0.00158359  0.17069423  1
  Te  Te199  1  0.33108144  -0.00466961  0.49632178  1
  Te  Te200  1  0.33283544  0.00003812  0.83341927  1
  Te  Te201  1  0.33254776  0.33695171  0.15949672  1
  Te  Te202  1  0.32824785  0.33398578  0.50459423  1
  Te  Te203  1  0.33681398  0.33246716  0.83465423  1
  Te  Te204  1  0.33421818  0.66715504  0.16726292  1
  Te  Te205  1  0.33457544  0.67289981  0.49813914  1
  Te  Te206  1  0.33792686  0.66999736  0.83499421  1
  Te  Te207  1  0.67301214  -0.00128290  0.16441933  1
  Te  Te208  1  0.67144223  -0.00217535  0.50097182  1
  Te  Te209  1  0.67246214  -0.00046756  0.83380658  1
  Te  Te210  1  0.66556711  0.34134300  0.15778735  1
  Te  Te211  1  0.66510805  0.34045550  0.50158440  1
  Te  Te212  1  0.66000240  0.33859481  0.83798587  1
  Te  Te213  1  0.66139775  0.66222921  0.16195767  1
  Te  Te214  1  0.67138643  0.66678165  0.50026870  1
  Te  Te215  1  0.66216372  0.66213559  0.83782466  1
