# generated using pymatgen
data_AgSbTe2
_symmetry_space_group_name_H-M   'P 1'
_cell_length_a   18.33429364
_cell_length_b   18.32626833
_cell_length_c   18.34002003
_cell_angle_alpha   90.00104878
_cell_angle_beta   89.99909516
_cell_angle_gamma   89.99692995
_symmetry_Int_Tables_number   1
_chemical_formula_structural   AgSbTe2
_chemical_formula_sum   'Ag54 Sb54 Te108'
_cell_volume   6162.23176665
_cell_formula_units_Z   54
loop_
 _symmetry_equiv_pos_site_id
 _symmetry_equiv_pos_as_xyz
  1  'x, y, z'
loop_
 _atom_site_type_symbol
 _atom_site_label
 _atom_site_symmetry_multiplicity
 _atom_site_fract_x
 _atom_site_fract_y
 _atom_site_fract_z
 _atom_site_occupancy
  Ag  Ag0  1  0.83713697  0.83464488  0.67033183  1
  Ag  Ag1  1  0.50193982  0.66466815  0.83521470  1
  Ag  Ag2  1  0.16474505  0.50360016  0.32937575  1
  Ag  Ag3  1  0.00331803  0.49873035  0.51054379  1
  Ag  Ag4  1  0.48946985  0.82863976  0.32827963  1
  Ag  Ag5  1  0.15867135  0.16961317  0.66833153  1
  Ag  Ag6  1  0.00136026  0.50896344  0.82244321  1
  Ag  Ag7  1  0.33282761  0.83512411  0.17209272  1
  Ag  Ag8  1  0.32812643  0.16806375  0.16432567  1
  Ag  Ag9  1  0.50062137  0.82684242  0.00020716  1
  Ag  Ag10  1  0.83946217  0.00392547  0.50319404  1
  Ag  Ag11  1  0.83857457  0.16523259  -0.00770528  1
  Ag  Ag12  1  0.66907804  0.00600032  0.66664075  1
  Ag  Ag13  1  0.00198130  0.66219044  -0.01097185  1
  Ag  Ag14  1  0.83285061  0.33442748  0.17042198  1
  Ag  Ag15  1  0.67270465  0.16744935  0.51130183  1
  Ag  Ag16  1  0.83632646  0.16629560  0.67086379  1
  Ag  Ag17  1  0.83353671  0.83641949  -0.00992523  1
  Ag  Ag18  1  0.33226985  -0.00479764  0.33361732  1
  Ag  Ag19  1  0.00209865  0.82759800  0.50315336  1
  Ag  Ag20  1  0.50591260  0.33884100  0.16446924  1
  Ag  Ag21  1  0.00044285  0.65378572  0.67720681  1
  Ag  Ag22  1  0.84255780  0.67184579  0.83277663  1
  Ag  Ag23  1  0.16351785  0.50006055  0.00596367  1
  Ag  Ag24  1  0.50551046  0.33599013  0.84131075  1
  Ag  Ag25  1  0.00283452  0.17601750  0.15957574  1
  Ag  Ag26  1  0.15449531  0.66432656  0.83377029  1
  Ag  Ag27  1  0.67467853  0.16538418  0.82967552  1
  Ag  Ag28  1  0.16178078  0.66676554  0.50003497  1
  Ag  Ag29  1  0.32831652  0.49906590  0.16674798  1
  Ag  Ag30  1  0.16367918  -0.00285396  0.50120550  1
  Ag  Ag31  1  0.83839550  0.32919855  0.49929108  1
  Ag  Ag32  1  0.16784430  0.82818063  0.33872133  1
  Ag  Ag33  1  0.16565140  0.65973613  0.16637331  1
  Ag  Ag34  1  0.00425413  0.49575073  0.16549361  1
  Ag  Ag35  1  0.33246351  -0.00031275  0.00667928  1
  Ag  Ag36  1  0.15804587  0.17151753  -0.00253619  1
  Ag  Ag37  1  0.67792509  0.83519408  0.83410510  1
  Ag  Ag38  1  -0.00394171  0.16960537  0.83224083  1
  Ag  Ag39  1  0.67404447  0.33398944  0.32608793  1
  Ag  Ag40  1  0.49331957  0.49984745  0.32373532  1
  Ag  Ag41  1  0.84510695  0.49509822  0.66761722  1
  Ag  Ag42  1  -0.00521822  0.81979752  0.82560055  1
  Ag  Ag43  1  0.83985390  0.83412555  0.34010842  1
  Ag  Ag44  1  0.33319045  0.00088062  0.66239540  1
  Ag  Ag45  1  0.15716216  0.34022844  0.50162046  1
  Ag  Ag46  1  0.51048650  0.16692395  0.66907272  1
  Ag  Ag47  1  -0.00197668  0.34153416  0.66287342  1
  Ag  Ag48  1  0.66210559  0.49489704  0.16547496  1
  Ag  Ag49  1  0.49632063  0.50009972  0.00471204  1
  Ag  Ag50  1  0.15753199  0.49808811  0.66018131  1
  Ag  Ag51  1  -0.00326465  0.33639076  0.34152928  1
  Ag  Ag52  1  0.31911020  0.83795495  0.49054919  1
  Ag  Ag53  1  0.66670685  0.33371605  0.00434989  1
  Sb  Sb54  1  0.33053814  0.83334206  0.83450913  1
  Sb  Sb55  1  0.16254515  0.33776616  0.17025254  1
  Sb  Sb56  1  -0.00380365  0.33567504  -0.00170098  1
  Sb  Sb57  1  0.33114543  0.16684125  0.83539557  1
  Sb  Sb58  1  0.32697994  0.32900760  0.66545653  1
  Sb  Sb59  1  0.49377379  0.66056117  0.16260048  1
  Sb  Sb60  1  0.67401850  0.49316584  0.49585783  1
  Sb  Sb61  1  0.83452090  0.16800484  0.33555137  1
  Sb  Sb62  1  0.67400172  0.32781189  0.66743686  1
  Sb  Sb63  1  0.00387067  0.83016105  0.16781619  1
  Sb  Sb64  1  0.83371417  -0.00329140  0.82641414  1
  Sb  Sb65  1  0.33083001  0.33191353  0.33147213  1
  Sb  Sb66  1  0.33582201  0.33126694  0.00294996  1
  Sb  Sb67  1  0.49693413  0.00317942  0.16629296  1
  Sb  Sb68  1  0.66436711  0.00212274  -0.00466039  1
  Sb  Sb69  1  0.66849537  0.17513021  0.16255481  1
  Sb  Sb70  1  0.66746653  0.66247666  0.33323701  1
  Sb  Sb71  1  0.50291628  0.33326557  0.49845758  1
  Sb  Sb72  1  0.67117493  0.49917323  0.83667611  1
  Sb  Sb73  1  0.67307878  0.83861762  0.50374415  1
  Sb  Sb74  1  0.32633441  0.50064697  0.83794004  1
  Sb  Sb75  1  0.49140434  0.66693821  0.50335103  1
  Sb  Sb76  1  0.32282797  0.50463793  0.49371446  1
  Sb  Sb77  1  0.32756301  0.66911530  0.00093646  1
  Sb  Sb78  1  0.83257960  0.33262595  0.83246168  1
  Sb  Sb79  1  0.16925986  -0.00109724  0.17048270  1
  Sb  Sb80  1  0.50095265  0.16989835  -0.00372340  1
  Sb  Sb81  1  0.84072183  0.66274746  0.16144046  1
  Sb  Sb82  1  0.83442059  0.00357958  0.17164500  1
  Sb  Sb83  1  0.33005379  0.67241217  0.33124524  1
  Sb  Sb84  1  0.16523484  0.16876260  0.33440606  1
  Sb  Sb85  1  0.32313877  0.67094620  0.66768885  1
  Sb  Sb86  1  0.66359346  0.00294157  0.33988470  1
  Sb  Sb87  1  0.49931327  0.49456393  0.67103385  1
  Sb  Sb88  1  0.15918473  0.83287363  0.66037607  1
  Sb  Sb89  1  0.66293554  0.82680119  0.16285645  1
  Sb  Sb90  1  0.84115949  0.66706482  0.50586682  1
  Sb  Sb91  1  0.83925219  0.50044797  0.33531408  1
  Sb  Sb92  1  0.16544368  -0.00305867  0.82858614  1
  Sb  Sb93  1  0.00312389  -0.00051826  -0.00030008  1
  Sb  Sb94  1  0.16481731  0.33688755  0.83072824  1
  Sb  Sb95  1  0.49936245  0.16958905  0.33496355  1
  Sb  Sb96  1  0.67020024  0.66238967  -0.00170694  1
  Sb  Sb97  1  0.67503943  0.67106500  0.67047019  1
  Sb  Sb98  1  0.16537764  0.83160105  0.00300817  1
  Sb  Sb99  1  -0.00169621  0.00114756  0.66431630  1
  Sb  Sb100  1  0.50053913  0.00064000  0.83314735  1
  Sb  Sb101  1  0.33212849  0.16127264  0.49872557  1
  Sb  Sb102  1  0.50325314  0.83668019  0.66932008  1
  Sb  Sb103  1  0.00410662  0.00290015  0.33710957  1
  Sb  Sb104  1  -0.00211627  0.17240823  0.50439650  1
  Sb  Sb105  1  0.00259968  0.66176172  0.33460559  1
  Sb  Sb106  1  0.49779139  -0.00122259  0.50070887  1
  Sb  Sb107  1  0.83773247  0.49811095  -0.00278563  1
  Te  Te108  1  0.16755809  0.16781101  0.16414168  1
  Te  Te109  1  0.16594479  0.16305944  0.50280236  1
  Te  Te110  1  0.16389517  0.16724939  0.83338688  1
  Te  Te111  1  0.16769197  0.49886162  0.16652720  1
  Te  Te112  1  0.16294237  0.50048901  0.50049837  1
  Te  Te113  1  0.16272122  0.50269484  0.83571308  1
  Te  Te114  1  0.17055536  0.83012647  0.17146292  1
  Te  Te115  1  0.16313908  0.83426500  0.49946656  1
  Te  Te116  1  0.16073945  0.82729439  0.83370461  1
  Te  Te117  1  0.49662247  0.17382032  0.16578946  1
  Te  Te118  1  0.50420675  0.16714608  0.50568034  1
  Te  Te119  1  0.50149800  0.16993047  0.82968635  1
  Te  Te120  1  0.49859832  0.49965514  0.16549432  1
  Te  Te121  1  0.49803846  0.50024350  0.49602832  1
  Te  Te122  1  0.50057675  0.49902246  0.83669900  1
  Te  Te123  1  0.49632428  0.83132904  0.16582718  1
  Te  Te124  1  0.50131009  0.83080348  0.49609950  1
  Te  Te125  1  0.49920794  0.83083849  0.83688407  1
  Te  Te126  1  0.83625226  0.17106410  0.16507105  1
  Te  Te127  1  0.83274625  0.16720079  0.50148559  1
  Te  Te128  1  0.83306509  0.16691696  0.83290471  1
  Te  Te129  1  0.83737021  0.49599454  0.16629171  1
  Te  Te130  1  0.84071228  0.49708982  0.50401107  1
  Te  Te131  1  0.83814194  0.50242817  0.82966649  1
  Te  Te132  1  0.83330390  0.83338020  0.16693074  1
  Te  Te133  1  0.83653848  0.83414126  0.50133519  1
  Te  Te134  1  0.83533656  0.83389897  0.83292313  1
  Te  Te135  1  0.17164550  0.00376413  -0.00055522  1
  Te  Te136  1  0.17107996  -0.00299126  0.33839751  1
  Te  Te137  1  0.17012103  0.00303350  0.66308423  1
  Te  Te138  1  0.16792688  0.33201156  -0.00072365  1
  Te  Te139  1  0.16299390  0.33667142  0.33897688  1
  Te  Te140  1  0.16218761  0.33263817  0.66400731  1
  Te  Te141  1  0.16256924  0.66446534  -0.00185307  1
  Te  Te142  1  0.16570031  0.66532662  0.33409593  1
  Te  Te143  1  0.16120245  0.66427713  0.66837096  1
  Te  Te144  1  0.49562052  -0.00625335  0.00025523  1
  Te  Te145  1  0.49539236  -0.00587353  0.33323697  1
  Te  Te146  1  0.50019838  0.00517594  0.66664769  1
  Te  Te147  1  0.50236279  0.33642524  0.00202520  1
  Te  Te148  1  0.50141793  0.33743945  0.33026714  1
  Te  Te149  1  0.49927949  0.32856184  0.66723038  1
  Te  Te150  1  0.50092199  0.66577540  -0.00288024  1
  Te  Te151  1  0.50012905  0.66556341  0.33390457  1
  Te  Te152  1  0.49956696  0.66568741  0.67195892  1
  Te  Te153  1  0.83248579  0.00096931  0.00299520  1
  Te  Te154  1  0.83270576  -0.00534210  0.34007760  1
  Te  Te155  1  0.83102481  0.00259483  0.66158832  1
  Te  Te156  1  0.82919672  0.32980617  0.00228742  1
  Te  Te157  1  0.83470127  0.33477418  0.33397287  1
  Te  Te158  1  0.83691329  0.33141926  0.66535330  1
  Te  Te159  1  0.83798578  0.67017864  -0.00488277  1
  Te  Te160  1  0.83364920  0.67462193  0.33304525  1
  Te  Te161  1  0.83929333  0.66920551  0.67140215  1
  Te  Te162  1  -0.00043590  0.16697935  -0.00078232  1
  Te  Te163  1  0.00038920  0.17421957  0.32613227  1
  Te  Te164  1  -0.00123633  0.16650272  0.66798753  1
  Te  Te165  1  0.00222656  0.50144161  0.00382722  1
  Te  Te166  1  0.00340168  0.49572436  0.32653548  1
  Te  Te167  1  0.00154834  0.49824845  0.66653262  1
  Te  Te168  1  -0.00375649  0.83146370  -0.00084364  1
  Te  Te169  1  0.00175570  0.83447766  0.33523956  1
  Te  Te170  1  -0.00401265  0.83584871  0.66730276  1
  Te  Te171  1  0.33320199  0.16206161  0.00315095  1
  Te  Te172  1  0.33365350  0.16013824  0.32710346  1
  Te  Te173  1  0.32654722  0.16188563  0.66688820  1
  Te  Te174  1  0.33219698  0.50027599  0.00502882  1
  Te  Te175  1  0.33184534  0.49944456  0.32844321  1
  Te  Te176  1  0.32812747  0.50035568  0.66460198  1
  Te  Te177  1  0.33510974  0.83700327  0.00244660  1
  Te  Te178  1  0.33142875  0.83484174  0.33217008  1
  Te  Te179  1  0.33465749  0.83874623  0.66510205  1
  Te  Te180  1  0.66927129  0.16953332  -0.00513421  1
  Te  Te181  1  0.66552775  0.17207774  0.33429361  1
  Te  Te182  1  0.67016460  0.16663878  0.66905723  1
  Te  Te183  1  0.66476264  0.49523617  0.00303621  1
  Te  Te184  1  0.66666846  0.49509303  0.32889609  1
  Te  Te185  1  0.67018122  0.50043370  0.66631252  1
  Te  Te186  1  0.66777430  0.83400265  -0.00460791  1
  Te  Te187  1  0.66578386  0.83292428  0.33319428  1
  Te  Te188  1  0.67158128  0.83884244  0.67192276  1
  Te  Te189  1  0.00064402  0.00956711  0.16831782  1
  Te  Te190  1  0.00065749  -0.00521237  0.49873704  1
  Te  Te191  1  0.00085908  0.00954840  0.83428913  1
  Te  Te192  1  -0.00240068  0.33399465  0.16408117  1
  Te  Te193  1  -0.00081383  0.33350421  0.50096254  1
  Te  Te194  1  -0.00026400  0.32968189  0.82891973  1
  Te  Te195  1  0.00644418  0.66253431  0.16479642  1
  Te  Te196  1  0.00412420  0.66668767  0.50096448  1
  Te  Te197  1  -0.00135390  0.66509636  0.83313168  1
  Te  Te198  1  0.33357393  -0.00167263  0.16706681  1
  Te  Te199  1  0.33131260  -0.00297924  0.50006305  1
  Te  Te200  1  0.33275834  -0.00019315  0.82981524  1
  Te  Te201  1  0.33728779  0.33333730  0.16784572  1
  Te  Te202  1  0.32752092  0.33252763  0.49876712  1
  Te  Te203  1  0.34490742  0.33412675  0.83299659  1
  Te  Te204  1  0.32630807  0.66495777  0.16550658  1
  Te  Te205  1  0.32370914  0.67612929  0.50147222  1
  Te  Te206  1  0.34169989  0.66673496  0.83371904  1
  Te  Te207  1  0.66580157  -0.00107234  0.16855687  1
  Te  Te208  1  0.67066133  0.00566774  0.50542974  1
  Te  Te209  1  0.66644616  0.00044099  0.82848026  1
  Te  Te210  1  0.66834699  0.33580359  0.16617302  1
  Te  Te211  1  0.67133461  0.32849775  0.49603895  1
  Te  Te212  1  0.66459585  0.33129712  0.83618522  1
  Te  Te213  1  0.66866014  0.65591070  0.16646015  1
  Te  Te214  1  0.66577372  0.66439190  0.50137605  1
  Te  Te215  1  0.66376393  0.67051468  0.83393373  1
