# generated using pymatgen
data_AgSbTe2
_symmetry_space_group_name_H-M   'P 1'
_cell_length_a   18.34683480
_cell_length_b   18.34605263
_cell_length_c   18.34563363
_cell_angle_alpha   89.99858426
_cell_angle_beta   90.00140797
_cell_angle_gamma   90.00252030
_symmetry_Int_Tables_number   1
_chemical_formula_structural   AgSbTe2
_chemical_formula_sum   'Ag54 Sb54 Te108'
_cell_volume   6174.99344673
_cell_formula_units_Z   54
loop_
 _symmetry_equiv_pos_site_id
 _symmetry_equiv_pos_as_xyz
  1  'x, y, z'
loop_
 _atom_site_type_symbol
 _atom_site_label
 _atom_site_symmetry_multiplicity
 _atom_site_fract_x
 _atom_site_fract_y
 _atom_site_fract_z
 _atom_site_occupancy
  Ag  Ag0  1  0.49567122  0.67625924  0.49428346  1
  Ag  Ag1  1  0.49699905  0.33670154  0.84921868  1
  Ag  Ag2  1  0.00496703  0.83564506  0.83335903  1
  Ag  Ag3  1  0.66168922  0.16791498  0.49170509  1
  Ag  Ag4  1  0.67097649  0.48670339  0.16407786  1
  Ag  Ag5  1  0.00991585  -0.00677629  0.33617190  1
  Ag  Ag6  1  0.32446537  -0.00062006  0.33399485  1
  Ag  Ag7  1  0.83530637  0.16747547  0.33069423  1
  Ag  Ag8  1  0.67144866  0.17527176  0.17387140  1
  Ag  Ag9  1  0.66490590  0.33074801  0.32642740  1
  Ag  Ag10  1  0.83317146  0.17356500  0.01365902  1
  Ag  Ag11  1  0.82878769  0.33154014  0.49034666  1
  Ag  Ag12  1  0.82591384  0.33248468  0.17234286  1
  Ag  Ag13  1  0.66349912  0.49540777  0.84503963  1
  Ag  Ag14  1  0.34007470  0.32816579  0.33561533  1
  Ag  Ag15  1  0.67147878  0.83662015  0.17308343  1
  Ag  Ag16  1  0.17079040  0.83430566  0.00746437  1
  Ag  Ag17  1  0.32718392  0.00625574  0.65166273  1
  Ag  Ag18  1  0.15678270  0.84535554  0.32941148  1
  Ag  Ag19  1  0.33347217  0.49633880  0.83818972  1
  Ag  Ag20  1  0.33565314  0.16416424  0.49580278  1
  Ag  Ag21  1  0.49103978  0.00029311  0.48954558  1
  Ag  Ag22  1  0.16788541  0.50205012  -0.00066234  1
  Ag  Ag23  1  0.32797122  0.83428656  0.83826421  1
  Ag  Ag24  1  0.00019519  0.50088437  0.49858753  1
  Ag  Ag25  1  0.82359352  0.49166056  0.00910620  1
  Ag  Ag26  1  0.51217985  0.33026186  0.16813855  1
  Ag  Ag27  1  0.00059642  0.16904346  0.83004426  1
  Ag  Ag28  1  0.50164578  0.49161440  -0.00026594  1
  Ag  Ag29  1  0.50155215  0.33029822  0.49258183  1
  Ag  Ag30  1  0.17064817  -0.00058541  0.48935660  1
  Ag  Ag31  1  0.00339953  0.32772828  0.66557933  1
  Ag  Ag32  1  0.32869793  0.67989108  0.33677896  1
  Ag  Ag33  1  -0.00658118  0.83681935  0.17730473  1
  Ag  Ag34  1  0.00338524  0.68039426  0.33498545  1
  Ag  Ag35  1  0.16644627  0.16397388  0.65479149  1
  Ag  Ag36  1  0.84550836  0.83683685  0.32862081  1
  Ag  Ag37  1  0.16585118  -0.00212696  0.17709203  1
  Ag  Ag38  1  0.00043979  0.83412711  0.48802482  1
  Ag  Ag39  1  0.83362456  0.49042457  0.32760444  1
  Ag  Ag40  1  0.34045302  0.33334494  -0.00019118  1
  Ag  Ag41  1  0.66001090  0.33638684  0.01485153  1
  Ag  Ag42  1  0.83047477  0.00061211  0.17122935  1
  Ag  Ag43  1  0.33182507  0.32651074  0.66097828  1
  Ag  Ag44  1  0.49943003  -0.00124849  0.17143563  1
  Ag  Ag45  1  0.66514707  0.83950710  0.48847117  1
  Ag  Ag46  1  0.00018344  0.49874783  0.83339895  1
  Ag  Ag47  1  0.00706439  0.00387164  0.65707873  1
  Ag  Ag48  1  0.83226490  0.66685770  0.17219627  1
  Ag  Ag49  1  0.16876542  0.67839988  0.49334173  1
  Ag  Ag50  1  0.49948870  0.83672071  0.33040390  1
  Ag  Ag51  1  0.49399746  0.83388806  0.00944639  1
  Ag  Ag52  1  0.16339231  0.15577156  0.33592878  1
  Ag  Ag53  1  0.33333588  0.00162093  0.00602921  1
  Sb  Sb54  1  0.32891604  0.16817335  0.83031902  1
  Sb  Sb55  1  0.17088067  0.33456560  0.83372960  1
  Sb  Sb56  1  0.50333881  0.66885049  0.17120294  1
  Sb  Sb57  1  0.66607810  0.66580597  0.66269152  1
  Sb  Sb58  1  0.49592891  0.00346938  0.83573712  1
  Sb  Sb59  1  -0.00446970  0.33064254  0.33692667  1
  Sb  Sb60  1  0.16697868  0.32899356  0.49899464  1
  Sb  Sb61  1  0.16667483  0.84122190  0.66071673  1
  Sb  Sb62  1  0.83127380  0.33509521  0.83551396  1
  Sb  Sb63  1  0.00448829  -0.00198382  0.00514886  1
  Sb  Sb64  1  0.66850913  0.66839896  0.33209179  1
  Sb  Sb65  1  0.66518340  0.82880183  0.83993473  1
  Sb  Sb66  1  -0.00764416  0.16118796  0.16686953  1
  Sb  Sb67  1  0.66247377  0.00538724  0.00511846  1
  Sb  Sb68  1  -0.00089448  0.33507765  -0.00332114  1
  Sb  Sb69  1  0.33875948  0.49639299  0.16378617  1
  Sb  Sb70  1  0.33354376  0.66592025  0.00581953  1
  Sb  Sb71  1  0.83476808  0.66474319  0.49090671  1
  Sb  Sb72  1  0.50175744  0.16980290  0.00282983  1
  Sb  Sb73  1  0.00173402  0.66784096  0.65904467  1
  Sb  Sb74  1  0.33837709  0.16392405  0.17403118  1
  Sb  Sb75  1  0.33166290  0.66793921  0.66067277  1
  Sb  Sb76  1  0.49684163  0.83608473  0.66172045  1
  Sb  Sb77  1  0.16673976  0.32859320  0.16809951  1
  Sb  Sb78  1  0.83593769  0.00404261  0.49087795  1
  Sb  Sb79  1  0.50392708  0.49898557  0.32922521  1
  Sb  Sb80  1  0.49264402  0.16754821  0.66184906  1
  Sb  Sb81  1  0.49816991  0.49582926  0.67023123  1
  Sb  Sb82  1  0.66606993  0.00352781  0.33056524  1
  Sb  Sb83  1  0.33025929  0.49477914  0.50144278  1
  Sb  Sb84  1  0.16589912  0.49467468  0.66858443  1
  Sb  Sb85  1  0.16723265  -0.00133428  0.83276938  1
  Sb  Sb86  1  0.67092867  0.17372343  0.83675846  1
  Sb  Sb87  1  0.83583590  0.66353504  0.84407793  1
  Sb  Sb88  1  0.16613038  0.66821604  0.82962079  1
  Sb  Sb89  1  0.66559413  0.65776781  0.00486853  1
  Sb  Sb90  1  0.00061292  0.66694492  0.00636649  1
  Sb  Sb91  1  0.49749617  0.66246374  0.83167427  1
  Sb  Sb92  1  0.66564937  0.00186615  0.66007154  1
  Sb  Sb93  1  0.16471172  0.16398052  0.00358887  1
  Sb  Sb94  1  0.50146837  0.16364777  0.33315546  1
  Sb  Sb95  1  -0.00762004  0.50389827  0.16818620  1
  Sb  Sb96  1  0.33278741  0.83660123  0.16707367  1
  Sb  Sb97  1  0.83587549  0.49775551  0.66493441  1
  Sb  Sb98  1  0.16310620  0.50000421  0.33021491  1
  Sb  Sb99  1  0.66917564  0.49738595  0.49435806  1
  Sb  Sb100  1  0.33163882  0.84086010  0.49697482  1
  Sb  Sb101  1  0.83958166  0.16780017  0.66148584  1
  Sb  Sb102  1  0.83441890  0.83450284  0.00929289  1
  Sb  Sb103  1  0.00238365  0.16424292  0.50083995  1
  Sb  Sb104  1  0.16267759  0.67298778  0.17205232  1
  Sb  Sb105  1  0.83782252  0.83670254  0.65576127  1
  Sb  Sb106  1  0.66489850  0.33229609  0.66239227  1
  Sb  Sb107  1  0.83731284  0.00016854  0.84155046  1
  Te  Te108  1  0.16540803  0.16026828  0.17167176  1
  Te  Te109  1  0.16829775  0.16272018  0.49690600  1
  Te  Te110  1  0.16024962  0.16683981  0.83494205  1
  Te  Te111  1  0.16525028  0.49989942  0.16058431  1
  Te  Te112  1  0.16086676  0.50077543  0.49949442  1
  Te  Te113  1  0.16595404  0.50177314  0.83749291  1
  Te  Te114  1  0.16484982  0.83678450  0.16780549  1
  Te  Te115  1  0.16510932  0.83739500  0.49539249  1
  Te  Te116  1  0.16719768  0.83208804  0.83654061  1
  Te  Te117  1  0.50787395  0.16519453  0.16585826  1
  Te  Te118  1  0.49984156  0.16639008  0.49897202  1
  Te  Te119  1  0.50139934  0.17574332  0.83249594  1
  Te  Te120  1  0.50657817  0.49913258  0.16106440  1
  Te  Te121  1  0.50078768  0.49314198  0.50061130  1
  Te  Te122  1  0.49752507  0.49744884  0.83773504  1
  Te  Te123  1  0.50017041  0.83396204  0.16784711  1
  Te  Te124  1  0.49999555  0.83676615  0.49769771  1
  Te  Te125  1  0.49933590  0.83201529  0.83651170  1
  Te  Te126  1  0.83151919  0.16623106  0.17024285  1
  Te  Te127  1  0.82941300  0.17043711  0.49482352  1
  Te  Te128  1  0.83930320  0.16678467  0.83293179  1
  Te  Te129  1  0.83172679  0.49719556  0.16743189  1
  Te  Te130  1  0.83689041  0.49670801  0.49671227  1
  Te  Te131  1  0.83800595  0.50019515  0.83693376  1
  Te  Te132  1  0.83405665  0.83706603  0.16895503  1
  Te  Te133  1  0.83228680  0.83333735  0.49152061  1
  Te  Te134  1  0.83498904  0.83163398  0.83447489  1
  Te  Te135  1  0.17211693  -0.00384369  0.00386661  1
  Te  Te136  1  0.16860106  0.00003027  0.33319486  1
  Te  Te137  1  0.16741845  0.00451855  0.66686297  1
  Te  Te138  1  0.17245243  0.33569931  0.00158633  1
  Te  Te139  1  0.17321332  0.33128234  0.33208521  1
  Te  Te140  1  0.16800243  0.32735522  0.66678982  1
  Te  Te141  1  0.16752347  0.66915707  0.00024574  1
  Te  Te142  1  0.16652642  0.66503260  0.33621232  1
  Te  Te143  1  0.16700945  0.66760731  0.65428031  1
  Te  Te144  1  0.49532253  -0.00318783  0.00323768  1
  Te  Te145  1  0.50018533  -0.00198668  0.33221406  1
  Te  Te146  1  0.49160588  0.00082292  0.66448489  1
  Te  Te147  1  0.50049445  0.33262279  0.00566996  1
  Te  Te148  1  0.50172001  0.33421625  0.33039704  1
  Te  Te149  1  0.49372287  0.33254287  0.65546184  1
  Te  Te150  1  0.49901395  0.67211149  0.00025196  1
  Te  Te151  1  0.49620801  0.66735025  0.33645807  1
  Te  Te152  1  0.49868610  0.66680371  0.65551881  1
  Te  Te153  1  0.83265169  0.00433479  0.00896814  1
  Te  Te154  1  0.83473529  0.00004362  0.32958227  1
  Te  Te155  1  0.84137625  0.00122257  0.66785183  1
  Te  Te156  1  0.83289381  0.33377448  0.00030270  1
  Te  Te157  1  0.83430618  0.33112334  0.33291249  1
  Te  Te158  1  0.83828128  0.33316386  0.66138801  1
  Te  Te159  1  0.83307841  0.65944618  0.01060800  1
  Te  Te160  1  0.83582201  0.67204696  0.32990960  1
  Te  Te161  1  0.83405758  0.66729752  0.66775678  1
  Te  Te162  1  -0.00395295  0.16653644  -0.00575182  1
  Te  Te163  1  -0.00028148  0.16316583  0.33346240  1
  Te  Te164  1  0.00464039  0.16554466  0.66718621  1
  Te  Te165  1  0.00520751  0.50086740  -0.00341594  1
  Te  Te166  1  -0.00490895  0.49842521  0.33648293  1
  Te  Te167  1  0.00078108  0.49740871  0.66665994  1
  Te  Te168  1  0.00251492  0.83266524  -0.00690105  1
  Te  Te169  1  0.00188273  0.83591465  0.33317628  1
  Te  Te170  1  0.00111544  0.83765896  0.67373946  1
  Te  Te171  1  0.33200438  0.16750044  -0.00101583  1
  Te  Te172  1  0.33089262  0.16641289  0.33626320  1
  Te  Te173  1  0.32733572  0.16578375  0.66455155  1
  Te  Te174  1  0.33485849  0.49930618  -0.00210456  1
  Te  Te175  1  0.33270611  0.48966035  0.33293119  1
  Te  Te176  1  0.33119409  0.49537589  0.67392641  1
  Te  Te177  1  0.33283973  0.83185849  -0.00036731  1
  Te  Te178  1  0.33795086  0.83624411  0.33470528  1
  Te  Te179  1  0.33195015  0.83654660  0.67624055  1
  Te  Te180  1  0.67249450  0.17302894  0.00148165  1
  Te  Te181  1  0.67035222  0.16947776  0.33381765  1
  Te  Te182  1  0.66762586  0.16630611  0.66181738  1
  Te  Te183  1  0.66499216  0.49599142  0.00241519  1
  Te  Te184  1  0.67269698  0.49647007  0.32886685  1
  Te  Te185  1  0.66740854  0.49941828  0.67361837  1
  Te  Te186  1  0.66404034  0.83326994  0.00293100  1
  Te  Te187  1  0.65783603  0.83209652  0.33277472  1
  Te  Te188  1  0.66763357  0.83382534  0.66557145  1
  Te  Te189  1  0.00167492  -0.00328295  0.17046954  1
  Te  Te190  1  0.00099820  -0.00242075  0.49834929  1
  Te  Te191  1  0.00028320  -0.00211534  0.83355362  1
  Te  Te192  1  -0.00455444  0.33329185  0.16622677  1
  Te  Te193  1  -0.00145248  0.33452661  0.50408382  1
  Te  Te194  1  -0.00031641  0.33561819  0.82880937  1
  Te  Te195  1  -0.00425332  0.67300401  0.17345431  1
  Te  Te196  1  0.00130927  0.66982545  0.49535204  1
  Te  Te197  1  0.00047430  0.66376126  0.83074739  1
  Te  Te198  1  0.33730878  0.00144256  0.16790991  1
  Te  Te199  1  0.33243717  0.00208514  0.49588357  1
  Te  Te200  1  0.33400854  -0.00212871  0.84299949  1
  Te  Te201  1  0.33551920  0.33037339  0.16543766  1
  Te  Te202  1  0.33420388  0.32952811  0.50019371  1
  Te  Te203  1  0.33691715  0.33411921  0.83666337  1
  Te  Te204  1  0.33272042  0.66409298  0.17769808  1
  Te  Te205  1  0.33374231  0.66321284  0.49592537  1
  Te  Te206  1  0.33305269  0.66618586  0.83177260  1
  Te  Te207  1  0.66407974  -0.00445413  0.16460449  1
  Te  Te208  1  0.66322199  -0.00013590  0.50069476  1
  Te  Te209  1  0.66687652  -0.00003321  0.83108333  1
  Te  Te210  1  0.66890833  0.33100814  0.16980002  1
  Te  Te211  1  0.66654818  0.33232464  0.49779519  1
  Te  Te212  1  0.66086105  0.33751163  0.83004086  1
  Te  Te213  1  0.67090747  0.67723664  0.16776206  1
  Te  Te214  1  0.66057127  0.66911778  0.49937647  1
  Te  Te215  1  0.66664114  0.65830126  0.83257226  1
