# generated using pymatgen
data_AgSbTe2
_symmetry_space_group_name_H-M   'P 1'
_cell_length_a   18.35779042
_cell_length_b   18.35952607
_cell_length_c   18.34733716
_cell_angle_alpha   90.00233659
_cell_angle_beta   89.99721625
_cell_angle_gamma   89.99898617
_symmetry_Int_Tables_number   1
_chemical_formula_structural   AgSbTe2
_chemical_formula_sum   'Ag54 Sb54 Te108'
_cell_volume   6183.79259152
_cell_formula_units_Z   54
loop_
 _symmetry_equiv_pos_site_id
 _symmetry_equiv_pos_as_xyz
  1  'x, y, z'
loop_
 _atom_site_type_symbol
 _atom_site_label
 _atom_site_symmetry_multiplicity
 _atom_site_fract_x
 _atom_site_fract_y
 _atom_site_fract_z
 _atom_site_occupancy
  Ag  Ag0  1  0.17130742  0.50096408  0.00094903  1
  Ag  Ag1  1  0.83634982  0.49480788  0.66933740  1
  Ag  Ag2  1  0.32745952  0.66192195  -0.00454224  1
  Ag  Ag3  1  0.17070264  0.18405808  -0.00294150  1
  Ag  Ag4  1  0.34381157  0.00912075  0.66893705  1
  Ag  Ag5  1  0.83109193  0.65313807  0.51166960  1
  Ag  Ag6  1  0.33601036  0.17304352  0.82896405  1
  Ag  Ag7  1  0.33049529  0.65146239  0.67580884  1
  Ag  Ag8  1  0.65905635  0.16602206  0.82129275  1
  Ag  Ag9  1  0.16749004  0.33655073  0.16030837  1
  Ag  Ag10  1  0.65855446  0.66717065  0.00264663  1
  Ag  Ag11  1  0.33523717  0.33671736  0.66778068  1
  Ag  Ag12  1  0.82047391  0.00789321  0.16391210  1
  Ag  Ag13  1  0.49705018  0.83698508  0.66662223  1
  Ag  Ag14  1  0.83951182  0.50157704  -0.00292777  1
  Ag  Ag15  1  0.01183677  0.33790965  0.00073542  1
  Ag  Ag16  1  0.66219107  0.83655445  0.16587569  1
  Ag  Ag17  1  0.17547597  0.17048781  0.33312600  1
  Ag  Ag18  1  0.50018707  0.16927892  0.66493193  1
  Ag  Ag19  1  0.17037978  0.81833466  -0.00188378  1
  Ag  Ag20  1  0.50008244  0.66822882  0.16282065  1
  Ag  Ag21  1  0.50247255  0.82980977  0.00707628  1
  Ag  Ag22  1  0.33225666  0.49657712  0.83078720  1
  Ag  Ag23  1  0.32953619  0.34331711  0.00014052  1
  Ag  Ag24  1  0.81442434  0.17965310  0.66731926  1
  Ag  Ag25  1  0.17327355  0.49968855  0.67183688  1
  Ag  Ag26  1  0.50373568  0.84127199  0.32473657  1
  Ag  Ag27  1  0.01002682  0.65274884  0.66742210  1
  Ag  Ag28  1  0.00010931  0.33817989  0.66822286  1
  Ag  Ag29  1  0.66428096  0.83798771  0.50099075  1
  Ag  Ag30  1  0.00181684  0.49804028  0.51338528  1
  Ag  Ag31  1  0.83442445  0.66322071  0.83099672  1
  Ag  Ag32  1  0.82807034  0.33657448  0.51269506  1
  Ag  Ag33  1  0.49943525  0.00116980  0.82363809  1
  Ag  Ag34  1  0.17574272  0.17825116  0.67050049  1
  Ag  Ag35  1  0.50349526  -0.00601643  0.16573818  1
  Ag  Ag36  1  0.32747443  0.49822037  0.15999686  1
  Ag  Ag37  1  0.66240637  0.00184809  0.32977966  1
  Ag  Ag38  1  0.66362055  0.16620933  0.51001250  1
  Ag  Ag39  1  0.83265814  0.33600804  0.16513794  1
  Ag  Ag40  1  0.48655419  0.48742287  0.66545402  1
  Ag  Ag41  1  0.66154287  0.01503137  0.66356675  1
  Ag  Ag42  1  0.82114838  0.81824359  0.00195114  1
  Ag  Ag43  1  0.00568722  0.49754864  0.16004617  1
  Ag  Ag44  1  0.50238115  0.16397787  0.33762796  1
  Ag  Ag45  1  0.17594112  0.82006007  0.67143046  1
  Ag  Ag46  1  0.16979904  0.66444803  0.83669722  1
  Ag  Ag47  1  0.66628221  0.50059614  0.16237304  1
  Ag  Ag48  1  0.66464449  0.15892301  0.16666340  1
  Ag  Ag49  1  0.50261922  0.33210881  0.50547360  1
  Ag  Ag50  1  0.66311619  0.33010830  0.66423786  1
  Ag  Ag51  1  0.33339268  0.33355564  0.33802908  1
  Ag  Ag52  1  0.32902174  0.49669042  0.51567618  1
  Ag  Ag53  1  0.17520949  0.65278360  0.15558724  1
  Sb  Sb54  1  0.83187192  0.33854905  0.83092577  1
  Sb  Sb55  1  0.66571554  0.67052517  0.32805240  1
  Sb  Sb56  1  0.82388738  -0.00243886  0.83694571  1
  Sb  Sb57  1  0.17711289  0.83774152  0.33154523  1
  Sb  Sb58  1  -0.00006369  0.00388321  0.00169139  1
  Sb  Sb59  1  0.49825463  0.16299344  -0.00228774  1
  Sb  Sb60  1  0.00411280  0.33500391  0.33332615  1
  Sb  Sb61  1  0.16830783  0.33515206  0.50234941  1
  Sb  Sb62  1  -0.00209649  0.17471045  0.16645320  1
  Sb  Sb63  1  0.66277160  0.32794500  0.33631369  1
  Sb  Sb64  1  0.16566648  0.66407230  0.50542632  1
  Sb  Sb65  1  0.33543278  -0.00232122  -0.00449023  1
  Sb  Sb66  1  0.49734326  0.32850056  0.82738478  1
  Sb  Sb67  1  0.17146900  0.00392717  0.16351409  1
  Sb  Sb68  1  0.34073971  0.82644317  0.16349226  1
  Sb  Sb69  1  0.17383681  -0.00273651  0.83107348  1
  Sb  Sb70  1  0.17001422  0.33994151  0.83554316  1
  Sb  Sb71  1  0.66268292  0.49719125  0.83405386  1
  Sb  Sb72  1  0.66344643  0.33681006  -0.00083149  1
  Sb  Sb73  1  0.49719074  0.67048882  0.83548825  1
  Sb  Sb74  1  0.82957364  0.83071620  0.67104905  1
  Sb  Sb75  1  0.66318637  0.66322121  0.67121387  1
  Sb  Sb76  1  0.16886823  0.00286215  0.50273499  1
  Sb  Sb77  1  -0.00502961  0.17565276  0.50331352  1
  Sb  Sb78  1  0.33660965  0.17272602  0.16266847  1
  Sb  Sb79  1  0.50365508  0.66329113  0.50040082  1
  Sb  Sb80  1  -0.00411343  0.82479496  0.16353049  1
  Sb  Sb81  1  0.49871163  0.33514999  0.16990601  1
  Sb  Sb82  1  -0.00795506  0.82383675  0.50450835  1
  Sb  Sb83  1  0.82463577  0.83330934  0.32816168  1
  Sb  Sb84  1  -0.00675412  0.00253205  0.33006497  1
  Sb  Sb85  1  0.50223534  0.00481925  0.50389995  1
  Sb  Sb86  1  -0.00092798  0.00376355  0.66615772  1
  Sb  Sb87  1  0.34002986  0.17500736  0.50783625  1
  Sb  Sb88  1  0.83484697  0.17274081  -0.00329566  1
  Sb  Sb89  1  0.00071358  0.82958589  0.83412399  1
  Sb  Sb90  1  0.66717423  0.49751856  0.50053689  1
  Sb  Sb91  1  0.83278382  0.49895016  0.33307328  1
  Sb  Sb92  1  0.82757384  0.00306368  0.49873955  1
  Sb  Sb93  1  0.66374219  0.83605402  0.83439685  1
  Sb  Sb94  1  0.00579845  0.50062754  0.83129086  1
  Sb  Sb95  1  0.49461464  0.50432314  -0.00258259  1
  Sb  Sb96  1  0.83129815  0.66104267  0.16217015  1
  Sb  Sb97  1  0.82781394  0.16908373  0.33602076  1
  Sb  Sb98  1  0.34223204  0.00874720  0.33819710  1
  Sb  Sb99  1  0.49913172  0.49734537  0.33578555  1
  Sb  Sb100  1  0.00439172  0.16990645  0.83172674  1
  Sb  Sb101  1  0.00404994  0.65856533  -0.00414732  1
  Sb  Sb102  1  0.33388672  0.83016138  0.83160357  1
  Sb  Sb103  1  0.33506160  0.66063266  0.33142786  1
  Sb  Sb104  1  0.16932859  0.49560434  0.32959863  1
  Sb  Sb105  1  0.00156135  0.66405872  0.33637971  1
  Sb  Sb106  1  0.34095541  0.82580511  0.50579194  1
  Sb  Sb107  1  0.66424713  -0.00422197  0.00321943  1
  Te  Te108  1  0.16641533  0.17123203  0.16116192  1
  Te  Te109  1  0.16601173  0.16780289  0.50358142  1
  Te  Te110  1  0.17114883  0.16427871  0.83333773  1
  Te  Te111  1  0.16694465  0.49661766  0.16685910  1
  Te  Te112  1  0.16569059  0.50033279  0.50184869  1
  Te  Te113  1  0.17121169  0.50506734  0.83232571  1
  Te  Te114  1  0.16625534  0.83477899  0.16456489  1
  Te  Te115  1  0.16581176  0.83296802  0.50126775  1
  Te  Te116  1  0.16696116  0.82767568  0.83222682  1
  Te  Te117  1  0.50321500  0.16671688  0.16638288  1
  Te  Te118  1  0.50415604  0.17072193  0.49950924  1
  Te  Te119  1  0.49913139  0.16219398  0.83253514  1
  Te  Te120  1  0.50178272  0.50278639  0.16715508  1
  Te  Te121  1  0.49859696  0.49575358  0.50458345  1
  Te  Te122  1  0.49555866  0.50270042  0.82559105  1
  Te  Te123  1  0.50185248  0.83123183  0.16602670  1
  Te  Te124  1  0.50565688  0.83074100  0.50530080  1
  Te  Te125  1  0.49982899  0.83956511  0.82846815  1
  Te  Te126  1  0.83041121  0.16919386  0.16601927  1
  Te  Te127  1  0.82745393  0.17175540  0.50422638  1
  Te  Te128  1  0.83176318  0.16555532  0.82799446  1
  Te  Te129  1  0.83227542  0.49791064  0.16554943  1
  Te  Te130  1  0.83323553  0.49587760  0.49974854  1
  Te  Te131  1  0.82963598  0.50397425  0.83526221  1
  Te  Te132  1  0.82877356  0.83048209  0.16112294  1
  Te  Te133  1  0.82565626  0.83452365  0.49922309  1
  Te  Te134  1  0.83256832  0.82907777  0.84261927  1
  Te  Te135  1  0.16662990  -0.00589231  -0.00047258  1
  Te  Te136  1  0.16835927  0.00722928  0.33193759  1
  Te  Te137  1  0.16738299  0.00002101  0.66727367  1
  Te  Te138  1  0.16873395  0.34045041  -0.00052949  1
  Te  Te139  1  0.17149354  0.32893392  0.33010968  1
  Te  Te140  1  0.16746877  0.33783137  0.66654572  1
  Te  Te141  1  0.16609863  0.66148885  -0.00121793  1
  Te  Te142  1  0.16845003  0.67071538  0.32523931  1
  Te  Te143  1  0.16930107  0.66258189  0.66661172  1
  Te  Te144  1  0.49901049  -0.00708765  0.00442626  1
  Te  Te145  1  0.50390566  0.00246900  0.33099789  1
  Te  Te146  1  0.50231264  0.00126272  0.66475029  1
  Te  Te147  1  0.49269918  0.33317396  0.00028994  1
  Te  Te148  1  0.49547825  0.32938880  0.33872560  1
  Te  Te149  1  0.49873521  0.33113716  0.66543630  1
  Te  Te150  1  0.49925738  0.67018061  0.00145899  1
  Te  Te151  1  0.50009892  0.67147529  0.32805539  1
  Te  Te152  1  0.49493533  0.67129299  0.66718762  1
  Te  Te153  1  0.83438470  0.00152974  0.00569082  1
  Te  Te154  1  0.82577514  0.00123436  0.32486614  1
  Te  Te155  1  0.82958791  0.00111532  0.66778942  1
  Te  Te156  1  0.83120291  0.33822628  0.00324582  1
  Te  Te157  1  0.83399737  0.33189954  0.32612314  1
  Te  Te158  1  0.83593606  0.33367145  0.66902084  1
  Te  Te159  1  0.83841784  0.66286238  -0.00176701  1
  Te  Te160  1  0.83427812  0.66770967  0.34347128  1
  Te  Te161  1  0.83053120  0.66800308  0.66995594  1
  Te  Te162  1  0.00688616  0.17480696  -0.00091901  1
  Te  Te163  1  0.00994968  0.16659408  0.33494902  1
  Te  Te164  1  0.01280598  0.17187238  0.66618705  1
  Te  Te165  1  -0.00116730  0.49576459  0.00059931  1
  Te  Te166  1  0.00108956  0.50017525  0.33259236  1
  Te  Te167  1  -0.00651172  0.49795006  0.66895769  1
  Te  Te168  1  0.00879770  0.83531276  0.00083273  1
  Te  Te169  1  0.00265789  0.83402713  0.33432870  1
  Te  Te170  1  0.00516845  0.83409077  0.66646344  1
  Te  Te171  1  0.32988453  0.16511907  -0.00527891  1
  Te  Te172  1  0.33622542  0.17229042  0.33377180  1
  Te  Te173  1  0.33526692  0.16971285  0.66771476  1
  Te  Te174  1  0.33365937  0.50246416  -0.00018476  1
  Te  Te175  1  0.33442144  0.49338375  0.32563835  1
  Te  Te176  1  0.33171526  0.49667321  0.67042533  1
  Te  Te177  1  0.33171574  0.82833348  -0.00115589  1
  Te  Te178  1  0.34263407  0.83511069  0.33644358  1
  Te  Te179  1  0.33358973  0.83878081  0.66620859  1
  Te  Te180  1  0.66700551  0.16799667  0.00682379  1
  Te  Te181  1  0.66295514  0.16314595  0.32545700  1
  Te  Te182  1  0.66049824  0.17021010  0.66538375  1
  Te  Te183  1  0.66596853  0.50384863  0.00169666  1
  Te  Te184  1  0.66493839  0.49957844  0.32472120  1
  Te  Te185  1  0.67581408  0.49576886  0.66662667  1
  Te  Te186  1  0.66423640  0.83013190  0.00129898  1
  Te  Te187  1  0.66153496  0.83727386  0.33194841  1
  Te  Te188  1  0.66343400  0.83107803  0.66550842  1
  Te  Te189  1  -0.00507936  -0.00056817  0.16710777  1
  Te  Te190  1  -0.00286736  -0.00084567  0.49758963  1
  Te  Te191  1  -0.00231652  0.00070023  0.83354988  1
  Te  Te192  1  0.00048656  0.33817497  0.16531605  1
  Te  Te193  1  -0.00631446  0.33906380  0.50315926  1
  Te  Te194  1  -0.00097924  0.33353773  0.83319275  1
  Te  Te195  1  0.00282970  0.65825280  0.16856515  1
  Te  Te196  1  -0.00589569  0.65912237  0.50607573  1
  Te  Te197  1  -0.00054914  0.66631788  0.82560256  1
  Te  Te198  1  0.34007040  0.00005634  0.16861760  1
  Te  Te199  1  0.33306628  -0.00146628  0.50793976  1
  Te  Te200  1  0.33907466  0.00555006  0.82870066  1
  Te  Te201  1  0.33202013  0.33644271  0.16189115  1
  Te  Te202  1  0.33437031  0.33787465  0.50215912  1
  Te  Te203  1  0.33383245  0.33375226  0.83336515  1
  Te  Te204  1  0.33409951  0.66206104  0.16504116  1
  Te  Te205  1  0.33441451  0.65762981  0.50129833  1
  Te  Te206  1  0.33140323  0.66442214  0.83416101  1
  Te  Te207  1  0.66371013  -0.00278921  0.16472901  1
  Te  Te208  1  0.66752156  0.00126824  0.50118254  1
  Te  Te209  1  0.66077117  0.00513431  0.82905247  1
  Te  Te210  1  0.66726050  0.33806676  0.16707989  1
  Te  Te211  1  0.66698772  0.33155665  0.50210438  1
  Te  Te212  1  0.66519608  0.32672365  0.82902192  1
  Te  Te213  1  0.66574180  0.66692464  0.16249142  1
  Te  Te214  1  0.67101319  0.66718565  0.49944226  1
  Te  Te215  1  0.66950765  0.66579043  0.84068635  1
