# generated using pymatgen
data_AgSbTe2
_symmetry_space_group_name_H-M   'P 1'
_cell_length_a   18.30509368
_cell_length_b   18.31173167
_cell_length_c   18.31035933
_cell_angle_alpha   90.00117712
_cell_angle_beta   89.99902371
_cell_angle_gamma   90.00058078
_symmetry_Int_Tables_number   1
_chemical_formula_structural   AgSbTe2
_chemical_formula_sum   'Ag54 Sb54 Te108'
_cell_volume   6137.59515985
_cell_formula_units_Z   54
loop_
 _symmetry_equiv_pos_site_id
 _symmetry_equiv_pos_as_xyz
  1  'x, y, z'
loop_
 _atom_site_type_symbol
 _atom_site_label
 _atom_site_symmetry_multiplicity
 _atom_site_fract_x
 _atom_site_fract_y
 _atom_site_fract_z
 _atom_site_occupancy
  Ag  Ag0  1  0.17119939  0.33891047  0.16637647  1
  Ag  Ag1  1  0.33103017  0.66363546  0.00797555  1
  Ag  Ag2  1  0.00349284  0.33203961  0.66382420  1
  Ag  Ag3  1  0.50275731  0.67283570  0.83381964  1
  Ag  Ag4  1  0.33824108  0.16630442  0.83291978  1
  Ag  Ag5  1  0.84061766  0.82569095  -0.00019214  1
  Ag  Ag6  1  0.49966137  0.83511997  0.66737568  1
  Ag  Ag7  1  0.33327949  0.49271531  0.49222221  1
  Ag  Ag8  1  0.15902327  0.49808040  0.66678722  1
  Ag  Ag9  1  0.83506299  0.16871430  0.66130523  1
  Ag  Ag10  1  -0.00070849  0.00351986  0.66176754  1
  Ag  Ag11  1  0.49929112  -0.00178815  0.83520932  1
  Ag  Ag12  1  0.32992679  0.33600483  0.00897920  1
  Ag  Ag13  1  0.83597128  0.17009066  0.34077652  1
  Ag  Ag14  1  0.16452517  -0.00088229  0.83154588  1
  Ag  Ag15  1  -0.00158438  0.50516783  0.83486737  1
  Ag  Ag16  1  0.33472887  0.49990045  0.17076058  1
  Ag  Ag17  1  0.66904116  0.00290871  0.67239471  1
  Ag  Ag18  1  0.67097298  0.16595218  0.50301056  1
  Ag  Ag19  1  0.00523401  0.33047338  0.33686456  1
  Ag  Ag20  1  0.16049398  0.83173733  0.00578733  1
  Ag  Ag21  1  0.00664939  0.00029151  0.34107507  1
  Ag  Ag22  1  0.49995505  0.66525119  0.50079982  1
  Ag  Ag23  1  0.66143299  0.83042601  0.16239830  1
  Ag  Ag24  1  0.33279359  0.82933928  0.16794923  1
  Ag  Ag25  1  0.83539111  0.50660924  0.00057137  1
  Ag  Ag26  1  -0.00437045  0.67163632  -0.00060806  1
  Ag  Ag27  1  0.32747084  0.32896589  0.33284906  1
  Ag  Ag28  1  0.66915112  -0.00261049  -0.00363738  1
  Ag  Ag29  1  0.66820826  0.33577405  0.00075687  1
  Ag  Ag30  1  0.67473418  0.66878730  0.00113051  1
  Ag  Ag31  1  0.32835428  0.00757145  0.33136266  1
  Ag  Ag32  1  -0.00084780  0.16260221  0.49816535  1
  Ag  Ag33  1  0.83866317  0.49776705  0.66678537  1
  Ag  Ag34  1  0.00052363  0.83254220  0.83866235  1
  Ag  Ag35  1  0.00145223  0.33638799  -0.00073065  1
  Ag  Ag36  1  0.49729516  -0.00074273  0.16332306  1
  Ag  Ag37  1  0.83753955  0.49913794  0.33245515  1
  Ag  Ag38  1  0.33515130  0.17217875  0.49464968  1
  Ag  Ag39  1  0.16563952  0.83285791  0.32686156  1
  Ag  Ag40  1  0.32827074  0.33253115  0.65564665  1
  Ag  Ag41  1  0.66405282  0.16153307  0.83070493  1
  Ag  Ag42  1  0.66408585  0.50373232  0.16241239  1
  Ag  Ag43  1  0.49273153  0.33030938  0.49960216  1
  Ag  Ag44  1  0.17148261  0.66552886  0.16593135  1
  Ag  Ag45  1  0.00339082  0.66837777  0.33093017  1
  Ag  Ag46  1  0.49109134  0.16605308  0.33654038  1
  Ag  Ag47  1  0.83417866  0.66426465  0.84000623  1
  Ag  Ag48  1  0.16317910  -0.00023317  0.50053412  1
  Ag  Ag49  1  -0.00134111  -0.01070148  -0.00331751  1
  Ag  Ag50  1  0.32768601  0.66427657  0.32653278  1
  Ag  Ag51  1  -0.00005018  0.83930542  0.50140574  1
  Ag  Ag52  1  0.33335013  0.16877413  0.17512267  1
  Ag  Ag53  1  0.83427142  0.66340388  0.50080287  1
  Sb  Sb54  1  0.16656474  0.32913564  0.83624815  1
  Sb  Sb55  1  0.50276838  0.16284296  0.66234357  1
  Sb  Sb56  1  -0.00199141  0.16390626  0.82908824  1
  Sb  Sb57  1  0.84151205  0.83209422  0.32905501  1
  Sb  Sb58  1  0.67235038  0.49903308  0.83823561  1
  Sb  Sb59  1  0.32851805  0.49730446  0.83513313  1
  Sb  Sb60  1  0.32867088  0.83440203  0.49413542  1
  Sb  Sb61  1  0.00567087  0.16698320  0.17287045  1
  Sb  Sb62  1  0.66787269  0.66620655  0.32783566  1
  Sb  Sb63  1  0.83804019  0.33527224  0.16662602  1
  Sb  Sb64  1  0.50331218  0.50123521  0.00065691  1
  Sb  Sb65  1  0.50018108  0.83294156  -0.00208820  1
  Sb  Sb66  1  0.17020488  0.32958419  0.49578636  1
  Sb  Sb67  1  0.83503627  0.33790255  0.83354416  1
  Sb  Sb68  1  0.16460294  0.67122543  0.84045335  1
  Sb  Sb69  1  0.49728472  0.49726783  0.33308273  1
  Sb  Sb70  1  0.16293742  0.17000060  0.66613705  1
  Sb  Sb71  1  0.50157282  0.50233364  0.66608512  1
  Sb  Sb72  1  0.83385761  0.83390538  0.66980747  1
  Sb  Sb73  1  0.33404784  0.66207497  0.66551372  1
  Sb  Sb74  1  -0.00150354  0.66581932  0.66817902  1
  Sb  Sb75  1  0.67080650  0.83636283  0.49676487  1
  Sb  Sb76  1  0.49327033  0.83606465  0.33517040  1
  Sb  Sb77  1  0.33277282  -0.00009945  0.00407099  1
  Sb  Sb78  1  0.83731771  0.66608287  0.16390879  1
  Sb  Sb79  1  0.49809616  0.33092558  0.82980093  1
  Sb  Sb80  1  0.00360194  0.49940887  0.50237855  1
  Sb  Sb81  1  0.49572223  0.00127043  0.50061201  1
  Sb  Sb82  1  0.17141522  -0.00288679  0.16756658  1
  Sb  Sb83  1  0.83424042  -0.00340264  0.83355524  1
  Sb  Sb84  1  0.16572095  0.66973631  0.49390839  1
  Sb  Sb85  1  0.66489205  0.49686524  0.49678164  1
  Sb  Sb86  1  0.16734661  0.83183880  0.66692237  1
  Sb  Sb87  1  0.49878334  0.16555290  0.00223658  1
  Sb  Sb88  1  0.33060883  0.00585133  0.66404468  1
  Sb  Sb89  1  0.66787463  0.67123996  0.67169052  1
  Sb  Sb90  1  0.16844852  0.16120658  0.33408538  1
  Sb  Sb91  1  0.84015962  0.00017514  0.50008114  1
  Sb  Sb92  1  0.49443366  0.67144618  0.16619115  1
  Sb  Sb93  1  0.66201381  0.16686459  0.16626012  1
  Sb  Sb94  1  0.83291147  0.16740266  -0.00134711  1
  Sb  Sb95  1  0.66590456  0.00257107  0.33241125  1
  Sb  Sb96  1  0.66998111  0.83654826  0.83954353  1
  Sb  Sb97  1  0.00416552  0.83293889  0.16413918  1
  Sb  Sb98  1  0.33034636  0.83672306  0.83921692  1
  Sb  Sb99  1  0.16528356  0.50283181  0.33445878  1
  Sb  Sb100  1  0.66866967  0.32830932  0.66901313  1
  Sb  Sb101  1  0.16641622  0.16259919  -0.00008455  1
  Sb  Sb102  1  0.66615806  0.33226604  0.32929328  1
  Sb  Sb103  1  0.83128453  -0.00051956  0.16576337  1
  Sb  Sb104  1  0.00241836  0.50056952  0.16376974  1
  Sb  Sb105  1  0.83351859  0.33356612  0.49938510  1
  Sb  Sb106  1  0.16183271  0.50367326  -0.00149564  1
  Sb  Sb107  1  0.49253604  0.32880136  0.17040827  1
  Te  Te108  1  0.17428567  0.17306823  0.16628846  1
  Te  Te109  1  0.16535266  0.16115452  0.50083126  1
  Te  Te110  1  0.17146765  0.15831196  0.83277623  1
  Te  Te111  1  0.17225719  0.50099146  0.16587876  1
  Te  Te112  1  0.17325752  0.50134475  0.50562531  1
  Te  Te113  1  0.16017440  0.50018955  0.82814114  1
  Te  Te114  1  0.17056467  0.83108607  0.16599144  1
  Te  Te115  1  0.16066356  0.83784191  0.49883455  1
  Te  Te116  1  0.16212573  0.83863214  0.83559930  1
  Te  Te117  1  0.49450506  0.16129129  0.17210970  1
  Te  Te118  1  0.49561421  0.16707040  0.49687662  1
  Te  Te119  1  0.50038508  0.16290890  0.83167505  1
  Te  Te120  1  0.49898474  0.49999997  0.16726434  1
  Te  Te121  1  0.49588260  0.50253781  0.50005892  1
  Te  Te122  1  0.50021695  0.50734882  0.83243471  1
  Te  Te123  1  0.49754168  0.83858823  0.16724704  1
  Te  Te124  1  0.50179565  0.82948657  0.50368985  1
  Te  Te125  1  0.49931994  0.83450576  0.83039776  1
  Te  Te126  1  0.83195374  0.16780691  0.17376985  1
  Te  Te127  1  0.83434262  0.16737301  0.50052684  1
  Te  Te128  1  0.82817941  0.16747059  0.82926097  1
  Te  Te129  1  0.82979404  0.49966878  0.16638480  1
  Te  Te130  1  0.83238201  0.50282892  0.49914194  1
  Te  Te131  1  0.83789903  0.50420223  0.83473662  1
  Te  Te132  1  0.82543058  0.83289473  0.16052824  1
  Te  Te133  1  0.83872256  0.82545743  0.49907306  1
  Te  Te134  1  0.83854826  0.82676492  0.83746723  1
  Te  Te135  1  0.16277772  -0.00528640  -0.00217413  1
  Te  Te136  1  0.16605377  -0.00499028  0.33373013  1
  Te  Te137  1  0.16146327  -0.00077966  0.66742142  1
  Te  Te138  1  0.16611039  0.33369338  0.00348240  1
  Te  Te139  1  0.16560001  0.33598715  0.32910319  1
  Te  Te140  1  0.16481397  0.33720896  0.66814917  1
  Te  Te141  1  0.16670528  0.67022078  0.00440191  1
  Te  Te142  1  0.16571428  0.66964571  0.32890475  1
  Te  Te143  1  0.16718298  0.66055780  0.66730338  1
  Te  Te144  1  0.50321001  -0.00043610  -0.00273729  1
  Te  Te145  1  0.49654898  0.00374501  0.33163536  1
  Te  Te146  1  0.50049727  -0.00330198  0.67042018  1
  Te  Te147  1  0.49800850  0.33341929  -0.00107295  1
  Te  Te148  1  0.49621297  0.32963921  0.33839294  1
  Te  Te149  1  0.49626662  0.33380444  0.66179522  1
  Te  Te150  1  0.49692631  0.66727970  -0.00368307  1
  Te  Te151  1  0.49720760  0.66689281  0.33886023  1
  Te  Te152  1  0.50130258  0.67055716  0.66688511  1
  Te  Te153  1  0.83437293  -0.00129534  -0.00032324  1
  Te  Te154  1  0.83991390  0.00327901  0.33316515  1
  Te  Te155  1  0.83497429  0.00263883  0.66665904  1
  Te  Te156  1  0.83619991  0.33598839  0.00036780  1
  Te  Te157  1  0.83787441  0.33377395  0.33321123  1
  Te  Te158  1  0.83786800  0.33351240  0.66650479  1
  Te  Te159  1  0.83534286  0.66641769  0.00080293  1
  Te  Te160  1  0.83646006  0.66395100  0.33364549  1
  Te  Te161  1  0.83208328  0.66360269  0.66580316  1
  Te  Te162  1  -0.00171828  0.17214358  0.00130331  1
  Te  Te163  1  -0.00027571  0.16731487  0.33722858  1
  Te  Te164  1  -0.00346116  0.16651645  0.66382944  1
  Te  Te165  1  -0.00342618  0.49858460  -0.00235870  1
  Te  Te166  1  -0.00257933  0.49937921  0.33339002  1
  Te  Te167  1  -0.00228036  0.49861776  0.66840208  1
  Te  Te168  1  -0.00022404  0.83201463  0.00046854  1
  Te  Te169  1  0.00443004  0.83324577  0.33220312  1
  Te  Te170  1  0.00038765  0.83782008  0.66566328  1
  Te  Te171  1  0.33336995  0.16986889  -0.00238951  1
  Te  Te172  1  0.33199642  0.16758364  0.33473700  1
  Te  Te173  1  0.33335423  0.17242387  0.66605391  1
  Te  Te174  1  0.33180633  0.49966227  0.00252060  1
  Te  Te175  1  0.33184789  0.50053065  0.33278964  1
  Te  Te176  1  0.33368901  0.49343792  0.66682087  1
  Te  Te177  1  0.32983366  0.83065834  0.00586506  1
  Te  Te178  1  0.32836734  0.83139927  0.32908769  1
  Te  Te179  1  0.33723865  0.83297918  0.66644150  1
  Te  Te180  1  0.66654019  0.16421670  -0.00243044  1
  Te  Te181  1  0.67154266  0.16730890  0.33736517  1
  Te  Te182  1  0.67033635  0.16366349  0.66575371  1
  Te  Te183  1  0.67099665  0.50018205  0.00228713  1
  Te  Te184  1  0.67415594  0.49912877  0.32750697  1
  Te  Te185  1  0.67534927  0.49843895  0.66652626  1
  Te  Te186  1  0.66688647  0.83421333  0.00260871  1
  Te  Te187  1  0.66794621  0.83447964  0.32579419  1
  Te  Te188  1  0.66432099  0.84030725  0.66568554  1
  Te  Te189  1  0.00071249  0.00079240  0.16241190  1
  Te  Te190  1  0.00120887  0.00010013  0.50006404  1
  Te  Te191  1  0.00074545  -0.00134178  0.83649682  1
  Te  Te192  1  0.00624142  0.33387113  0.16603358  1
  Te  Te193  1  0.00148695  0.32960934  0.49941778  1
  Te  Te194  1  0.00124804  0.33372192  0.83413311  1
  Te  Te195  1  0.00620151  0.66631150  0.16848898  1
  Te  Te196  1  -0.00214867  0.66773737  0.49718425  1
  Te  Te197  1  -0.00134192  0.66793844  0.83568502  1
  Te  Te198  1  0.33610031  0.00207830  0.16999796  1
  Te  Te199  1  0.32743505  0.00262573  0.49560338  1
  Te  Te200  1  0.33508891  0.00409392  0.83285483  1
  Te  Te201  1  0.33266140  0.33441615  0.16785375  1
  Te  Te202  1  0.33183338  0.33349364  0.49691047  1
  Te  Te203  1  0.33372705  0.32847440  0.83775313  1
  Te  Te204  1  0.33376500  0.66563384  0.16682621  1
  Te  Te205  1  0.33532423  0.66612155  0.49729101  1
  Te  Te206  1  0.33606644  0.66700166  0.83711841  1
  Te  Te207  1  0.66142600  -0.00140468  0.16334790  1
  Te  Te208  1  0.66602235  0.00485367  0.50267616  1
  Te  Te209  1  0.66643022  0.00115451  0.83430770  1
  Te  Te210  1  0.66440197  0.33651724  0.16067352  1
  Te  Te211  1  0.65998384  0.32790323  0.49958166  1
  Te  Te212  1  0.66518363  0.32794870  0.83970479  1
  Te  Te213  1  0.66320178  0.66599287  0.16092953  1
  Te  Te214  1  0.66592303  0.66682760  0.49934265  1
  Te  Te215  1  0.66701301  0.66753996  0.83960735  1
