# generated using pymatgen
data_AgSbTe2
_symmetry_space_group_name_H-M   'P 1'
_cell_length_a   18.34201066
_cell_length_b   18.34742024
_cell_length_c   18.34016161
_cell_angle_alpha   90.00557986
_cell_angle_beta   90.00181932
_cell_angle_gamma   89.99963779
_symmetry_Int_Tables_number   1
_chemical_formula_structural   AgSbTe2
_chemical_formula_sum   'Ag54 Sb54 Te108'
_cell_volume   6171.98846681
_cell_formula_units_Z   54
loop_
 _symmetry_equiv_pos_site_id
 _symmetry_equiv_pos_as_xyz
  1  'x, y, z'
loop_
 _atom_site_type_symbol
 _atom_site_label
 _atom_site_symmetry_multiplicity
 _atom_site_fract_x
 _atom_site_fract_y
 _atom_site_fract_z
 _atom_site_occupancy
  Ag  Ag0  1  0.66593149  0.01454068  0.00027846  1
  Ag  Ag1  1  0.16748865  0.66116445  0.18155147  1
  Ag  Ag2  1  0.33024425  0.50006720  0.49838852  1
  Ag  Ag3  1  0.49935627  0.00202452  0.49725529  1
  Ag  Ag4  1  0.49769956  0.82736066  0.33629034  1
  Ag  Ag5  1  0.49015234  0.66787168  0.49483972  1
  Ag  Ag6  1  0.50552418  0.16800755  -0.00006450  1
  Ag  Ag7  1  0.83759515  0.33783536  0.49687254  1
  Ag  Ag8  1  0.67410465  0.33275085  0.00451670  1
  Ag  Ag9  1  0.33191611  0.49465955  0.82215888  1
  Ag  Ag10  1  -0.00715304  0.33087743  0.01054650  1
  Ag  Ag11  1  0.66891175  0.66048885  0.00815228  1
  Ag  Ag12  1  0.33170257  0.49913777  0.18381422  1
  Ag  Ag13  1  0.00062082  0.17089782  0.83408921  1
  Ag  Ag14  1  0.83813105  0.00884892  0.82366219  1
  Ag  Ag15  1  0.83641572  0.49611570  0.33779649  1
  Ag  Ag16  1  0.17331154  0.49824563  0.33858014  1
  Ag  Ag17  1  0.84116944  0.49542168  0.65565451  1
  Ag  Ag18  1  0.33265354  0.16968809  0.82859206  1
  Ag  Ag19  1  0.33324724  0.65298664  0.34212789  1
  Ag  Ag20  1  0.16795443  0.49885009  0.65645037  1
  Ag  Ag21  1  0.17355202  0.18177839  0.33340398  1
  Ag  Ag22  1  -0.00000395  0.83044112  0.50153097  1
  Ag  Ag23  1  0.00134799  0.33282082  0.66267963  1
  Ag  Ag24  1  0.49857938  0.00452179  0.18109286  1
  Ag  Ag25  1  0.17316799  0.65533956  0.49864124  1
  Ag  Ag26  1  0.33930847  0.00393686  0.34349616  1
  Ag  Ag27  1  0.49711605  0.33069797  0.83218171  1
  Ag  Ag28  1  0.82806966  0.17199754  -0.00412628  1
  Ag  Ag29  1  0.32905137  0.33627727  0.66008643  1
  Ag  Ag30  1  0.83470760  0.65353579  0.49891269  1
  Ag  Ag31  1  -0.00339984  0.33699159  0.33517642  1
  Ag  Ag32  1  0.66478385  0.16793777  0.49676190  1
  Ag  Ag33  1  0.16397504  0.33757263  0.49784507  1
  Ag  Ag34  1  0.16924101  0.82763955  0.66417404  1
  Ag  Ag35  1  0.49528769  0.16879171  0.66384593  1
  Ag  Ag36  1  0.33155035  0.34000796  0.34074026  1
  Ag  Ag37  1  0.48717609  0.49740664  0.33422952  1
  Ag  Ag38  1  0.66829564  0.49689117  0.17370117  1
  Ag  Ag39  1  0.65926735  0.65418049  0.33426018  1
  Ag  Ag40  1  0.32920433  0.00391062  0.66485949  1
  Ag  Ag41  1  0.83680754  0.33460196  0.17153948  1
  Ag  Ag42  1  0.33247437  0.83957596  0.82727997  1
  Ag  Ag43  1  0.49510375  0.16982819  0.33547106  1
  Ag  Ag44  1  0.16819356  0.00273304  0.82749204  1
  Ag  Ag45  1  0.83132698  0.00472920  0.50249962  1
  Ag  Ag46  1  0.00538658  0.00764361  0.66617671  1
  Ag  Ag47  1  -0.00167995  0.49345159  0.17457491  1
  Ag  Ag48  1  0.66834453  0.33725252  0.33049068  1
  Ag  Ag49  1  0.83542772  0.33177323  0.83492377  1
  Ag  Ag50  1  0.83281539  0.65517495  0.82477418  1
  Ag  Ag51  1  -0.00037962  0.17623354  0.16567791  1
  Ag  Ag52  1  0.00796715  0.65270766  0.33860767  1
  Ag  Ag53  1  0.33051393  0.65286809  0.65959417  1
  Sb  Sb54  1  0.16679916  0.32974806  0.82657887  1
  Sb  Sb55  1  0.66598975  0.49728953  0.83736082  1
  Sb  Sb56  1  0.16953588  0.00147089  0.50347064  1
  Sb  Sb57  1  0.49595227  0.49549745  0.66014967  1
  Sb  Sb58  1  0.83242672  0.49118358  0.00223702  1
  Sb  Sb59  1  0.66575688  0.82865851  0.16982367  1
  Sb  Sb60  1  0.82971900  0.82475703  0.33656424  1
  Sb  Sb61  1  0.83467783  0.65654156  0.17186374  1
  Sb  Sb62  1  0.33389965  0.82939974  0.17000815  1
  Sb  Sb63  1  0.17113189  -0.00202398  0.16693958  1
  Sb  Sb64  1  0.66726409  0.33306850  0.66433171  1
  Sb  Sb65  1  0.32933260  0.82817638  0.50375383  1
  Sb  Sb66  1  0.00376377  0.66120774  0.65908233  1
  Sb  Sb67  1  0.16706130  0.83332657  -0.00719654  1
  Sb  Sb68  1  0.49827942  0.00743915  0.82874679  1
  Sb  Sb69  1  0.83289330  0.17472520  0.33364138  1
  Sb  Sb70  1  0.33810050  0.66451634  -0.00064418  1
  Sb  Sb71  1  0.66262551  0.83418353  0.83430088  1
  Sb  Sb72  1  -0.00646370  0.00910795  -0.00746779  1
  Sb  Sb73  1  0.00328185  0.00562805  0.33915986  1
  Sb  Sb74  1  -0.00658566  0.65930928  0.00460192  1
  Sb  Sb75  1  0.82981462  0.01015628  0.16936767  1
  Sb  Sb76  1  0.66759420  0.00299071  0.66806365  1
  Sb  Sb77  1  0.49772639  0.66590592  0.17565496  1
  Sb  Sb78  1  0.16565161  0.16823463  0.00147545  1
  Sb  Sb79  1  0.84033770  0.83038310  0.66400160  1
  Sb  Sb80  1  0.00177510  0.82983310  0.17653068  1
  Sb  Sb81  1  0.66474697  0.66297926  0.65961450  1
  Sb  Sb82  1  0.33825593  0.00339137  -0.00314249  1
  Sb  Sb83  1  0.33118759  0.17247218  0.16983374  1
  Sb  Sb84  1  0.50112629  0.66065972  0.82828373  1
  Sb  Sb85  1  0.00638675  0.50051645  0.49205568  1
  Sb  Sb86  1  0.49056022  0.83738970  0.66084844  1
  Sb  Sb87  1  0.33451163  0.33275984  -0.00115770  1
  Sb  Sb88  1  0.17259832  0.82639980  0.34128316  1
  Sb  Sb89  1  0.50090375  0.83825861  0.00420526  1
  Sb  Sb90  1  0.66784292  0.17341762  0.16758663  1
  Sb  Sb91  1  0.66759853  0.83566166  0.49810238  1
  Sb  Sb92  1  0.16973935  0.17072799  0.66215273  1
  Sb  Sb93  1  0.66133935  0.00426076  0.33091637  1
  Sb  Sb94  1  -0.00273408  0.16915306  0.50131166  1
  Sb  Sb95  1  0.83270141  0.17197063  0.66946148  1
  Sb  Sb96  1  0.49984771  0.33256717  0.49873839  1
  Sb  Sb97  1  0.15909801  0.34003694  0.17774536  1
  Sb  Sb98  1  0.00235857  0.49333217  0.83446074  1
  Sb  Sb99  1  0.16422328  0.66717947  0.82718079  1
  Sb  Sb100  1  0.66707289  0.16848732  0.83382451  1
  Sb  Sb101  1  0.66572349  0.49576111  0.49176524  1
  Sb  Sb102  1  0.16726336  0.49786044  0.00365775  1
  Sb  Sb103  1  0.33719387  0.17008168  0.50196873  1
  Sb  Sb104  1  0.83319246  0.83832854  -0.00306126  1
  Sb  Sb105  1  0.00304861  0.83829397  0.82634979  1
  Sb  Sb106  1  0.50193867  0.49512121  0.00512141  1
  Sb  Sb107  1  0.50330376  0.33103486  0.16823847  1
  Te  Te108  1  0.16235157  0.16371416  0.17194001  1
  Te  Te109  1  0.16523139  0.17157508  0.49273818  1
  Te  Te110  1  0.16625522  0.16333893  0.83402953  1
  Te  Te111  1  0.16910844  0.50323740  0.16938739  1
  Te  Te112  1  0.16767178  0.49903258  0.49971815  1
  Te  Te113  1  0.17084205  0.49972374  0.83205811  1
  Te  Te114  1  0.16747677  0.82515498  0.16483178  1
  Te  Te115  1  0.16168776  0.83315714  0.50629416  1
  Te  Te116  1  0.17117988  0.83708506  0.82595843  1
  Te  Te117  1  0.49891239  0.16455620  0.16658896  1
  Te  Te118  1  0.50207937  0.16646000  0.49743045  1
  Te  Te119  1  0.49977221  0.17056854  0.83303787  1
  Te  Te120  1  0.49750549  0.49906110  0.17216843  1
  Te  Te121  1  0.49667533  0.50383607  0.49516814  1
  Te  Te122  1  0.49600860  0.49318418  0.83277050  1
  Te  Te123  1  0.49885033  0.84237640  0.17249033  1
  Te  Te124  1  0.50053803  0.83341532  0.49523870  1
  Te  Te125  1  0.49417404  0.83140227  0.83279768  1
  Te  Te126  1  0.83770219  0.17358783  0.16179258  1
  Te  Te127  1  0.82939156  0.16552957  0.50128255  1
  Te  Te128  1  0.83402804  0.16839133  0.83442158  1
  Te  Te129  1  0.83315131  0.49388125  0.16951122  1
  Te  Te130  1  0.83092373  0.49678853  0.49948514  1
  Te  Te131  1  0.83405919  0.49761726  0.83243653  1
  Te  Te132  1  0.83426675  0.83539805  0.16655180  1
  Te  Te133  1  0.83761104  0.84121806  0.50012713  1
  Te  Te134  1  0.83334089  0.83818207  0.83151138  1
  Te  Te135  1  0.16532125  -0.00012319  -0.00702272  1
  Te  Te136  1  0.17290625  -0.00348765  0.33338820  1
  Te  Te137  1  0.16696398  0.00447756  0.66780536  1
  Te  Te138  1  0.15874722  0.33235314  -0.00040589  1
  Te  Te139  1  0.16931614  0.33782590  0.33702390  1
  Te  Te140  1  0.16788250  0.33670410  0.66146028  1
  Te  Te141  1  0.16462441  0.66657279  -0.00014510  1
  Te  Te142  1  0.16866803  0.66550297  0.33925080  1
  Te  Te143  1  0.17008536  0.66303405  0.66291060  1
  Te  Te144  1  0.50600117  0.00517727  -0.00356270  1
  Te  Te145  1  0.50053564  0.00753300  0.33757399  1
  Te  Te146  1  0.49724452  0.00454152  0.66177952  1
  Te  Te147  1  0.50223626  0.32861299  -0.00293301  1
  Te  Te148  1  0.49856473  0.33425490  0.33355119  1
  Te  Te149  1  0.49717317  0.32983130  0.66899822  1
  Te  Te150  1  0.50727125  0.66808813  -0.00056262  1
  Te  Te151  1  0.49608185  0.66232343  0.33529517  1
  Te  Te152  1  0.49360460  0.66760706  0.65970079  1
  Te  Te153  1  0.82721983  0.00586735  0.00027844  1
  Te  Te154  1  0.83211432  -0.00123464  0.33815054  1
  Te  Te155  1  0.83460594  0.00000570  0.66549476  1
  Te  Te156  1  0.83407742  0.33102554  -0.00375482  1
  Te  Te157  1  0.83425827  0.33403073  0.33452746  1
  Te  Te158  1  0.83399051  0.33517420  0.66589748  1
  Te  Te159  1  0.82867568  0.66888322  -0.00033236  1
  Te  Te160  1  0.83485462  0.66173362  0.33646248  1
  Te  Te161  1  0.83407107  0.66284653  0.66464098  1
  Te  Te162  1  -0.00116538  0.17222811  -0.00157541  1
  Te  Te163  1  0.00176943  0.17134029  0.33064572  1
  Te  Te164  1  -0.00005100  0.16809598  0.67037848  1
  Te  Te165  1  0.00013081  0.49254137  0.00806359  1
  Te  Te166  1  -0.00284595  0.49769228  0.33143805  1
  Te  Te167  1  0.00136930  0.49550870  0.66949540  1
  Te  Te168  1  0.00042231  0.83315552  0.00156098  1
  Te  Te169  1  0.00002995  0.83408058  0.34058630  1
  Te  Te170  1  0.00732373  0.83613683  0.66223336  1
  Te  Te171  1  0.33789883  0.16776839  -0.00485773  1
  Te  Te172  1  0.33334515  0.16477542  0.33275887  1
  Te  Te173  1  0.33522292  0.16749210  0.66831379  1
  Te  Te174  1  0.33487534  0.49991697  -0.00779436  1
  Te  Te175  1  0.33058795  0.49852654  0.33875837  1
  Te  Te176  1  0.33425452  0.49659238  0.66260707  1
  Te  Te177  1  0.33402610  0.83354854  -0.00920937  1
  Te  Te178  1  0.33851892  0.84220528  0.33356618  1
  Te  Te179  1  0.32809309  0.84206447  0.66924795  1
  Te  Te180  1  0.66656450  0.17246129  0.00088972  1
  Te  Te181  1  0.66301568  0.17197303  0.33492503  1
  Te  Te182  1  0.65773508  0.16662233  0.66048120  1
  Te  Te183  1  0.66594611  0.49796357  0.00708536  1
  Te  Te184  1  0.67467166  0.49756124  0.33195892  1
  Te  Te185  1  0.67356140  0.49918938  0.66801531  1
  Te  Te186  1  0.66606354  0.82493252  0.00164575  1
  Te  Te187  1  0.65851626  0.82586577  0.33325938  1
  Te  Te188  1  0.66498651  0.83307914  0.66740843  1
  Te  Te189  1  0.00043367  0.00133763  0.16606651  1
  Te  Te190  1  -0.00112709  0.00020445  0.50509930  1
  Te  Te191  1  -0.00190379  0.00387310  0.82798577  1
  Te  Te192  1  -0.00146475  0.33353676  0.17126813  1
  Te  Te193  1  -0.00084053  0.33280238  0.50079782  1
  Te  Te194  1  -0.00147780  0.33044057  0.82504638  1
  Te  Te195  1  0.00309840  0.66193869  0.17285980  1
  Te  Te196  1  -0.00570986  0.66853946  0.49764634  1
  Te  Te197  1  -0.00671152  0.66770624  0.83455911  1
  Te  Te198  1  0.33814871  0.00038490  0.16573352  1
  Te  Te199  1  0.33613805  -0.00083743  0.50248991  1
  Te  Te200  1  0.33278601  0.00455870  0.83028648  1
  Te  Te201  1  0.33230612  0.33900827  0.16716902  1
  Te  Te202  1  0.33424853  0.33601837  0.49985437  1
  Te  Te203  1  0.33356505  0.33114118  0.83308851  1
  Te  Te204  1  0.33014841  0.66160811  0.16764420  1
  Te  Te205  1  0.33188388  0.66718647  0.50003461  1
  Te  Te206  1  0.33331883  0.66085902  0.83075474  1
  Te  Te207  1  0.66197551  -0.00019741  0.16182796  1
  Te  Te208  1  0.66594867  0.00334589  0.49947288  1
  Te  Te209  1  0.67213012  -0.00044667  0.83846159  1
  Te  Te210  1  0.66949390  0.33655849  0.16800648  1
  Te  Te211  1  0.66995847  0.32893955  0.49637784  1
  Te  Te212  1  0.67000166  0.33355753  0.83699358  1
  Te  Te213  1  0.66662857  0.66142537  0.17018495  1
  Te  Te214  1  0.67322211  0.66839213  0.49457718  1
  Te  Te215  1  0.67211368  0.66625536  0.83269412  1
