# generated using pymatgen
data_AgSbTe2
_symmetry_space_group_name_H-M   'P 1'
_cell_length_a   18.34072190
_cell_length_b   18.34552058
_cell_length_c   18.33986563
_cell_angle_alpha   90.00007650
_cell_angle_beta   89.99627950
_cell_angle_gamma   89.99755751
_symmetry_Int_Tables_number   1
_chemical_formula_structural   AgSbTe2
_chemical_formula_sum   'Ag54 Sb54 Te108'
_cell_volume   6170.81624231
_cell_formula_units_Z   54
loop_
 _symmetry_equiv_pos_site_id
 _symmetry_equiv_pos_as_xyz
  1  'x, y, z'
loop_
 _atom_site_type_symbol
 _atom_site_label
 _atom_site_symmetry_multiplicity
 _atom_site_fract_x
 _atom_site_fract_y
 _atom_site_fract_z
 _atom_site_occupancy
  Ag  Ag0  1  0.33588840  0.33149939  0.67581462  1
  Ag  Ag1  1  0.17795413  0.32951909  0.83305997  1
  Ag  Ag2  1  0.83359845  0.82939379  0.32891904  1
  Ag  Ag3  1  0.49582735  0.32993374  0.83309408  1
  Ag  Ag4  1  0.83650643  0.66827481  0.17020896  1
  Ag  Ag5  1  0.67123368  0.84847933  0.83247945  1
  Ag  Ag6  1  0.32788313  0.83805951  0.16464025  1
  Ag  Ag7  1  0.66496728  0.32918587  -0.00255132  1
  Ag  Ag8  1  0.00696450  0.00638465  -0.00006789  1
  Ag  Ag9  1  0.16931181  0.17008692  0.67570800  1
  Ag  Ag10  1  0.66361429  0.01083874  0.67471883  1
  Ag  Ag11  1  0.50157301  0.01130449  0.83397881  1
  Ag  Ag12  1  -0.00093054  0.50485574  0.16659471  1
  Ag  Ag13  1  0.82414123  0.49629809  0.66748071  1
  Ag  Ag14  1  0.32911026  0.00977270  0.00066898  1
  Ag  Ag15  1  0.33450377  0.48714211  0.83194786  1
  Ag  Ag16  1  0.00227192  0.16350448  0.15941128  1
  Ag  Ag17  1  0.66562256  0.17316642  0.16025872  1
  Ag  Ag18  1  0.83493529  0.16855111  0.67110850  1
  Ag  Ag19  1  0.33290345  0.16958472  0.84090145  1
  Ag  Ag20  1  0.33827980  0.49789033  0.16621042  1
  Ag  Ag21  1  0.00483591  0.16566172  0.50624218  1
  Ag  Ag22  1  -0.00046739  0.84561147  0.84281993  1
  Ag  Ag23  1  0.16730763  0.84598807  -0.00054581  1
  Ag  Ag24  1  0.34007055  0.33045646  0.33434915  1
  Ag  Ag25  1  0.49628541  0.49094899  -0.00068499  1
  Ag  Ag26  1  0.65898040  0.16643845  0.83609831  1
  Ag  Ag27  1  0.49245056  0.17030268  -0.00399263  1
  Ag  Ag28  1  0.33514220  0.01218332  0.67776957  1
  Ag  Ag29  1  0.49587481  0.49394743  0.32686174  1
  Ag  Ag30  1  0.66895456  0.65582228  0.66757846  1
  Ag  Ag31  1  0.17171658  0.16611385  0.32642827  1
  Ag  Ag32  1  0.48692224  0.17906194  0.32376214  1
  Ag  Ag33  1  0.16846162  0.00572855  0.50120104  1
  Ag  Ag34  1  -0.00867516  0.66634949  0.32847321  1
  Ag  Ag35  1  0.33186716  0.16730617  0.15888026  1
  Ag  Ag36  1  0.33316269  0.01480046  0.32478057  1
  Ag  Ag37  1  0.17223221  0.16547947  -0.00416534  1
  Ag  Ag38  1  0.00128956  0.83589881  0.16158654  1
  Ag  Ag39  1  0.17867833  0.48979008  0.67058882  1
  Ag  Ag40  1  0.82853498  0.00417745  0.83557076  1
  Ag  Ag41  1  0.00082214  0.32198104  -0.00054708  1
  Ag  Ag42  1  0.65900174  0.33311710  0.67415461  1
  Ag  Ag43  1  0.33418612  0.65789209  0.32432595  1
  Ag  Ag44  1  0.49631443  0.49577805  0.67293795  1
  Ag  Ag45  1  0.16878097  0.66163343  0.83382275  1
  Ag  Ag46  1  0.33176407  0.66601346  0.00437416  1
  Ag  Ag47  1  0.83332860  0.66548248  0.48898118  1
  Ag  Ag48  1  0.33332667  0.49970674  0.50117304  1
  Ag  Ag49  1  0.65811868  0.33534326  0.32408346  1
  Ag  Ag50  1  0.66410644  0.49241771  0.17010785  1
  Ag  Ag51  1  0.83528330  0.00035928  0.16072335  1
  Ag  Ag52  1  0.67057086  0.66080787  0.33124761  1
  Ag  Ag53  1  0.01017451  0.16384418  0.84000020  1
  Sb  Sb54  1  0.00535099  0.49629835  0.83761413  1
  Sb  Sb55  1  0.00345045  0.49590259  0.49608888  1
  Sb  Sb56  1  0.00434889  -0.00103122  0.32555942  1
  Sb  Sb57  1  0.49605713  0.66347288  0.83413036  1
  Sb  Sb58  1  0.66930056  0.83126749  0.50450549  1
  Sb  Sb59  1  0.49890906  0.33358166  0.16007715  1
  Sb  Sb60  1  0.32881732  0.17029416  0.49967868  1
  Sb  Sb61  1  0.16508782  0.83627225  0.32585959  1
  Sb  Sb62  1  0.83727821  -0.00104521  0.50183504  1
  Sb  Sb63  1  0.66164617  0.49957566  0.49867092  1
  Sb  Sb64  1  0.83001795  0.49997430  -0.00180629  1
  Sb  Sb65  1  0.00194698  0.33396993  0.32528904  1
  Sb  Sb66  1  0.16923828  0.32780320  0.50623199  1
  Sb  Sb67  1  0.33065572  0.83082289  0.49249962  1
  Sb  Sb68  1  0.83221389  0.83580742  0.66640789  1
  Sb  Sb69  1  0.83171139  0.33121553  0.16680681  1
  Sb  Sb70  1  0.16631447  0.00318967  0.16570163  1
  Sb  Sb71  1  0.83977379  0.83532140  0.00335594  1
  Sb  Sb72  1  0.83556780  0.16492052  -0.00535649  1
  Sb  Sb73  1  0.82742722  0.50411410  0.33413387  1
  Sb  Sb74  1  0.83581229  0.67163967  0.83589871  1
  Sb  Sb75  1  0.66074699  0.49411673  0.83349104  1
  Sb  Sb76  1  0.66476019  0.00638131  -0.00505396  1
  Sb  Sb77  1  0.66946040  0.83347185  0.16208586  1
  Sb  Sb78  1  0.49373800  0.00490964  0.50586778  1
  Sb  Sb79  1  0.66050745  0.66168215  0.00038447  1
  Sb  Sb80  1  0.49949964  0.66287530  0.16673503  1
  Sb  Sb81  1  0.33641871  0.33170589  -0.00179325  1
  Sb  Sb82  1  0.67023741  0.16784363  0.50321377  1
  Sb  Sb83  1  0.00118017  0.00409968  0.67462095  1
  Sb  Sb84  1  0.17301757  0.49495290  -0.00371092  1
  Sb  Sb85  1  0.83065658  0.32660936  0.83243283  1
  Sb  Sb86  1  0.00264376  0.33059388  0.67348164  1
  Sb  Sb87  1  0.00630546  0.66757880  0.00409421  1
  Sb  Sb88  1  0.16789508  0.83765677  0.67634243  1
  Sb  Sb89  1  0.17560165  0.49479557  0.33588351  1
  Sb  Sb90  1  0.16920858  0.33094307  0.16008204  1
  Sb  Sb91  1  0.16689130  0.66556402  0.16396201  1
  Sb  Sb92  1  0.83372958  0.33785889  0.50193995  1
  Sb  Sb93  1  0.16880495  0.00657340  0.83385796  1
  Sb  Sb94  1  0.50160942  0.83085548  0.32971510  1
  Sb  Sb95  1  0.33036401  0.83850013  0.83951508  1
  Sb  Sb96  1  0.49765541  0.33272939  0.50267248  1
  Sb  Sb97  1  0.50305543  0.66283830  0.49908614  1
  Sb  Sb98  1  0.00030129  0.83754451  0.49702815  1
  Sb  Sb99  1  0.49769704  0.17163940  0.67190037  1
  Sb  Sb100  1  0.66197322  0.00323717  0.33523379  1
  Sb  Sb101  1  0.83568519  0.16382732  0.33372679  1
  Sb  Sb102  1  0.49442507  0.83732706  -0.00180805  1
  Sb  Sb103  1  0.16422055  0.66827173  0.50250144  1
  Sb  Sb104  1  0.50001916  0.00556421  0.16179960  1
  Sb  Sb105  1  -0.00394285  0.66413296  0.66509712  1
  Sb  Sb106  1  0.50012913  0.83100875  0.67086101  1
  Sb  Sb107  1  0.33596971  0.66013922  0.66851099  1
  Te  Te108  1  0.16795178  0.16751121  0.16509706  1
  Te  Te109  1  0.16274792  0.16432830  0.50291318  1
  Te  Te110  1  0.16977422  0.16799559  0.83497479  1
  Te  Te111  1  0.16497382  0.49774765  0.16735542  1
  Te  Te112  1  0.17061159  0.50035302  0.50777544  1
  Te  Te113  1  0.17012024  0.49780425  0.83018334  1
  Te  Te114  1  0.16617093  0.83221380  0.15967264  1
  Te  Te115  1  0.16497034  0.84006787  0.50146505  1
  Te  Te116  1  0.16268766  0.82959156  0.83966829  1
  Te  Te117  1  0.50075013  0.16725624  0.16487313  1
  Te  Te118  1  0.50281439  0.16618994  0.48385477  1
  Te  Te119  1  0.49784053  0.16855100  0.83275720  1
  Te  Te120  1  0.50132558  0.49928541  0.16669700  1
  Te  Te121  1  0.49305641  0.49990619  0.49905451  1
  Te  Te122  1  0.49536203  0.49711086  0.83503317  1
  Te  Te123  1  0.49205501  0.83482781  0.16450483  1
  Te  Te124  1  0.50023591  0.83414496  0.49984800  1
  Te  Te125  1  0.50652602  0.83591522  0.83431188  1
  Te  Te126  1  0.83266859  0.16325178  0.16773481  1
  Te  Te127  1  0.84066814  0.16600938  0.50581397  1
  Te  Te128  1  0.83137930  0.16264481  0.82868719  1
  Te  Te129  1  0.83155270  0.50229436  0.16632508  1
  Te  Te130  1  0.83572508  0.50523515  0.50667405  1
  Te  Te131  1  0.83445078  0.50186326  0.82773475  1
  Te  Te132  1  0.83447620  0.83424966  0.16908316  1
  Te  Te133  1  0.83539007  0.82796309  0.49329867  1
  Te  Te134  1  0.83581684  0.83869196  0.83430544  1
  Te  Te135  1  0.16791719  0.00340106  -0.00009972  1
  Te  Te136  1  0.17189219  0.00379522  0.33657211  1
  Te  Te137  1  0.17068841  0.00463555  0.66450478  1
  Te  Te138  1  0.16081959  0.32837335  -0.00580764  1
  Te  Te139  1  0.16961007  0.32694218  0.33424144  1
  Te  Te140  1  0.16911437  0.33129127  0.67187403  1
  Te  Te141  1  0.17291068  0.66197215  -0.00428271  1
  Te  Te142  1  0.17258427  0.66738972  0.33578003  1
  Te  Te143  1  0.16601200  0.66624232  0.67051603  1
  Te  Te144  1  0.49459508  0.00542635  -0.00539129  1
  Te  Te145  1  0.49368213  -0.00070789  0.33403199  1
  Te  Te146  1  0.49817788  -0.00033821  0.67224337  1
  Te  Te147  1  0.50337955  0.33051406  -0.00521305  1
  Te  Te148  1  0.50146303  0.33470293  0.33578928  1
  Te  Te149  1  0.49727199  0.33628289  0.66955313  1
  Te  Te150  1  0.49212130  0.66090527  -0.00026357  1
  Te  Te151  1  0.49945525  0.66285412  0.33356723  1
  Te  Te152  1  0.50715910  0.65994172  0.66660977  1
  Te  Te153  1  0.83730018  -0.00133624  -0.00008434  1
  Te  Te154  1  0.83256294  -0.00545886  0.33282944  1
  Te  Te155  1  0.82999120  0.00348162  0.66968672  1
  Te  Te156  1  0.82848776  0.33495217  -0.00007797  1
  Te  Te157  1  0.82590281  0.33382234  0.33534803  1
  Te  Te158  1  0.83036103  0.33254783  0.66588356  1
  Te  Te159  1  0.83127818  0.66719270  0.00688162  1
  Te  Te160  1  0.83171026  0.66565744  0.32998141  1
  Te  Te161  1  0.82931408  0.66524724  0.66877957  1
  Te  Te162  1  -0.00197860  0.16524429  -0.00015612  1
  Te  Te163  1  0.00405075  0.16743530  0.32310681  1
  Te  Te164  1  0.00165208  0.16698920  0.67164375  1
  Te  Te165  1  -0.00183827  0.49885814  0.00593499  1
  Te  Te166  1  0.00249672  0.50313124  0.32795760  1
  Te  Te167  1  -0.00042341  0.49807178  0.66593018  1
  Te  Te168  1  0.00548441  0.83319822  0.00112865  1
  Te  Te169  1  -0.00235259  0.82914335  0.32843001  1
  Te  Te170  1  -0.00013387  0.83401201  0.67208277  1
  Te  Te171  1  0.33334322  0.16858133  0.00031597  1
  Te  Te172  1  0.33088937  0.16942487  0.33783279  1
  Te  Te173  1  0.33238943  0.16978914  0.66482929  1
  Te  Te174  1  0.33643375  0.49777233  0.00210841  1
  Te  Te175  1  0.33511545  0.49853948  0.32739512  1
  Te  Te176  1  0.33555625  0.49864455  0.67218509  1
  Te  Te177  1  0.32929197  0.83188870  0.00448007  1
  Te  Te178  1  0.33278306  0.82793746  0.32569952  1
  Te  Te179  1  0.33367835  0.83775488  0.66504545  1
  Te  Te180  1  0.66609067  0.16828239  -0.00006652  1
  Te  Te181  1  0.66787732  0.16921880  0.33153344  1
  Te  Te182  1  0.66440228  0.17006274  0.66867315  1
  Te  Te183  1  0.66208801  0.49559415  0.00456989  1
  Te  Te184  1  0.66239060  0.49956941  0.33213296  1
  Te  Te185  1  0.66457997  0.49604096  0.66626661  1
  Te  Te186  1  0.66432637  0.83170680  -0.00652913  1
  Te  Te187  1  0.66987641  0.83028416  0.33250879  1
  Te  Te188  1  0.66738084  0.83331562  0.67239150  1
  Te  Te189  1  -0.00282806  -0.00143683  0.16255087  1
  Te  Te190  1  0.00436441  0.00542389  0.49914571  1
  Te  Te191  1  -0.00071474  0.00253414  0.83771963  1
  Te  Te192  1  -0.00112669  0.33045788  0.16096811  1
  Te  Te193  1  0.00071018  0.32613342  0.49676734  1
  Te  Te194  1  -0.00075650  0.32832740  0.83964478  1
  Te  Te195  1  -0.00012118  0.66790340  0.16901189  1
  Te  Te196  1  -0.00340517  0.66632728  0.49321063  1
  Te  Te197  1  0.00471900  0.66650915  0.83421337  1
  Te  Te198  1  0.33421491  0.00604736  0.16524287  1
  Te  Te199  1  0.32924893  -0.00162791  0.49872848  1
  Te  Te200  1  0.33562339  0.00239464  0.83539646  1
  Te  Te201  1  0.33302931  0.33085983  0.17332378  1
  Te  Te202  1  0.33196767  0.34113947  0.49720309  1
  Te  Te203  1  0.33452392  0.33079386  0.83364886  1
  Te  Te204  1  0.33293226  0.66075311  0.16529659  1
  Te  Te205  1  0.33255382  0.66258622  0.49737064  1
  Te  Te206  1  0.32938517  0.67088933  0.83531207  1
  Te  Te207  1  0.67197746  0.00254293  0.16691903  1
  Te  Te208  1  0.66745619  -0.00066354  0.50975538  1
  Te  Te209  1  0.66736121  0.00509765  0.83281710  1
  Te  Te210  1  0.66700176  0.33282592  0.16621087  1
  Te  Te211  1  0.66770489  0.33323012  0.50470251  1
  Te  Te212  1  0.66453744  0.32912876  0.83401567  1
  Te  Te213  1  0.67050571  0.66671575  0.16919129  1
  Te  Te214  1  0.67247875  0.66624892  0.49982937  1
  Te  Te215  1  0.66638553  0.66426638  0.83071011  1
