# generated using pymatgen
data_AgSbTe2
_symmetry_space_group_name_H-M   'P 1'
_cell_length_a   18.32199547
_cell_length_b   18.32204895
_cell_length_c   18.32786282
_cell_angle_alpha   89.99724304
_cell_angle_beta   89.99976707
_cell_angle_gamma   89.99669942
_symmetry_Int_Tables_number   1
_chemical_formula_structural   AgSbTe2
_chemical_formula_sum   'Ag54 Sb54 Te108'
_cell_volume   6152.59934390
_cell_formula_units_Z   54
loop_
 _symmetry_equiv_pos_site_id
 _symmetry_equiv_pos_as_xyz
  1  'x, y, z'
loop_
 _atom_site_type_symbol
 _atom_site_label
 _atom_site_symmetry_multiplicity
 _atom_site_fract_x
 _atom_site_fract_y
 _atom_site_fract_z
 _atom_site_occupancy
  Ag  Ag0  1  0.83099170  0.83570653  0.66107881  1
  Ag  Ag1  1  0.15925794  0.50273408  0.66286341  1
  Ag  Ag2  1  0.83259526  0.82640326  0.33960877  1
  Ag  Ag3  1  0.16457728  0.50668076  0.33981600  1
  Ag  Ag4  1  0.32481880  -0.00285060  -0.00845378  1
  Ag  Ag5  1  0.51331050  0.50432284  0.33706286  1
  Ag  Ag6  1  0.83109374  0.16899137  -0.00400308  1
  Ag  Ag7  1  0.83202092  0.16827564  0.33247093  1
  Ag  Ag8  1  0.66913296  0.66742627  0.00317252  1
  Ag  Ag9  1  0.83672551  0.34223918  0.50408572  1
  Ag  Ag10  1  0.00293686  0.00255246  -0.00654535  1
  Ag  Ag11  1  0.50261376  0.82937239  0.67160797  1
  Ag  Ag12  1  0.83092455  0.50289988  0.33908346  1
  Ag  Ag13  1  0.34016000  0.16295388  0.83251618  1
  Ag  Ag14  1  0.16400109  0.82860470  0.32717478  1
  Ag  Ag15  1  0.15686544  0.34171259  0.50164025  1
  Ag  Ag16  1  0.49813933  0.83330466  -0.00122425  1
  Ag  Ag17  1  0.33415641  0.66751658  0.66658625  1
  Ag  Ag18  1  -0.00190104  0.65864538  0.66781180  1
  Ag  Ag19  1  0.32824081  0.83004652  0.16494427  1
  Ag  Ag20  1  0.66685850  0.82432497  0.16900517  1
  Ag  Ag21  1  0.67807493  0.50458319  0.49383391  1
  Ag  Ag22  1  0.67117602  0.50710887  0.17178446  1
  Ag  Ag23  1  0.16056485  0.00054746  0.83370110  1
  Ag  Ag24  1  -0.00514882  0.32947450  -0.00695245  1
  Ag  Ag25  1  0.83768449  -0.00408757  0.50767133  1
  Ag  Ag26  1  0.16421622  -0.00934294  0.15665829  1
  Ag  Ag27  1  0.16637560  0.67282816  0.16878652  1
  Ag  Ag28  1  0.51067840  0.66898032  0.16063747  1
  Ag  Ag29  1  0.32914066  0.66607182  0.33292185  1
  Ag  Ag30  1  0.32665909  -0.00389563  0.67284787  1
  Ag  Ag31  1  0.50285401  0.66557587  0.83169790  1
  Ag  Ag32  1  0.67217378  0.16586191  0.16019631  1
  Ag  Ag33  1  0.67339163  0.82687403  0.49660118  1
  Ag  Ag34  1  0.83283202  0.66353216  0.49962613  1
  Ag  Ag35  1  0.67247867  0.33895858  0.33346341  1
  Ag  Ag36  1  0.49573542  0.50901170  0.66627820  1
  Ag  Ag37  1  0.15875879  -0.00165574  0.50603281  1
  Ag  Ag38  1  0.83382594  0.49871260  -0.00097573  1
  Ag  Ag39  1  0.50900591  0.16095363  -0.00675481  1
  Ag  Ag40  1  0.17215196  0.83778877  0.00929165  1
  Ag  Ag41  1  0.82983306  0.66649041  0.16882950  1
  Ag  Ag42  1  0.83636711  0.33048577  0.82919484  1
  Ag  Ag43  1  0.83105586  0.66433515  0.83005426  1
  Ag  Ag44  1  0.50507245  0.16541943  0.67429061  1
  Ag  Ag45  1  -0.00275978  0.34131020  0.66932777  1
  Ag  Ag46  1  0.33018044  0.50060821  0.83053905  1
  Ag  Ag47  1  0.83291207  0.16033300  0.67386207  1
  Ag  Ag48  1  -0.00509596  0.49790836  0.50590508  1
  Ag  Ag49  1  0.83893902  0.00806801  0.82876946  1
  Ag  Ag50  1  -0.00207333  0.49918666  0.82497649  1
  Ag  Ag51  1  -0.00141944  0.00019514  0.67061019  1
  Ag  Ag52  1  -0.01041463  0.16554709  0.16200448  1
  Ag  Ag53  1  0.67017525  0.16688735  0.83736736  1
  Sb  Sb54  1  0.49745861  -0.00803989  0.16358046  1
  Sb  Sb55  1  0.33753254  0.67161850  -0.00186904  1
  Sb  Sb56  1  -0.00191208  0.83350603  0.83207118  1
  Sb  Sb57  1  0.33088121  0.50187910  0.50498251  1
  Sb  Sb58  1  -0.00678490  0.82967881  0.50192391  1
  Sb  Sb59  1  0.66750332  0.83498006  0.83437783  1
  Sb  Sb60  1  0.32856743  -0.00543176  0.33304904  1
  Sb  Sb61  1  0.83185510  0.83365501  0.00026655  1
  Sb  Sb62  1  0.33549102  0.83153250  0.49807056  1
  Sb  Sb63  1  0.50685410  0.66534613  0.50229078  1
  Sb  Sb64  1  0.50289823  0.82496132  0.33132287  1
  Sb  Sb65  1  -0.00052880  0.66528640  0.33663627  1
  Sb  Sb66  1  0.83608339  0.50285365  0.66520364  1
  Sb  Sb67  1  0.66994861  0.00033159  0.33322958  1
  Sb  Sb68  1  0.50638689  0.50435934  -0.00180389  1
  Sb  Sb69  1  0.67310717  -0.00026776  0.66722860  1
  Sb  Sb70  1  0.67244977  0.16762951  0.50139883  1
  Sb  Sb71  1  0.50286787  -0.00177718  0.50617774  1
  Sb  Sb72  1  -0.00694933  0.33505534  0.33729313  1
  Sb  Sb73  1  0.32803843  0.32701312  -0.00331922  1
  Sb  Sb74  1  -0.00120926  0.00062558  0.33510604  1
  Sb  Sb75  1  0.16653870  0.66892842  0.83508120  1
  Sb  Sb76  1  0.33248731  0.16427548  0.50705241  1
  Sb  Sb77  1  0.83748000  -0.00134783  0.16534297  1
  Sb  Sb78  1  0.33514596  0.34199696  0.33479831  1
  Sb  Sb79  1  0.66933624  0.66641019  0.66994723  1
  Sb  Sb80  1  -0.00633569  0.49821419  0.16701996  1
  Sb  Sb81  1  0.67159714  0.49896915  0.83201669  1
  Sb  Sb82  1  0.66940748  -0.00096633  -0.00043804  1
  Sb  Sb83  1  0.00019098  0.83549811  0.16585700  1
  Sb  Sb84  1  0.50303710  0.33970537  0.16558075  1
  Sb  Sb85  1  0.15934058  0.33070022  0.82928933  1
  Sb  Sb86  1  0.49998990  -0.00089926  0.83267665  1
  Sb  Sb87  1  0.16572676  0.83223786  0.66551724  1
  Sb  Sb88  1  0.67580467  0.33474926  0.66296981  1
  Sb  Sb89  1  0.83264486  0.33466930  0.16749598  1
  Sb  Sb90  1  0.33429239  0.83382981  0.83587933  1
  Sb  Sb91  1  0.16109848  0.50493234  -0.00043008  1
  Sb  Sb92  1  0.66742103  0.66077641  0.32686382  1
  Sb  Sb93  1  0.33615300  0.15686252  0.15965822  1
  Sb  Sb94  1  0.50509865  0.33675425  0.50271613  1
  Sb  Sb95  1  0.16224705  0.16657379  0.66826940  1
  Sb  Sb96  1  -0.00427089  0.16998028  0.50012842  1
  Sb  Sb97  1  -0.00646416  0.16781195  0.83602766  1
  Sb  Sb98  1  0.33700397  0.51000927  0.16421368  1
  Sb  Sb99  1  0.32821281  0.33566178  0.66820882  1
  Sb  Sb100  1  0.16056344  0.66749335  0.49784935  1
  Sb  Sb101  1  0.67333957  0.33398299  0.00264485  1
  Sb  Sb102  1  0.16104630  0.15860954  -0.00150180  1
  Sb  Sb103  1  -0.00607838  0.66756002  -0.00394803  1
  Sb  Sb104  1  0.16145742  0.16590253  0.33323204  1
  Sb  Sb105  1  0.16248951  0.33591597  0.17135953  1
  Sb  Sb106  1  0.50646844  0.33506161  0.83173105  1
  Sb  Sb107  1  0.50813855  0.17320527  0.33087883  1
  Te  Te108  1  0.16699308  0.16419683  0.16766514  1
  Te  Te109  1  0.16521512  0.16115284  0.49917176  1
  Te  Te110  1  0.17627779  0.16244441  0.83322968  1
  Te  Te111  1  0.16643701  0.50479700  0.16985001  1
  Te  Te112  1  0.16472577  0.50126019  0.50131178  1
  Te  Te113  1  0.16474268  0.49967671  0.83100448  1
  Te  Te114  1  0.16428006  0.83366082  0.16850443  1
  Te  Te115  1  0.16704639  0.83772800  0.49434330  1
  Te  Te116  1  0.16687136  0.83928630  0.83659576  1
  Te  Te117  1  0.50522165  0.16592272  0.16310098  1
  Te  Te118  1  0.50227199  0.16758590  0.50566601  1
  Te  Te119  1  0.50239105  0.16730107  0.83315065  1
  Te  Te120  1  0.50493177  0.50728273  0.16795197  1
  Te  Te121  1  0.50097610  0.49911491  0.50010219  1
  Te  Te122  1  0.50062987  0.50291153  0.83065516  1
  Te  Te123  1  0.50544893  0.82759519  0.16490330  1
  Te  Te124  1  0.50828707  0.83343905  0.50337866  1
  Te  Te125  1  0.50116803  0.82833866  0.83282852  1
  Te  Te126  1  0.83160463  0.16560010  0.16678298  1
  Te  Te127  1  0.83260981  0.16439322  0.49768819  1
  Te  Te128  1  0.83323522  0.16747996  0.83360953  1
  Te  Te129  1  0.83083551  0.50272083  0.16757133  1
  Te  Te130  1  0.83431756  0.50135191  0.50115030  1
  Te  Te131  1  0.83543767  0.50232208  0.83356607  1
  Te  Te132  1  0.82970107  0.83080443  0.16875171  1
  Te  Te133  1  0.83217532  0.83239644  0.50022012  1
  Te  Te134  1  0.83166460  0.82677649  0.82926423  1
  Te  Te135  1  0.16552868  -0.00223774  -0.00221105  1
  Te  Te136  1  0.16609649  -0.00317719  0.33719319  1
  Te  Te137  1  0.16551204  -0.00119920  0.66819746  1
  Te  Te138  1  0.15771425  0.33448936  0.00097724  1
  Te  Te139  1  0.16611914  0.33766599  0.34004788  1
  Te  Te140  1  0.16011383  0.33672671  0.66210150  1
  Te  Te141  1  0.16600289  0.67352439  0.00428233  1
  Te  Te142  1  0.16674699  0.66721719  0.33234040  1
  Te  Te143  1  0.16655780  0.66427512  0.66735470  1
  Te  Te144  1  0.49713815  -0.00165624  -0.00089362  1
  Te  Te145  1  0.49816597  0.00219536  0.33594693  1
  Te  Te146  1  0.49370205  -0.00152838  0.66791501  1
  Te  Te147  1  0.49799307  0.32601402  -0.00129630  1
  Te  Te148  1  0.50484203  0.34222953  0.33439287  1
  Te  Te149  1  0.49797056  0.32838146  0.66650908  1
  Te  Te150  1  0.50343668  0.66871152  -0.00118048  1
  Te  Te151  1  0.49230673  0.66202712  0.33275675  1
  Te  Te152  1  0.50024185  0.66829107  0.66793745  1
  Te  Te153  1  0.83750049  0.00232830  -0.00346540  1
  Te  Te154  1  0.83395766  0.00070252  0.33667789  1
  Te  Te155  1  0.83500837  -0.00090103  0.66800912  1
  Te  Te156  1  0.83638822  0.33269309  -0.00099222  1
  Te  Te157  1  0.83145918  0.33527597  0.33566502  1
  Te  Te158  1  0.83787797  0.33187722  0.66578867  1
  Te  Te159  1  0.83050569  0.66582203  -0.00067215  1
  Te  Te160  1  0.83405944  0.66599147  0.33291966  1
  Te  Te161  1  0.83434813  0.66922624  0.66870220  1
  Te  Te162  1  -0.00449166  0.16453868  0.00138542  1
  Te  Te163  1  -0.00675950  0.16813213  0.32473791  1
  Te  Te164  1  -0.00584183  0.16247898  0.66679188  1
  Te  Te165  1  -0.00581697  0.49863761  -0.00243753  1
  Te  Te166  1  -0.00014036  0.49924242  0.33680725  1
  Te  Te167  1  -0.00037327  0.50064942  0.66597828  1
  Te  Te168  1  0.00411496  0.83977034  -0.00126723  1
  Te  Te169  1  -0.00229081  0.83291555  0.33398635  1
  Te  Te170  1  -0.00346060  0.83729835  0.66645226  1
  Te  Te171  1  0.33736173  0.16000187  -0.00491541  1
  Te  Te172  1  0.33694985  0.16865335  0.33240270  1
  Te  Te173  1  0.33438219  0.16359443  0.67174617  1
  Te  Te174  1  0.33303439  0.49769575  -0.00698088  1
  Te  Te175  1  0.32680245  0.50619717  0.33253557  1
  Te  Te176  1  0.33591437  0.50246726  0.67035312  1
  Te  Te177  1  0.33577189  0.83673048  0.00271648  1
  Te  Te178  1  0.33256269  0.82736249  0.32889274  1
  Te  Te179  1  0.33522600  0.83148293  0.66586188  1
  Te  Te180  1  0.66897199  0.16719456  -0.00047921  1
  Te  Te181  1  0.67128780  0.17213301  0.33037805  1
  Te  Te182  1  0.66714302  0.16717036  0.66959935  1
  Te  Te183  1  0.67295300  0.50199683  0.00353754  1
  Te  Te184  1  0.66959111  0.50020277  0.33311992  1
  Te  Te185  1  0.65661615  0.49940393  0.66297323  1
  Te  Te186  1  0.66293060  0.83142141  0.00448057  1
  Te  Te187  1  0.67045228  0.83333596  0.33203725  1
  Te  Te188  1  0.66636600  0.83338732  0.66417590  1
  Te  Te189  1  0.00510165  0.00425065  0.16509111  1
  Te  Te190  1  -0.00154546  0.00165870  0.50423775  1
  Te  Te191  1  -0.00030170  0.00035157  0.83216133  1
  Te  Te192  1  0.00022156  0.32730296  0.15907725  1
  Te  Te193  1  -0.00211293  0.33551400  0.50322879  1
  Te  Te194  1  -0.00423638  0.33618438  0.83151094  1
  Te  Te195  1  -0.00291796  0.66617508  0.16501213  1
  Te  Te196  1  -0.00634228  0.66052991  0.50625816  1
  Te  Te197  1  -0.00241924  0.66210508  0.82857398  1
  Te  Te198  1  0.32741340  -0.00854756  0.16447547  1
  Te  Te199  1  0.32961270  -0.00105075  0.50612775  1
  Te  Te200  1  0.33479931  0.00068217  0.83245437  1
  Te  Te201  1  0.33303828  0.33293721  0.16603354  1
  Te  Te202  1  0.32417293  0.33225854  0.49992452  1
  Te  Te203  1  0.33241432  0.33590287  0.83350893  1
  Te  Te204  1  0.32901332  0.67173260  0.16581407  1
  Te  Te205  1  0.33410261  0.66687147  0.50434256  1
  Te  Te206  1  0.33546038  0.66318055  0.82893933  1
  Te  Te207  1  0.66622889  0.00361074  0.16684599  1
  Te  Te208  1  0.67432199  -0.00574822  0.49954710  1
  Te  Te209  1  0.67518247  0.00582603  0.83418530  1
  Te  Te210  1  0.66565510  0.33091528  0.17150514  1
  Te  Te211  1  0.67258875  0.33797283  0.49504513  1
  Te  Te212  1  0.67531078  0.32867404  0.83357121  1
  Te  Te213  1  0.66909054  0.66645763  0.16476564  1
  Te  Te214  1  0.67324352  0.66607511  0.50130769  1
  Te  Te215  1  0.66678404  0.66619561  0.83997555  1
