# generated using pymatgen
data_AgSbTe2
_symmetry_space_group_name_H-M   'P 1'
_cell_length_a   18.33703358
_cell_length_b   18.33345988
_cell_length_c   18.33548106
_cell_angle_alpha   89.99893535
_cell_angle_beta   89.99849213
_cell_angle_gamma   90.00080277
_symmetry_Int_Tables_number   1
_chemical_formula_structural   AgSbTe2
_chemical_formula_sum   'Ag54 Sb54 Te108'
_cell_volume   6164.04529197
_cell_formula_units_Z   54
loop_
 _symmetry_equiv_pos_site_id
 _symmetry_equiv_pos_as_xyz
  1  'x, y, z'
loop_
 _atom_site_type_symbol
 _atom_site_label
 _atom_site_symmetry_multiplicity
 _atom_site_fract_x
 _atom_site_fract_y
 _atom_site_fract_z
 _atom_site_occupancy
  Ag  Ag0  1  0.66997460  0.15680790  0.84153079  1
  Ag  Ag1  1  -0.00351420  0.33430397  0.32904438  1
  Ag  Ag2  1  0.84167632  0.66706799  0.83024066  1
  Ag  Ag3  1  0.16333772  0.50581506  0.33360387  1
  Ag  Ag4  1  0.67566538  0.83754433  0.83263359  1
  Ag  Ag5  1  0.15231312  -0.00090776  0.16579918  1
  Ag  Ag6  1  0.50425812  0.33598528  0.16961254  1
  Ag  Ag7  1  0.00067247  -0.00659061  0.66832830  1
  Ag  Ag8  1  0.16484371  0.82638175  0.66299130  1
  Ag  Ag9  1  0.83810965  0.16439565  0.66200343  1
  Ag  Ag10  1  0.50024297  0.49821558  0.32626623  1
  Ag  Ag11  1  0.51007980  0.16829039  0.32956851  1
  Ag  Ag12  1  -0.00337510  0.00124312  0.01149593  1
  Ag  Ag13  1  -0.00431933  0.32999136  0.00695338  1
  Ag  Ag14  1  0.83345520  0.67041474  0.17879775  1
  Ag  Ag15  1  0.49156387  0.66798344  0.49878264  1
  Ag  Ag16  1  0.15732211  0.16129409  0.66677677  1
  Ag  Ag17  1  -0.00519802  0.67387353  0.33582810  1
  Ag  Ag18  1  0.67182328  0.00482898  0.00746495  1
  Ag  Ag19  1  -0.00901615  0.15513818  0.16997595  1
  Ag  Ag20  1  0.83701161  -0.00197702  0.17304669  1
  Ag  Ag21  1  0.32942386  0.50402697  0.84280106  1
  Ag  Ag22  1  0.31734103  0.66830565  0.66751655  1
  Ag  Ag23  1  0.49321610  0.83220402  0.66756293  1
  Ag  Ag24  1  0.67275736  0.32917937  0.00427596  1
  Ag  Ag25  1  0.16360527  0.66528282  0.50690938  1
  Ag  Ag26  1  0.16143366  0.67085445  0.82060958  1
  Ag  Ag27  1  0.33669956  0.50127590  0.16687124  1
  Ag  Ag28  1  0.15922593  0.34222536  0.49615851  1
  Ag  Ag29  1  0.83609995  -0.00348914  0.48668635  1
  Ag  Ag30  1  0.00494890  0.67316792  0.65940629  1
  Ag  Ag31  1  0.83230480  0.15000459  0.33388638  1
  Ag  Ag32  1  0.68101580  -0.00250590  0.32471743  1
  Ag  Ag33  1  0.83765556  0.33172273  0.49194835  1
  Ag  Ag34  1  0.16678918  0.51374627  0.66669598  1
  Ag  Ag35  1  0.83665711  0.51622752  0.33193809  1
  Ag  Ag36  1  0.83448849  0.33426281  0.83153150  1
  Ag  Ag37  1  0.83919488  0.66788667  0.49013798  1
  Ag  Ag38  1  0.50488283  -0.00146999  0.83901692  1
  Ag  Ag39  1  -0.00119194  0.84198811  0.17329939  1
  Ag  Ag40  1  0.16098577  -0.00817039  0.83336751  1
  Ag  Ag41  1  0.15687012  0.82555011  0.33858365  1
  Ag  Ag42  1  -0.00720414  -0.00879413  0.32272129  1
  Ag  Ag43  1  0.17147728  0.50161452  0.00199324  1
  Ag  Ag44  1  0.50986933  0.00483750  0.16594973  1
  Ag  Ag45  1  0.68098673  0.66909329  0.33174813  1
  Ag  Ag46  1  0.33100837  0.66130438  -0.00461727  1
  Ag  Ag47  1  -0.00060685  0.83442586  0.83368655  1
  Ag  Ag48  1  0.67190991  0.16234280  0.16643091  1
  Ag  Ag49  1  0.32318941  0.33687500  0.33239251  1
  Ag  Ag50  1  0.33023165  0.82904291  0.50064184  1
  Ag  Ag51  1  0.66212100  0.49187010  0.16845548  1
  Ag  Ag52  1  0.49439900  0.50027472  0.00998404  1
  Ag  Ag53  1  0.83840241  0.83369380  0.33273653  1
  Sb  Sb54  1  0.83455194  0.49866950  0.00563109  1
  Sb  Sb55  1  0.66414521  0.50189218  0.84099894  1
  Sb  Sb56  1  0.50579820  -0.00489309  0.49672477  1
  Sb  Sb57  1  0.67253581  0.33334711  0.32751865  1
  Sb  Sb58  1  0.67224847  0.66864674  0.66258478  1
  Sb  Sb59  1  0.33450608  0.17086827  0.16887394  1
  Sb  Sb60  1  0.32520300  -0.00729347  0.66804479  1
  Sb  Sb61  1  0.33075926  0.16355039  0.49840483  1
  Sb  Sb62  1  0.84084575  0.83553552  0.66297505  1
  Sb  Sb63  1  0.32770803  0.82912259  0.17223835  1
  Sb  Sb64  1  0.67267379  -0.00168714  0.66807978  1
  Sb  Sb65  1  0.67153253  0.16644936  0.49346084  1
  Sb  Sb66  1  0.00338770  0.83198196  0.49630879  1
  Sb  Sb67  1  0.50468505  0.32996443  0.84141419  1
  Sb  Sb68  1  0.32934451  0.66132882  0.33552899  1
  Sb  Sb69  1  0.66875821  0.33122133  0.67354007  1
  Sb  Sb70  1  0.66526800  0.66697458  0.00426087  1
  Sb  Sb71  1  0.50178901  0.83114720  -0.00293349  1
  Sb  Sb72  1  -0.00552961  0.16141744  0.83587939  1
  Sb  Sb73  1  0.50375932  0.66469322  0.17200273  1
  Sb  Sb74  1  0.83539681  -0.00061171  0.83585576  1
  Sb  Sb75  1  0.66667758  0.83207044  0.50158553  1
  Sb  Sb76  1  0.16701546  0.33215157  0.17188456  1
  Sb  Sb77  1  0.49313736  0.50657949  0.66484637  1
  Sb  Sb78  1  0.67161744  0.83834161  0.16577239  1
  Sb  Sb79  1  0.16425509  0.82930192  -0.00192122  1
  Sb  Sb80  1  0.16354254  0.16888292  -0.00258319  1
  Sb  Sb81  1  0.00277546  0.66772584  0.00228849  1
  Sb  Sb82  1  0.16144677  0.33683321  0.82939367  1
  Sb  Sb83  1  0.32915235  0.82735573  0.82879980  1
  Sb  Sb84  1  0.49843762  0.67081087  0.82917097  1
  Sb  Sb85  1  0.66783508  0.50201183  0.48943710  1
  Sb  Sb86  1  0.15935159  0.16627658  0.33586636  1
  Sb  Sb87  1  0.33246505  0.34141644  0.00599066  1
  Sb  Sb88  1  0.50067963  0.33925801  0.49040831  1
  Sb  Sb89  1  0.32958794  0.50584264  0.49555302  1
  Sb  Sb90  1  0.00034041  0.33315060  0.66459388  1
  Sb  Sb91  1  0.32966463  0.00275935  0.33155222  1
  Sb  Sb92  1  -0.00115385  0.50096993  0.17005583  1
  Sb  Sb93  1  0.16143535  0.66804508  0.16985652  1
  Sb  Sb94  1  0.33113803  -0.00612407  0.00045029  1
  Sb  Sb95  1  0.15929116  -0.00403240  0.49984290  1
  Sb  Sb96  1  0.50079301  0.83184152  0.33593035  1
  Sb  Sb97  1  0.33536346  0.17005175  0.83162109  1
  Sb  Sb98  1  0.00270469  0.50248132  0.49696059  1
  Sb  Sb99  1  0.50420571  0.16914196  0.00809853  1
  Sb  Sb100  1  0.32885495  0.34101976  0.66060950  1
  Sb  Sb101  1  -0.00267532  0.16560339  0.49440667  1
  Sb  Sb102  1  0.83116199  0.33113792  0.17111788  1
  Sb  Sb103  1  0.83242508  0.16673329  0.00352417  1
  Sb  Sb104  1  0.00395397  0.50517285  0.83478764  1
  Sb  Sb105  1  0.83450807  0.83330518  0.00401349  1
  Sb  Sb106  1  0.50350968  0.15984465  0.66333429  1
  Sb  Sb107  1  0.83897923  0.49956824  0.66118876  1
  Te  Te108  1  0.16614805  0.16027442  0.16673991  1
  Te  Te109  1  0.16642758  0.16762404  0.50579095  1
  Te  Te110  1  0.16700264  0.16512785  0.82807300  1
  Te  Te111  1  0.16989512  0.49931663  0.16923351  1
  Te  Te112  1  0.16781444  0.50123430  0.49681483  1
  Te  Te113  1  0.16923915  0.50189444  0.83290087  1
  Te  Te114  1  0.16193203  0.83798036  0.17015494  1
  Te  Te115  1  0.16881102  0.83164183  0.49971079  1
  Te  Te116  1  0.16462422  0.83220267  0.83132635  1
  Te  Te117  1  0.50159277  0.16637489  0.17154393  1
  Te  Te118  1  0.50060580  0.16742050  0.49370803  1
  Te  Te119  1  0.50602513  0.16118012  0.83163578  1
  Te  Te120  1  0.50157214  0.50303468  0.16898025  1
  Te  Te121  1  0.49974442  0.50701398  0.49574935  1
  Te  Te122  1  0.49481304  0.49959051  0.83437746  1
  Te  Te123  1  0.49775876  0.83888872  0.16628136  1
  Te  Te124  1  0.49687900  0.82842649  0.50439893  1
  Te  Te125  1  0.49840155  0.83798150  0.82937950  1
  Te  Te126  1  0.83196712  0.16540109  0.17050586  1
  Te  Te127  1  0.83252288  0.16868198  0.49902917  1
  Te  Te128  1  0.82886747  0.16881232  0.83074884  1
  Te  Te129  1  0.82948666  0.50332052  0.17138760  1
  Te  Te130  1  0.83369447  0.50217584  0.49378034  1
  Te  Te131  1  0.83299198  0.49919788  0.83179686  1
  Te  Te132  1  0.83715977  0.83317489  0.16936609  1
  Te  Te133  1  0.83253432  0.83180832  0.49672276  1
  Te  Te134  1  0.83580841  0.83127338  0.83126478  1
  Te  Te135  1  0.16329301  -0.00010889  -0.00078432  1
  Te  Te136  1  0.16250114  -0.00153641  0.33079810  1
  Te  Te137  1  0.16225677  0.00038781  0.66800545  1
  Te  Te138  1  0.16286681  0.33823159  -0.00056680  1
  Te  Te139  1  0.16238671  0.33328674  0.33628775  1
  Te  Te140  1  0.16618492  0.32916158  0.65995457  1
  Te  Te141  1  0.16963575  0.66131427  0.00169288  1
  Te  Te142  1  0.16315753  0.66626732  0.33423273  1
  Te  Te143  1  0.16195013  0.66932266  0.66518994  1
  Te  Te144  1  0.50131261  -0.00019452  -0.00021708  1
  Te  Te145  1  0.49881690  0.00190326  0.33098544  1
  Te  Te146  1  0.49934772  -0.00513140  0.66692257  1
  Te  Te147  1  0.50204989  0.33851846  0.00644565  1
  Te  Te148  1  0.50519146  0.33641931  0.32984684  1
  Te  Te149  1  0.49889799  0.33152875  0.66467720  1
  Te  Te150  1  0.49658289  0.66151066  -0.00079799  1
  Te  Te151  1  0.49781333  0.66361791  0.33857425  1
  Te  Te152  1  0.50382850  0.67156360  0.66072731  1
  Te  Te153  1  0.83415071  0.00004413  0.00502329  1
  Te  Te154  1  0.83654763  -0.00450608  0.33193974  1
  Te  Te155  1  0.83861963  0.00333121  0.66725454  1
  Te  Te156  1  0.83427761  0.33388182  -0.00306877  1
  Te  Te157  1  0.83681770  0.33413176  0.33410452  1
  Te  Te158  1  0.83441313  0.33091577  0.66658145  1
  Te  Te159  1  0.83406099  0.66557880  -0.01061691  1
  Te  Te160  1  0.83697153  0.67149556  0.33465074  1
  Te  Te161  1  0.83986412  0.66627518  0.67073024  1
  Te  Te162  1  -0.00008530  0.16621110  0.00590977  1
  Te  Te163  1  -0.00435979  0.16756187  0.32903789  1
  Te  Te164  1  -0.00220877  0.16656417  0.66821919  1
  Te  Te165  1  0.00425643  0.49505801  0.00229627  1
  Te  Te166  1  0.00103600  0.49711838  0.33168849  1
  Te  Te167  1  0.00764481  0.50494285  0.66786696  1
  Te  Te168  1  0.00014593  0.83893998  -0.00265409  1
  Te  Te169  1  0.00046362  0.83381687  0.33292380  1
  Te  Te170  1  0.00332404  0.83232945  0.67079308  1
  Te  Te171  1  0.33406821  0.16756585  -0.00086360  1
  Te  Te172  1  0.33668802  0.17404894  0.33407137  1
  Te  Te173  1  0.33093207  0.16702202  0.66612364  1
  Te  Te174  1  0.33310118  0.50131374  0.00322121  1
  Te  Te175  1  0.33145415  0.49686425  0.32988858  1
  Te  Te176  1  0.32761318  0.50717490  0.66865825  1
  Te  Te177  1  0.33348573  0.82365481  0.00131540  1
  Te  Te178  1  0.32931741  0.83334962  0.33857681  1
  Te  Te179  1  0.33060336  0.82798628  0.66317130  1
  Te  Te180  1  0.66624588  0.16586285  0.00200844  1
  Te  Te181  1  0.67031888  0.16446083  0.32865228  1
  Te  Te182  1  0.67175189  0.16528832  0.67172241  1
  Te  Te183  1  0.66383815  0.49824614  0.00722473  1
  Te  Te184  1  0.66760780  0.50197200  0.32753238  1
  Te  Te185  1  0.66475540  0.49999214  0.66885963  1
  Te  Te186  1  0.66665783  0.83858430  -0.00761652  1
  Te  Te187  1  0.66848897  0.83362444  0.33352628  1
  Te  Te188  1  0.66204562  0.83351114  0.67267277  1
  Te  Te189  1  -0.00289378  -0.00083352  0.16718093  1
  Te  Te190  1  -0.00598792  0.00000025  0.50683078  1
  Te  Te191  1  0.00193471  -0.00254346  0.82875065  1
  Te  Te192  1  -0.00019839  0.33179019  0.16634469  1
  Te  Te193  1  -0.00100245  0.33230239  0.49671913  1
  Te  Te194  1  -0.00559871  0.33208592  0.83613638  1
  Te  Te195  1  -0.00623981  0.67010176  0.16972134  1
  Te  Te196  1  0.00108745  0.66718069  0.49803826  1
  Te  Te197  1  0.00323997  0.67049686  0.83708866  1
  Te  Te198  1  0.33935261  -0.00080933  0.16560325  1
  Te  Te199  1  0.33498996  -0.00711694  0.49990600  1
  Te  Te200  1  0.33272479  0.00037085  0.83463764  1
  Te  Te201  1  0.33808551  0.33838551  0.17253583  1
  Te  Te202  1  0.33157766  0.33282080  0.49281827  1
  Te  Te203  1  0.33417039  0.33948711  0.83272326  1
  Te  Te204  1  0.33353007  0.66217482  0.16363017  1
  Te  Te205  1  0.32929759  0.66906670  0.50274015  1
  Te  Te206  1  0.33145604  0.66337506  0.83105413  1
  Te  Te207  1  0.66769303  -0.00013206  0.16616702  1
  Te  Te208  1  0.67423263  -0.00050540  0.49387755  1
  Te  Te209  1  0.66736360  -0.00142427  0.83388254  1
  Te  Te210  1  0.66484442  0.33109752  0.16291346  1
  Te  Te211  1  0.67336836  0.33418049  0.50312790  1
  Te  Te212  1  0.67139106  0.33242656  0.84140201  1
  Te  Te213  1  0.67162484  0.66913419  0.17007549  1
  Te  Te214  1  0.67581095  0.66757767  0.49449002  1
  Te  Te215  1  0.66787793  0.67116824  0.83418298  1
