# generated using pymatgen
data_AgSbTe2
_symmetry_space_group_name_H-M   'P 1'
_cell_length_a   18.34908456
_cell_length_b   18.34456895
_cell_length_c   18.34729028
_cell_angle_alpha   89.99960285
_cell_angle_beta   90.00310059
_cell_angle_gamma   90.00465012
_symmetry_Int_Tables_number   1
_chemical_formula_structural   AgSbTe2
_chemical_formula_sum   'Ag54 Sb54 Te108'
_cell_volume   6175.80882190
_cell_formula_units_Z   54
loop_
 _symmetry_equiv_pos_site_id
 _symmetry_equiv_pos_as_xyz
  1  'x, y, z'
loop_
 _atom_site_type_symbol
 _atom_site_label
 _atom_site_symmetry_multiplicity
 _atom_site_fract_x
 _atom_site_fract_y
 _atom_site_fract_z
 _atom_site_occupancy
  Ag  Ag0  1  0.67209946  0.33299838  0.34194324  1
  Ag  Ag1  1  0.16888955  0.83449014  0.65860215  1
  Ag  Ag2  1  -0.00290291  0.83482675  0.50219989  1
  Ag  Ag3  1  0.50130607  0.15663356  0.65780755  1
  Ag  Ag4  1  0.17036721  -0.00063909  0.17676426  1
  Ag  Ag5  1  0.33765964  0.32761535  0.33613531  1
  Ag  Ag6  1  0.83478450  0.32421179  0.81757742  1
  Ag  Ag7  1  0.16414219  0.49748091  0.33678938  1
  Ag  Ag8  1  -0.00326353  0.16947757  0.17408052  1
  Ag  Ag9  1  0.83608732  0.66759067  0.50170368  1
  Ag  Ag10  1  0.33550195  0.67378355  0.66253028  1
  Ag  Ag11  1  0.00002704  0.67470485  0.66012180  1
  Ag  Ag12  1  0.49929959  0.48964342  0.33877772  1
  Ag  Ag13  1  0.83793761  0.00068792  0.50187706  1
  Ag  Ag14  1  -0.00792370  0.33038785  0.65711492  1
  Ag  Ag15  1  0.67485004  0.48540066  0.49833191  1
  Ag  Ag16  1  0.83445027  0.16849618  0.00220499  1
  Ag  Ag17  1  0.82858995  0.00724998  0.82016777  1
  Ag  Ag18  1  0.32954011  0.67182566  -0.00522418  1
  Ag  Ag19  1  0.83709212  0.32965852  0.18487554  1
  Ag  Ag20  1  0.50574912  0.16908869  0.34231630  1
  Ag  Ag21  1  0.66300814  0.83482593  0.17159429  1
  Ag  Ag22  1  0.83215045  0.83874446  0.34284459  1
  Ag  Ag23  1  0.15565093  0.67653704  0.50317062  1
  Ag  Ag24  1  -0.00669872  0.49547244  0.49914576  1
  Ag  Ag25  1  0.32904396  0.83631879  0.50139394  1
  Ag  Ag26  1  0.83637370  0.48872721  0.66094804  1
  Ag  Ag27  1  0.82650485  0.32954752  0.50015754  1
  Ag  Ag28  1  -0.00750010  0.16935483  0.49857628  1
  Ag  Ag29  1  0.15879750  0.33063621  0.83102596  1
  Ag  Ag30  1  0.83073227  0.16893218  0.34037681  1
  Ag  Ag31  1  0.83894803  0.83509613  0.65797075  1
  Ag  Ag32  1  0.67537931  0.32961122  0.65223997  1
  Ag  Ag33  1  0.66704953  0.66372109  0.33978673  1
  Ag  Ag34  1  0.34138476  -0.00803073  0.65922186  1
  Ag  Ag35  1  0.33550051  0.00155888  0.34201832  1
  Ag  Ag36  1  0.49173245  0.00038209  0.17792464  1
  Ag  Ag37  1  -0.00222612  -0.00107027  0.66094541  1
  Ag  Ag38  1  -0.00829534  0.33210173  0.34121714  1
  Ag  Ag39  1  0.67161904  0.17185651  0.50139667  1
  Ag  Ag40  1  0.16797207  0.83595796  -0.00026925  1
  Ag  Ag41  1  -0.00178183  0.48985332  0.18059922  1
  Ag  Ag42  1  0.49937582  0.67271932  0.81861738  1
  Ag  Ag43  1  0.16639515  -0.00447394  0.50173999  1
  Ag  Ag44  1  0.49834268  0.00208174  0.50090271  1
  Ag  Ag45  1  0.51329617  0.32001378  0.49741979  1
  Ag  Ag46  1  0.50321999  0.16369293  -0.00058838  1
  Ag  Ag47  1  0.50276697  0.00176253  0.81985190  1
  Ag  Ag48  1  0.00336268  0.66854441  -0.00240438  1
  Ag  Ag49  1  0.33418341  0.83767960  0.17571666  1
  Ag  Ag50  1  0.49618702  0.83881714  0.66206019  1
  Ag  Ag51  1  0.16141094  0.16095219  0.00054020  1
  Ag  Ag52  1  0.66946146  0.16671511  0.82326086  1
  Ag  Ag53  1  0.50346417  0.66990774  0.50178451  1
  Sb  Sb54  1  0.33475373  0.50078272  0.83145365  1
  Sb  Sb55  1  0.33235323  0.50611718  0.49835105  1
  Sb  Sb56  1  0.67026106  0.83550779  0.49846033  1
  Sb  Sb57  1  0.82805303  0.16545567  0.66057628  1
  Sb  Sb58  1  0.66850404  0.66364646  0.65776415  1
  Sb  Sb59  1  0.16492999  0.67215451  0.17206995  1
  Sb  Sb60  1  0.16108129  0.32798502  0.16698594  1
  Sb  Sb61  1  0.33127725  0.33374502  0.00531237  1
  Sb  Sb62  1  0.16861243  0.16169530  0.66702297  1
  Sb  Sb63  1  0.83599784  0.66296063  0.17577860  1
  Sb  Sb64  1  -0.00157511  0.33341644  -0.00008894  1
  Sb  Sb65  1  0.16740188  0.00204373  0.82755255  1
  Sb  Sb66  1  0.16340917  0.50206462  0.00466318  1
  Sb  Sb67  1  0.16946432  0.66464001  0.82808855  1
  Sb  Sb68  1  0.66766739  0.33025168  0.00084223  1
  Sb  Sb69  1  0.16178946  0.33098982  0.50128983  1
  Sb  Sb70  1  -0.00381776  0.66183567  0.34201633  1
  Sb  Sb71  1  0.33354930  0.83383777  0.82442788  1
  Sb  Sb72  1  0.82970905  0.66838753  0.82422314  1
  Sb  Sb73  1  0.33636544  0.67122475  0.33989877  1
  Sb  Sb74  1  0.33825436  0.16557191  0.83360058  1
  Sb  Sb75  1  0.00114316  0.83612634  0.17290974  1
  Sb  Sb76  1  -0.00014062  0.83358295  0.82227868  1
  Sb  Sb77  1  0.66527153  0.00183363  0.00076754  1
  Sb  Sb78  1  0.66548923  0.83882551  0.83336363  1
  Sb  Sb79  1  0.32841361  0.50620449  0.17185443  1
  Sb  Sb80  1  0.83612726  0.49486738  -0.00427586  1
  Sb  Sb81  1  0.67220224  0.50081879  0.18002221  1
  Sb  Sb82  1  0.33562315  0.15825040  0.49863804  1
  Sb  Sb83  1  0.15899054  0.50518130  0.65828117  1
  Sb  Sb84  1  0.49866094  0.67288191  0.17134285  1
  Sb  Sb85  1  0.83927477  0.83758525  -0.00011021  1
  Sb  Sb86  1  0.83601436  0.00437556  0.17159214  1
  Sb  Sb87  1  -0.00099778  0.49873298  0.82647214  1
  Sb  Sb88  1  0.66697161  0.49453854  0.82354127  1
  Sb  Sb89  1  0.83451292  0.49437799  0.34373961  1
  Sb  Sb90  1  0.49894463  0.49749695  0.00653744  1
  Sb  Sb91  1  0.50329083  0.83714553  0.34057937  1
  Sb  Sb92  1  0.50432789  0.50146817  0.65604230  1
  Sb  Sb93  1  0.33131875  0.16065780  0.16868316  1
  Sb  Sb94  1  0.67017904  0.16320987  0.17162553  1
  Sb  Sb95  1  0.33358024  0.33341852  0.65885958  1
  Sb  Sb96  1  0.66753876  0.66826056  0.00397974  1
  Sb  Sb97  1  0.50441563  0.32780442  0.82454589  1
  Sb  Sb98  1  0.16373623  0.83216819  0.33996441  1
  Sb  Sb99  1  0.66672535  0.00518892  0.66301833  1
  Sb  Sb100  1  0.00275977  0.00580258  0.34221662  1
  Sb  Sb101  1  -0.00764642  0.16702065  0.82870452  1
  Sb  Sb102  1  0.49390457  0.83787313  -0.00197305  1
  Sb  Sb103  1  0.16493753  0.16827139  0.33321653  1
  Sb  Sb104  1  0.66287451  0.00312722  0.33622894  1
  Sb  Sb105  1  0.33297387  -0.00452658  -0.00060749  1
  Sb  Sb106  1  0.00163156  -0.00146491  -0.00359337  1
  Sb  Sb107  1  0.50647557  0.32453488  0.17808685  1
  Te  Te108  1  0.16242730  0.16108260  0.16328618  1
  Te  Te109  1  0.15853929  0.15863118  0.50080143  1
  Te  Te110  1  0.16687464  0.16938320  0.83744689  1
  Te  Te111  1  0.15929503  0.49989040  0.17296994  1
  Te  Te112  1  0.16294816  0.50215639  0.49548497  1
  Te  Te113  1  0.16682032  0.49246607  0.83526599  1
  Te  Te114  1  0.16939184  0.83836768  0.16651939  1
  Te  Te115  1  0.16692509  0.83471503  0.50100643  1
  Te  Te116  1  0.16628685  0.83333269  0.83840000  1
  Te  Te117  1  0.50047388  0.16038005  0.16254417  1
  Te  Te118  1  0.49704767  0.16421443  0.49848607  1
  Te  Te119  1  0.50492149  0.16465296  0.83686013  1
  Te  Te120  1  0.50091298  0.49930775  0.17508289  1
  Te  Te121  1  0.49897582  0.50713511  0.49484351  1
  Te  Te122  1  0.50142174  0.50313762  0.83628963  1
  Te  Te123  1  0.49746956  0.83979468  0.16609091  1
  Te  Te124  1  0.50217344  0.83445159  0.50255882  1
  Te  Te125  1  0.50104101  0.83443291  0.82912996  1
  Te  Te126  1  0.83648607  0.16862273  0.16634488  1
  Te  Te127  1  0.83299443  0.16636780  0.49936587  1
  Te  Te128  1  0.83059903  0.16550975  0.83530708  1
  Te  Te129  1  0.83943688  0.49461647  0.16443281  1
  Te  Te130  1  0.83364629  0.50158171  0.50189504  1
  Te  Te131  1  0.83197186  0.49593675  0.82474675  1
  Te  Te132  1  0.83165329  0.83381263  0.16848019  1
  Te  Te133  1  0.83146835  0.83558141  0.50071878  1
  Te  Te134  1  0.83196856  0.84006446  0.83093603  1
  Te  Te135  1  0.16753489  0.00005965  -0.00468916  1
  Te  Te136  1  0.17189166  0.00032408  0.33541028  1
  Te  Te137  1  0.16487868  -0.00471967  0.66394763  1
  Te  Te138  1  0.16668792  0.32920890  -0.00377084  1
  Te  Te139  1  0.16848050  0.33608316  0.33272429  1
  Te  Te140  1  0.16663892  0.33353911  0.67107175  1
  Te  Te141  1  0.16695239  0.66909971  -0.00090647  1
  Te  Te142  1  0.16744408  0.66151829  0.34015656  1
  Te  Te143  1  0.16378766  0.67141411  0.66369341  1
  Te  Te144  1  0.49872340  0.00440645  -0.00136963  1
  Te  Te145  1  0.49668156  0.00278443  0.33572561  1
  Te  Te146  1  0.50249058  -0.00084693  0.66286558  1
  Te  Te147  1  0.49850513  0.32823312  0.00022108  1
  Te  Te148  1  0.50140984  0.32990585  0.33756115  1
  Te  Te149  1  0.49954320  0.33327906  0.65912264  1
  Te  Te150  1  0.49677170  0.66680905  0.00238543  1
  Te  Te151  1  0.50376178  0.66813249  0.33816390  1
  Te  Te152  1  0.50066619  0.66629861  0.66256969  1
  Te  Te153  1  0.83368768  0.00669486  0.00001564  1
  Te  Te154  1  0.83418441  0.00313215  0.33746862  1
  Te  Te155  1  0.83362296  -0.00171130  0.66321906  1
  Te  Te156  1  0.83344560  0.32821130  -0.00546333  1
  Te  Te157  1  0.83425097  0.33132564  0.34020081  1
  Te  Te158  1  0.83514684  0.32964328  0.66107158  1
  Te  Te159  1  0.83754466  0.66685350  -0.00313265  1
  Te  Te160  1  0.82957577  0.67108061  0.33955398  1
  Te  Te161  1  0.83598841  0.67335881  0.66347489  1
  Te  Te162  1  0.00006769  0.16580339  0.00012034  1
  Te  Te163  1  -0.00204142  0.17073867  0.33427720  1
  Te  Te164  1  0.00367161  0.16707036  0.66205903  1
  Te  Te165  1  -0.00011422  0.50688503  0.00091006  1
  Te  Te166  1  0.00008400  0.49590513  0.33711285  1
  Te  Te167  1  -0.00415583  0.49708469  0.66083831  1
  Te  Te168  1  0.00515780  0.83022115  0.00299428  1
  Te  Te169  1  -0.00597301  0.83320731  0.33880832  1
  Te  Te170  1  0.00017676  0.83442582  0.66167253  1
  Te  Te171  1  0.33170700  0.16730708  0.00119827  1
  Te  Te172  1  0.33737359  0.16523344  0.33231716  1
  Te  Te173  1  0.34015378  0.16472496  0.66714985  1
  Te  Te174  1  0.33221557  0.50954878  0.00256412  1
  Te  Te175  1  0.33509941  0.49829674  0.33251262  1
  Te  Te176  1  0.33159965  0.50815418  0.66664265  1
  Te  Te177  1  0.32871181  0.82962824  0.00197433  1
  Te  Te178  1  0.33328688  0.83795777  0.33600096  1
  Te  Te179  1  0.33364250  0.83289997  0.66244758  1
  Te  Te180  1  0.66792769  0.16706768  0.00067715  1
  Te  Te181  1  0.66738092  0.16966575  0.33584622  1
  Te  Te182  1  0.66041833  0.17120815  0.66483633  1
  Te  Te183  1  0.66642006  0.50025631  0.00171154  1
  Te  Te184  1  0.66349746  0.49948642  0.33906482  1
  Te  Te185  1  0.67167089  0.49290832  0.65906624  1
  Te  Te186  1  0.66767498  0.83255444  0.00751866  1
  Te  Te187  1  0.67061389  0.83210619  0.33100610  1
  Te  Te188  1  0.66464644  0.83099983  0.66904553  1
  Te  Te189  1  0.00510331  0.00495500  0.16572720  1
  Te  Te190  1  -0.00198980  -0.00162355  0.50099041  1
  Te  Te191  1  -0.00465789  -0.00007287  0.82544036  1
  Te  Te192  1  -0.00366703  0.33112619  0.16655418  1
  Te  Te193  1  0.00221050  0.33287209  0.50039131  1
  Te  Te194  1  -0.00358762  0.33344393  0.83021448  1
  Te  Te195  1  0.00006351  0.66607113  0.16288088  1
  Te  Te196  1  -0.00236611  0.66833668  0.50219039  1
  Te  Te197  1  0.00007797  0.66612093  0.83203872  1
  Te  Te198  1  0.33148921  -0.00405427  0.16569790  1
  Te  Te199  1  0.33431871  -0.00239812  0.50161413  1
  Te  Te200  1  0.33977213  0.00006249  0.82546301  1
  Te  Te201  1  0.33399420  0.33557424  0.17326887  1
  Te  Te202  1  0.33069300  0.33455324  0.49493408  1
  Te  Te203  1  0.33209626  0.33425521  0.83398761  1
  Te  Te204  1  0.33233731  0.67510873  0.16554047  1
  Te  Te205  1  0.33780309  0.67246800  0.50269835  1
  Te  Te206  1  0.33819817  0.66706351  0.83114039  1
  Te  Te207  1  0.66374441  -0.00499851  0.16814637  1
  Te  Te208  1  0.66655443  0.00864140  0.49874353  1
  Te  Te209  1  0.66582742  0.00577425  0.83454046  1
  Te  Te210  1  0.67429006  0.33353963  0.17135696  1
  Te  Te211  1  0.66722049  0.33146419  0.49752603  1
  Te  Te212  1  0.67135233  0.32778283  0.83181105  1
  Te  Te213  1  0.66744721  0.67106497  0.17332636  1
  Te  Te214  1  0.66739701  0.66852672  0.49704875  1
  Te  Te215  1  0.66023324  0.66513688  0.83506209  1
