# generated using pymatgen
data_AgSbTe2
_symmetry_space_group_name_H-M   'P 1'
_cell_length_a   18.34009394
_cell_length_b   18.33665671
_cell_length_c   18.33158270
_cell_angle_alpha   89.99925912
_cell_angle_beta   89.99717517
_cell_angle_gamma   89.99939906
_symmetry_Int_Tables_number   1
_chemical_formula_structural   AgSbTe2
_chemical_formula_sum   'Ag54 Sb54 Te108'
_cell_volume   6164.83805200
_cell_formula_units_Z   54
loop_
 _symmetry_equiv_pos_site_id
 _symmetry_equiv_pos_as_xyz
  1  'x, y, z'
loop_
 _atom_site_type_symbol
 _atom_site_label
 _atom_site_symmetry_multiplicity
 _atom_site_fract_x
 _atom_site_fract_y
 _atom_site_fract_z
 _atom_site_occupancy
  Ag  Ag0  1  0.33278127  0.33788079  0.32810401  1
  Ag  Ag1  1  0.50042739  0.50398433  0.00673050  1
  Ag  Ag2  1  0.66781910  0.67064251  0.34097556  1
  Ag  Ag3  1  0.50477610  0.66747978  0.49644945  1
  Ag  Ag4  1  0.16369790  -0.00755334  0.49074480  1
  Ag  Ag5  1  -0.00572379  0.17764529  0.82723630  1
  Ag  Ag6  1  0.66728216  -0.01065993  0.00997194  1
  Ag  Ag7  1  -0.00414051  0.50372092  0.50819223  1
  Ag  Ag8  1  0.32085461  0.66565937  0.66818317  1
  Ag  Ag9  1  0.33268643  0.50488746  0.16446569  1
  Ag  Ag10  1  0.16892890  0.50600496  0.33221608  1
  Ag  Ag11  1  0.67318929  0.17091181  0.83150746  1
  Ag  Ag12  1  -0.00775257  0.34479932  0.67034934  1
  Ag  Ag13  1  0.82767997  -0.00536632  0.16982691  1
  Ag  Ag14  1  0.67035847  0.66064854  0.65684906  1
  Ag  Ag15  1  0.49700014  0.33962046  0.16496658  1
  Ag  Ag16  1  0.66923060  -0.01148550  0.33003342  1
  Ag  Ag17  1  0.33948475  0.66252431  0.00181310  1
  Ag  Ag18  1  0.00439840  0.83227746  0.17628847  1
  Ag  Ag19  1  0.00174139  0.82412547  0.49408176  1
  Ag  Ag20  1  0.49623977  0.50698314  0.32894582  1
  Ag  Ag21  1  -0.00418964  0.49697077  0.82212815  1
  Ag  Ag22  1  0.83622325  0.16345878  0.33630198  1
  Ag  Ag23  1  0.67300397  0.50668088  0.50072183  1
  Ag  Ag24  1  -0.01041342  0.33953657  -0.00663388  1
  Ag  Ag25  1  -0.00210335  0.67010648  0.33856189  1
  Ag  Ag26  1  0.15996671  0.15684057  0.33468354  1
  Ag  Ag27  1  0.15243050  0.50470997  0.66021617  1
  Ag  Ag28  1  0.83305912  0.65565412  0.83519247  1
  Ag  Ag29  1  0.84092708  0.49853573  0.67333315  1
  Ag  Ag30  1  0.16353704  0.83087885  0.33472373  1
  Ag  Ag31  1  0.16500991  0.82326283  0.65307690  1
  Ag  Ag32  1  0.66485608  0.66494788  0.00030812  1
  Ag  Ag33  1  0.67423879  0.34267220  0.66706146  1
  Ag  Ag34  1  -0.00543952  0.17123524  0.49976477  1
  Ag  Ag35  1  0.50484041  0.82616700  0.33000598  1
  Ag  Ag36  1  0.66919155  0.34081643  -0.00512187  1
  Ag  Ag37  1  0.50899443  0.82377078  0.01021439  1
  Ag  Ag38  1  0.67006213  0.82459423  0.49386185  1
  Ag  Ag39  1  0.50269029  -0.00498163  0.16814316  1
  Ag  Ag40  1  0.83178146  0.50225639  -0.00458420  1
  Ag  Ag41  1  0.33022064  0.17064828  0.83515316  1
  Ag  Ag42  1  0.16834203  0.66882851  0.16989944  1
  Ag  Ag43  1  0.67333506  0.16895274  0.49963934  1
  Ag  Ag44  1  0.83350679  0.33563142  0.50579827  1
  Ag  Ag45  1  0.32142208  0.82893578  0.48865999  1
  Ag  Ag46  1  0.16669873  0.50028275  0.00434990  1
  Ag  Ag47  1  0.32875362  0.82741447  0.17174085  1
  Ag  Ag48  1  0.83125363  0.83368425  0.33045006  1
  Ag  Ag49  1  0.82682617  0.82597097  0.00848931  1
  Ag  Ag50  1  0.00303883  0.65632242  0.66019534  1
  Ag  Ag51  1  0.83491239  0.33699769  0.82805597  1
  Ag  Ag52  1  0.16727021  -0.01091907  0.17206601  1
  Ag  Ag53  1  0.33728598  0.34426020  0.00669753  1
  Sb  Sb54  1  0.00556001  0.50557783  0.16764789  1
  Sb  Sb55  1  -0.00458292  0.00244623  0.00267837  1
  Sb  Sb56  1  0.16568023  0.17215899  0.00533958  1
  Sb  Sb57  1  0.33141149  0.16316621  0.50031493  1
  Sb  Sb58  1  0.83434243  0.17599608  0.66122199  1
  Sb  Sb59  1  0.50265423  0.00038179  0.84258154  1
  Sb  Sb60  1  -0.00284754  -0.00916101  0.33389871  1
  Sb  Sb61  1  0.15707594  0.33489568  0.83495308  1
  Sb  Sb62  1  0.50179985  0.16692886  0.33353595  1
  Sb  Sb63  1  0.16325724  0.16951851  0.66225257  1
  Sb  Sb64  1  0.66471959  0.83238968  0.17360580  1
  Sb  Sb65  1  0.17030461  0.33810669  0.16775307  1
  Sb  Sb66  1  0.50661563  0.33553472  0.84022425  1
  Sb  Sb67  1  0.50194703  0.17059777  0.00178212  1
  Sb  Sb68  1  0.83611662  0.00251573  0.49403847  1
  Sb  Sb69  1  0.83025570  0.33129146  0.16556439  1
  Sb  Sb70  1  0.33290926  -0.00181897  0.33118527  1
  Sb  Sb71  1  0.32626382  0.49734285  0.84219399  1
  Sb  Sb72  1  0.16540097  0.00062218  0.83551203  1
  Sb  Sb73  1  0.50325081  0.50223780  0.66552566  1
  Sb  Sb74  1  0.66846300  0.83397356  0.83284764  1
  Sb  Sb75  1  -0.00110302  0.66133423  -0.00057443  1
  Sb  Sb76  1  0.00286418  0.33823826  0.33439851  1
  Sb  Sb77  1  0.33829506  -0.00335489  0.00350202  1
  Sb  Sb78  1  0.83692949  0.82191980  0.66097185  1
  Sb  Sb79  1  0.16085349  0.33335055  0.49834322  1
  Sb  Sb80  1  0.66446742  0.33680738  0.33368894  1
  Sb  Sb81  1  0.33186025  0.34116600  0.66859052  1
  Sb  Sb82  1  0.83167086  0.66133997  0.50270459  1
  Sb  Sb83  1  0.49484885  0.66829458  0.17015122  1
  Sb  Sb84  1  0.66717382  0.16437361  0.16828021  1
  Sb  Sb85  1  0.83144556  0.16913816  0.00214924  1
  Sb  Sb86  1  0.66793147  -0.00184115  0.66206282  1
  Sb  Sb87  1  0.00041015  0.16286216  0.17155124  1
  Sb  Sb88  1  0.49991874  -0.00806228  0.49179874  1
  Sb  Sb89  1  0.16569412  0.82670522  0.00738705  1
  Sb  Sb90  1  0.50584443  0.66505769  0.83439921  1
  Sb  Sb91  1  0.83339324  0.50317918  0.33330263  1
  Sb  Sb92  1  0.49731356  0.82851608  0.66070791  1
  Sb  Sb93  1  0.83194475  0.00358067  0.84031323  1
  Sb  Sb94  1  0.33134577  0.50682312  0.49522661  1
  Sb  Sb95  1  0.16659238  0.67053040  0.49550453  1
  Sb  Sb96  1  0.33279350  0.66651429  0.33225321  1
  Sb  Sb97  1  -0.00069376  -0.00209893  0.66360626  1
  Sb  Sb98  1  0.33158715  0.16881964  0.16516843  1
  Sb  Sb99  1  0.83746803  0.67241746  0.16368177  1
  Sb  Sb100  1  0.16165459  0.66455820  0.83364325  1
  Sb  Sb101  1  -0.00232650  0.82906223  0.83096445  1
  Sb  Sb102  1  0.50694514  0.34037663  0.49435092  1
  Sb  Sb103  1  0.33255296  0.83249816  0.83603506  1
  Sb  Sb104  1  0.66094152  0.50140879  0.16635631  1
  Sb  Sb105  1  0.33024814  -0.00691669  0.66542545  1
  Sb  Sb106  1  0.50167257  0.16889322  0.66657272  1
  Sb  Sb107  1  0.67470550  0.49729285  0.83110245  1
  Te  Te108  1  0.16653987  0.16018486  0.17433704  1
  Te  Te109  1  0.16555214  0.16265492  0.49513387  1
  Te  Te110  1  0.16563323  0.16626452  0.83326953  1
  Te  Te111  1  0.17171167  0.50350375  0.16874540  1
  Te  Te112  1  0.16362758  0.49988665  0.49860874  1
  Te  Te113  1  0.15847114  0.49999693  0.83553335  1
  Te  Te114  1  0.16680268  0.83073096  0.16832560  1
  Te  Te115  1  0.16391046  0.83326587  0.49677262  1
  Te  Te116  1  0.16554324  0.83484660  0.82758985  1
  Te  Te117  1  0.49871343  0.16092201  0.16852703  1
  Te  Te118  1  0.50467039  0.16515961  0.49949888  1
  Te  Te119  1  0.50276283  0.16763563  0.83344091  1
  Te  Te120  1  0.49584349  0.49903928  0.16711343  1
  Te  Te121  1  0.50261037  0.50543717  0.49581996  1
  Te  Te122  1  0.49705633  0.50046753  0.84310158  1
  Te  Te123  1  0.49739522  0.83372149  0.16816807  1
  Te  Te124  1  0.50549689  0.82896685  0.49470636  1
  Te  Te125  1  0.49953033  0.83371210  0.84222011  1
  Te  Te126  1  0.83461335  0.15960690  0.17488613  1
  Te  Te127  1  0.83368723  0.16887998  0.49640408  1
  Te  Te128  1  0.83425525  0.17098911  0.83369033  1
  Te  Te129  1  0.83430626  0.49905768  0.16015251  1
  Te  Te130  1  0.83319643  0.49582029  0.49759902  1
  Te  Te131  1  0.83610992  0.49697151  0.83442499  1
  Te  Te132  1  0.83682279  0.83529492  0.16799364  1
  Te  Te133  1  0.83581716  0.83511441  0.49520319  1
  Te  Te134  1  0.83447351  0.83454349  0.83850431  1
  Te  Te135  1  0.16662364  0.00018661  0.00624701  1
  Te  Te136  1  0.16754913  -0.00303244  0.33193671  1
  Te  Te137  1  0.16683906  -0.00361931  0.66362108  1
  Te  Te138  1  0.17403325  0.33893741  0.00108337  1
  Te  Te139  1  0.17142081  0.34062795  0.33270315  1
  Te  Te140  1  0.16272165  0.34125119  0.66638610  1
  Te  Te141  1  0.16929995  0.66099473  0.00148347  1
  Te  Te142  1  0.16605777  0.66754976  0.33113004  1
  Te  Te143  1  0.16383472  0.66381513  0.66820798  1
  Te  Te144  1  0.50628606  -0.00303550  0.00762214  1
  Te  Te145  1  0.50420531  -0.00290647  0.32845442  1
  Te  Te146  1  0.49888842  -0.00121520  0.66750409  1
  Te  Te147  1  0.49961172  0.33707530  0.00494905  1
  Te  Te148  1  0.49584918  0.33642069  0.32757089  1
  Te  Te149  1  0.50748077  0.33503664  0.66593805  1
  Te  Te150  1  0.50058839  0.66551868  -0.00023424  1
  Te  Te151  1  0.50205168  0.66698864  0.33467741  1
  Te  Te152  1  0.51044766  0.66687701  0.66346385  1
  Te  Te153  1  0.82791351  -0.00223970  0.00724340  1
  Te  Te154  1  0.83002843  -0.00205214  0.33046000  1
  Te  Te155  1  0.83270520  -0.00366385  0.66957810  1
  Te  Te156  1  0.83097873  0.33567183  0.00038733  1
  Te  Te157  1  0.83362700  0.33020456  0.33420775  1
  Te  Te158  1  0.83250627  0.33697257  0.66589530  1
  Te  Te159  1  0.83306148  0.66600902  -0.00249664  1
  Te  Te160  1  0.83251118  0.67131987  0.33143209  1
  Te  Te161  1  0.83080647  0.66071783  0.67157104  1
  Te  Te162  1  0.00020623  0.17380257  -0.00227757  1
  Te  Te163  1  0.00045422  0.17017430  0.33743636  1
  Te  Te164  1  0.00089770  0.16955795  0.66478364  1
  Te  Te165  1  0.00073611  0.49790500  0.00244242  1
  Te  Te166  1  0.00225716  0.50637620  0.33557459  1
  Te  Te167  1  -0.00293273  0.50020308  0.66451243  1
  Te  Te168  1  -0.00374896  0.83314799  0.00010009  1
  Te  Te169  1  0.00126815  0.83030786  0.33480335  1
  Te  Te170  1  0.00425572  0.83004307  0.66193950  1
  Te  Te171  1  0.33312933  0.16936744  -0.00385600  1
  Te  Te172  1  0.32926313  0.17319126  0.33420939  1
  Te  Te173  1  0.33271449  0.16938546  0.67138988  1
  Te  Te174  1  0.33174472  0.50155106  0.00290283  1
  Te  Te175  1  0.33306123  0.49950582  0.33112807  1
  Te  Te176  1  0.33410379  0.50590668  0.66778297  1
  Te  Te177  1  0.33498856  0.82836708  0.00395590  1
  Te  Te178  1  0.33206104  0.83372637  0.33204947  1
  Te  Te179  1  0.32938570  0.82589738  0.66740993  1
  Te  Te180  1  0.66713109  0.17082416  -0.00327400  1
  Te  Te181  1  0.66972167  0.16822095  0.33699885  1
  Te  Te182  1  0.66788902  0.16669479  0.66531273  1
  Te  Te183  1  0.66692539  0.50107904  -0.00033588  1
  Te  Te184  1  0.66456212  0.50514461  0.33677995  1
  Te  Te185  1  0.66734427  0.50049071  0.66312923  1
  Te  Te186  1  0.66749684  0.83251618  -0.00279686  1
  Te  Te187  1  0.66701782  0.83098425  0.33461157  1
  Te  Te188  1  0.66698019  0.82927315  0.66052726  1
  Te  Te189  1  0.00294630  -0.00495906  0.16624425  1
  Te  Te190  1  0.00461019  0.00632637  0.50008879  1
  Te  Te191  1  0.00006886  0.01039638  0.83319851  1
  Te  Te192  1  -0.00007714  0.33186917  0.15939399  1
  Te  Te193  1  -0.00395452  0.33301630  0.50044256  1
  Te  Te194  1  -0.00393081  0.33526697  0.83340391  1
  Te  Te195  1  0.00613822  0.67266187  0.16975262  1
  Te  Te196  1  -0.00113041  0.66553676  0.49985554  1
  Te  Te197  1  -0.00605545  0.66233410  0.82835032  1
  Te  Te198  1  0.33258532  -0.00394654  0.16643375  1
  Te  Te199  1  0.32821918  -0.00749882  0.50001998  1
  Te  Te200  1  0.33412413  0.00801128  0.83387488  1
  Te  Te201  1  0.33621078  0.33503834  0.16598106  1
  Te  Te202  1  0.33590087  0.33317348  0.49859046  1
  Te  Te203  1  0.33512227  0.32975035  0.83480928  1
  Te  Te204  1  0.32934148  0.66603995  0.16440301  1
  Te  Te205  1  0.33930115  0.67142635  0.50499478  1
  Te  Te206  1  0.33420497  0.66635468  0.83257434  1
  Te  Te207  1  0.66707384  -0.00056358  0.16853907  1
  Te  Te208  1  0.66728584  0.00344404  0.49413341  1
  Te  Te209  1  0.66676091  0.00829783  0.83552189  1
  Te  Te210  1  0.66080132  0.33233602  0.16095525  1
  Te  Te211  1  0.67022152  0.33101571  0.50127677  1
  Te  Te212  1  0.67127364  0.33117936  0.83309004  1
  Te  Te213  1  0.66934258  0.66578457  0.15981790  1
  Te  Te214  1  0.66859569  0.66614905  0.49791217  1
  Te  Te215  1  0.67269053  0.66748623  0.83894405  1
