# generated using pymatgen
data_AgSbTe2
_symmetry_space_group_name_H-M   'P 1'
_cell_length_a   18.34239549
_cell_length_b   18.34987577
_cell_length_c   18.34534968
_cell_angle_alpha   89.99773899
_cell_angle_beta   89.99577297
_cell_angle_gamma   90.00108903
_symmetry_Int_Tables_number   1
_chemical_formula_structural   AgSbTe2
_chemical_formula_sum   'Ag54 Sb54 Te108'
_cell_volume   6174.69022071
_cell_formula_units_Z   54
loop_
 _symmetry_equiv_pos_site_id
 _symmetry_equiv_pos_as_xyz
  1  'x, y, z'
loop_
 _atom_site_type_symbol
 _atom_site_label
 _atom_site_symmetry_multiplicity
 _atom_site_fract_x
 _atom_site_fract_y
 _atom_site_fract_z
 _atom_site_occupancy
  Ag  Ag0  1  0.84416371  0.01059106  0.83615879  1
  Ag  Ag1  1  0.00884381  0.00592017  0.67167846  1
  Ag  Ag2  1  0.16804165  0.00199561  0.15131190  1
  Ag  Ag3  1  0.84208813  0.32901496  0.83227690  1
  Ag  Ag4  1  0.83869093  0.48998726  0.33253687  1
  Ag  Ag5  1  0.84617921  0.66388586  0.83328771  1
  Ag  Ag6  1  0.66549360  0.16625348  0.17044224  1
  Ag  Ag7  1  0.83598717  0.16821171  -0.00657197  1
  Ag  Ag8  1  0.01033061  0.83034567  0.50328087  1
  Ag  Ag9  1  0.32457241  -0.00015997  0.67511427  1
  Ag  Ag10  1  0.32324365  -0.00152079  -0.00705099  1
  Ag  Ag11  1  0.66648856  0.16847429  0.49504117  1
  Ag  Ag12  1  0.67898771  0.32581017  0.33695142  1
  Ag  Ag13  1  0.33195193  0.67309222  -0.00062824  1
  Ag  Ag14  1  0.00252951  0.33196384  0.66700760  1
  Ag  Ag15  1  0.15872788  0.32938709  0.82679273  1
  Ag  Ag16  1  0.16627535  0.84165784  0.66851850  1
  Ag  Ag17  1  0.66544246  0.67280165  0.00080573  1
  Ag  Ag18  1  0.49962437  0.32410311  0.82793874  1
  Ag  Ag19  1  0.00530116  0.49337722  0.50775713  1
  Ag  Ag20  1  0.49865321  0.00900841  0.50816669  1
  Ag  Ag21  1  0.66805760  0.01033583  0.32675353  1
  Ag  Ag22  1  0.00491009  0.65691092  0.66854855  1
  Ag  Ag23  1  0.00215366  0.49368882  0.82629819  1
  Ag  Ag24  1  0.66677716  0.00269478  0.00183516  1
  Ag  Ag25  1  0.16424437  0.16360996  0.67038122  1
  Ag  Ag26  1  0.16411240  0.67801672  0.83110846  1
  Ag  Ag27  1  -0.00215111  0.32675698  -0.01259301  1
  Ag  Ag28  1  0.49692553  0.66483460  0.50162881  1
  Ag  Ag29  1  0.50159694  0.16373800  -0.00656495  1
  Ag  Ag30  1  0.15969961  0.33718299  0.50622017  1
  Ag  Ag31  1  0.49971382  0.32787006  0.50445437  1
  Ag  Ag32  1  0.66790205  0.84779680  0.16455408  1
  Ag  Ag33  1  0.16048430  0.48911842  0.34316081  1
  Ag  Ag34  1  0.32905509  0.83121557  0.50304035  1
  Ag  Ag35  1  0.01220498  0.00754035  -0.01137626  1
  Ag  Ag36  1  -0.00329498  0.33394784  0.34694895  1
  Ag  Ag37  1  0.83503884  0.48874835  -0.00126396  1
  Ag  Ag38  1  0.16729845  0.83703207  0.34262923  1
  Ag  Ag39  1  0.83106077  0.17241585  0.33516146  1
  Ag  Ag40  1  0.48889681  0.00544979  0.83216357  1
  Ag  Ag41  1  0.16154402  0.49028179  0.66109346  1
  Ag  Ag42  1  0.32760697  0.83834052  0.83135272  1
  Ag  Ag43  1  0.32199684  0.50258184  0.49902306  1
  Ag  Ag44  1  0.84277329  0.33124894  0.49571441  1
  Ag  Ag45  1  0.16237246  0.16757530  0.33755895  1
  Ag  Ag46  1  0.49806180  0.16534586  0.67018269  1
  Ag  Ag47  1  0.84060817  0.16844729  0.67411686  1
  Ag  Ag48  1  0.32856950  0.66718693  0.34080275  1
  Ag  Ag49  1  0.16421768  0.16004500  -0.00407328  1
  Ag  Ag50  1  0.67011663  0.49522418  0.16689535  1
  Ag  Ag51  1  0.16736454  -0.00014808  0.83635217  1
  Ag  Ag52  1  0.16834301  0.84823609  -0.01076959  1
  Ag  Ag53  1  0.33152445  0.16432548  0.16393219  1
  Sb  Sb54  1  0.00030182  0.16643662  0.16413446  1
  Sb  Sb55  1  0.49518284  0.84114638  -0.00151031  1
  Sb  Sb56  1  0.16618003  0.32621599  0.16763296  1
  Sb  Sb57  1  0.33190742  0.16015229  0.83689264  1
  Sb  Sb58  1  0.67322459  0.32810821  0.00336044  1
  Sb  Sb59  1  -0.00125961  0.17023277  0.50308616  1
  Sb  Sb60  1  0.17036578  0.66417847  0.50636517  1
  Sb  Sb61  1  0.49986902  0.49822802  0.33590680  1
  Sb  Sb62  1  0.16157543  0.49603997  -0.00213622  1
  Sb  Sb63  1  0.49551125  0.66730339  0.82996127  1
  Sb  Sb64  1  0.32842223  0.32802744  -0.00442870  1
  Sb  Sb65  1  0.66281947  0.83624869  0.83840794  1
  Sb  Sb66  1  0.67185597  0.66628850  0.67160121  1
  Sb  Sb67  1  0.32948709  0.33458627  0.33803489  1
  Sb  Sb68  1  0.83221216  0.65902637  0.50444458  1
  Sb  Sb69  1  0.66636735  0.16582117  0.83569030  1
  Sb  Sb70  1  0.83052508  0.66518167  0.15893106  1
  Sb  Sb71  1  0.33417796  0.16528813  0.49775340  1
  Sb  Sb72  1  0.00670854  0.66026359  0.34247221  1
  Sb  Sb73  1  0.50206234  0.16639067  0.33563411  1
  Sb  Sb74  1  0.32601464  0.67240524  0.66584621  1
  Sb  Sb75  1  0.66332312  0.84037301  0.49456118  1
  Sb  Sb76  1  0.49191708  0.84150049  0.66563471  1
  Sb  Sb77  1  0.49515985  0.83483740  0.33477376  1
  Sb  Sb78  1  0.50314483  0.32943133  0.16712000  1
  Sb  Sb79  1  0.84203521  0.49100994  0.66892837  1
  Sb  Sb80  1  0.66675757  0.00348097  0.67017737  1
  Sb  Sb81  1  -0.00214311  0.49865967  0.16810749  1
  Sb  Sb82  1  0.16958318  0.00161926  0.50554651  1
  Sb  Sb83  1  0.66462091  0.66514864  0.32957918  1
  Sb  Sb84  1  0.83360398  0.33076479  0.16955357  1
  Sb  Sb85  1  0.48962241  0.49145325  0.66430290  1
  Sb  Sb86  1  0.67191334  0.32963731  0.66205011  1
  Sb  Sb87  1  0.00088268  0.66643661  -0.00859931  1
  Sb  Sb88  1  0.66912284  0.49288934  0.49496855  1
  Sb  Sb89  1  0.33382329  -0.00165882  0.33408585  1
  Sb  Sb90  1  0.83747797  0.83545851  0.33501095  1
  Sb  Sb91  1  -0.00003624  0.83723189  0.16987659  1
  Sb  Sb92  1  0.83428763  0.00403502  0.16017958  1
  Sb  Sb93  1  0.33347023  0.49715557  0.17090220  1
  Sb  Sb94  1  0.32352206  0.50451463  0.82861030  1
  Sb  Sb95  1  0.32460311  0.32509097  0.66676014  1
  Sb  Sb96  1  0.49933398  0.66694973  0.16778388  1
  Sb  Sb97  1  0.49889025  0.00317753  0.16340477  1
  Sb  Sb98  1  -0.00113187  0.00618330  0.33811324  1
  Sb  Sb99  1  0.00745851  0.83411205  0.82843423  1
  Sb  Sb100  1  0.50431190  0.49422382  -0.00319752  1
  Sb  Sb101  1  0.00285443  0.17146469  0.83243398  1
  Sb  Sb102  1  0.67712644  0.49809560  0.83812374  1
  Sb  Sb103  1  0.16793650  0.67196813  0.16281048  1
  Sb  Sb104  1  0.84401906  0.84058476  0.66817665  1
  Sb  Sb105  1  0.33316052  0.83818767  0.16561368  1
  Sb  Sb106  1  0.83833886  0.83796327  -0.00360904  1
  Sb  Sb107  1  0.83098793  0.00976349  0.50517202  1
  Te  Te108  1  0.16701110  0.16259164  0.16338135  1
  Te  Te109  1  0.16752306  0.17202653  0.49849203  1
  Te  Te110  1  0.16794641  0.16796275  0.83247737  1
  Te  Te111  1  0.16806329  0.50085845  0.17406318  1
  Te  Te112  1  0.16442351  0.50053655  0.49966157  1
  Te  Te113  1  0.16180817  0.49107399  0.83136207  1
  Te  Te114  1  0.16717678  0.83962128  0.16839242  1
  Te  Te115  1  0.16874684  0.83270719  0.50203944  1
  Te  Te116  1  0.16881787  0.83688601  0.83098380  1
  Te  Te117  1  0.50037133  0.16631336  0.16076561  1
  Te  Te118  1  0.50057606  0.16723180  0.50135517  1
  Te  Te119  1  0.50070330  0.16465485  0.83268575  1
  Te  Te120  1  0.50692520  0.49845572  0.16607933  1
  Te  Te121  1  0.49901682  0.49887249  0.50069647  1
  Te  Te122  1  0.49938143  0.49690312  0.83125420  1
  Te  Te123  1  0.50856637  0.83430628  0.16678608  1
  Te  Te124  1  0.49535483  0.83192164  0.50022284  1
  Te  Te125  1  0.49148016  0.83846072  0.83232181  1
  Te  Te126  1  0.82709552  0.16529596  0.16950539  1
  Te  Te127  1  0.83079194  0.17220582  0.49589897  1
  Te  Te128  1  0.83138433  0.16821508  0.83354958  1
  Te  Te129  1  0.83044828  0.50017761  0.16526293  1
  Te  Te130  1  0.83685437  0.49252954  0.49735533  1
  Te  Te131  1  0.83971293  0.49738710  0.83554045  1
  Te  Te132  1  0.82724315  0.83319123  0.16716049  1
  Te  Te133  1  0.83439159  0.83158302  0.50046159  1
  Te  Te134  1  0.83132795  0.82903177  0.83212724  1
  Te  Te135  1  0.16759539  0.00329543  -0.00381447  1
  Te  Te136  1  0.16542357  0.00318298  0.33816140  1
  Te  Te137  1  0.16661364  0.00320201  0.66596912  1
  Te  Te138  1  0.16084732  0.32976080  -0.00343234  1
  Te  Te139  1  0.16424028  0.33107708  0.33431009  1
  Te  Te140  1  0.16465328  0.33013739  0.66608213  1
  Te  Te141  1  0.16939378  0.66410386  -0.00494681  1
  Te  Te142  1  0.16978504  0.67273603  0.33052294  1
  Te  Te143  1  0.16364939  0.67043191  0.67202768  1
  Te  Te144  1  0.50492702  0.00470725  -0.00302013  1
  Te  Te145  1  0.50552464  -0.00029311  0.33817035  1
  Te  Te146  1  0.50069143  0.00528366  0.66886136  1
  Te  Te147  1  0.49962454  0.32596872  -0.00402049  1
  Te  Te148  1  0.50093074  0.33355124  0.33946291  1
  Te  Te149  1  0.49967787  0.32714754  0.66591367  1
  Te  Te150  1  0.49962754  0.66572460  -0.00133819  1
  Te  Te151  1  0.49332463  0.66643433  0.33878867  1
  Te  Te152  1  0.50110456  0.66552947  0.66326965  1
  Te  Te153  1  0.82883493  0.00331936  -0.00429603  1
  Te  Te154  1  0.83017431  0.00457136  0.33401089  1
  Te  Te155  1  0.83435546  0.00768541  0.67350765  1
  Te  Te156  1  0.83616430  0.33016834  -0.00284544  1
  Te  Te157  1  0.83555583  0.33248864  0.33371476  1
  Te  Te158  1  0.83765673  0.32806995  0.66998765  1
  Te  Te159  1  0.83152396  0.66867350  -0.00736081  1
  Te  Te160  1  0.83466430  0.66274527  0.33382864  1
  Te  Te161  1  0.83893748  0.66749122  0.67290570  1
  Te  Te162  1  -0.00208195  0.16595652  0.00070989  1
  Te  Te163  1  0.00014970  0.17113815  0.33276667  1
  Te  Te164  1  0.00060686  0.16663641  0.66626576  1
  Te  Te165  1  -0.00562923  0.49868010  -0.00030577  1
  Te  Te166  1  0.00028087  0.49583858  0.33436473  1
  Te  Te167  1  0.00295383  0.49703590  0.66670823  1
  Te  Te168  1  0.00670479  0.83679431  0.00202732  1
  Te  Te169  1  0.00560100  0.83354489  0.33930008  1
  Te  Te170  1  0.00582070  0.83848439  0.66269096  1
  Te  Te171  1  0.32963742  0.16350893  0.00290031  1
  Te  Te172  1  0.32804229  0.16650812  0.32764415  1
  Te  Te173  1  0.33290653  0.15958558  0.66465112  1
  Te  Te174  1  0.33454458  0.50352228  0.00083133  1
  Te  Te175  1  0.32932169  0.50493513  0.33669411  1
  Te  Te176  1  0.32267473  0.50214144  0.66040061  1
  Te  Te177  1  0.32913759  0.83555789  0.00078753  1
  Te  Te178  1  0.32790152  0.83021538  0.33489872  1
  Te  Te179  1  0.32798256  0.83840474  0.66524605  1
  Te  Te180  1  0.66930834  0.16512687  0.00230981  1
  Te  Te181  1  0.66435141  0.16736827  0.33332404  1
  Te  Te182  1  0.66492004  0.16650297  0.65844183  1
  Te  Te183  1  0.67224815  0.49899546  0.00420564  1
  Te  Te184  1  0.67145020  0.49879969  0.32917325  1
  Te  Te185  1  0.66540436  0.50016958  0.66630657  1
  Te  Te186  1  0.66650181  0.83413274  0.00353910  1
  Te  Te187  1  0.66811921  0.83419863  0.32710403  1
  Te  Te188  1  0.66728220  0.83322226  0.66547007  1
  Te  Te189  1  0.00592701  -0.00049886  0.16438340  1
  Te  Te190  1  -0.00234497  -0.00630648  0.50547547  1
  Te  Te191  1  0.00104400  -0.00229847  0.83245495  1
  Te  Te192  1  0.00118326  0.33388871  0.16264944  1
  Te  Te193  1  0.00195029  0.33396726  0.50312153  1
  Te  Te194  1  0.00029579  0.33382868  0.83069649  1
  Te  Te195  1  -0.00099721  0.66849754  0.16704702  1
  Te  Te196  1  -0.00179944  0.66565664  0.50752108  1
  Te  Te197  1  0.00374347  0.66466031  0.82861124  1
  Te  Te198  1  0.33060842  0.00348147  0.16497553  1
  Te  Te199  1  0.33887496  -0.00376744  0.49976943  1
  Te  Te200  1  0.33084613  -0.00209484  0.83483597  1
  Te  Te201  1  0.33502670  0.32709720  0.16601528  1
  Te  Te202  1  0.33651788  0.33776119  0.50144096  1
  Te  Te203  1  0.33944508  0.33730176  0.83199141  1
  Te  Te204  1  0.33488157  0.66655893  0.16278947  1
  Te  Te205  1  0.33601783  0.66774154  0.50040769  1
  Te  Te206  1  0.32907771  0.67167095  0.83672373  1
  Te  Te207  1  0.66658142  0.00563526  0.16603618  1
  Te  Te208  1  0.66288133  0.00425451  0.49726272  1
  Te  Te209  1  0.66721492  -0.00117153  0.83909657  1
  Te  Te210  1  0.66633466  0.33096260  0.17384720  1
  Te  Te211  1  0.66315487  0.32938820  0.49629164  1
  Te  Te212  1  0.66176903  0.33377098  0.83282266  1
  Te  Te213  1  0.66503385  0.65946140  0.16117457  1
  Te  Te214  1  0.66142882  0.66732978  0.49999618  1
  Te  Te215  1  0.66562423  0.66691134  0.84024541  1
