# generated using pymatgen
data_AgSbTe2
_symmetry_space_group_name_H-M   'P 1'
_cell_length_a   18.35065190
_cell_length_b   18.35814124
_cell_length_c   18.36352420
_cell_angle_alpha   90.00116800
_cell_angle_beta   89.99697762
_cell_angle_gamma   89.99879617
_symmetry_Int_Tables_number   1
_chemical_formula_structural   AgSbTe2
_chemical_formula_sum   'Ag54 Sb54 Te108'
_cell_volume   6186.37489415
_cell_formula_units_Z   54
loop_
 _symmetry_equiv_pos_site_id
 _symmetry_equiv_pos_as_xyz
  1  'x, y, z'
loop_
 _atom_site_type_symbol
 _atom_site_label
 _atom_site_symmetry_multiplicity
 _atom_site_fract_x
 _atom_site_fract_y
 _atom_site_fract_z
 _atom_site_occupancy
  Ag  Ag0  1  0.84559596  0.50520289  -0.00225487  1
  Ag  Ag1  1  0.84295647  0.66573341  0.84015825  1
  Ag  Ag2  1  0.32932623  0.67213811  0.67258610  1
  Ag  Ag3  1  0.32488979  0.83669739  0.15652868  1
  Ag  Ag4  1  0.16218449  0.67259079  0.16356681  1
  Ag  Ag5  1  0.49035029  0.82946725  0.67567623  1
  Ag  Ag6  1  0.01248224  0.16699887  0.83960097  1
  Ag  Ag7  1  0.49276715  0.16733865  0.33559938  1
  Ag  Ag8  1  0.83791392  -0.00768446  0.49494088  1
  Ag  Ag9  1  0.32577237  0.00833662  -0.00201422  1
  Ag  Ag10  1  0.84386488  -0.00730383  0.16289627  1
  Ag  Ag11  1  -0.00090978  0.83174271  0.49227092  1
  Ag  Ag12  1  -0.00203948  0.67408093  -0.00109915  1
  Ag  Ag13  1  0.00438263  0.82724538  0.84335466  1
  Ag  Ag14  1  0.00188637  0.83339260  0.16185546  1
  Ag  Ag15  1  0.00399782  -0.00438560  0.00126866  1
  Ag  Ag16  1  0.33114229  0.49486718  0.83707792  1
  Ag  Ag17  1  0.84831871  0.16607604  -0.00029472  1
  Ag  Ag18  1  0.49128020  0.16829992  0.66759004  1
  Ag  Ag19  1  0.16435662  0.17691068  -0.00058495  1
  Ag  Ag20  1  0.33073837  0.83358504  0.51589976  1
  Ag  Ag21  1  0.33187831  0.17374857  0.83696754  1
  Ag  Ag22  1  0.66424580  0.17003682  0.15682073  1
  Ag  Ag23  1  0.84270130  0.82913302  0.00278557  1
  Ag  Ag24  1  0.66514264  0.49485583  0.15593683  1
  Ag  Ag25  1  0.33306168  0.00470780  0.67837725  1
  Ag  Ag26  1  0.17437227  0.16946527  0.67920303  1
  Ag  Ag27  1  0.17043205  0.32974746  0.50269976  1
  Ag  Ag28  1  0.49548950  0.50003125  0.67191256  1
  Ag  Ag29  1  0.33253078  0.32508848  0.67652898  1
  Ag  Ag30  1  0.32476388  0.32602414  -0.00455566  1
  Ag  Ag31  1  0.33067145  0.49503558  0.15617908  1
  Ag  Ag32  1  0.49322499  0.66623871  0.83193378  1
  Ag  Ag33  1  0.66434414  0.16750841  0.50088965  1
  Ag  Ag34  1  0.83932258  0.67307439  0.50063806  1
  Ag  Ag35  1  0.32955444  0.83244762  0.83469989  1
  Ag  Ag36  1  0.66374631  0.17389670  0.84008233  1
  Ag  Ag37  1  -0.00054577  -0.00541520  0.31672352  1
  Ag  Ag38  1  0.16254139  0.49034180  -0.00055064  1
  Ag  Ag39  1  0.66480625  0.49668438  0.83891476  1
  Ag  Ag40  1  0.84077020  0.83396098  0.31975550  1
  Ag  Ag41  1  0.00225193  0.50900691  0.83940705  1
  Ag  Ag42  1  0.16936240  0.32503588  0.15192192  1
  Ag  Ag43  1  -0.00136340  0.67686666  0.31866998  1
  Ag  Ag44  1  0.16873939  0.33095577  0.84093747  1
  Ag  Ag45  1  0.32475934  0.16493584  0.15641491  1
  Ag  Ag46  1  0.01244266  0.33168154  -0.00151904  1
  Ag  Ag47  1  0.16905125  0.16688830  0.31582096  1
  Ag  Ag48  1  0.48983954  0.83228333  -0.00663331  1
  Ag  Ag49  1  0.49088123  0.32838119  0.50552063  1
  Ag  Ag50  1  0.16341991  0.00329503  0.16348334  1
  Ag  Ag51  1  0.84314714  0.67474318  0.15771693  1
  Ag  Ag52  1  0.66635501  0.33248022  -0.00074803  1
  Ag  Ag53  1  0.00487872  0.66992484  0.68013370  1
  Sb  Sb54  1  0.67515174  0.66016136  -0.00092720  1
  Sb  Sb55  1  0.00037819  0.50660998  0.50917952  1
  Sb  Sb56  1  0.49994872  0.83792654  0.33273408  1
  Sb  Sb57  1  0.33235313  0.50158956  0.50577000  1
  Sb  Sb58  1  0.16908110  0.00704390  0.84059647  1
  Sb  Sb59  1  0.15911111  0.83791429  0.32976484  1
  Sb  Sb60  1  0.16406848  0.00319597  0.49689400  1
  Sb  Sb61  1  0.16141978  0.66508370  0.49691917  1
  Sb  Sb62  1  0.50187361  0.66493160  0.50773814  1
  Sb  Sb63  1  0.16512374  0.49505015  0.32267728  1
  Sb  Sb64  1  0.00970098  0.33579025  0.67513026  1
  Sb  Sb65  1  0.00371138  0.50797648  0.15594902  1
  Sb  Sb66  1  0.00444985  0.32882240  0.32471243  1
  Sb  Sb67  1  0.00388733  0.15855887  0.15712931  1
  Sb  Sb68  1  0.66154164  0.00220433  0.66761133  1
  Sb  Sb69  1  0.49126447  0.33682102  0.83147367  1
  Sb  Sb70  1  0.32590719  0.66594108  -0.00435816  1
  Sb  Sb71  1  0.49647579  -0.00287084  0.83382622  1
  Sb  Sb72  1  0.66892353  0.00528168  0.00126250  1
  Sb  Sb73  1  0.33385937  0.16377627  0.50477595  1
  Sb  Sb74  1  0.66614282  0.83107008  0.83657553  1
  Sb  Sb75  1  0.65757631  0.33177835  0.67452946  1
  Sb  Sb76  1  0.66647137  0.32957155  0.32719201  1
  Sb  Sb77  1  0.83922946  0.33338439  0.16054529  1
  Sb  Sb78  1  0.67008166  0.83720929  0.50176720  1
  Sb  Sb79  1  0.66603026  0.66633074  0.66994311  1
  Sb  Sb80  1  0.00622311  -0.00397160  0.67308678  1
  Sb  Sb81  1  0.16649407  0.66216070  0.83951677  1
  Sb  Sb82  1  0.83506053  0.33151885  0.49987372  1
  Sb  Sb83  1  0.17265486  0.49679463  0.67476827  1
  Sb  Sb84  1  0.83866034  0.33670655  0.83842320  1
  Sb  Sb85  1  0.83601957  -0.00271114  0.83902078  1
  Sb  Sb86  1  0.49623353  0.00281346  0.16416348  1
  Sb  Sb87  1  0.50059714  0.00474445  0.50143358  1
  Sb  Sb88  1  -0.00035306  0.16212860  0.50520070  1
  Sb  Sb89  1  0.32691840  0.66959581  0.33322904  1
  Sb  Sb90  1  0.83713386  0.51008736  0.31950809  1
  Sb  Sb91  1  0.66770489  0.49480022  0.50337515  1
  Sb  Sb92  1  0.67392484  0.66632399  0.33132474  1
  Sb  Sb93  1  0.67418765  0.00227916  0.33139826  1
  Sb  Sb94  1  0.83095168  0.50381490  0.67564203  1
  Sb  Sb95  1  0.83381663  0.83263634  0.67110417  1
  Sb  Sb96  1  0.17106343  0.83698084  0.66844256  1
  Sb  Sb97  1  0.49671428  0.50328805  -0.00679210  1
  Sb  Sb98  1  0.49771949  0.66684079  0.15866831  1
  Sb  Sb99  1  0.83377960  0.16459576  0.67427279  1
  Sb  Sb100  1  0.16475811  0.83534439  0.00064920  1
  Sb  Sb101  1  0.83663594  0.15966467  0.32519559  1
  Sb  Sb102  1  0.32668647  0.00182555  0.32942898  1
  Sb  Sb103  1  0.49880050  0.49528565  0.33647553  1
  Sb  Sb104  1  0.33178218  0.32998942  0.33012004  1
  Sb  Sb105  1  0.49450167  0.33174554  0.16598447  1
  Sb  Sb106  1  0.49342893  0.16492757  -0.00353846  1
  Sb  Sb107  1  0.67134983  0.83417639  0.16310190  1
  Te  Te108  1  0.16642616  0.16527118  0.16064315  1
  Te  Te109  1  0.16586495  0.16973077  0.50404596  1
  Te  Te110  1  0.17228718  0.16831973  0.83728267  1
  Te  Te111  1  0.17038452  0.49797001  0.16171845  1
  Te  Te112  1  0.16707420  0.49360486  0.49715867  1
  Te  Te113  1  0.16858530  0.49588421  0.83757229  1
  Te  Te114  1  0.16533675  0.83294860  0.16736513  1
  Te  Te115  1  0.16680800  0.83338973  0.49835039  1
  Te  Te116  1  0.16514216  0.83280535  0.83276993  1
  Te  Te117  1  0.50280460  0.16788483  0.17098784  1
  Te  Te118  1  0.50045893  0.16861969  0.50159776  1
  Te  Te119  1  0.49700564  0.16718041  0.82929318  1
  Te  Te120  1  0.49855125  0.50030690  0.16865036  1
  Te  Te121  1  0.50070543  0.49345927  0.50554946  1
  Te  Te122  1  0.49572330  0.50343110  0.82973280  1
  Te  Te123  1  0.49852612  0.83381486  0.16525326  1
  Te  Te124  1  0.49737633  0.83347848  0.49973167  1
  Te  Te125  1  0.50058837  0.83016890  0.83308088  1
  Te  Te126  1  0.82888531  0.16616830  0.16150570  1
  Te  Te127  1  0.83029785  0.16455784  0.49941867  1
  Te  Te128  1  0.82690566  0.16591028  0.83928540  1
  Te  Te129  1  0.82853200  0.50150439  0.15734618  1
  Te  Te130  1  0.83240607  0.50352741  0.49998028  1
  Te  Te131  1  0.83322513  0.50358198  0.83903020  1
  Te  Te132  1  0.83392423  0.83337369  0.16195312  1
  Te  Te133  1  0.83466769  0.83285473  0.50514151  1
  Te  Te134  1  0.83453587  0.82877975  0.83881157  1
  Te  Te135  1  0.16658771  0.00141999  0.00448056  1
  Te  Te136  1  0.15974298  0.00566613  0.32868705  1
  Te  Te137  1  0.17363550  0.00698330  0.66481338  1
  Te  Te138  1  0.16988375  0.33436393  -0.00301913  1
  Te  Te139  1  0.16587367  0.32620578  0.34010156  1
  Te  Te140  1  0.17232588  0.33018950  0.66552359  1
  Te  Te141  1  0.16010811  0.65935929  0.00577250  1
  Te  Te142  1  0.15954097  0.66438033  0.32751311  1
  Te  Te143  1  0.16690353  0.66559908  0.66497925  1
  Te  Te144  1  0.49210920  -0.00754447  0.00021228  1
  Te  Te145  1  0.50163730  0.00715726  0.33322044  1
  Te  Te146  1  0.49335996  0.00298386  0.66660704  1
  Te  Te147  1  0.50218444  0.33471841  -0.00002897  1
  Te  Te148  1  0.49982789  0.32734804  0.34184908  1
  Te  Te149  1  0.49345411  0.33019500  0.66561005  1
  Te  Te150  1  0.50203879  0.67304871  -0.00643716  1
  Te  Te151  1  0.50162743  0.66698780  0.33611997  1
  Te  Te152  1  0.49676654  0.66675338  0.67032644  1
  Te  Te153  1  0.83569709  0.00296459  0.00263540  1
  Te  Te154  1  0.84014260  -0.00459078  0.33173396  1
  Te  Te155  1  0.83329259  -0.00112246  0.66071572  1
  Te  Te156  1  0.82684597  0.32790398  -0.00005723  1
  Te  Te157  1  0.83583109  0.33474923  0.33245663  1
  Te  Te158  1  0.83403517  0.33469607  0.66604509  1
  Te  Te159  1  0.83626441  0.66653122  -0.00074568  1
  Te  Te160  1  0.83942064  0.67327355  0.33411712  1
  Te  Te161  1  0.83756791  0.66722535  0.66716234  1
  Te  Te162  1  0.00395583  0.16893409  -0.00218055  1
  Te  Te163  1  0.00475809  0.16118382  0.33589183  1
  Te  Te164  1  0.00248218  0.16626522  0.67588125  1
  Te  Te165  1  0.00153358  0.49455754  -0.00295753  1
  Te  Te166  1  -0.00063693  0.50266098  0.33756979  1
  Te  Te167  1  0.00022017  0.50502153  0.67722431  1
  Te  Te168  1  0.00059418  0.83415675  0.00149862  1
  Te  Te169  1  -0.00229190  0.83452382  0.33405081  1
  Te  Te170  1  0.00135346  0.82999779  0.67060391  1
  Te  Te171  1  0.33340567  0.16665716  -0.00182547  1
  Te  Te172  1  0.33117953  0.16547408  0.32781994  1
  Te  Te173  1  0.33301494  0.16582484  0.66633078  1
  Te  Te174  1  0.33307012  0.50041931  -0.00191162  1
  Te  Te175  1  0.33378020  0.50131039  0.32568266  1
  Te  Te176  1  0.33625258  0.50178130  0.67008916  1
  Te  Te177  1  0.33140177  0.83091218  -0.00208567  1
  Te  Te178  1  0.33424472  0.83392018  0.32751606  1
  Te  Te179  1  0.33316532  0.83292365  0.67213376  1
  Te  Te180  1  0.65758867  0.16906509  -0.00092270  1
  Te  Te181  1  0.66619533  0.16673251  0.33697536  1
  Te  Te182  1  0.66496971  0.16704341  0.66586088  1
  Te  Te183  1  0.66237277  0.49687494  -0.00228676  1
  Te  Te184  1  0.66736359  0.49828951  0.32844744  1
  Te  Te185  1  0.65948805  0.49907134  0.67319877  1
  Te  Te186  1  0.66699781  0.83647635  -0.00002489  1
  Te  Te187  1  0.67353285  0.83393197  0.33309740  1
  Te  Te188  1  0.65359097  0.83432034  0.66761453  1
  Te  Te189  1  0.00079411  -0.00193696  0.16139352  1
  Te  Te190  1  -0.00325222  -0.00619397  0.50572353  1
  Te  Te191  1  0.00086341  0.00057294  0.83942164  1
  Te  Te192  1  0.00736870  0.33686619  0.16068584  1
  Te  Te193  1  0.00339424  0.33425427  0.50160703  1
  Te  Te194  1  0.00429302  0.32778733  0.83815658  1
  Te  Te195  1  -0.00018692  0.66888565  0.16235594  1
  Te  Te196  1  -0.00191614  0.67107812  0.50319732  1
  Te  Te197  1  0.00231963  0.66745274  0.83781419  1
  Te  Te198  1  0.33006496  -0.00011575  0.16304105  1
  Te  Te199  1  0.33267316  -0.00690331  0.49835751  1
  Te  Te200  1  0.33322502  -0.00551292  0.83646335  1
  Te  Te201  1  0.32966831  0.33191534  0.16336595  1
  Te  Te202  1  0.33236528  0.33413370  0.50053793  1
  Te  Te203  1  0.33037860  0.33391285  0.83431833  1
  Te  Te204  1  0.33034684  0.67094409  0.16669327  1
  Te  Te205  1  0.33249136  0.67136545  0.50331850  1
  Te  Te206  1  0.33282992  0.66924084  0.83163935  1
  Te  Te207  1  0.67088205  0.00650577  0.16651299  1
  Te  Te208  1  0.67304343  0.00543244  0.50029598  1
  Te  Te209  1  0.66748995  0.00989549  0.83304234  1
  Te  Te210  1  0.66657627  0.33243724  0.16226949  1
  Te  Te211  1  0.66678293  0.32858346  0.50122178  1
  Te  Te212  1  0.66926618  0.33493740  0.83743797  1
  Te  Te213  1  0.66859595  0.66220369  0.16678268  1
  Te  Te214  1  0.67464317  0.66557536  0.50032671  1
  Te  Te215  1  0.66639291  0.66241797  0.83289523  1
