# generated using pymatgen
data_AgSbTe2
_symmetry_space_group_name_H-M   'P 1'
_cell_length_a   18.33206819
_cell_length_b   18.33457631
_cell_length_c   18.33379830
_cell_angle_alpha   90.00248521
_cell_angle_beta   89.99455083
_cell_angle_gamma   90.00008408
_symmetry_Int_Tables_number   1
_chemical_formula_structural   AgSbTe2
_chemical_formula_sum   'Ag54 Sb54 Te108'
_cell_volume   6162.18580461
_cell_formula_units_Z   54
loop_
 _symmetry_equiv_pos_site_id
 _symmetry_equiv_pos_as_xyz
  1  'x, y, z'
loop_
 _atom_site_type_symbol
 _atom_site_label
 _atom_site_symmetry_multiplicity
 _atom_site_fract_x
 _atom_site_fract_y
 _atom_site_fract_z
 _atom_site_occupancy
  Ag  Ag0  1  0.49037213  0.16753350  0.00220399  1
  Ag  Ag1  1  -0.00421397  0.33370417  0.65626554  1
  Ag  Ag2  1  0.16775749  0.16415804  0.66125691  1
  Ag  Ag3  1  0.33101581  0.00131658  0.65794598  1
  Ag  Ag4  1  0.49178381  0.83192962  0.33609768  1
  Ag  Ag5  1  0.49275467  0.16409564  0.32982627  1
  Ag  Ag6  1  0.49107954  0.66466565  0.16992419  1
  Ag  Ag7  1  0.32922163  0.50433838  0.49681155  1
  Ag  Ag8  1  0.00535761  0.83291978  0.17530530  1
  Ag  Ag9  1  0.16911243  0.83405739  0.65255838  1
  Ag  Ag10  1  0.66921624  0.66538852  0.65254876  1
  Ag  Ag11  1  0.84447253  0.82784690  0.33829164  1
  Ag  Ag12  1  0.65791227  0.16910976  0.83172554  1
  Ag  Ag13  1  0.33659009  0.16667513  0.83846219  1
  Ag  Ag14  1  -0.00090045  0.66371512  0.65343350  1
  Ag  Ag15  1  0.65467515  0.66638793  -0.00045513  1
  Ag  Ag16  1  0.17156493  0.66973459  0.17390245  1
  Ag  Ag17  1  0.66829475  0.66854817  0.34121163  1
  Ag  Ag18  1  0.67479980  0.33247206  0.66447073  1
  Ag  Ag19  1  0.00577962  0.33383390  0.33895682  1
  Ag  Ag20  1  0.84320518  0.33568897  0.50158260  1
  Ag  Ag21  1  0.66322842  0.82182204  0.49817348  1
  Ag  Ag22  1  0.32963148  0.00280048  0.33926275  1
  Ag  Ag23  1  0.82622162  0.66373521  0.49594847  1
  Ag  Ag24  1  -0.00151088  0.50260941  0.49794401  1
  Ag  Ag25  1  0.01213181  0.16699074  0.17004382  1
  Ag  Ag26  1  0.83271439  0.33072542  0.81911964  1
  Ag  Ag27  1  0.16620574  0.67025694  0.49673407  1
  Ag  Ag28  1  -0.00184859  0.67098820  0.33725856  1
  Ag  Ag29  1  0.67757133  0.50893574  0.49964685  1
  Ag  Ag30  1  0.17512921  0.16747309  -0.00101695  1
  Ag  Ag31  1  0.49326042  -0.00021145  0.83323564  1
  Ag  Ag32  1  0.33176624  0.33416998  0.00649263  1
  Ag  Ag33  1  0.17074597  0.83031102  0.00400231  1
  Ag  Ag34  1  0.00787458  -0.00974512  0.33664005  1
  Ag  Ag35  1  0.33403984  0.65993966  0.00217841  1
  Ag  Ag36  1  0.33342605  0.83384752  0.82811517  1
  Ag  Ag37  1  0.49245825  0.33391755  0.16904524  1
  Ag  Ag38  1  0.83317211  0.16879659  -0.00620473  1
  Ag  Ag39  1  0.16428948  0.33553789  0.49952435  1
  Ag  Ag40  1  0.33132726  0.17262174  0.16784484  1
  Ag  Ag41  1  0.51141388  0.66869168  0.49579952  1
  Ag  Ag42  1  0.33101414  0.32834312  0.33155920  1
  Ag  Ag43  1  0.33249120  0.49571776  0.16607166  1
  Ag  Ag44  1  0.33166862  0.16194922  0.49393513  1
  Ag  Ag45  1  0.16866877  -0.00740179  0.49834607  1
  Ag  Ag46  1  0.16663698  0.83152710  0.33580500  1
  Ag  Ag47  1  0.83957704  0.17126944  0.66505038  1
  Ag  Ag48  1  0.49622238  0.67011748  0.83547914  1
  Ag  Ag49  1  0.84147871  -0.00474745  0.49889733  1
  Ag  Ag50  1  0.17413026  0.50267111  0.00166359  1
  Ag  Ag51  1  0.33267340  0.50005158  0.84340402  1
  Ag  Ag52  1  0.32965521  0.83065321  0.49774352  1
  Ag  Ag53  1  0.83701532  0.50754329  0.33915140  1
  Sb  Sb54  1  0.00816821  0.49981876  0.17486157  1
  Sb  Sb55  1  0.00683976  0.33128483  0.00305316  1
  Sb  Sb56  1  0.00614069  0.00145949  0.65636468  1
  Sb  Sb57  1  0.16640947  0.50512619  0.33493669  1
  Sb  Sb58  1  0.49447562  0.83259473  0.00350447  1
  Sb  Sb59  1  0.66202570  0.33596951  -0.00382355  1
  Sb  Sb60  1  0.83593099  0.66607615  0.17527797  1
  Sb  Sb61  1  0.00756225  0.66607985  0.00494727  1
  Sb  Sb62  1  0.83194247  0.33087643  0.17188347  1
  Sb  Sb63  1  0.16539917  0.33189384  0.82890318  1
  Sb  Sb64  1  0.66226315  -0.00124336  0.66329872  1
  Sb  Sb65  1  0.33163897  0.00298320  0.00043051  1
  Sb  Sb66  1  0.49871268  0.50154246  0.66429384  1
  Sb  Sb67  1  0.82815953  0.00623802  0.82556802  1
  Sb  Sb68  1  0.00828844  0.83140398  0.83544374  1
  Sb  Sb69  1  0.66300410  0.16827778  0.50308480  1
  Sb  Sb70  1  0.66875588  0.82822246  0.17447104  1
  Sb  Sb71  1  0.33306201  0.66677560  0.33360326  1
  Sb  Sb72  1  0.00727293  0.17314145  0.49497617  1
  Sb  Sb73  1  0.49541189  0.16652189  0.66696499  1
  Sb  Sb74  1  0.49576287  0.33797939  0.49642569  1
  Sb  Sb75  1  0.65903991  0.83368565  0.82700663  1
  Sb  Sb76  1  0.17373965  0.66724480  0.83192423  1
  Sb  Sb77  1  0.49370499  0.49940901  0.00110257  1
  Sb  Sb78  1  0.66456246  -0.00603269  0.33768024  1
  Sb  Sb79  1  0.49855179  0.50392202  0.33461610  1
  Sb  Sb80  1  0.66151988  0.49755950  0.82737943  1
  Sb  Sb81  1  0.33003271  0.32813319  0.66304909  1
  Sb  Sb82  1  0.32917150  0.83096259  0.17057844  1
  Sb  Sb83  1  0.49509516  -0.00019056  0.16598443  1
  Sb  Sb84  1  0.83708965  0.83476441  0.00525661  1
  Sb  Sb85  1  0.83309635  0.16620426  0.33862642  1
  Sb  Sb86  1  0.83819408  0.49712500  0.00522662  1
  Sb  Sb87  1  0.17275310  0.16322207  0.33594736  1
  Sb  Sb88  1  0.83701439  0.00169263  0.17460257  1
  Sb  Sb89  1  0.00246400  0.16721237  0.83406805  1
  Sb  Sb90  1  0.17258712  0.33460259  0.17272336  1
  Sb  Sb91  1  0.82552148  0.66244434  0.82371727  1
  Sb  Sb92  1  0.49272458  0.83124651  0.66038281  1
  Sb  Sb93  1  0.16822894  -0.00280604  0.17291949  1
  Sb  Sb94  1  0.00532987  0.82341124  0.49409887  1
  Sb  Sb95  1  0.00230779  0.00230243  0.00683336  1
  Sb  Sb96  1  0.66501045  -0.00179656  -0.00254693  1
  Sb  Sb97  1  0.66501136  0.33860200  0.34012269  1
  Sb  Sb98  1  0.49834810  0.33221163  0.83576909  1
  Sb  Sb99  1  0.16733660  0.50120637  0.66370077  1
  Sb  Sb100  1  0.66020274  0.50300573  0.17202698  1
  Sb  Sb101  1  0.83984819  0.83653544  0.65702468  1
  Sb  Sb102  1  0.66110489  0.16881414  0.16212400  1
  Sb  Sb103  1  0.33225666  0.66998664  0.66506408  1
  Sb  Sb104  1  0.17338954  0.00038745  0.82567293  1
  Sb  Sb105  1  0.83318951  0.49266367  0.65806317  1
  Sb  Sb106  1  0.00407939  0.49935890  0.82690060  1
  Sb  Sb107  1  0.49276707  -0.00457056  0.50142934  1
  Te  Te108  1  0.16964263  0.16662296  0.16388686  1
  Te  Te109  1  0.17258740  0.16968756  0.50168532  1
  Te  Te110  1  0.17057629  0.16616412  0.83455364  1
  Te  Te111  1  0.17235835  0.50419534  0.16259399  1
  Te  Te112  1  0.16764483  0.49903854  0.50032164  1
  Te  Te113  1  0.17214171  0.49932047  0.83865000  1
  Te  Te114  1  0.16482177  0.83125419  0.16730157  1
  Te  Te115  1  0.16834157  0.83295718  0.49669112  1
  Te  Te116  1  0.17402395  0.83431126  0.84181202  1
  Te  Te117  1  0.49577818  0.16662688  0.16586404  1
  Te  Te118  1  0.49371408  0.16622437  0.49594262  1
  Te  Te119  1  0.49740191  0.16763694  0.83418844  1
  Te  Te120  1  0.49303418  0.50198558  0.16774920  1
  Te  Te121  1  0.49233171  0.50713057  0.49870923  1
  Te  Te122  1  0.49351639  0.50574570  0.83334954  1
  Te  Te123  1  0.49984089  0.82853774  0.17275504  1
  Te  Te124  1  0.49639725  0.83012493  0.49600679  1
  Te  Te125  1  0.49405138  0.83223890  0.83473729  1
  Te  Te126  1  0.83149125  0.16666108  0.16280692  1
  Te  Te127  1  0.83064573  0.17242723  0.50390569  1
  Te  Te128  1  0.83545793  0.16933496  0.83153466  1
  Te  Te129  1  0.83395615  0.49840138  0.17458492  1
  Te  Te130  1  0.83540491  0.50125210  0.49779658  1
  Te  Te131  1  0.83293319  0.49338625  0.83740304  1
  Te  Te132  1  0.84062001  0.83389616  0.17425866  1
  Te  Te133  1  0.83203497  0.83087618  0.49725434  1
  Te  Te134  1  0.83125031  0.83497430  0.83448792  1
  Te  Te135  1  0.16560995  0.00257259  -0.00123707  1
  Te  Te136  1  0.16742664  -0.00324662  0.33826899  1
  Te  Te137  1  0.17090975  0.00059623  0.66007716  1
  Te  Te138  1  0.17212735  0.32902784  -0.00086786  1
  Te  Te139  1  0.16708140  0.33292521  0.33829507  1
  Te  Te140  1  0.16191399  0.33024419  0.66167216  1
  Te  Te141  1  0.17098444  0.66749984  -0.00074914  1
  Te  Te142  1  0.16609452  0.66972211  0.33314557  1
  Te  Te143  1  0.16287084  0.66966999  0.66463248  1
  Te  Te144  1  0.50033652  0.00499145  -0.00444110  1
  Te  Te145  1  0.49566937  -0.00153403  0.33385576  1
  Te  Te146  1  0.49289698  -0.00135020  0.67263057  1
  Te  Te147  1  0.49479346  0.32827236  0.00324658  1
  Te  Te148  1  0.49733866  0.33055004  0.32983479  1
  Te  Te149  1  0.50978888  0.33355292  0.66698122  1
  Te  Te150  1  0.49453512  0.66726365  0.00220154  1
  Te  Te151  1  0.49962616  0.66902798  0.33418183  1
  Te  Te152  1  0.50557299  0.66796009  0.66310323  1
  Te  Te153  1  0.83354017  0.00496272  -0.00090000  1
  Te  Te154  1  0.83457592  -0.00310429  0.34076244  1
  Te  Te155  1  0.83406898  0.00649871  0.65876330  1
  Te  Te156  1  0.83346744  0.32952209  0.00299210  1
  Te  Te157  1  0.83345599  0.33504873  0.33932964  1
  Te  Te158  1  0.83522077  0.33003853  0.66283920  1
  Te  Te159  1  0.83497133  0.66669681  -0.00055921  1
  Te  Te160  1  0.83505777  0.66769305  0.33559265  1
  Te  Te161  1  0.83465865  0.66872896  0.66041548  1
  Te  Te162  1  -0.00131498  0.16740701  0.00630450  1
  Te  Te163  1  -0.00194581  0.17123120  0.32856328  1
  Te  Te164  1  0.00321731  0.16888357  0.66709086  1
  Te  Te165  1  0.00822073  0.49897418  0.00068038  1
  Te  Te166  1  -0.00113628  0.49805424  0.33748546  1
  Te  Te167  1  0.00062680  0.50047759  0.66063600  1
  Te  Te168  1  0.00581154  0.83422264  0.00747466  1
  Te  Te169  1  0.00282867  0.83219110  0.33311252  1
  Te  Te170  1  0.00804143  0.83077777  0.67060701  1
  Te  Te171  1  0.33315678  0.16523986  -0.00122301  1
  Te  Te172  1  0.33341329  0.16804876  0.33441109  1
  Te  Te173  1  0.32940156  0.16396482  0.66785515  1
  Te  Te174  1  0.33193627  0.49955626  0.00132198  1
  Te  Te175  1  0.33271198  0.49285005  0.33411504  1
  Te  Te176  1  0.33219955  0.49785631  0.66206254  1
  Te  Te177  1  0.33011787  0.83244516  0.00080491  1
  Te  Te178  1  0.33105907  0.83444974  0.33533672  1
  Te  Te179  1  0.32800260  0.83627943  0.66681838  1
  Te  Te180  1  0.66983392  0.16701817  -0.00572941  1
  Te  Te181  1  0.65873306  0.16651667  0.33221320  1
  Te  Te182  1  0.66689995  0.16695329  0.67074927  1
  Te  Te183  1  0.66883608  0.50531338  -0.00035537  1
  Te  Te184  1  0.66999592  0.50636160  0.33855957  1
  Te  Te185  1  0.66634042  0.50348463  0.66179548  1
  Te  Te186  1  0.66822562  0.82783227  -0.00041307  1
  Te  Te187  1  0.66427892  0.82855746  0.33869956  1
  Te  Te188  1  0.66880799  0.82896534  0.66066089  1
  Te  Te189  1  0.00138882  0.00265693  0.17612702  1
  Te  Te190  1  0.00213865  0.00474491  0.49467512  1
  Te  Te191  1  -0.00193383  -0.00176377  0.83192024  1
  Te  Te192  1  0.00068314  0.32970996  0.17294460  1
  Te  Te193  1  0.00156229  0.33422447  0.49884003  1
  Te  Te194  1  -0.00658998  0.33433063  0.83039172  1
  Te  Te195  1  0.00530841  0.66800359  0.17245076  1
  Te  Te196  1  0.00565764  0.66393095  0.49675100  1
  Te  Te197  1  -0.00398366  0.66539651  0.82959910  1
  Te  Te198  1  0.33311964  0.00958408  0.17566547  1
  Te  Te199  1  0.33219477  -0.00127152  0.49896049  1
  Te  Te200  1  0.33569237  0.00079291  0.83440378  1
  Te  Te201  1  0.33333817  0.33320344  0.16682914  1
  Te  Te202  1  0.33152207  0.33587657  0.49860603  1
  Te  Te203  1  0.33308857  0.33376264  0.83430586  1
  Te  Te204  1  0.33139868  0.66655075  0.16588174  1
  Te  Te205  1  0.32492728  0.66795544  0.50104631  1
  Te  Te206  1  0.33729752  0.66633107  0.83226849  1
  Te  Te207  1  0.66738180  -0.00181576  0.16684362  1
  Te  Te208  1  0.67194106  -0.00162407  0.50088157  1
  Te  Te209  1  0.65951316  0.00571091  0.83148481  1
  Te  Te210  1  0.65695684  0.33566214  0.16658254  1
  Te  Te211  1  0.66571413  0.33669761  0.50500857  1
  Te  Te212  1  0.67014436  0.33029317  0.82896112  1
  Te  Te213  1  0.66237007  0.66579887  0.16185357  1
  Te  Te214  1  0.66794250  0.66526208  0.49698234  1
  Te  Te215  1  0.65949971  0.66566821  0.83843275  1
