# generated using pymatgen
data_AgSbTe2
_symmetry_space_group_name_H-M   'P 1'
_cell_length_a   18.30843815
_cell_length_b   18.31244674
_cell_length_c   18.31043986
_cell_angle_alpha   89.99885958
_cell_angle_beta   90.00079851
_cell_angle_gamma   90.00265855
_symmetry_Int_Tables_number   1
_chemical_formula_structural   AgSbTe2
_chemical_formula_sum   'Ag54 Sb54 Te108'
_cell_volume   6138.98325102
_cell_formula_units_Z   54
loop_
 _symmetry_equiv_pos_site_id
 _symmetry_equiv_pos_as_xyz
  1  'x, y, z'
loop_
 _atom_site_type_symbol
 _atom_site_label
 _atom_site_symmetry_multiplicity
 _atom_site_fract_x
 _atom_site_fract_y
 _atom_site_fract_z
 _atom_site_occupancy
  Ag  Ag0  1  0.15979767  0.66977541  0.83600484  1
  Ag  Ag1  1  -0.00142810  0.84067130  0.50563716  1
  Ag  Ag2  1  0.32890424  0.32494967  0.66394665  1
  Ag  Ag3  1  0.67258762  0.50589129  0.16702414  1
  Ag  Ag4  1  0.33753969  0.83342808  0.83181553  1
  Ag  Ag5  1  0.67471245  -0.00488633  -0.00414836  1
  Ag  Ag6  1  0.00232931  0.33811718  0.66436335  1
  Ag  Ag7  1  -0.00591820  0.50154318  0.16507953  1
  Ag  Ag8  1  -0.00080329  -0.00237051  0.66520044  1
  Ag  Ag9  1  0.49974964  0.83249589  0.66858317  1
  Ag  Ag10  1  0.83596937  0.15983867  0.32750232  1
  Ag  Ag11  1  0.49618201  0.00425174  0.50347532  1
  Ag  Ag12  1  0.49159537  0.33123051  0.50270884  1
  Ag  Ag13  1  -0.00086240  -0.00103290  0.33255543  1
  Ag  Ag14  1  0.83819599  -0.00146007  0.16276374  1
  Ag  Ag15  1  0.66511745  0.15747304  0.83516979  1
  Ag  Ag16  1  0.33314552  0.67035701  0.33865016  1
  Ag  Ag17  1  0.33296617  0.00328699  0.66417711  1
  Ag  Ag18  1  0.32936125  0.16864207  0.50739953  1
  Ag  Ag19  1  0.33149496  0.83419535  0.16141761  1
  Ag  Ag20  1  0.33361320  0.16405922  0.82759774  1
  Ag  Ag21  1  0.32887671  -0.00027506  0.33811437  1
  Ag  Ag22  1  0.00552712  0.16408707  0.50508283  1
  Ag  Ag23  1  0.16593822  0.67531685  0.15761554  1
  Ag  Ag24  1  0.50337713  0.50421248  0.66234572  1
  Ag  Ag25  1  0.17130979  0.33022186  0.50450359  1
  Ag  Ag26  1  0.15961724  0.83677118  0.00016407  1
  Ag  Ag27  1  0.83480811  0.15726415  -0.00009363  1
  Ag  Ag28  1  0.33123034  0.67031914  0.66909367  1
  Ag  Ag29  1  0.00085630  0.66243604  0.67275800  1
  Ag  Ag30  1  0.33186375  0.32572566  -0.00596862  1
  Ag  Ag31  1  -0.00340968  0.50500574  0.82674153  1
  Ag  Ag32  1  0.83347844  0.83825056  -0.00136585  1
  Ag  Ag33  1  0.49857742  0.66861763  0.83095685  1
  Ag  Ag34  1  0.49695230  0.16516130  -0.00427818  1
  Ag  Ag35  1  0.83734887  0.66683997  0.83365729  1
  Ag  Ag36  1  0.33402746  0.32935758  0.34218234  1
  Ag  Ag37  1  -0.00599080  -0.00513742  0.00172960  1
  Ag  Ag38  1  -0.00482819  0.49859918  0.50939872  1
  Ag  Ag39  1  0.15982362  -0.00445160  0.16242767  1
  Ag  Ag40  1  0.67523962  0.67732805  -0.00364999  1
  Ag  Ag41  1  0.83507382  0.83815885  0.32446316  1
  Ag  Ag42  1  -0.00245845  0.67358443  -0.00869947  1
  Ag  Ag43  1  0.83482027  0.32968113  0.16198212  1
  Ag  Ag44  1  0.66637464  0.49919825  0.50201621  1
  Ag  Ag45  1  0.16912261  0.16595681  0.66991881  1
  Ag  Ag46  1  0.83522027  0.33590374  0.83502144  1
  Ag  Ag47  1  0.66730880  0.83525118  0.83650109  1
  Ag  Ag48  1  0.66947366  -0.00312852  0.67269332  1
  Ag  Ag49  1  0.49964195  0.50034648  0.34281075  1
  Ag  Ag50  1  0.83479307  0.83201891  0.67251906  1
  Ag  Ag51  1  0.16565969  0.15920599  -0.00633866  1
  Ag  Ag52  1  0.67060972  0.83207155  0.15369043  1
  Ag  Ag53  1  0.83661668  0.50417442  0.66926625  1
  Sb  Sb54  1  0.00148795  0.33201429  -0.00425095  1
  Sb  Sb55  1  0.50108032  0.49776536  -0.00326881  1
  Sb  Sb56  1  0.83091929  0.50131245  0.33536930  1
  Sb  Sb57  1  0.50317651  0.83744338  -0.00681776  1
  Sb  Sb58  1  0.16445327  0.16439130  0.33609196  1
  Sb  Sb59  1  -0.00104283  0.83324799  0.16436496  1
  Sb  Sb60  1  0.83557960  0.66685534  0.50736146  1
  Sb  Sb61  1  0.50091074  0.33537891  0.82842348  1
  Sb  Sb62  1  0.16706928  0.00384607  0.49993533  1
  Sb  Sb63  1  0.49853349  0.66468679  0.50688794  1
  Sb  Sb64  1  0.49297738  0.16409155  0.67042963  1
  Sb  Sb65  1  -0.00430324  0.82747602  0.83108815  1
  Sb  Sb66  1  0.50077591  0.16865979  0.33304109  1
  Sb  Sb67  1  0.16234040  0.49671477  0.66656693  1
  Sb  Sb68  1  0.67007027  0.83101270  0.50478640  1
  Sb  Sb69  1  0.00347132  0.67119402  0.33374558  1
  Sb  Sb70  1  0.32992268  0.50166187  0.82955256  1
  Sb  Sb71  1  0.66809913  0.67083298  0.67426972  1
  Sb  Sb72  1  0.00058478  0.16901732  0.82984055  1
  Sb  Sb73  1  0.16376010  0.33186293  0.16743954  1
  Sb  Sb74  1  0.49679711  0.66772955  0.16143327  1
  Sb  Sb75  1  0.66380425  0.66665154  0.32726126  1
  Sb  Sb76  1  0.83229879  -0.00243116  0.83798756  1
  Sb  Sb77  1  0.16577366  0.66287151  0.50390236  1
  Sb  Sb78  1  0.16359281  0.83548983  0.32712605  1
  Sb  Sb79  1  0.16415969  0.33444862  0.82942579  1
  Sb  Sb80  1  0.16914941  0.50061011  0.33427582  1
  Sb  Sb81  1  0.83553027  0.33337266  0.50210838  1
  Sb  Sb82  1  0.50074590  -0.00176103  0.16861046  1
  Sb  Sb83  1  0.50054183  0.83071293  0.33878598  1
  Sb  Sb84  1  0.16478651  0.50245971  -0.00080247  1
  Sb  Sb85  1  0.67045563  0.16294476  0.15937692  1
  Sb  Sb86  1  0.66776314  0.33129284  0.66787610  1
  Sb  Sb87  1  0.83482982  -0.00067038  0.49778359  1
  Sb  Sb88  1  0.66625069  0.16761745  0.50716813  1
  Sb  Sb89  1  0.33156994  0.16210089  0.16549741  1
  Sb  Sb90  1  0.33480641  0.49204360  0.50199557  1
  Sb  Sb91  1  0.83412748  0.50227860  -0.00412241  1
  Sb  Sb92  1  0.33260925  0.00267047  -0.00165239  1
  Sb  Sb93  1  -0.00177485  0.16603483  0.16792840  1
  Sb  Sb94  1  0.33022359  0.66760321  -0.00527153  1
  Sb  Sb95  1  0.16486862  0.83618676  0.67350741  1
  Sb  Sb96  1  0.50053050  -0.00406364  0.82770246  1
  Sb  Sb97  1  0.66505544  0.33386785  0.33337363  1
  Sb  Sb98  1  0.66977475  -0.00169531  0.33257203  1
  Sb  Sb99  1  0.50242901  0.33531634  0.16890187  1
  Sb  Sb100  1  0.67120969  0.50383807  0.83218564  1
  Sb  Sb101  1  0.83878182  0.16407785  0.67072245  1
  Sb  Sb102  1  0.83780034  0.66956632  0.15980199  1
  Sb  Sb103  1  0.32877693  0.83898247  0.50391337  1
  Sb  Sb104  1  0.66665070  0.33050234  -0.00099009  1
  Sb  Sb105  1  0.33250498  0.50424248  0.16899043  1
  Sb  Sb106  1  0.16709135  -0.00484475  0.83745370  1
  Sb  Sb107  1  0.00261600  0.33010769  0.33995876  1
  Te  Te108  1  0.16519963  0.16288109  0.15944222  1
  Te  Te109  1  0.16694503  0.16946493  0.50275757  1
  Te  Te110  1  0.17080437  0.16693895  0.83306490  1
  Te  Te111  1  0.16216836  0.50173783  0.16683958  1
  Te  Te112  1  0.15828187  0.49306768  0.49944730  1
  Te  Te113  1  0.15910053  0.50776159  0.83354882  1
  Te  Te114  1  0.16727663  0.83439126  0.16145070  1
  Te  Te115  1  0.15829425  0.83207659  0.49942114  1
  Te  Te116  1  0.17451622  0.82892226  0.84009314  1
  Te  Te117  1  0.50151784  0.16726817  0.15920092  1
  Te  Te118  1  0.49746338  0.16796275  0.49962138  1
  Te  Te119  1  0.49896802  0.16871388  0.83722893  1
  Te  Te120  1  0.50532790  0.50053151  0.16943689  1
  Te  Te121  1  0.50085671  0.49866548  0.50249421  1
  Te  Te122  1  0.50160409  0.50529799  0.82734110  1
  Te  Te123  1  0.49995695  0.83339491  0.16967723  1
  Te  Te124  1  0.50054368  0.83706721  0.50734641  1
  Te  Te125  1  0.49900826  0.82996515  0.82795910  1
  Te  Te126  1  0.83343650  0.16569359  0.16474038  1
  Te  Te127  1  0.83552155  0.16744230  0.49655974  1
  Te  Te128  1  0.83217359  0.17056232  0.83736750  1
  Te  Te129  1  0.83234654  0.49976884  0.16760036  1
  Te  Te130  1  0.83294983  0.49961056  0.50406899  1
  Te  Te131  1  0.83606108  0.49999967  0.82958919  1
  Te  Te132  1  0.83223291  0.83536220  0.16244159  1
  Te  Te133  1  0.83803985  0.83303227  0.50673379  1
  Te  Te134  1  0.82924433  0.83046602  0.83382390  1
  Te  Te135  1  0.16602181  -0.00152635  0.00298284  1
  Te  Te136  1  0.16611043  0.00045543  0.32611818  1
  Te  Te137  1  0.16600372  0.00438868  0.66734242  1
  Te  Te138  1  0.17056185  0.32850570  -0.00023279  1
  Te  Te139  1  0.17359986  0.33222959  0.33668830  1
  Te  Te140  1  0.16669992  0.32979477  0.66501373  1
  Te  Te141  1  0.16424225  0.66913248  -0.00129506  1
  Te  Te142  1  0.17328707  0.66813761  0.32969331  1
  Te  Te143  1  0.16661490  0.66684754  0.67117630  1
  Te  Te144  1  0.50482012  0.00608619  0.00067236  1
  Te  Te145  1  0.49554721  -0.00018671  0.33984414  1
  Te  Te146  1  0.49552515  -0.00187314  0.66350164  1
  Te  Te147  1  0.49490699  0.32881412  -0.00042237  1
  Te  Te148  1  0.49510769  0.33656138  0.33697227  1
  Te  Te149  1  0.49731354  0.33672214  0.66263146  1
  Te  Te150  1  0.50121929  0.66647164  -0.00766327  1
  Te  Te151  1  0.49385144  0.66215695  0.33325103  1
  Te  Te152  1  0.49999314  0.66808294  0.67064642  1
  Te  Te153  1  0.83462447  -0.00176767  0.00151965  1
  Te  Te154  1  0.83620124  -0.00165051  0.33029771  1
  Te  Te155  1  0.83575417  -0.00385876  0.66565061  1
  Te  Te156  1  0.83496185  0.33151048  0.00024355  1
  Te  Te157  1  0.83413530  0.33155711  0.32819624  1
  Te  Te158  1  0.83627046  0.33520224  0.66969054  1
  Te  Te159  1  0.83615186  0.66903991  -0.00437191  1
  Te  Te160  1  0.83330587  0.67399104  0.33310124  1
  Te  Te161  1  0.83575759  0.66796434  0.67175852  1
  Te  Te162  1  -0.00015884  0.16333893  -0.00116397  1
  Te  Te163  1  -0.00355322  0.16217817  0.33812032  1
  Te  Te164  1  0.00345854  0.16463299  0.66453329  1
  Te  Te165  1  -0.00009005  0.50283376  0.00212135  1
  Te  Te166  1  -0.00076537  0.50070432  0.33302717  1
  Te  Te167  1  -0.00134594  0.50108223  0.66646849  1
  Te  Te168  1  -0.00071408  0.83394910  -0.00126579  1
  Te  Te169  1  -0.00463036  0.83777207  0.33853820  1
  Te  Te170  1  -0.00088777  0.83506630  0.66575908  1
  Te  Te171  1  0.33083843  0.16756468  -0.00130482  1
  Te  Te172  1  0.33420172  0.16414478  0.33614737  1
  Te  Te173  1  0.33209504  0.16565495  0.66793883  1
  Te  Te174  1  0.33429714  0.49014790  0.00013002  1
  Te  Te175  1  0.33816770  0.50152885  0.33403888  1
  Te  Te176  1  0.33668728  0.50501488  0.66624410  1
  Te  Te177  1  0.33448194  0.83403076  -0.00122366  1
  Te  Te178  1  0.33411729  0.83530155  0.33349065  1
  Te  Te179  1  0.33213677  0.83292495  0.66888117  1
  Te  Te180  1  0.67276388  0.16375231  -0.00521072  1
  Te  Te181  1  0.67380800  0.16570397  0.33406644  1
  Te  Te182  1  0.66746868  0.15960239  0.67362768  1
  Te  Te183  1  0.66616064  0.50316444  0.00498921  1
  Te  Te184  1  0.66249160  0.50124504  0.33350564  1
  Te  Te185  1  0.66831569  0.50007466  0.66411663  1
  Te  Te186  1  0.66570021  0.83480051  -0.00214325  1
  Te  Te187  1  0.67269277  0.83271372  0.33238950  1
  Te  Te188  1  0.66883750  0.83729763  0.66863775  1
  Te  Te189  1  -0.00102059  -0.00018454  0.16566571  1
  Te  Te190  1  0.00083491  0.00178925  0.50159753  1
  Te  Te191  1  0.00076722  0.00008212  0.83117756  1
  Te  Te192  1  -0.00444734  0.33898914  0.16776017  1
  Te  Te193  1  0.00147445  0.33215483  0.50480958  1
  Te  Te194  1  -0.00362492  0.33940785  0.82797837  1
  Te  Te195  1  0.00515124  0.66337518  0.16652277  1
  Te  Te196  1  0.00168232  0.66244125  0.50435697  1
  Te  Te197  1  -0.00081178  0.66643423  0.83270025  1
  Te  Te198  1  0.33276862  -0.00527392  0.16979001  1
  Te  Te199  1  0.33275346  0.00409661  0.50128864  1
  Te  Te200  1  0.33374789  0.00103011  0.82819682  1
  Te  Te201  1  0.33299045  0.33414426  0.16978905  1
  Te  Te202  1  0.33228279  0.33047429  0.50270354  1
  Te  Te203  1  0.33275594  0.33082078  0.82941166  1
  Te  Te204  1  0.32863246  0.67172351  0.16562701  1
  Te  Te205  1  0.33183758  0.66718101  0.50204864  1
  Te  Te206  1  0.33429469  0.66795139  0.82945121  1
  Te  Te207  1  0.66977400  -0.00498591  0.16437445  1
  Te  Te208  1  0.66041593  0.00015853  0.50465572  1
  Te  Te209  1  0.66612596  -0.00190506  0.83304319  1
  Te  Te210  1  0.67277804  0.33755672  0.16602894  1
  Te  Te211  1  0.66160103  0.33775054  0.50045098  1
  Te  Te212  1  0.67272254  0.33092898  0.83397305  1
  Te  Te213  1  0.66606461  0.66883159  0.15975667  1
  Te  Te214  1  0.66650096  0.65994712  0.49831152  1
  Te  Te215  1  0.66981501  0.66986698  0.83793738  1
