# generated using pymatgen
data_AgSbTe2
_symmetry_space_group_name_H-M   'P 1'
_cell_length_a   18.37764909
_cell_length_b   18.37303912
_cell_length_c   18.38329474
_cell_angle_alpha   90.00227822
_cell_angle_beta   89.99799494
_cell_angle_gamma   89.99758580
_symmetry_Int_Tables_number   1
_chemical_formula_structural   AgSbTe2
_chemical_formula_sum   'Ag54 Sb54 Te108'
_cell_volume   6207.17948771
_cell_formula_units_Z   54
loop_
 _symmetry_equiv_pos_site_id
 _symmetry_equiv_pos_as_xyz
  1  'x, y, z'
loop_
 _atom_site_type_symbol
 _atom_site_label
 _atom_site_symmetry_multiplicity
 _atom_site_fract_x
 _atom_site_fract_y
 _atom_site_fract_z
 _atom_site_occupancy
  Ag  Ag0  1  0.66341183  0.16656764  0.84301961  1
  Ag  Ag1  1  0.49907180  0.83797985  0.32908281  1
  Ag  Ag2  1  0.34091875  0.16346218  0.17226924  1
  Ag  Ag3  1  0.50531568  -0.00466408  0.16835431  1
  Ag  Ag4  1  0.00139403  0.67277246  0.32600032  1
  Ag  Ag5  1  0.83183148  0.00453297  0.48330896  1
  Ag  Ag6  1  0.00557388  0.82626073  0.16756892  1
  Ag  Ag7  1  0.66436472  0.00378514  0.00449424  1
  Ag  Ag8  1  0.00749170  0.50011488  0.84800096  1
  Ag  Ag9  1  0.65724557  0.16544464  0.48536625  1
  Ag  Ag10  1  0.50116161  0.15986377  0.33271288  1
  Ag  Ag11  1  0.50464553  0.16506332  0.64818054  1
  Ag  Ag12  1  0.32136135  0.51020713  0.16647417  1
  Ag  Ag13  1  0.83094611  0.32916530  0.83910107  1
  Ag  Ag14  1  0.66151878  0.16763999  0.16662083  1
  Ag  Ag15  1  0.84320168  0.49838474  0.00844055  1
  Ag  Ag16  1  0.32927233  0.82671892  0.16920515  1
  Ag  Ag17  1  0.16706311  0.35167609  0.17096870  1
  Ag  Ag18  1  0.50239201  0.00983190  0.49118337  1
  Ag  Ag19  1  -0.00535110  -0.00261371  0.33253099  1
  Ag  Ag20  1  0.16013907  0.00464486  0.49158999  1
  Ag  Ag21  1  0.84127142  0.83990308  0.32310833  1
  Ag  Ag22  1  0.49808165  0.66779947  0.48156795  1
  Ag  Ag23  1  0.33650053  0.66802223  0.32905164  1
  Ag  Ag24  1  0.49834483  0.67801695  0.16703342  1
  Ag  Ag25  1  0.83097455  0.16021049  0.32614065  1
  Ag  Ag26  1  0.17051550  0.32465456  0.48811772  1
  Ag  Ag27  1  0.68034224  0.50206498  0.16743593  1
  Ag  Ag28  1  0.32588415  0.50254436  0.84614699  1
  Ag  Ag29  1  0.82859312  -0.01192633  0.16795978  1
  Ag  Ag30  1  0.15724257  0.66525791  0.16838897  1
  Ag  Ag31  1  0.82855124  0.16526576  0.00929502  1
  Ag  Ag32  1  0.16157301  0.82868387  0.32756799  1
  Ag  Ag33  1  0.16265071  0.51088092  0.32426538  1
  Ag  Ag34  1  0.50066775  0.00613110  0.85093040  1
  Ag  Ag35  1  0.16818568  0.66227466  0.85176350  1
  Ag  Ag36  1  0.34606167  0.16610630  0.48978796  1
  Ag  Ag37  1  0.83485247  0.83664836  0.01033259  1
  Ag  Ag38  1  0.33381917  0.66621547  0.65965732  1
  Ag  Ag39  1  0.50126184  0.83896925  0.01422091  1
  Ag  Ag40  1  0.82357241  0.16391982  0.66149573  1
  Ag  Ag41  1  0.65728366  0.66539808  0.32636484  1
  Ag  Ag42  1  0.16074348  0.82671767  0.01261094  1
  Ag  Ag43  1  0.83978314  0.51262075  0.32144026  1
  Ag  Ag44  1  0.49557214  0.31990776  0.49989561  1
  Ag  Ag45  1  0.17129799  0.16425396  0.33200287  1
  Ag  Ag46  1  0.00701015  0.51595678  0.15941077  1
  Ag  Ag47  1  0.15257325  0.50927771  0.01568184  1
  Ag  Ag48  1  0.50962956  0.15840844  0.00724103  1
  Ag  Ag49  1  0.00317072  0.65611971  0.01727227  1
  Ag  Ag50  1  0.50379281  0.32393203  0.83523911  1
  Ag  Ag51  1  -0.00184157  0.00143930  0.65497018  1
  Ag  Ag52  1  -0.00264498  0.34608408  0.00268841  1
  Ag  Ag53  1  0.84341720  0.67454945  0.16774597  1
  Sb  Sb54  1  0.66811440  0.00511163  0.66842879  1
  Sb  Sb55  1  0.83647044  0.84006397  0.66492261  1
  Sb  Sb56  1  -0.00116205  0.16519299  0.49730042  1
  Sb  Sb57  1  0.49979731  0.50035891  0.00466255  1
  Sb  Sb58  1  0.17115288  0.66808574  0.48860207  1
  Sb  Sb59  1  0.16549742  -0.00659816  0.17194137  1
  Sb  Sb60  1  0.33141065  0.33269100  0.33174607  1
  Sb  Sb61  1  0.83948935  0.33597331  0.16342046  1
  Sb  Sb62  1  0.33882023  -0.00051043  0.00377538  1
  Sb  Sb63  1  0.33302586  0.49773639  0.49355223  1
  Sb  Sb64  1  0.17018207  0.16523263  0.65828891  1
  Sb  Sb65  1  0.33335330  -0.00145493  0.66207100  1
  Sb  Sb66  1  0.83598973  0.49594810  0.66922768  1
  Sb  Sb67  1  0.33091260  0.33466700  0.00262557  1
  Sb  Sb68  1  0.82732261  0.67415124  0.48480995  1
  Sb  Sb69  1  0.66513628  0.83873367  0.83966299  1
  Sb  Sb70  1  0.33301562  -0.00085260  0.33093376  1
  Sb  Sb71  1  0.00002803  0.32855104  0.67138207  1
  Sb  Sb72  1  0.67183326  0.67087738  0.00844803  1
  Sb  Sb73  1  0.33415296  0.83686526  0.48961279  1
  Sb  Sb74  1  0.16493788  0.16594426  0.00892746  1
  Sb  Sb75  1  0.49791852  0.83970453  0.66280746  1
  Sb  Sb76  1  -0.00241447  0.16464241  0.16879670  1
  Sb  Sb77  1  0.00000707  0.82928002  0.84502366  1
  Sb  Sb78  1  0.67133716  0.32564273  0.00224159  1
  Sb  Sb79  1  0.82900501  0.00583463  0.83928097  1
  Sb  Sb80  1  0.16675932  0.33784490  0.83905087  1
  Sb  Sb81  1  0.66142966  0.66637779  0.65769782  1
  Sb  Sb82  1  0.66442323  0.84431330  0.49324400  1
  Sb  Sb83  1  0.16745235  0.50055625  0.66575714  1
  Sb  Sb84  1  0.49794478  0.49447015  0.66750320  1
  Sb  Sb85  1  0.49454663  0.66692975  0.84056053  1
  Sb  Sb86  1  0.33428379  0.33520353  0.66605870  1
  Sb  Sb87  1  0.00263726  0.33297656  0.32700564  1
  Sb  Sb88  1  0.00265038  0.67060748  0.66839454  1
  Sb  Sb89  1  0.83287111  0.32534303  0.50063143  1
  Sb  Sb90  1  -0.00652913  0.16909931  0.83575014  1
  Sb  Sb91  1  0.16747305  0.83279228  0.66064904  1
  Sb  Sb92  1  0.34325934  0.17127563  0.83597195  1
  Sb  Sb93  1  0.32564673  0.66653736  0.01100863  1
  Sb  Sb94  1  0.49659016  0.49951305  0.32871258  1
  Sb  Sb95  1  0.66757121  0.00017614  0.32505209  1
  Sb  Sb96  1  0.83864330  0.66062892  0.84473840  1
  Sb  Sb97  1  0.17017692  -0.00452258  0.83228156  1
  Sb  Sb98  1  0.66654189  0.83338435  0.16993310  1
  Sb  Sb99  1  0.49484899  0.32839953  0.16703851  1
  Sb  Sb100  1  0.66585270  0.32911213  0.66709543  1
  Sb  Sb101  1  0.66791226  0.49510318  0.84429511  1
  Sb  Sb102  1  0.33336368  0.82649290  0.84308510  1
  Sb  Sb103  1  0.00085264  0.50073247  0.49006430  1
  Sb  Sb104  1  0.66680079  0.33232246  0.33018683  1
  Sb  Sb105  1  0.66584942  0.49449562  0.48910174  1
  Sb  Sb106  1  0.00041278  0.83587145  0.48768303  1
  Sb  Sb107  1  -0.00545208  -0.00231621  0.00656086  1
  Te  Te108  1  0.16953018  0.15993806  0.17081387  1
  Te  Te109  1  0.16639239  0.16432766  0.49520957  1
  Te  Te110  1  0.16954508  0.16677496  0.83252474  1
  Te  Te111  1  0.16640603  0.50585686  0.16946447  1
  Te  Te112  1  0.16670667  0.49686609  0.49373952  1
  Te  Te113  1  0.16748701  0.50225009  0.83121870  1
  Te  Te114  1  0.16901761  0.83385703  0.16911269  1
  Te  Te115  1  0.16760313  0.84055321  0.49135689  1
  Te  Te116  1  0.16739387  0.82592107  0.83366737  1
  Te  Te117  1  0.50062271  0.16886494  0.16785880  1
  Te  Te118  1  0.50163648  0.16539348  0.49335974  1
  Te  Te119  1  0.50156601  0.16655843  0.84770619  1
  Te  Te120  1  0.49571934  0.49607669  0.16598819  1
  Te  Te121  1  0.50036289  0.50614702  0.49997666  1
  Te  Te122  1  0.49837190  0.49658036  0.83551394  1
  Te  Te123  1  0.50356069  0.83602297  0.17005320  1
  Te  Te124  1  0.49929598  0.82767851  0.49539432  1
  Te  Te125  1  0.49925106  0.84025547  0.83383353  1
  Te  Te126  1  0.83300605  0.17244253  0.16769707  1
  Te  Te127  1  0.83128165  0.16311934  0.50255071  1
  Te  Te128  1  0.82900711  0.16959791  0.83608577  1
  Te  Te129  1  0.83640312  0.49488482  0.16728924  1
  Te  Te130  1  0.83282928  0.49818635  0.49874305  1
  Te  Te131  1  0.83557322  0.49400780  0.83646707  1
  Te  Te132  1  0.82843671  0.83093799  0.16697404  1
  Te  Te133  1  0.83228188  0.84267146  0.49671492  1
  Te  Te134  1  0.83322500  0.83136352  0.83816809  1
  Te  Te135  1  0.16498664  -0.00709937  -0.00252918  1
  Te  Te136  1  0.16537122  0.00159481  0.33382040  1
  Te  Te137  1  0.16211820  -0.00059301  0.66049497  1
  Te  Te138  1  0.16120980  0.33435674  0.00425987  1
  Te  Te139  1  0.16584163  0.32441790  0.33046116  1
  Te  Te140  1  0.16641811  0.33222689  0.65943703  1
  Te  Te141  1  0.16431536  0.66804798  0.00735836  1
  Te  Te142  1  0.16458436  0.66974988  0.33018399  1
  Te  Te143  1  0.17157734  0.66739728  0.65846626  1
  Te  Te144  1  0.50132897  -0.00129308  0.00746930  1
  Te  Te145  1  0.50163735  -0.00048698  0.33110902  1
  Te  Te146  1  0.50033907  0.00510380  0.65492941  1
  Te  Te147  1  0.49974518  0.33236199  -0.00417481  1
  Te  Te148  1  0.49948395  0.32933160  0.33926326  1
  Te  Te149  1  0.49944068  0.32688375  0.66636691  1
  Te  Te150  1  0.50327933  0.67196979  0.00489262  1
  Te  Te151  1  0.49754221  0.66007894  0.32579918  1
  Te  Te152  1  0.49547128  0.66745550  0.67094918  1
  Te  Te153  1  0.83001579  0.00020519  0.00423432  1
  Te  Te154  1  0.83113960  -0.00034065  0.32771452  1
  Te  Te155  1  0.83708782  0.00472831  0.67136840  1
  Te  Te156  1  0.83605772  0.33221654  -0.00161238  1
  Te  Te157  1  0.83476550  0.32475512  0.33742712  1
  Te  Te158  1  0.83458756  0.32611778  0.67212602  1
  Te  Te159  1  0.83814191  0.66600504  0.00581236  1
  Te  Te160  1  0.83939760  0.66930847  0.32944292  1
  Te  Te161  1  0.83256397  0.66807919  0.66442892  1
  Te  Te162  1  -0.00468255  0.16658188  0.00023990  1
  Te  Te163  1  -0.00453455  0.16214513  0.33316041  1
  Te  Te164  1  -0.00148801  0.16109199  0.66853416  1
  Te  Te165  1  -0.00137617  0.50149551  0.00166960  1
  Te  Te166  1  0.00049250  0.49946036  0.32795035  1
  Te  Te167  1  0.00000591  0.50066881  0.66868936  1
  Te  Te168  1  -0.00128851  0.83113589  0.00724304  1
  Te  Te169  1  0.00023438  0.83522862  0.32811200  1
  Te  Te170  1  0.00080669  0.83985085  0.66875284  1
  Te  Te171  1  0.33356027  0.16689875  0.00462619  1
  Te  Te172  1  0.33322023  0.16651406  0.33242220  1
  Te  Te173  1  0.33956297  0.16687402  0.66569245  1
  Te  Te174  1  0.33195047  0.50017148  0.00410619  1
  Te  Te175  1  0.32751671  0.50367306  0.32774958  1
  Te  Te176  1  0.33352643  0.50573021  0.66606790  1
  Te  Te177  1  0.33652237  0.83364187  0.00797066  1
  Te  Te178  1  0.33853189  0.82980896  0.32801601  1
  Te  Te179  1  0.33279741  0.82693621  0.66784827  1
  Te  Te180  1  0.66907780  0.16482489  0.00397856  1
  Te  Te181  1  0.66754114  0.16698256  0.32823179  1
  Te  Te182  1  0.66419999  0.16632739  0.67299735  1
  Te  Te183  1  0.67145291  0.50143436  0.00722264  1
  Te  Te184  1  0.67369446  0.50239088  0.32720799  1
  Te  Te185  1  0.66774059  0.49993887  0.66729455  1
  Te  Te186  1  0.66705918  0.83865147  0.00026699  1
  Te  Te187  1  0.66111015  0.82470610  0.33572019  1
  Te  Te188  1  0.66808696  0.83332123  0.66691047  1
  Te  Te189  1  -0.00697347  -0.00309155  0.17184000  1
  Te  Te190  1  -0.00208499  0.00010949  0.49509072  1
  Te  Te191  1  0.00245256  -0.00117809  0.83307763  1
  Te  Te192  1  0.00821096  0.33165772  0.16245177  1
  Te  Te193  1  0.00610978  0.33440153  0.50268623  1
  Te  Te194  1  -0.00097894  0.33755956  0.83790039  1
  Te  Te195  1  -0.00230299  0.67071116  0.17150482  1
  Te  Te196  1  -0.00165990  0.66731061  0.49885937  1
  Te  Te197  1  0.00635709  0.66181486  0.83312949  1
  Te  Te198  1  0.34027468  0.00367359  0.16613280  1
  Te  Te199  1  0.33829437  0.00486958  0.50000178  1
  Te  Te200  1  0.33964646  -0.00121128  0.83068785  1
  Te  Te201  1  0.32623235  0.33141710  0.16650123  1
  Te  Te202  1  0.33333148  0.32958808  0.50010468  1
  Te  Te203  1  0.33571998  0.34096332  0.83333259  1
  Te  Te204  1  0.33797916  0.66891227  0.16950634  1
  Te  Te205  1  0.33711269  0.66670287  0.49527096  1
  Te  Te206  1  0.32879043  0.66136006  0.83276290  1
  Te  Te207  1  0.66839601  0.00609413  0.16378356  1
  Te  Te208  1  0.66775824  0.00771916  0.50178703  1
  Te  Te209  1  0.66100193  0.00502526  0.83816121  1
  Te  Te210  1  0.66307315  0.33331897  0.16661338  1
  Te  Te211  1  0.66114743  0.32683589  0.49991342  1
  Te  Te212  1  0.66578569  0.32922083  0.83372452  1
  Te  Te213  1  0.66108701  0.66074905  0.16855438  1
  Te  Te214  1  0.66013122  0.66511733  0.49231106  1
  Te  Te215  1  0.66697356  0.66540792  0.82973586  1
