# generated using pymatgen
data_AgSbTe2
_symmetry_space_group_name_H-M   'P 1'
_cell_length_a   18.33460205
_cell_length_b   18.32932329
_cell_length_c   18.33539655
_cell_angle_alpha   89.99695707
_cell_angle_beta   89.99868600
_cell_angle_gamma   90.00396479
_symmetry_Int_Tables_number   1
_chemical_formula_structural   AgSbTe2
_chemical_formula_sum   'Ag54 Sb54 Te108'
_cell_volume   6161.80889359
_cell_formula_units_Z   54
loop_
 _symmetry_equiv_pos_site_id
 _symmetry_equiv_pos_as_xyz
  1  'x, y, z'
loop_
 _atom_site_type_symbol
 _atom_site_label
 _atom_site_symmetry_multiplicity
 _atom_site_fract_x
 _atom_site_fract_y
 _atom_site_fract_z
 _atom_site_occupancy
  Ag  Ag0  1  0.83431998  0.67569045  0.15611178  1
  Ag  Ag1  1  0.66330737  0.48634739  0.82984550  1
  Ag  Ag2  1  0.66984892  0.66341509  0.66757217  1
  Ag  Ag3  1  0.34369150  0.01038041  0.66246324  1
  Ag  Ag4  1  0.66340469  0.00828896  0.66989847  1
  Ag  Ag5  1  0.67262668  0.83509069  0.83276982  1
  Ag  Ag6  1  0.34520097  0.32932107  0.66891065  1
  Ag  Ag7  1  0.82126378  0.33151027  0.83265280  1
  Ag  Ag8  1  0.16204870  0.16542621  -0.00434004  1
  Ag  Ag9  1  0.82833501  0.00374856  0.49862088  1
  Ag  Ag10  1  0.66863572  0.17326987  0.83121784  1
  Ag  Ag11  1  0.83200944  0.83276037  0.67775354  1
  Ag  Ag12  1  0.66635451  0.66397707  0.34584312  1
  Ag  Ag13  1  0.82862992  -0.00241347  0.16518620  1
  Ag  Ag14  1  0.82778499  0.16093923  -0.00215228  1
  Ag  Ag15  1  -0.00005280  0.33102232  0.34055765  1
  Ag  Ag16  1  0.16278174  0.32663757  0.50793731  1
  Ag  Ag17  1  0.66091244  0.16558682  0.50949585  1
  Ag  Ag18  1  -0.00167352  0.16462766  0.50747098  1
  Ag  Ag19  1  0.50851426  0.33508195  0.83065120  1
  Ag  Ag20  1  0.50223527  0.49039851  0.33815857  1
  Ag  Ag21  1  0.14984102  0.84000416  -0.00229428  1
  Ag  Ag22  1  0.34070831  0.83123626  0.83429619  1
  Ag  Ag23  1  0.33601192  0.49765547  0.16144002  1
  Ag  Ag24  1  0.83255070  0.83649885  -0.00520451  1
  Ag  Ag25  1  0.16504776  0.33308280  0.16094630  1
  Ag  Ag26  1  0.50910475  0.16639989  -0.00588614  1
  Ag  Ag27  1  0.33857185  0.00257729  0.34322304  1
  Ag  Ag28  1  0.50487797  0.16791876  0.34801118  1
  Ag  Ag29  1  0.50516731  0.66914439  0.50152463  1
  Ag  Ag30  1  -0.00763294  0.83437595  0.83419721  1
  Ag  Ag31  1  0.00079777  0.50060765  0.16463380  1
  Ag  Ag32  1  0.66366598  0.32986924  0.67272658  1
  Ag  Ag33  1  0.50721034  0.83772573  -0.00450252  1
  Ag  Ag34  1  -0.00348337  0.82949226  0.15243513  1
  Ag  Ag35  1  0.50192292  0.49576278  -0.00944764  1
  Ag  Ag36  1  0.83289177  0.67608225  0.83528043  1
  Ag  Ag37  1  0.50441755  0.16991524  0.66623650  1
  Ag  Ag38  1  0.16613715  0.33146492  0.83116672  1
  Ag  Ag39  1  0.50443697  0.00216999  0.16575702  1
  Ag  Ag40  1  -0.00195569  0.84148113  0.50584876  1
  Ag  Ag41  1  0.66286296  0.49400037  0.51351824  1
  Ag  Ag42  1  0.66612949  0.00561959  -0.00980318  1
  Ag  Ag43  1  0.66518097  0.32318110  -0.01259299  1
  Ag  Ag44  1  0.16605770  0.00926772  0.50158664  1
  Ag  Ag45  1  -0.00441911  0.67233472  -0.00744373  1
  Ag  Ag46  1  -0.00151349  0.33230179  0.66870686  1
  Ag  Ag47  1  0.50555406  0.48968902  0.67047200  1
  Ag  Ag48  1  0.50160964  0.00504729  0.50098889  1
  Ag  Ag49  1  0.34367469  0.16344911  0.50283468  1
  Ag  Ag50  1  -0.00888140  0.66851749  0.67150814  1
  Ag  Ag51  1  0.82775314  0.16621221  0.33696914  1
  Ag  Ag52  1  -0.00927340  0.17012226  0.82973105  1
  Ag  Ag53  1  0.34531789  0.49547428  0.83443744  1
  Sb  Sb54  1  0.00030799  0.00550886  0.33638578  1
  Sb  Sb55  1  0.16950223  0.49667148  -0.00115472  1
  Sb  Sb56  1  -0.00561918  0.00203613  0.66510864  1
  Sb  Sb57  1  0.34196710  0.49261366  0.50332245  1
  Sb  Sb58  1  0.83572365  0.32529777  0.50839018  1
  Sb  Sb59  1  0.16839169  0.66721349  0.50227967  1
  Sb  Sb60  1  0.67220719  0.83463618  0.15923503  1
  Sb  Sb61  1  0.17190675  0.49679328  0.33228796  1
  Sb  Sb62  1  0.15866340  0.66279260  0.16397542  1
  Sb  Sb63  1  0.34246530  0.66832426  0.33408387  1
  Sb  Sb64  1  0.67042736  0.83796515  0.50750297  1
  Sb  Sb65  1  -0.00797726  -0.00317993  -0.00022975  1
  Sb  Sb66  1  0.33028121  0.83143801  0.15945593  1
  Sb  Sb67  1  0.16618650  0.16816677  0.33553007  1
  Sb  Sb68  1  0.82998665  0.00018815  0.83453440  1
  Sb  Sb69  1  0.16419452  0.83602551  0.33007758  1
  Sb  Sb70  1  0.33473393  0.16993775  0.16984520  1
  Sb  Sb71  1  0.15964240  0.66500239  0.83396430  1
  Sb  Sb72  1  0.66502586  0.50133671  0.16280018  1
  Sb  Sb73  1  0.16794275  0.00305972  0.82977316  1
  Sb  Sb74  1  0.33704787  0.16933662  0.82828752  1
  Sb  Sb75  1  0.33883341  0.66386995  0.66867970  1
  Sb  Sb76  1  0.50987101  0.66140601  0.82901337  1
  Sb  Sb77  1  0.82904786  0.50077018  -0.00190368  1
  Sb  Sb78  1  0.82801208  0.67277394  0.50425858  1
  Sb  Sb79  1  0.82533983  0.50303912  0.66840150  1
  Sb  Sb80  1  0.66888409  0.33264826  0.33767592  1
  Sb  Sb81  1  0.16902320  0.16755127  0.66728590  1
  Sb  Sb82  1  0.66616031  0.16595180  0.16135023  1
  Sb  Sb83  1  0.50641898  0.66914921  0.16794404  1
  Sb  Sb84  1  0.49937847  0.32941971  0.50848948  1
  Sb  Sb85  1  0.17156548  0.49479873  0.66861578  1
  Sb  Sb86  1  0.83315341  0.83874016  0.33101732  1
  Sb  Sb87  1  0.66365920  0.00024301  0.33612997  1
  Sb  Sb88  1  0.33120084  0.66650751  -0.00216125  1
  Sb  Sb89  1  0.49630262  0.33081077  0.16077927  1
  Sb  Sb90  1  0.34056505  0.00103616  -0.00320491  1
  Sb  Sb91  1  0.82833671  0.49482573  0.33166829  1
  Sb  Sb92  1  0.83673841  0.33098606  0.16141271  1
  Sb  Sb93  1  -0.00868806  0.66298796  0.33344283  1
  Sb  Sb94  1  -0.00431970  0.49778040  0.83528320  1
  Sb  Sb95  1  0.82637347  0.16152195  0.66915562  1
  Sb  Sb96  1  0.33206851  0.32899940  0.33885986  1
  Sb  Sb97  1  0.33023786  0.84313947  0.50821788  1
  Sb  Sb98  1  0.50540381  0.83611026  0.67186066  1
  Sb  Sb99  1  0.33698690  0.33244999  -0.00804457  1
  Sb  Sb100  1  0.50149203  0.83910776  0.33128654  1
  Sb  Sb101  1  -0.00309645  0.33441138  -0.00488489  1
  Sb  Sb102  1  0.50304923  0.00595593  0.83171867  1
  Sb  Sb103  1  0.16018994  0.83650630  0.67268391  1
  Sb  Sb104  1  -0.00579173  0.49688040  0.49982775  1
  Sb  Sb105  1  0.67102568  0.66829618  -0.00660130  1
  Sb  Sb106  1  0.16687749  0.00346619  0.16725222  1
  Sb  Sb107  1  -0.00155815  0.16714195  0.16431679  1
  Te  Te108  1  0.16672568  0.17162851  0.16080688  1
  Te  Te109  1  0.15869117  0.16721460  0.49964637  1
  Te  Te110  1  0.16769850  0.16930053  0.83685337  1
  Te  Te111  1  0.16647095  0.49535689  0.16563553  1
  Te  Te112  1  0.16812312  0.49545029  0.49977069  1
  Te  Te113  1  0.17120673  0.49444502  0.83464334  1
  Te  Te114  1  0.16106248  0.83374827  0.15961845  1
  Te  Te115  1  0.16162704  0.83560202  0.49999870  1
  Te  Te116  1  0.16057594  0.83377542  0.83933321  1
  Te  Te117  1  0.49909011  0.16215411  0.15887922  1
  Te  Te118  1  0.50137275  0.16608934  0.50417454  1
  Te  Te119  1  0.50282684  0.17171082  0.83312638  1
  Te  Te120  1  0.49756209  0.50094121  0.16624349  1
  Te  Te121  1  0.50432178  0.49888335  0.49998250  1
  Te  Te122  1  0.50236253  0.49958057  0.83157650  1
  Te  Te123  1  0.49909399  0.83815206  0.16140748  1
  Te  Te124  1  0.49865284  0.83456092  0.49989437  1
  Te  Te125  1  0.50003408  0.82977281  0.83668929  1
  Te  Te126  1  0.83328821  0.16223800  0.16332168  1
  Te  Te127  1  0.83702330  0.16350483  0.49989776  1
  Te  Te128  1  0.83129719  0.16661751  0.83469582  1
  Te  Te129  1  0.83891613  0.50193260  0.16594654  1
  Te  Te130  1  0.82338321  0.49933006  0.49822594  1
  Te  Te131  1  0.82757860  0.49413322  0.83357540  1
  Te  Te132  1  0.83726333  0.83544875  0.16552373  1
  Te  Te133  1  0.83776138  0.84017427  0.49793001  1
  Te  Te134  1  0.83464832  0.83610160  0.83481362  1
  Te  Te135  1  0.16927652  0.00195810  0.00068541  1
  Te  Te136  1  0.17339421  0.00112935  0.33857864  1
  Te  Te137  1  0.17409225  0.00034135  0.65995916  1
  Te  Te138  1  0.16717485  0.32957037  -0.00158463  1
  Te  Te139  1  0.16240206  0.33313455  0.33383334  1
  Te  Te140  1  0.15970779  0.33292635  0.66701299  1
  Te  Te141  1  0.15927599  0.67418807  0.00021121  1
  Te  Te142  1  0.16722227  0.66647205  0.33375137  1
  Te  Te143  1  0.15731976  0.66632343  0.66574152  1
  Te  Te144  1  0.50471226  0.00110936  0.00009307  1
  Te  Te145  1  0.49902146  0.00480588  0.33405688  1
  Te  Te146  1  0.50287100  0.00128717  0.66482681  1
  Te  Te147  1  0.50251993  0.33309353  -0.00457384  1
  Te  Te148  1  0.50048009  0.32924333  0.33006736  1
  Te  Te149  1  0.50266245  0.33176451  0.66899400  1
  Te  Te150  1  0.50013550  0.66701643  0.00094023  1
  Te  Te151  1  0.50641796  0.66670453  0.33653203  1
  Te  Te152  1  0.50472467  0.66621294  0.66200777  1
  Te  Te153  1  0.82802162  -0.00096230  0.00288945  1
  Te  Te154  1  0.83259842  0.00630944  0.33278587  1
  Te  Te155  1  0.82805998  -0.00593777  0.65980886  1
  Te  Te156  1  0.82897586  0.33003144  -0.00495816  1
  Te  Te157  1  0.83776679  0.32670667  0.33090220  1
  Te  Te158  1  0.83439254  0.33351038  0.67307776  1
  Te  Te159  1  0.83638734  0.66787117  -0.00217095  1
  Te  Te160  1  0.82656548  0.66451185  0.33307094  1
  Te  Te161  1  0.83235223  0.67019928  0.66909358  1
  Te  Te162  1  -0.00123212  0.16579094  -0.00389740  1
  Te  Te163  1  -0.00240322  0.17170774  0.33400853  1
  Te  Te164  1  -0.00032995  0.16843954  0.66920230  1
  Te  Te165  1  0.00107638  0.50633258  0.00349228  1
  Te  Te166  1  0.00058328  0.49402733  0.32987293  1
  Te  Te167  1  0.00032292  0.49805312  0.66648731  1
  Te  Te168  1  -0.00597431  0.83344942  -0.00388084  1
  Te  Te169  1  0.00042183  0.83222099  0.34141473  1
  Te  Te170  1  -0.00466630  0.83421646  0.66824473  1
  Te  Te171  1  0.33424262  0.16622114  -0.00022852  1
  Te  Te172  1  0.33802221  0.16289061  0.33861473  1
  Te  Te173  1  0.33657838  0.16862700  0.66342112  1
  Te  Te174  1  0.33800152  0.49978735  -0.00145772  1
  Te  Te175  1  0.34190711  0.49967573  0.33231611  1
  Te  Te176  1  0.34057182  0.49578885  0.67113989  1
  Te  Te177  1  0.34147728  0.83343429  -0.00619303  1
  Te  Te178  1  0.33256815  0.83874512  0.33296699  1
  Te  Te179  1  0.33203439  0.83224367  0.67487631  1
  Te  Te180  1  0.66765986  0.16456284  -0.00111596  1
  Te  Te181  1  0.66629521  0.16739843  0.33873311  1
  Te  Te182  1  0.66564942  0.16784828  0.66931375  1
  Te  Te183  1  0.66146560  0.49999426  -0.00463146  1
  Te  Te184  1  0.66068360  0.50061353  0.33217539  1
  Te  Te185  1  0.66436988  0.49976538  0.66917234  1
  Te  Te186  1  0.66875612  0.83494510  -0.00441927  1
  Te  Te187  1  0.66659864  0.82557322  0.33307605  1
  Te  Te188  1  0.67070876  0.83169057  0.67087202  1
  Te  Te189  1  -0.00277069  -0.00589904  0.16875666  1
  Te  Te190  1  0.00150243  0.00261132  0.50041980  1
  Te  Te191  1  0.00135864  0.00360550  0.83205914  1
  Te  Te192  1  0.00359720  0.33553420  0.16499709  1
  Te  Te193  1  0.00162762  0.33155158  0.50227147  1
  Te  Te194  1  0.00526645  0.33213525  0.83068656  1
  Te  Te195  1  -0.00605030  0.66760728  0.16815843  1
  Te  Te196  1  -0.00038107  0.66762975  0.50455727  1
  Te  Te197  1  -0.00597161  0.66520839  0.83205323  1
  Te  Te198  1  0.33665316  -0.00148736  0.16969458  1
  Te  Te199  1  0.33709541  0.00314356  0.50284685  1
  Te  Te200  1  0.33444986  -0.00522151  0.82642847  1
  Te  Te201  1  0.32783657  0.33810116  0.16885630  1
  Te  Te202  1  0.32648634  0.32729209  0.50564658  1
  Te  Te203  1  0.32894625  0.33525245  0.82804651  1
  Te  Te204  1  0.33235056  0.65962399  0.16721371  1
  Te  Te205  1  0.33897690  0.66720163  0.50054746  1
  Te  Te206  1  0.33055366  0.66639787  0.83214011  1
  Te  Te207  1  0.66630407  -0.00067343  0.16634012  1
  Te  Te208  1  0.66556507  0.00415181  0.50163533  1
  Te  Te209  1  0.66582086  -0.00310541  0.83092540  1
  Te  Te210  1  0.66704729  0.33486845  0.16203462  1
  Te  Te211  1  0.66821329  0.33113324  0.50519914  1
  Te  Te212  1  0.66447275  0.33053570  0.83274887  1
  Te  Te213  1  0.67469281  0.66710709  0.16758835  1
  Te  Te214  1  0.66416156  0.66949886  0.50481981  1
  Te  Te215  1  0.67334384  0.67454644  0.82869791  1
