# generated using pymatgen
data_AgSbTe2
_symmetry_space_group_name_H-M   'P 1'
_cell_length_a   18.34916766
_cell_length_b   18.35131800
_cell_length_c   18.34908418
_cell_angle_alpha   89.99823652
_cell_angle_beta   89.99707039
_cell_angle_gamma   90.00094004
_symmetry_Int_Tables_number   1
_chemical_formula_structural   AgSbTe2
_chemical_formula_sum   'Ag54 Sb54 Te108'
_cell_volume   6178.71299293
_cell_formula_units_Z   54
loop_
 _symmetry_equiv_pos_site_id
 _symmetry_equiv_pos_as_xyz
  1  'x, y, z'
loop_
 _atom_site_type_symbol
 _atom_site_label
 _atom_site_symmetry_multiplicity
 _atom_site_fract_x
 _atom_site_fract_y
 _atom_site_fract_z
 _atom_site_occupancy
  Ag  Ag0  1  0.82630978  0.34078633  0.49839543  1
  Ag  Ag1  1  0.16026576  0.83705314  -0.00620181  1
  Ag  Ag2  1  0.00746586  0.83531555  0.83988085  1
  Ag  Ag3  1  0.32599424  -0.00046272  -0.01544972  1
  Ag  Ag4  1  0.65105092  0.16223810  0.50091950  1
  Ag  Ag5  1  0.84101950  0.83126872  0.66350242  1
  Ag  Ag6  1  0.00384542  0.50348111  0.84132130  1
  Ag  Ag7  1  0.83274318  0.34227992  0.16988243  1
  Ag  Ag8  1  0.84604280  0.82429556  -0.00550929  1
  Ag  Ag9  1  0.66736611  0.49811222  0.83171606  1
  Ag  Ag10  1  0.16804561  0.83571543  0.34922483  1
  Ag  Ag11  1  0.17139608  0.32400288  0.83632080  1
  Ag  Ag12  1  0.49846448  0.33178203  0.49556464  1
  Ag  Ag13  1  0.83813238  0.65971481  0.16470577  1
  Ag  Ag14  1  0.48326776  0.00080459  0.83150974  1
  Ag  Ag15  1  0.33824268  0.33175444  0.33599866  1
  Ag  Ag16  1  0.83955694  0.50406054  0.00402022  1
  Ag  Ag17  1  0.65906756  -0.00086075  0.66308376  1
  Ag  Ag18  1  0.01079480  0.83509435  0.50420672  1
  Ag  Ag19  1  0.01226404  0.16309589  0.83194068  1
  Ag  Ag20  1  0.66943771  0.49951076  0.50227589  1
  Ag  Ag21  1  0.32861836  0.49442189  0.83939766  1
  Ag  Ag22  1  0.01022492  -0.01470379  -0.00337320  1
  Ag  Ag23  1  0.49335722  0.16504899  0.66077935  1
  Ag  Ag24  1  0.49432640  0.33770478  0.17554330  1
  Ag  Ag25  1  0.16904762  0.15837547  -0.00859173  1
  Ag  Ag26  1  0.16414750  0.83562003  0.66495271  1
  Ag  Ag27  1  0.17464660  -0.00709721  0.50561799  1
  Ag  Ag28  1  0.49771629  0.66129205  0.49832561  1
  Ag  Ag29  1  0.16760511  0.67998557  0.49789910  1
  Ag  Ag30  1  0.33004295  0.16266783  0.82980315  1
  Ag  Ag31  1  0.50002685  0.49244950  0.33452051  1
  Ag  Ag32  1  0.82934503  0.49937973  0.33376162  1
  Ag  Ag33  1  0.32308532  0.65571441  -0.00146595  1
  Ag  Ag34  1  0.17004664  -0.00211324  0.83411262  1
  Ag  Ag35  1  0.33544526  0.00397490  0.34163964  1
  Ag  Ag36  1  0.66773715  0.84138888  0.50237669  1
  Ag  Ag37  1  0.83362713  0.66383106  0.49875883  1
  Ag  Ag38  1  0.49517524  0.17251448  0.34383461  1
  Ag  Ag39  1  0.32324598  0.84342220  0.50800375  1
  Ag  Ag40  1  0.32258008  0.84861211  0.83033038  1
  Ag  Ag41  1  0.48439626  0.49894855  0.00047020  1
  Ag  Ag42  1  0.33410915  0.00424899  0.66990185  1
  Ag  Ag43  1  0.16920565  0.50276453  -0.00379082  1
  Ag  Ag44  1  0.00081435  0.82545618  0.15135616  1
  Ag  Ag45  1  0.33447794  0.16058586  0.50918060  1
  Ag  Ag46  1  0.65749576  0.00092626  0.34589260  1
  Ag  Ag47  1  0.33084028  0.49715197  0.15382958  1
  Ag  Ag48  1  -0.00571740  0.50428505  0.15900877  1
  Ag  Ag49  1  0.00441278  0.16019875  0.50446011  1
  Ag  Ag50  1  0.83231563  0.50257643  0.66219621  1
  Ag  Ag51  1  0.33162572  0.34372992  -0.00695772  1
  Ag  Ag52  1  0.00477767  0.67162823  0.00078054  1
  Ag  Ag53  1  0.33378832  0.32481762  0.67149613  1
  Sb  Sb54  1  0.84260850  0.16987739  -0.00122249  1
  Sb  Sb55  1  0.83798817  0.82902216  0.33786626  1
  Sb  Sb56  1  0.66683694  0.66802515  0.33875353  1
  Sb  Sb57  1  0.16978380  0.33695151  0.16015750  1
  Sb  Sb58  1  0.66870167  0.83107959  0.82763474  1
  Sb  Sb59  1  0.00366452  -0.00241826  0.33251444  1
  Sb  Sb60  1  0.83372030  -0.00263987  0.50080705  1
  Sb  Sb61  1  0.67450073  0.83306246  0.17168088  1
  Sb  Sb62  1  0.49518540  0.83617895  0.33828562  1
  Sb  Sb63  1  0.66130510  0.33558157  -0.00100691  1
  Sb  Sb64  1  0.66531144  0.16832227  0.17474083  1
  Sb  Sb65  1  0.49052999  0.33167927  0.83154431  1
  Sb  Sb66  1  0.33756129  0.49934062  0.50239169  1
  Sb  Sb67  1  0.84055899  0.33887092  0.83242296  1
  Sb  Sb68  1  0.49029280  0.17187402  -0.00238455  1
  Sb  Sb69  1  0.32651451  0.82935018  0.16404457  1
  Sb  Sb70  1  0.83909268  -0.00189175  0.83190109  1
  Sb  Sb71  1  -0.00034338  0.66752874  0.32996597  1
  Sb  Sb72  1  0.83564031  -0.00231817  0.16624208  1
  Sb  Sb73  1  0.00488463  0.33299733  0.66727952  1
  Sb  Sb74  1  0.49441632  0.00390347  0.50482674  1
  Sb  Sb75  1  0.83010907  0.16696029  0.66346560  1
  Sb  Sb76  1  0.66760223  0.66971834  0.66280938  1
  Sb  Sb77  1  0.16393487  0.50548766  0.67307440  1
  Sb  Sb78  1  0.83597616  0.66404134  0.83386551  1
  Sb  Sb79  1  0.66181937  0.33128722  0.66248768  1
  Sb  Sb80  1  0.00084695  0.16845317  0.16393024  1
  Sb  Sb81  1  -0.00604605  0.50378745  0.50132677  1
  Sb  Sb82  1  0.66494984  -0.00138028  -0.00550754  1
  Sb  Sb83  1  0.82839088  0.17306824  0.33858456  1
  Sb  Sb84  1  0.33156722  0.66925459  0.66905694  1
  Sb  Sb85  1  0.16206806  0.66699487  0.16564348  1
  Sb  Sb86  1  0.49197674  0.82848987  -0.00155382  1
  Sb  Sb87  1  0.65950001  0.33295541  0.33723619  1
  Sb  Sb88  1  0.33304543  0.17294494  0.16458269  1
  Sb  Sb89  1  0.16743758  0.67284525  0.83470258  1
  Sb  Sb90  1  0.50234258  0.49501022  0.66624231  1
  Sb  Sb91  1  0.50206046  0.65827735  0.16946138  1
  Sb  Sb92  1  0.00702476  0.34034949  -0.00051822  1
  Sb  Sb93  1  0.16844722  0.50272113  0.33074849  1
  Sb  Sb94  1  0.49635369  0.00454820  0.16387985  1
  Sb  Sb95  1  0.49581442  0.66724120  0.82981892  1
  Sb  Sb96  1  0.17346137  0.16251746  0.33395750  1
  Sb  Sb97  1  -0.00053258  0.66974332  0.67024663  1
  Sb  Sb98  1  0.66168760  0.16974295  0.82721256  1
  Sb  Sb99  1  0.17364215  0.15972786  0.67279111  1
  Sb  Sb100  1  0.16824335  -0.00238918  0.16174612  1
  Sb  Sb101  1  0.00317823  0.33378647  0.33473765  1
  Sb  Sb102  1  0.66940736  0.66407778  -0.00070307  1
  Sb  Sb103  1  0.00452958  -0.00211680  0.67019958  1
  Sb  Sb104  1  0.49571009  0.83860672  0.66354441  1
  Sb  Sb105  1  0.17249615  0.32997410  0.50550309  1
  Sb  Sb106  1  0.33316496  0.66567898  0.33186363  1
  Sb  Sb107  1  0.66944504  0.49922535  0.16885186  1
  Te  Te108  1  0.16465955  0.16820294  0.15663166  1
  Te  Te109  1  0.16883916  0.16352844  0.49987172  1
  Te  Te110  1  0.16891231  0.16435023  0.83408697  1
  Te  Te111  1  0.16638144  0.50130220  0.16323068  1
  Te  Te112  1  0.16412966  0.50158304  0.50040073  1
  Te  Te113  1  0.16470130  0.50493713  0.83531452  1
  Te  Te114  1  0.15987254  0.83196231  0.15646866  1
  Te  Te115  1  0.16867906  0.83622289  0.50462131  1
  Te  Te116  1  0.16681487  0.83368852  0.83405275  1
  Te  Te117  1  0.50115539  0.17547936  0.16815727  1
  Te  Te118  1  0.49497816  0.16691605  0.50034200  1
  Te  Te119  1  0.49603416  0.16277862  0.83039719  1
  Te  Te120  1  0.50164786  0.49691202  0.16713845  1
  Te  Te121  1  0.50270424  0.49738888  0.49931109  1
  Te  Te122  1  0.50058679  0.49940716  0.83568201  1
  Te  Te123  1  0.50217421  0.83014110  0.16798075  1
  Te  Te124  1  0.50859465  0.82631587  0.49904887  1
  Te  Te125  1  0.49879995  0.83750455  0.83213565  1
  Te  Te126  1  0.83361860  0.17487993  0.16807292  1
  Te  Te127  1  0.84109850  0.17239346  0.50091525  1
  Te  Te128  1  0.83663625  0.16916305  0.83226784  1
  Te  Te129  1  0.83180939  0.50035822  0.16748704  1
  Te  Te130  1  0.83310014  0.50090161  0.50014557  1
  Te  Te131  1  0.83634371  0.49995735  0.83222425  1
  Te  Te132  1  0.84124751  0.83047613  0.16698302  1
  Te  Te133  1  0.82630402  0.83082915  0.50137922  1
  Te  Te134  1  0.83632346  0.83132763  0.83126998  1
  Te  Te135  1  0.16714471  -0.00141106  -0.00045422  1
  Te  Te136  1  0.17073020  -0.00364071  0.33644582  1
  Te  Te137  1  0.17031071  -0.00428725  0.66681385  1
  Te  Te138  1  0.17251666  0.33979838  -0.00413870  1
  Te  Te139  1  0.17467929  0.33333009  0.33313755  1
  Te  Te140  1  0.17324819  0.33725496  0.67365857  1
  Te  Te141  1  0.16514963  0.66476296  0.00104503  1
  Te  Te142  1  0.16687725  0.67174225  0.33897980  1
  Te  Te143  1  0.16596516  0.67338896  0.65690072  1
  Te  Te144  1  0.49659858  0.00022511  -0.00448743  1
  Te  Te145  1  0.49819387  0.00274771  0.33091433  1
  Te  Te146  1  0.49706283  0.00306783  0.67032537  1
  Te  Te147  1  0.49428159  0.33896134  0.00215355  1
  Te  Te148  1  0.49799262  0.33345884  0.33515104  1
  Te  Te149  1  0.49469399  0.32805655  0.66186025  1
  Te  Te150  1  0.49872643  0.66029176  0.00063296  1
  Te  Te151  1  0.49982178  0.65950080  0.33781550  1
  Te  Te152  1  0.49956837  0.66640510  0.65786162  1
  Te  Te153  1  0.83424696  -0.00224013  0.00016703  1
  Te  Te154  1  0.82980556  0.00134317  0.33207062  1
  Te  Te155  1  0.82898089  -0.00374870  0.66663992  1
  Te  Te156  1  0.83138296  0.33783229  0.00144536  1
  Te  Te157  1  0.83517442  0.33892080  0.33544117  1
  Te  Te158  1  0.83332170  0.33725180  0.66188512  1
  Te  Te159  1  0.83520398  0.66610177  0.00050075  1
  Te  Te160  1  0.83318278  0.66129999  0.33470063  1
  Te  Te161  1  0.83336878  0.66755457  0.66079663  1
  Te  Te162  1  0.00598851  0.16748963  -0.00465886  1
  Te  Te163  1  0.00168750  0.16516466  0.33851827  1
  Te  Te164  1  -0.00125512  0.16535769  0.66656758  1
  Te  Te165  1  -0.00128105  0.49983393  -0.00077341  1
  Te  Te166  1  -0.00190811  0.49993122  0.32790195  1
  Te  Te167  1  -0.00616671  0.50085962  0.67374940  1
  Te  Te168  1  0.00065427  0.83081061  -0.00445937  1
  Te  Te169  1  0.00529458  0.83410961  0.34422551  1
  Te  Te170  1  -0.00060279  0.83400244  0.66326253  1
  Te  Te171  1  0.32941035  0.15942340  -0.00211345  1
  Te  Te172  1  0.33613804  0.16723328  0.33151342  1
  Te  Te173  1  0.33390786  0.16569438  0.66760302  1
  Te  Te174  1  0.32928541  0.49941735  -0.00138185  1
  Te  Te175  1  0.33585571  0.49753333  0.33344062  1
  Te  Te176  1  0.33311195  0.49882144  0.67230306  1
  Te  Te177  1  0.33074532  0.83955024  -0.00256321  1
  Te  Te178  1  0.32865250  0.83449663  0.33338427  1
  Te  Te179  1  0.33099733  0.83495829  0.66786806  1
  Te  Te180  1  0.66745441  0.16591217  -0.00143035  1
  Te  Te181  1  0.66131519  0.16158122  0.34089729  1
  Te  Te182  1  0.66142404  0.16230926  0.66133105  1
  Te  Te183  1  0.67777487  0.49970371  -0.00452598  1
  Te  Te184  1  0.66630063  0.50020461  0.33875187  1
  Te  Te185  1  0.67036067  0.49947527  0.66534236  1
  Te  Te186  1  0.66997813  0.83303437  -0.00044553  1
  Te  Te187  1  0.66746733  0.83937697  0.33868245  1
  Te  Te188  1  0.66924558  0.83781352  0.66368980  1
  Te  Te189  1  0.00036587  -0.00249872  0.16063118  1
  Te  Te190  1  0.00265704  -0.00026150  0.50023664  1
  Te  Te191  1  0.00444012  -0.00092450  0.83619463  1
  Te  Te192  1  -0.00462034  0.33722186  0.16774103  1
  Te  Te193  1  0.00025009  0.33080795  0.50033189  1
  Te  Te194  1  0.00759239  0.32890955  0.83291092  1
  Te  Te195  1  -0.00322164  0.66544876  0.16374738  1
  Te  Te196  1  -0.00224389  0.67045847  0.50009588  1
  Te  Te197  1  0.00074468  0.66818966  0.83967667  1
  Te  Te198  1  0.33427036  -0.00139126  0.17683650  1
  Te  Te199  1  0.33423595  -0.00002183  0.50114138  1
  Te  Te200  1  0.32785821  0.00271696  0.82903418  1
  Te  Te201  1  0.33527855  0.33823833  0.16808847  1
  Te  Te202  1  0.33636992  0.33172774  0.50020768  1
  Te  Te203  1  0.33135456  0.33389821  0.83371323  1
  Te  Te204  1  0.33428403  0.66033503  0.16080610  1
  Te  Te205  1  0.33342154  0.66961127  0.50018862  1
  Te  Te206  1  0.33461202  0.65772250  0.83849760  1
  Te  Te207  1  0.66605827  -0.00000600  0.16988893  1
  Te  Te208  1  0.66768907  0.00284566  0.50278402  1
  Te  Te209  1  0.66714049  0.00100765  0.82643774  1
  Te  Te210  1  0.66970806  0.33292189  0.16705538  1
  Te  Te211  1  0.66671101  0.33297877  0.49991981  1
  Te  Te212  1  0.66645409  0.33842802  0.83107861  1
  Te  Te213  1  0.67635522  0.66764546  0.16776467  1
  Te  Te214  1  0.66980946  0.65988608  0.49997171  1
  Te  Te215  1  0.66443887  0.65826868  0.83136436  1
