# generated using pymatgen
data_AgSbTe2
_symmetry_space_group_name_H-M   'P 1'
_cell_length_a   18.34937021
_cell_length_b   18.33528296
_cell_length_c   18.34129611
_cell_angle_alpha   90.00302507
_cell_angle_beta   90.00169483
_cell_angle_gamma   89.99787423
_symmetry_Int_Tables_number   1
_chemical_formula_structural   AgSbTe2
_chemical_formula_sum   'Ag54 Sb54 Te108'
_cell_volume   6170.76205818
_cell_formula_units_Z   54
loop_
 _symmetry_equiv_pos_site_id
 _symmetry_equiv_pos_as_xyz
  1  'x, y, z'
loop_
 _atom_site_type_symbol
 _atom_site_label
 _atom_site_symmetry_multiplicity
 _atom_site_fract_x
 _atom_site_fract_y
 _atom_site_fract_z
 _atom_site_occupancy
  Ag  Ag0  1  0.16792032  0.82870389  0.66482734  1
  Ag  Ag1  1  0.84409077  0.33785877  0.50135162  1
  Ag  Ag2  1  -0.00503371  0.00902016  0.33303594  1
  Ag  Ag3  1  0.33418160  -0.00312898  -0.00128512  1
  Ag  Ag4  1  0.67023371  0.83402547  0.83037383  1
  Ag  Ag5  1  0.15701823  0.49650865  0.66636171  1
  Ag  Ag6  1  0.68520533  0.33778527  0.66587433  1
  Ag  Ag7  1  0.83951840  0.66694354  0.49965986  1
  Ag  Ag8  1  0.00245672  0.32947834  0.34270128  1
  Ag  Ag9  1  0.83924715  0.66827509  0.82772495  1
  Ag  Ag10  1  0.67870141  0.67830071  0.33355362  1
  Ag  Ag11  1  -0.00300271  0.66732590  0.34491819  1
  Ag  Ag12  1  0.83383399  -0.00231415  0.17636518  1
  Ag  Ag13  1  0.82743464  0.83761795  0.33265041  1
  Ag  Ag14  1  -0.00123874  0.17739587  0.82610017  1
  Ag  Ag15  1  0.66994857  0.83336851  0.17914080  1
  Ag  Ag16  1  0.15881407  0.33236435  0.17615510  1
  Ag  Ag17  1  0.15692676  0.66271336  0.82932917  1
  Ag  Ag18  1  0.16112872  0.17145738  0.33496931  1
  Ag  Ag19  1  0.50135633  -0.00232464  0.16949802  1
  Ag  Ag20  1  -0.00104221  0.65874784  0.66358682  1
  Ag  Ag21  1  0.15820575  0.33172565  0.50058712  1
  Ag  Ag22  1  0.84214884  0.33414099  0.17026256  1
  Ag  Ag23  1  0.33207677  0.83449003  0.50086703  1
  Ag  Ag24  1  0.49842663  0.15805995  0.33398949  1
  Ag  Ag25  1  0.16232471  0.00234498  0.17037578  1
  Ag  Ag26  1  0.84375071  0.16042721  0.33389134  1
  Ag  Ag27  1  -0.00350228  0.49570129  0.17352220  1
  Ag  Ag28  1  0.67417381  0.50244123  0.16832732  1
  Ag  Ag29  1  0.67275920  0.83206550  0.49155308  1
  Ag  Ag30  1  0.83274771  -0.00826208  0.83663738  1
  Ag  Ag31  1  0.32148577  0.32972213  0.33985161  1
  Ag  Ag32  1  0.33303491  -0.00290624  0.66739286  1
  Ag  Ag33  1  0.00329774  0.33825543  -0.00030725  1
  Ag  Ag34  1  0.50338421  -0.00260818  0.83567998  1
  Ag  Ag35  1  0.83386357  0.83266882  0.00658510  1
  Ag  Ag36  1  0.00285682  0.34086478  0.65730747  1
  Ag  Ag37  1  0.32358000  0.33453256  0.00103860  1
  Ag  Ag38  1  0.00034876  0.66004612  -0.00670436  1
  Ag  Ag39  1  0.33031312  0.66892153  0.33484504  1
  Ag  Ag40  1  0.51268860  0.83690454  0.33856297  1
  Ag  Ag41  1  0.49755730  0.83123882  0.65802223  1
  Ag  Ag42  1  0.84303624  0.33324986  0.82489358  1
  Ag  Ag43  1  0.49980320  0.49973521  0.66870505  1
  Ag  Ag44  1  0.15894828  0.33546663  0.82444719  1
  Ag  Ag45  1  0.84081095  0.49664633  0.66551636  1
  Ag  Ag46  1  -0.00402950  0.82905992  0.49777599  1
  Ag  Ag47  1  0.67706874  -0.01036682  0.33147842  1
  Ag  Ag48  1  0.49763497  0.49970793  -0.00145024  1
  Ag  Ag49  1  -0.00181729  0.49519379  0.49966549  1
  Ag  Ag50  1  0.32768075  0.66810825  0.00028436  1
  Ag  Ag51  1  0.00245584  0.18022003  0.49783746  1
  Ag  Ag52  1  0.32514824  0.17030156  0.49737170  1
  Ag  Ag53  1  0.32452212  0.33390790  0.66002789  1
  Sb  Sb54  1  0.66959042  0.16434532  0.49705829  1
  Sb  Sb55  1  0.33268947  0.00160384  0.33495197  1
  Sb  Sb56  1  0.67443129  0.16321991  0.83098603  1
  Sb  Sb57  1  0.32786965  0.16773109  0.82856729  1
  Sb  Sb58  1  0.33183322  0.16631135  0.17452768  1
  Sb  Sb59  1  0.49847258  -0.00274268  0.49677315  1
  Sb  Sb60  1  0.83355721  0.82992627  0.66252181  1
  Sb  Sb61  1  0.16281662  0.49480353  0.33789800  1
  Sb  Sb62  1  0.50100125  0.66964812  0.16749202  1
  Sb  Sb63  1  0.49611787  0.16409529  0.66223512  1
  Sb  Sb64  1  0.67113867  0.33725797  -0.00313541  1
  Sb  Sb65  1  0.66410401  -0.00168784  0.66369180  1
  Sb  Sb66  1  0.16301574  0.83611647  0.33884936  1
  Sb  Sb67  1  0.50005555  0.33117634  0.16788076  1
  Sb  Sb68  1  0.67283657  0.66464274  0.66244359  1
  Sb  Sb69  1  0.66855053  0.16393536  0.17058277  1
  Sb  Sb70  1  0.15950346  0.66440661  0.50350448  1
  Sb  Sb71  1  0.00291537  -0.00038540  0.66211369  1
  Sb  Sb72  1  0.16455065  0.17010669  0.00491627  1
  Sb  Sb73  1  0.32731936  0.66584620  0.66590788  1
  Sb  Sb74  1  0.83595376  0.50293428  -0.00254659  1
  Sb  Sb75  1  0.83530261  0.66692436  0.17015600  1
  Sb  Sb76  1  0.49529206  0.16734987  0.00366917  1
  Sb  Sb77  1  0.49923130  0.32848158  0.83121160  1
  Sb  Sb78  1  0.16293071  0.83185374  -0.00388251  1
  Sb  Sb79  1  0.66494982  -0.00290684  0.00562323  1
  Sb  Sb80  1  0.67025738  0.66824024  0.00370790  1
  Sb  Sb81  1  0.16434374  0.00171194  0.83487460  1
  Sb  Sb82  1  0.83709459  0.16451779  0.00438804  1
  Sb  Sb83  1  0.50053777  0.50273164  0.33367955  1
  Sb  Sb84  1  0.49880924  0.33303399  0.50063135  1
  Sb  Sb85  1  -0.00473442  0.83121576  0.82877549  1
  Sb  Sb86  1  0.66919041  0.50412178  0.83381648  1
  Sb  Sb87  1  0.33282663  0.49951841  0.83270311  1
  Sb  Sb88  1  0.16576266  0.17216642  0.66084427  1
  Sb  Sb89  1  0.16649743  0.00433199  0.49671521  1
  Sb  Sb90  1  0.33636457  0.83448923  0.82863483  1
  Sb  Sb91  1  0.00120614  0.00114235  0.00555713  1
  Sb  Sb92  1  0.16246540  0.66458981  0.16469469  1
  Sb  Sb93  1  0.67356147  0.50347859  0.49775307  1
  Sb  Sb94  1  0.83569437  -0.00175655  0.49809499  1
  Sb  Sb95  1  0.50093279  0.67032577  0.83296611  1
  Sb  Sb96  1  0.33044457  0.49819149  0.16615348  1
  Sb  Sb97  1  0.83620698  0.17264139  0.66057905  1
  Sb  Sb98  1  0.32705729  0.49897289  0.50154473  1
  Sb  Sb99  1  -0.00021680  0.17593135  0.17397459  1
  Sb  Sb100  1  0.50352149  0.66918534  0.49999982  1
  Sb  Sb101  1  0.67306879  0.33351229  0.33606457  1
  Sb  Sb102  1  0.50310148  0.83101949  0.00204963  1
  Sb  Sb103  1  -0.00030488  0.49527018  0.82847258  1
  Sb  Sb104  1  0.33715392  0.83539227  0.17256936  1
  Sb  Sb105  1  0.16600541  0.49791573  -0.00507326  1
  Sb  Sb106  1  -0.00472964  0.83066444  0.17297377  1
  Sb  Sb107  1  0.83669126  0.50116832  0.33668126  1
  Te  Te108  1  0.16601128  0.16680075  0.17301426  1
  Te  Te109  1  0.16500568  0.16991969  0.49560783  1
  Te  Te110  1  0.16032485  0.17130376  0.83350960  1
  Te  Te111  1  0.16136490  0.49398788  0.16542191  1
  Te  Te112  1  0.16100536  0.49364351  0.50635158  1
  Te  Te113  1  0.16729995  0.49921526  0.82605677  1
  Te  Te114  1  0.16692025  0.83879577  0.16504643  1
  Te  Te115  1  0.16902858  0.83389944  0.50494277  1
  Te  Te116  1  0.16679405  0.83079915  0.82790899  1
  Te  Te117  1  0.50069484  0.15975528  0.17198886  1
  Te  Te118  1  0.49750563  0.16545690  0.49397106  1
  Te  Te119  1  0.50116043  0.15810620  0.83414358  1
  Te  Te120  1  0.50220762  0.49980913  0.16422320  1
  Te  Te121  1  0.50128383  0.50110707  0.50676331  1
  Te  Te122  1  0.50239357  0.49974941  0.83216926  1
  Te  Te123  1  0.50561676  0.83750218  0.16971814  1
  Te  Te124  1  0.49826413  0.83273747  0.49898031  1
  Te  Te125  1  0.50416420  0.83783097  0.83365866  1
  Te  Te126  1  0.83333022  0.16414979  0.17271396  1
  Te  Te127  1  0.83697628  0.17026941  0.49394162  1
  Te  Te128  1  0.83806876  0.17263844  0.83443048  1
  Te  Te129  1  0.83433625  0.49811926  0.16439648  1
  Te  Te130  1  0.83700609  0.50055851  0.50409396  1
  Te  Te131  1  0.83202535  0.50001633  0.82894941  1
  Te  Te132  1  0.83024278  0.83428468  0.16844885  1
  Te  Te133  1  0.83341745  0.83197631  0.49714906  1
  Te  Te134  1  0.83174092  0.83163524  0.82900863  1
  Te  Te135  1  0.17203307  -0.00004901  0.00449061  1
  Te  Te136  1  0.16392379  0.00446540  0.32970271  1
  Te  Te137  1  0.17161158  -0.00598666  0.66828568  1
  Te  Te138  1  0.16571924  0.33432581  -0.00128276  1
  Te  Te139  1  0.16440936  0.33321775  0.33391795  1
  Te  Te140  1  0.16444470  0.33372394  0.66544776  1
  Te  Te141  1  0.16575600  0.66612972  -0.00516201  1
  Te  Te142  1  0.16646332  0.66619885  0.33282535  1
  Te  Te143  1  0.16288711  0.66565930  0.66966112  1
  Te  Te144  1  0.49581882  -0.00065424  0.00170210  1
  Te  Te145  1  0.49639871  -0.00286140  0.33061800  1
  Te  Te146  1  0.49672494  -0.00326971  0.67054438  1
  Te  Te147  1  0.49751583  0.33695265  -0.00083869  1
  Te  Te148  1  0.49857695  0.33265562  0.33298548  1
  Te  Te149  1  0.48676793  0.33401615  0.66755423  1
  Te  Te150  1  0.49451957  0.66225758  -0.00054595  1
  Te  Te151  1  0.49365429  0.67108694  0.33345376  1
  Te  Te152  1  0.49979332  0.66830004  0.66804816  1
  Te  Te153  1  0.83322798  -0.00390032  -0.00207560  1
  Te  Te154  1  0.83532548  -0.00055095  0.33531916  1
  Te  Te155  1  0.83293064  0.00185064  0.67455607  1
  Te  Te156  1  0.83683965  0.33373154  0.00403912  1
  Te  Te157  1  0.83616298  0.33382988  0.33133814  1
  Te  Te158  1  0.84119218  0.33482455  0.66543084  1
  Te  Te159  1  0.83718101  0.67044895  -0.00388987  1
  Te  Te160  1  0.83643027  0.66806588  0.33566240  1
  Te  Te161  1  0.83728545  0.66331183  0.66571007  1
  Te  Te162  1  0.00000123  0.17087942  -0.00964660  1
  Te  Te163  1  0.00053781  0.16849627  0.33630755  1
  Te  Te164  1  0.00053957  0.16753071  0.66218192  1
  Te  Te165  1  -0.00003202  0.50093495  0.00613878  1
  Te  Te166  1  0.00019555  0.50207562  0.33518562  1
  Te  Te167  1  -0.00121941  0.49971009  0.66520156  1
  Te  Te168  1  -0.00536799  0.83112439  0.00094323  1
  Te  Te169  1  -0.00150531  0.82723381  0.33689263  1
  Te  Te170  1  0.00271500  0.83306289  0.66110967  1
  Te  Te171  1  0.33200992  0.17021002  -0.00184491  1
  Te  Te172  1  0.33420005  0.16865093  0.33835949  1
  Te  Te173  1  0.33246931  0.16648678  0.65981006  1
  Te  Te174  1  0.33595973  0.49810140  -0.00018654  1
  Te  Te175  1  0.33372327  0.50069638  0.33370629  1
  Te  Te176  1  0.33820507  0.49717709  0.66611803  1
  Te  Te177  1  0.33324127  0.83223787  0.00060748  1
  Te  Te178  1  0.33084035  0.83180491  0.33881366  1
  Te  Te179  1  0.33575322  0.83254010  0.66290501  1
  Te  Te180  1  0.66515871  0.16742841  -0.00011024  1
  Te  Te181  1  0.66003311  0.16497535  0.33467592  1
  Te  Te182  1  0.66446786  0.17598497  0.66489547  1
  Te  Te183  1  0.66085716  0.50206380  0.00600760  1
  Te  Te184  1  0.66556918  0.50324121  0.32842460  1
  Te  Te185  1  0.66219303  0.49734475  0.66576665  1
  Te  Te186  1  0.67245939  0.83252920  -0.00677211  1
  Te  Te187  1  0.66765329  0.83353059  0.33512879  1
  Te  Te188  1  0.66177630  0.83269990  0.66712180  1
  Te  Te189  1  -0.00254132  -0.00076216  0.17060294  1
  Te  Te190  1  0.00103182  -0.00846501  0.49433013  1
  Te  Te191  1  -0.00438003  0.00249035  0.83468918  1
  Te  Te192  1  -0.00007234  0.33473245  0.16253957  1
  Te  Te193  1  -0.00077515  0.33520296  0.49872990  1
  Te  Te194  1  -0.00004569  0.33471537  0.83749962  1
  Te  Te195  1  0.00090111  0.66076251  0.16270223  1
  Te  Te196  1  -0.00073334  0.66765550  0.50257005  1
  Te  Te197  1  -0.00074673  0.66760918  0.83287216  1
  Te  Te198  1  0.33401954  0.00040723  0.16297015  1
  Te  Te199  1  0.33235172  -0.00164155  0.50486433  1
  Te  Te200  1  0.33386376  0.00139687  0.83381218  1
  Te  Te201  1  0.33154438  0.33278908  0.16471328  1
  Te  Te202  1  0.33239917  0.33257346  0.49845684  1
  Te  Te203  1  0.33049768  0.33227949  0.83466985  1
  Te  Te204  1  0.33093591  0.66675092  0.16590173  1
  Te  Te205  1  0.33173914  0.66977586  0.49739772  1
  Te  Te206  1  0.33142105  0.66699828  0.83836365  1
  Te  Te207  1  0.67044624  -0.00332541  0.17067133  1
  Te  Te208  1  0.66731023  -0.00582224  0.49452055  1
  Te  Te209  1  0.66914602  -0.00290831  0.83262126  1
  Te  Te210  1  0.66980286  0.33694458  0.16620422  1
  Te  Te211  1  0.66992338  0.33381877  0.50502509  1
  Te  Te212  1  0.67029104  0.33286974  0.82785545  1
  Te  Te213  1  0.66779619  0.66866768  0.17136727  1
  Te  Te214  1  0.67272189  0.67120297  0.49461174  1
  Te  Te215  1  0.67160833  0.67183369  0.83403180  1
