# generated using pymatgen
data_AgSbTe2
_symmetry_space_group_name_H-M   'P 1'
_cell_length_a   18.34558655
_cell_length_b   18.34676121
_cell_length_c   18.35350047
_cell_angle_alpha   90.00825432
_cell_angle_beta   89.99839997
_cell_angle_gamma   89.99747581
_symmetry_Int_Tables_number   1
_chemical_formula_structural   AgSbTe2
_chemical_formula_sum   'Ag54 Sb54 Te108'
_cell_volume   6177.45957715
_cell_formula_units_Z   54
loop_
 _symmetry_equiv_pos_site_id
 _symmetry_equiv_pos_as_xyz
  1  'x, y, z'
loop_
 _atom_site_type_symbol
 _atom_site_label
 _atom_site_symmetry_multiplicity
 _atom_site_fract_x
 _atom_site_fract_y
 _atom_site_fract_z
 _atom_site_occupancy
  Ag  Ag0  1  0.67731468  0.33502609  0.66920021  1
  Ag  Ag1  1  0.83478132  0.49245620  0.67065269  1
  Ag  Ag2  1  0.16672348  0.83201600  0.66552338  1
  Ag  Ag3  1  0.15307212  0.33462389  0.50867214  1
  Ag  Ag4  1  0.16257929  0.49013379  0.66819387  1
  Ag  Ag5  1  -0.00007207  0.82765312  0.82357071  1
  Ag  Ag6  1  0.50084815  0.65799548  0.83195656  1
  Ag  Ag7  1  0.83742444  0.17093928  0.34614402  1
  Ag  Ag8  1  -0.00514300  0.33510137  0.34488118  1
  Ag  Ag9  1  0.50328086  0.33791710  0.16010678  1
  Ag  Ag10  1  -0.00314727  0.18093581  0.17611780  1
  Ag  Ag11  1  -0.00216752  0.00440634  0.33826716  1
  Ag  Ag12  1  0.33120776  0.16758945  0.50199163  1
  Ag  Ag13  1  -0.00008717  0.65376923  0.33076525  1
  Ag  Ag14  1  0.83467049  0.33268940  0.82587791  1
  Ag  Ag15  1  0.34439574  0.49751437  0.16299629  1
  Ag  Ag16  1  0.50517429  0.49863376  0.67146737  1
  Ag  Ag17  1  0.83271012  0.17931635  0.66655084  1
  Ag  Ag18  1  0.83196031  0.01208681  0.82522043  1
  Ag  Ag19  1  -0.00560532  0.17604232  0.49683493  1
  Ag  Ag20  1  0.50696007  0.18111737  -0.00232094  1
  Ag  Ag21  1  0.33079448  0.33803633  0.66830788  1
  Ag  Ag22  1  0.67512783  0.33496978  0.34232539  1
  Ag  Ag23  1  0.34302815  0.33821866  -0.00934601  1
  Ag  Ag24  1  -0.00175767  0.49871252  0.16651292  1
  Ag  Ag25  1  0.15770267  0.33748571  0.82601849  1
  Ag  Ag26  1  0.67278183  0.49333012  0.82934349  1
  Ag  Ag27  1  -0.00511526  0.49782882  0.83079127  1
  Ag  Ag28  1  0.50760232  -0.00337987  0.50716223  1
  Ag  Ag29  1  0.34244949  0.83758495  0.50592018  1
  Ag  Ag30  1  0.66100481  0.83361732  0.50321788  1
  Ag  Ag31  1  0.67325176  0.49357644  0.50957558  1
  Ag  Ag32  1  0.83384088  0.00930318  0.50684369  1
  Ag  Ag33  1  0.50443961  0.49668383  -0.00292127  1
  Ag  Ag34  1  0.33594946  0.65584226  0.66703316  1
  Ag  Ag35  1  0.66333505  0.49386278  0.15874727  1
  Ag  Ag36  1  0.15496209  0.00366804  0.82994930  1
  Ag  Ag37  1  -0.00940670  0.33791319  0.65872657  1
  Ag  Ag38  1  0.00019675  0.82688551  0.17303018  1
  Ag  Ag39  1  -0.00137206  0.83531905  0.50116025  1
  Ag  Ag40  1  0.83417747  0.49317412  -0.00688412  1
  Ag  Ag41  1  0.49768076  0.82940909  0.66477330  1
  Ag  Ag42  1  0.66829642  0.00602505  0.66605893  1
  Ag  Ag43  1  0.83120829  0.17570744  -0.01160116  1
  Ag  Ag44  1  0.66542692  0.33688671  -0.00791267  1
  Ag  Ag45  1  0.67114267  0.17681238  0.83176773  1
  Ag  Ag46  1  0.84275512  0.32940582  0.51402505  1
  Ag  Ag47  1  -0.00013916  0.65826350  0.00204850  1
  Ag  Ag48  1  0.50011935  0.65441278  0.16147870  1
  Ag  Ag49  1  -0.00351102  0.48939096  0.50421773  1
  Ag  Ag50  1  0.50607779  -0.00132292  0.82442075  1
  Ag  Ag51  1  0.15338064  0.49657527  -0.00357795  1
  Ag  Ag52  1  0.50136071  0.83340308  0.34747588  1
  Ag  Ag53  1  0.15781617  0.49728474  0.33966766  1
  Sb  Sb54  1  0.16410007  0.82873425  0.34250424  1
  Sb  Sb55  1  0.50610074  0.17006150  0.67057976  1
  Sb  Sb56  1  0.16756512  0.65954261  0.83022726  1
  Sb  Sb57  1  -0.00720524  0.17189712  0.83126482  1
  Sb  Sb58  1  0.83630811  0.66114142  0.50069574  1
  Sb  Sb59  1  0.33772840  0.00332752  0.66536376  1
  Sb  Sb60  1  0.66122125  0.65937840  0.66723820  1
  Sb  Sb61  1  -0.00152185  -0.00048628  -0.00087358  1
  Sb  Sb62  1  0.50648247  0.16514924  0.33288102  1
  Sb  Sb63  1  0.49957234  0.67019348  0.50281496  1
  Sb  Sb64  1  0.15688685  0.17349425  0.33580655  1
  Sb  Sb65  1  0.32922935  0.83362373  0.82612161  1
  Sb  Sb66  1  0.83836227  0.49180261  0.33617033  1
  Sb  Sb67  1  0.33168723  0.82452490  0.17297906  1
  Sb  Sb68  1  0.67256996  0.17483602  0.16120471  1
  Sb  Sb69  1  0.33894505  0.17158105  0.82826228  1
  Sb  Sb70  1  0.33482331  0.00989807  -0.00306411  1
  Sb  Sb71  1  0.16304665  0.17662913  -0.00338990  1
  Sb  Sb72  1  0.83529013  0.00355765  0.16743255  1
  Sb  Sb73  1  0.16684808  0.33874354  0.16592135  1
  Sb  Sb74  1  0.33203256  0.66363070  0.33849465  1
  Sb  Sb75  1  0.66979815  0.83337233  0.82641634  1
  Sb  Sb76  1  0.16163359  -0.00046204  0.16251584  1
  Sb  Sb77  1  0.49994022  0.82794141  -0.00692801  1
  Sb  Sb78  1  0.50040359  0.50143651  0.33328758  1
  Sb  Sb79  1  0.33052200  0.17593763  0.16968689  1
  Sb  Sb80  1  0.66860878  0.82658269  0.17410393  1
  Sb  Sb81  1  0.83446893  0.66092012  0.16639650  1
  Sb  Sb82  1  0.67000916  0.65578568  -0.00030735  1
  Sb  Sb83  1  0.00476809  0.65984068  0.66571351  1
  Sb  Sb84  1  0.33414558  0.49554702  0.83357824  1
  Sb  Sb85  1  0.50843559  0.33569812  0.83603109  1
  Sb  Sb86  1  0.66746374  0.00909234  -0.01071868  1
  Sb  Sb87  1  0.67204331  0.00508421  0.34272339  1
  Sb  Sb88  1  0.16132291  0.17208658  0.66693925  1
  Sb  Sb89  1  0.83223744  0.65930381  0.83260830  1
  Sb  Sb90  1  0.16229615  0.00340464  0.50520891  1
  Sb  Sb91  1  0.33140822  0.65759280  -0.00422048  1
  Sb  Sb92  1  0.32922502  -0.00018013  0.33683257  1
  Sb  Sb93  1  0.83509630  0.83298059  -0.00282969  1
  Sb  Sb94  1  0.50384334  0.33102679  0.50118745  1
  Sb  Sb95  1  0.67266582  0.16962318  0.50681432  1
  Sb  Sb96  1  0.16451795  0.65973469  0.50257509  1
  Sb  Sb97  1  0.33241538  0.49758617  0.50295857  1
  Sb  Sb98  1  0.33198556  0.33598284  0.33665292  1
  Sb  Sb99  1  0.83448867  0.83951232  0.33810215  1
  Sb  Sb100  1  0.50154137  0.00105579  0.16668738  1
  Sb  Sb101  1  0.83345993  0.83234797  0.66489374  1
  Sb  Sb102  1  -0.00523608  0.33888216  -0.00130606  1
  Sb  Sb103  1  0.16668956  0.66137524  0.16700395  1
  Sb  Sb104  1  0.16279476  0.82702450  -0.00724341  1
  Sb  Sb105  1  -0.00522589  0.00386513  0.66359643  1
  Sb  Sb106  1  0.66936241  0.65867684  0.33519483  1
  Sb  Sb107  1  0.83010352  0.33462919  0.16525502  1
  Te  Te108  1  0.15843613  0.16687600  0.16584406  1
  Te  Te109  1  0.16465205  0.17138400  0.50033014  1
  Te  Te110  1  0.16737685  0.16383712  0.83389668  1
  Te  Te111  1  0.15723768  0.50011274  0.16074852  1
  Te  Te112  1  0.16558022  0.49497719  0.50376362  1
  Te  Te113  1  0.16536727  0.49694449  0.83084087  1
  Te  Te114  1  0.16268053  0.83164535  0.16720629  1
  Te  Te115  1  0.16327126  0.83528032  0.50526591  1
  Te  Te116  1  0.16152648  0.83491832  0.82802882  1
  Te  Te117  1  0.49947900  0.17002989  0.16069913  1
  Te  Te118  1  0.49857889  0.15974269  0.49874538  1
  Te  Te119  1  0.50535711  0.16168266  0.83775168  1
  Te  Te120  1  0.50243053  0.49772567  0.17124189  1
  Te  Te121  1  0.50304682  0.50089897  0.50245634  1
  Te  Te122  1  0.50024293  0.49991992  0.83134682  1
  Te  Te123  1  0.49929195  0.83130264  0.16537891  1
  Te  Te124  1  0.50117219  0.83449730  0.50487627  1
  Te  Te125  1  0.50050471  0.83747103  0.82725782  1
  Te  Te126  1  0.83975169  0.16533495  0.16340509  1
  Te  Te127  1  0.83377384  0.16846813  0.50495475  1
  Te  Te128  1  0.83186471  0.16978085  0.82966019  1
  Te  Te129  1  0.83398613  0.50033182  0.16068376  1
  Te  Te130  1  0.83393866  0.49523884  0.50159588  1
  Te  Te131  1  0.83334810  0.49827434  0.83293442  1
  Te  Te132  1  0.83816453  0.83333294  0.16633537  1
  Te  Te133  1  0.83546214  0.83635138  0.50060969  1
  Te  Te134  1  0.83976604  0.83530582  0.83283124  1
  Te  Te135  1  0.16726023  0.00034615  -0.00962970  1
  Te  Te136  1  0.15946946  -0.00103063  0.33208523  1
  Te  Te137  1  0.16591819  -0.00363542  0.67175546  1
  Te  Te138  1  0.17021527  0.33852173  -0.00298416  1
  Te  Te139  1  0.16392359  0.33896037  0.33585059  1
  Te  Te140  1  0.16789735  0.33244379  0.66719303  1
  Te  Te141  1  0.16226934  0.65791921  -0.00185097  1
  Te  Te142  1  0.16156112  0.65956327  0.33419721  1
  Te  Te143  1  0.17361238  0.67211297  0.66715557  1
  Te  Te144  1  0.50017711  0.00018491  -0.00306657  1
  Te  Te145  1  0.50103891  -0.00440353  0.33553734  1
  Te  Te146  1  0.50348801  0.00321159  0.66504182  1
  Te  Te147  1  0.50207235  0.33730634  -0.00178548  1
  Te  Te148  1  0.50177522  0.33275425  0.32798625  1
  Te  Te149  1  0.49379785  0.33694244  0.66735843  1
  Te  Te150  1  0.49913603  0.66094880  -0.00207131  1
  Te  Te151  1  0.50047418  0.67158708  0.33018904  1
  Te  Te152  1  0.49613386  0.66538546  0.66883503  1
  Te  Te153  1  0.83256874  0.00514752  -0.00668113  1
  Te  Te154  1  0.83793735  0.00769858  0.33796963  1
  Te  Te155  1  0.82995334  -0.00243619  0.66598201  1
  Te  Te156  1  0.82966527  0.33376765  -0.00045890  1
  Te  Te157  1  0.83381678  0.32967106  0.33162828  1
  Te  Te158  1  0.83201362  0.33758170  0.66861767  1
  Te  Te159  1  0.83991283  0.66208101  -0.00050847  1
  Te  Te160  1  0.84036889  0.66892187  0.33327374  1
  Te  Te161  1  0.83362392  0.65733816  0.66667215  1
  Te  Te162  1  -0.00517752  0.16669902  0.00395957  1
  Te  Te163  1  -0.00311472  0.17006858  0.33552569  1
  Te  Te164  1  -0.00531826  0.17228030  0.66253430  1
  Te  Te165  1  -0.00334688  0.49914962  -0.00340201  1
  Te  Te166  1  -0.00086900  0.49669821  0.33822566  1
  Te  Te167  1  0.00261308  0.49957124  0.66526645  1
  Te  Te168  1  0.00005745  0.82895192  0.00400536  1
  Te  Te169  1  0.00057846  0.83587996  0.33429610  1
  Te  Te170  1  0.00063271  0.83119015  0.66586299  1
  Te  Te171  1  0.33671688  0.17614940  0.00180717  1
  Te  Te172  1  0.33335714  0.16684453  0.33897996  1
  Te  Te173  1  0.33375046  0.17235178  0.66108933  1
  Te  Te174  1  0.34165140  0.49668159  0.00246302  1
  Te  Te175  1  0.32519412  0.50104022  0.32847836  1
  Te  Te176  1  0.33100857  0.49848512  0.66608744  1
  Te  Te177  1  0.33103434  0.83296510  0.00218021  1
  Te  Te178  1  0.33689564  0.83201356  0.34075672  1
  Te  Te179  1  0.33631340  0.83768707  0.66338751  1
  Te  Te180  1  0.66817258  0.17294306  -0.00472189  1
  Te  Te181  1  0.67382952  0.17287883  0.33008826  1
  Te  Te182  1  0.67090477  0.16896390  0.67137760  1
  Te  Te183  1  0.66520254  0.49700034  -0.00123805  1
  Te  Te184  1  0.66869918  0.49496844  0.33558509  1
  Te  Te185  1  0.66467011  0.49820456  0.66800751  1
  Te  Te186  1  0.66734388  0.83321500  0.00333763  1
  Te  Te187  1  0.66332415  0.83376589  0.33928835  1
  Te  Te188  1  0.66356831  0.83319760  0.66210761  1
  Te  Te189  1  -0.00001857  -0.00726039  0.17097152  1
  Te  Te190  1  -0.00259565  -0.00192701  0.49899730  1
  Te  Te191  1  -0.00365723  -0.00008544  0.83212375  1
  Te  Te192  1  0.00077829  0.33790931  0.16789127  1
  Te  Te193  1  -0.00218662  0.33404309  0.49997609  1
  Te  Te194  1  -0.00233105  0.33651046  0.83256938  1
  Te  Te195  1  0.00041431  0.66229398  0.16750305  1
  Te  Te196  1  0.00054004  0.67460092  0.49545441  1
  Te  Te197  1  0.00003509  0.66489945  0.83552612  1
  Te  Te198  1  0.33092470  -0.00029449  0.16712342  1
  Te  Te199  1  0.33368881  0.00045083  0.49931109  1
  Te  Te200  1  0.34038953  0.00159902  0.83317975  1
  Te  Te201  1  0.33721628  0.33851988  0.16607095  1
  Te  Te202  1  0.33549614  0.33057291  0.50337381  1
  Te  Te203  1  0.32348315  0.33216116  0.83129081  1
  Te  Te204  1  0.33928890  0.65993723  0.16662897  1
  Te  Te205  1  0.33208523  0.67274269  0.50564524  1
  Te  Te206  1  0.34027091  0.66777586  0.82830069  1
  Te  Te207  1  0.66739470  -0.00231482  0.16714475  1
  Te  Te208  1  0.66867618  0.00044491  0.50421091  1
  Te  Te209  1  0.66911682  -0.00135935  0.82642420  1
  Te  Te210  1  0.66281292  0.33656416  0.16437719  1
  Te  Te211  1  0.66775875  0.33511451  0.50186557  1
  Te  Te212  1  0.66868598  0.33616905  0.83101947  1
  Te  Te213  1  0.66012013  0.65927551  0.16769360  1
  Te  Te214  1  0.66827555  0.66908756  0.49947122  1
  Te  Te215  1  0.66048042  0.66476966  0.83446544  1
