# generated using pymatgen
data_AgSbTe2
_symmetry_space_group_name_H-M   'P 1'
_cell_length_a   18.31064650
_cell_length_b   18.31309658
_cell_length_c   18.30815441
_cell_angle_alpha   90.00091609
_cell_angle_beta   90.00040701
_cell_angle_gamma   89.99907911
_symmetry_Int_Tables_number   1
_chemical_formula_structural   AgSbTe2
_chemical_formula_sum   'Ag54 Sb54 Te108'
_cell_volume   6139.17524407
_cell_formula_units_Z   54
loop_
 _symmetry_equiv_pos_site_id
 _symmetry_equiv_pos_as_xyz
  1  'x, y, z'
loop_
 _atom_site_type_symbol
 _atom_site_label
 _atom_site_symmetry_multiplicity
 _atom_site_fract_x
 _atom_site_fract_y
 _atom_site_fract_z
 _atom_site_occupancy
  Ag  Ag0  1  0.33391931  0.65805079  0.65295602  1
  Ag  Ag1  1  -0.00214956  0.00385282  0.66735405  1
  Ag  Ag2  1  0.50810114  0.83353864  0.01205774  1
  Ag  Ag3  1  0.17487745  0.50382310  0.33328791  1
  Ag  Ag4  1  0.66553209  0.16823167  0.17069633  1
  Ag  Ag5  1  0.49847395  0.83745892  0.33028938  1
  Ag  Ag6  1  0.17348665  -0.00444649  0.50033795  1
  Ag  Ag7  1  0.66508683  0.83132221  0.49607969  1
  Ag  Ag8  1  0.66759794  0.00007811  0.66272376  1
  Ag  Ag9  1  0.00248613  0.33288722  0.66753876  1
  Ag  Ag10  1  0.66371819  0.16709311  0.49195040  1
  Ag  Ag11  1  0.82222080  0.33649754  0.17053149  1
  Ag  Ag12  1  0.33772277  -0.00084854  0.33104212  1
  Ag  Ag13  1  0.33853951  0.50378907  0.49640979  1
  Ag  Ag14  1  0.82685849  0.82558817  0.00517469  1
  Ag  Ag15  1  0.82292357  0.16816876  0.33160324  1
  Ag  Ag16  1  0.66699417  0.33768666  0.00523049  1
  Ag  Ag17  1  0.16363101  0.66163465  0.17389751  1
  Ag  Ag18  1  0.17086689  0.33804983  0.16367313  1
  Ag  Ag19  1  0.50379841  0.32914169  0.16811171  1
  Ag  Ag20  1  0.83285280  0.49939384  0.66415194  1
  Ag  Ag21  1  0.66434543  0.50215641  0.49524829  1
  Ag  Ag22  1  0.17524993  0.33072596  0.83714869  1
  Ag  Ag23  1  -0.00570405  0.83039689  0.49903787  1
  Ag  Ag24  1  0.16860932  0.16531108  0.00025789  1
  Ag  Ag25  1  0.49934800  -0.00323725  0.49119630  1
  Ag  Ag26  1  0.33088384  0.49018018  0.82711236  1
  Ag  Ag27  1  0.82887394  0.66244201  0.49270484  1
  Ag  Ag28  1  0.66230656  0.83349707  0.16466633  1
  Ag  Ag29  1  0.34344733  0.83536517  0.16942024  1
  Ag  Ag30  1  0.83047945  0.66594758  0.16645134  1
  Ag  Ag31  1  0.33312904  0.33827937  0.66833642  1
  Ag  Ag32  1  0.82984501  0.34063737  0.49452710  1
  Ag  Ag33  1  0.16786240  0.00600053  0.83423788  1
  Ag  Ag34  1  0.66509499  0.83377927  0.84758801  1
  Ag  Ag35  1  0.66726794  0.49769330  0.16867324  1
  Ag  Ag36  1  0.00318532  0.49870270  0.83292675  1
  Ag  Ag37  1  0.83012314  0.50580847  0.00345368  1
  Ag  Ag38  1  0.17208372  0.66791046  0.49214751  1
  Ag  Ag39  1  0.33383232  0.17374595  0.83333245  1
  Ag  Ag40  1  -0.00844580  0.66982066  0.00760468  1
  Ag  Ag41  1  0.67224885  0.66858304  0.00611987  1
  Ag  Ag42  1  0.82247240  -0.00443842  0.16631671  1
  Ag  Ag43  1  0.49238065  0.33324955  0.83697694  1
  Ag  Ag44  1  0.50232478  0.16243685  0.33427913  1
  Ag  Ag45  1  0.50038969  0.16683942  0.65811284  1
  Ag  Ag46  1  0.50392924  -0.00404300  0.17264582  1
  Ag  Ag47  1  0.49514852  0.50127361  0.33486318  1
  Ag  Ag48  1  0.00438313  0.66612534  0.33188580  1
  Ag  Ag49  1  0.33161566  0.65970275  0.33599476  1
  Ag  Ag50  1  0.33024890  -0.00022518  0.00598560  1
  Ag  Ag51  1  0.00407937  -0.00539200  -0.00192245  1
  Ag  Ag52  1  0.49828783  0.66800589  0.49515814  1
  Ag  Ag53  1  0.33561585  0.34043128  0.33470549  1
  Sb  Sb54  1  0.16650952  0.33491195  0.49982675  1
  Sb  Sb55  1  0.16763513  0.66435237  0.83395361  1
  Sb  Sb56  1  0.65805903  0.00178816  0.33455258  1
  Sb  Sb57  1  0.00200810  0.66547914  0.66328486  1
  Sb  Sb58  1  0.66387114  0.66921271  0.66399068  1
  Sb  Sb59  1  0.82795101  0.16983538  0.65963784  1
  Sb  Sb60  1  0.83321015  0.33555298  0.83437122  1
  Sb  Sb61  1  0.33426737  0.00142705  0.66492637  1
  Sb  Sb62  1  0.50395321  0.33343747  0.49518954  1
  Sb  Sb63  1  0.83146914  0.82942198  0.66685647  1
  Sb  Sb64  1  0.16713367  0.83407957  0.66267475  1
  Sb  Sb65  1  0.83305335  0.66554065  0.83880852  1
  Sb  Sb66  1  0.17159378  0.16981857  0.32929197  1
  Sb  Sb67  1  0.49668042  0.00257529  0.83465912  1
  Sb  Sb68  1  -0.00604738  0.50173502  0.16441403  1
  Sb  Sb69  1  0.66002359  0.16368107  0.83478716  1
  Sb  Sb70  1  0.33952902  0.16960324  0.50139493  1
  Sb  Sb71  1  -0.00439478  0.16252558  0.50029451  1
  Sb  Sb72  1  0.82637619  0.83455871  0.32948970  1
  Sb  Sb73  1  0.66381333  0.66583598  0.33091526  1
  Sb  Sb74  1  0.49892774  0.66290828  0.83027023  1
  Sb  Sb75  1  0.50291227  0.66940606  0.17397987  1
  Sb  Sb76  1  0.49734839  0.16365441  0.00477087  1
  Sb  Sb77  1  -0.00306804  0.83117216  0.83285799  1
  Sb  Sb78  1  0.16739684  0.49923067  0.66345050  1
  Sb  Sb79  1  0.00254836  0.33911533  0.33676014  1
  Sb  Sb80  1  0.66541450  0.50250041  0.83504303  1
  Sb  Sb81  1  0.17209769  0.16715495  0.66984094  1
  Sb  Sb82  1  0.83611193  -0.00084344  0.83819958  1
  Sb  Sb83  1  -0.00210302  0.50534416  0.50195012  1
  Sb  Sb84  1  0.00465909  -0.00621489  0.33363444  1
  Sb  Sb85  1  0.33960385  0.16454288  0.16532122  1
  Sb  Sb86  1  0.82948870  0.49885379  0.33209407  1
  Sb  Sb87  1  0.50462553  0.50246369  0.00565828  1
  Sb  Sb88  1  0.66580780  -0.00332613  0.00236867  1
  Sb  Sb89  1  0.33822467  0.50163176  0.17109253  1
  Sb  Sb90  1  0.33755038  0.83424623  0.83859029  1
  Sb  Sb91  1  -0.00272079  0.33514161  -0.00267450  1
  Sb  Sb92  1  0.16366011  0.49726876  0.00381679  1
  Sb  Sb93  1  0.50155202  0.83785886  0.66209024  1
  Sb  Sb94  1  0.50034463  0.49572154  0.66085819  1
  Sb  Sb95  1  -0.00557496  0.16685878  0.16666159  1
  Sb  Sb96  1  0.82797111  -0.00174144  0.49425670  1
  Sb  Sb97  1  0.33638432  0.33086000  -0.00033821  1
  Sb  Sb98  1  0.17126817  -0.00017959  0.16697101  1
  Sb  Sb99  1  0.16546448  0.83659534  0.00206282  1
  Sb  Sb100  1  0.00628359  0.17012579  0.83393316  1
  Sb  Sb101  1  0.33786063  0.82748698  0.49392228  1
  Sb  Sb102  1  0.65919327  0.33260885  0.32607405  1
  Sb  Sb103  1  0.83478471  0.16709936  0.00775628  1
  Sb  Sb104  1  0.66382254  0.33064189  0.66686167  1
  Sb  Sb105  1  0.17439031  0.82585577  0.33285231  1
  Sb  Sb106  1  -0.00332259  0.83049863  0.16977211  1
  Sb  Sb107  1  0.33387882  0.67053709  0.00618543  1
  Te  Te108  1  0.16707831  0.17166448  0.16230459  1
  Te  Te109  1  0.16600204  0.16012723  0.49881616  1
  Te  Te110  1  0.17183451  0.16753001  0.83592594  1
  Te  Te111  1  0.16767468  0.49977564  0.17013166  1
  Te  Te112  1  0.17001239  0.50335099  0.49568975  1
  Te  Te113  1  0.16770038  0.49635710  0.83347095  1
  Te  Te114  1  0.17010244  0.82836107  0.16626147  1
  Te  Te115  1  0.16471188  0.83408453  0.49870483  1
  Te  Te116  1  0.16683030  0.83909392  0.83348792  1
  Te  Te117  1  0.50461983  0.16737414  0.17011259  1
  Te  Te118  1  0.50413553  0.16587852  0.49662756  1
  Te  Te119  1  0.49485500  0.17073270  0.83385758  1
  Te  Te120  1  0.50585878  0.49687330  0.17199932  1
  Te  Te121  1  0.50107389  0.50046282  0.49635722  1
  Te  Te122  1  0.49600059  0.49472127  0.83269456  1
  Te  Te123  1  0.50177205  0.83325171  0.16867743  1
  Te  Te124  1  0.50347033  0.83484106  0.49676996  1
  Te  Te125  1  0.50591182  0.83325209  0.83430028  1
  Te  Te126  1  0.82793489  0.17021168  0.17158328  1
  Te  Te127  1  0.82668541  0.16900978  0.49344549  1
  Te  Te128  1  0.83170343  0.16698566  0.83229627  1
  Te  Te129  1  0.82834714  0.50048955  0.16506775  1
  Te  Te130  1  0.83123005  0.50085096  0.49884842  1
  Te  Te131  1  0.83512053  0.49967962  0.83317980  1
  Te  Te132  1  0.83014424  0.83118015  0.16471147  1
  Te  Te133  1  0.82946898  0.82906034  0.49875409  1
  Te  Te134  1  0.82724903  0.83289071  0.83911573  1
  Te  Te135  1  0.16720971  0.00261729  -0.00031419  1
  Te  Te136  1  0.17334690  0.00116378  0.33768025  1
  Te  Te137  1  0.16314232  0.00119502  0.66397221  1
  Te  Te138  1  0.16539308  0.32969008  0.00089996  1
  Te  Te139  1  0.17170746  0.33767436  0.33045752  1
  Te  Te140  1  0.16764194  0.33324166  0.67028837  1
  Te  Te141  1  0.16347568  0.66691505  0.00493294  1
  Te  Te142  1  0.16862116  0.66535898  0.33345672  1
  Te  Te143  1  0.17237544  0.66657430  0.66180255  1
  Te  Te144  1  0.49614954  -0.00415867  0.00263159  1
  Te  Te145  1  0.49635476  0.00135253  0.33290495  1
  Te  Te146  1  0.50244974  0.00515832  0.66479638  1
  Te  Te147  1  0.50435129  0.33416468  0.00358202  1
  Te  Te148  1  0.49428787  0.33303265  0.32982169  1
  Te  Te149  1  0.49582003  0.32880721  0.66878075  1
  Te  Te150  1  0.50303578  0.67209451  -0.00078408  1
  Te  Te151  1  0.49679457  0.66508877  0.33732757  1
  Te  Te152  1  0.49527524  0.66625166  0.65940695  1
  Te  Te153  1  0.83732111  -0.00086171  0.00555761  1
  Te  Te154  1  0.83772689  0.00402593  0.32589465  1
  Te  Te155  1  0.83517521  0.00012856  0.66676646  1
  Te  Te156  1  0.83033343  0.33594133  0.00463336  1
  Te  Te157  1  0.83701518  0.33149670  0.33158051  1
  Te  Te158  1  0.83529993  0.33701154  0.66511873  1
  Te  Te159  1  0.83297074  0.66555836  0.00187151  1
  Te  Te160  1  0.83712683  0.66667886  0.33232184  1
  Te  Te161  1  0.83355784  0.66121081  0.66048690  1
  Te  Te162  1  0.00503987  0.16076766  -0.00053444  1
  Te  Te163  1  -0.00172319  0.16662876  0.33411638  1
  Te  Te164  1  -0.00161164  0.16587357  0.66708889  1
  Te  Te165  1  -0.00442071  0.50315704  -0.00395424  1
  Te  Te166  1  0.00694815  0.50679179  0.33337031  1
  Te  Te167  1  -0.00321915  0.49760320  0.67017472  1
  Te  Te168  1  -0.00480089  0.83262150  -0.00068674  1
  Te  Te169  1  -0.00120141  0.82673619  0.33858632  1
  Te  Te170  1  -0.00125177  0.83861253  0.66281018  1
  Te  Te171  1  0.32989044  0.16166863  -0.00349151  1
  Te  Te172  1  0.33827917  0.16652183  0.33340985  1
  Te  Te173  1  0.33908486  0.17068001  0.66960295  1
  Te  Te174  1  0.33425347  0.50203063  -0.00585486  1
  Te  Te175  1  0.33457612  0.49972701  0.33349841  1
  Te  Te176  1  0.33392385  0.49846206  0.66524155  1
  Te  Te177  1  0.33679417  0.83813514  0.00526424  1
  Te  Te178  1  0.33928128  0.83627352  0.32965858  1
  Te  Te179  1  0.33466352  0.82632043  0.66882166  1
  Te  Te180  1  0.66683649  0.17021508  0.00542626  1
  Te  Te181  1  0.66470790  0.16755330  0.33236028  1
  Te  Te182  1  0.66109401  0.16222569  0.66528964  1
  Te  Te183  1  0.67012629  0.50192879  0.00109054  1
  Te  Te184  1  0.66173866  0.49911874  0.33483634  1
  Te  Te185  1  0.67180097  0.49985788  0.66394426  1
  Te  Te186  1  0.66734963  0.83428619  0.00399828  1
  Te  Te187  1  0.65972366  0.83274525  0.33395202  1
  Te  Te188  1  0.66712769  0.83834990  0.65877489  1
  Te  Te189  1  -0.00057646  -0.00140993  0.16329992  1
  Te  Te190  1  -0.00065206  -0.00500399  0.50176492  1
  Te  Te191  1  0.00532947  -0.00026024  0.83357522  1
  Te  Te192  1  0.00421901  0.33417501  0.16655179  1
  Te  Te193  1  -0.00403904  0.33294784  0.50556975  1
  Te  Te194  1  0.00274307  0.33741178  0.82958521  1
  Te  Te195  1  -0.00060065  0.66638882  0.16676732  1
  Te  Te196  1  0.00078854  0.67053084  0.49940281  1
  Te  Te197  1  0.00150795  0.66134049  0.83546175  1
  Te  Te198  1  0.33644976  -0.00173113  0.16666718  1
  Te  Te199  1  0.33560066  -0.00076241  0.49822252  1
  Te  Te200  1  0.32818895  0.00150902  0.83358019  1
  Te  Te201  1  0.33413168  0.33316568  0.16822158  1
  Te  Te202  1  0.33330232  0.33826289  0.50068582  1
  Te  Te203  1  0.33278599  0.33350603  0.83587360  1
  Te  Te204  1  0.33116181  0.67002763  0.17185990  1
  Te  Te205  1  0.33414539  0.66553988  0.49660782  1
  Te  Te206  1  0.33248136  0.66338446  0.83280076  1
  Te  Te207  1  0.66495757  -0.00130834  0.16661311  1
  Te  Te208  1  0.66414041  -0.00015777  0.50191516  1
  Te  Te209  1  0.66627320  -0.00467667  0.82781993  1
  Te  Te210  1  0.66565313  0.33510283  0.16559187  1
  Te  Te211  1  0.67121247  0.33422359  0.50178125  1
  Te  Te212  1  0.66164190  0.33348415  0.83953325  1
  Te  Te213  1  0.66890781  0.66674447  0.16511880  1
  Te  Te214  1  0.66647725  0.66533664  0.49981173  1
  Te  Te215  1  0.66530561  0.67267705  0.83689790  1
