# generated using pymatgen
data_AgSbTe2
_symmetry_space_group_name_H-M   'P 1'
_cell_length_a   18.34049625
_cell_length_b   18.33632764
_cell_length_c   18.33571159
_cell_angle_alpha   89.99781014
_cell_angle_beta   90.00293348
_cell_angle_gamma   90.00086142
_symmetry_Int_Tables_number   1
_chemical_formula_structural   AgSbTe2
_chemical_formula_sum   'Ag54 Sb54 Te108'
_cell_volume   6166.25117221
_cell_formula_units_Z   54
loop_
 _symmetry_equiv_pos_site_id
 _symmetry_equiv_pos_as_xyz
  1  'x, y, z'
loop_
 _atom_site_type_symbol
 _atom_site_label
 _atom_site_symmetry_multiplicity
 _atom_site_fract_x
 _atom_site_fract_y
 _atom_site_fract_z
 _atom_site_occupancy
  Ag  Ag0  1  0.65903173  -0.00399936  0.66200609  1
  Ag  Ag1  1  0.83551237  0.84641117  0.33677407  1
  Ag  Ag2  1  0.83143991  0.67143568  0.16717828  1
  Ag  Ag3  1  0.16931563  0.00126422  0.83549085  1
  Ag  Ag4  1  0.33491534  0.83631200  0.83072362  1
  Ag  Ag5  1  0.33259866  0.83993542  0.17371907  1
  Ag  Ag6  1  0.67947114  0.32819124  -0.00324706  1
  Ag  Ag7  1  0.16903418  0.32645174  0.48725559  1
  Ag  Ag8  1  0.65619697  0.84298313  0.82710980  1
  Ag  Ag9  1  0.83978579  0.15844952  0.32379954  1
  Ag  Ag10  1  0.32778276  0.66933681  -0.00206497  1
  Ag  Ag11  1  0.00171917  0.32905277  0.00258050  1
  Ag  Ag12  1  0.16243680  0.32255791  0.16630189  1
  Ag  Ag13  1  0.33280343  0.32746429  0.66868875  1
  Ag  Ag14  1  0.16727277  0.68449409  0.49636058  1
  Ag  Ag15  1  0.32275737  0.32900722  0.33572493  1
  Ag  Ag16  1  0.68068913  -0.00173352  0.34128588  1
  Ag  Ag17  1  0.00228901  0.83468158  0.83180623  1
  Ag  Ag18  1  0.33120397  0.49908003  0.83355373  1
  Ag  Ag19  1  -0.00532438  0.00091019  0.32998355  1
  Ag  Ag20  1  0.83904301  0.16951696  0.00727029  1
  Ag  Ag21  1  0.84211848  0.32077163  0.16203002  1
  Ag  Ag22  1  0.49203450  0.33347424  0.83300664  1
  Ag  Ag23  1  0.67893345  0.16489014  0.16195177  1
  Ag  Ag24  1  0.66615093  0.16190295  0.84100583  1
  Ag  Ag25  1  0.16492413  0.16243040  0.32672683  1
  Ag  Ag26  1  0.00247057  0.00252984  0.00483327  1
  Ag  Ag27  1  0.83870756  0.00350812  0.17696549  1
  Ag  Ag28  1  0.66597052  0.84039058  0.50451859  1
  Ag  Ag29  1  0.49953650  0.67089293  0.16130441  1
  Ag  Ag30  1  0.00472541  0.32492761  0.32339125  1
  Ag  Ag31  1  0.32209832  0.16220565  0.17051969  1
  Ag  Ag32  1  0.33102686  0.83992754  0.49873807  1
  Ag  Ag33  1  0.16908392  0.00097856  0.49021277  1
  Ag  Ag34  1  0.00515379  0.83623074  0.49894548  1
  Ag  Ag35  1  0.16371463  0.48975942  -0.00239518  1
  Ag  Ag36  1  0.33697628  -0.00039946  0.66293555  1
  Ag  Ag37  1  0.16398505  0.00436502  0.17424313  1
  Ag  Ag38  1  0.83221183  -0.00314581  0.48952523  1
  Ag  Ag39  1  0.49604030  0.67542874  0.83635677  1
  Ag  Ag40  1  0.49594059  -0.00845318  0.82725534  1
  Ag  Ag41  1  0.49630612  -0.00477534  0.50462437  1
  Ag  Ag42  1  0.82587050  0.83721218  0.66139582  1
  Ag  Ag43  1  0.49796087  0.50524894  0.67073461  1
  Ag  Ag44  1  0.83550381  0.49590667  0.33178407  1
  Ag  Ag45  1  0.00455342  0.66809005  -0.00104539  1
  Ag  Ag46  1  0.83680641  0.33128977  0.84269190  1
  Ag  Ag47  1  0.49284103  0.83728883  0.34218180  1
  Ag  Ag48  1  0.00842301  0.49757631  0.83836943  1
  Ag  Ag49  1  0.16641317  0.32693699  0.84041578  1
  Ag  Ag50  1  0.33009400  0.15722864  0.49450114  1
  Ag  Ag51  1  0.16276689  0.16871124  0.00787074  1
  Ag  Ag52  1  0.16631600  0.84666747  0.33826860  1
  Ag  Ag53  1  0.50126138  0.83595756  0.66647635  1
  Sb  Sb54  1  0.83430777  0.00166229  0.83417144  1
  Sb  Sb55  1  0.16697291  0.67002966  0.16675967  1
  Sb  Sb56  1  0.32874214  0.00261539  0.33985806  1
  Sb  Sb57  1  0.33505557  0.16506303  0.83458439  1
  Sb  Sb58  1  0.66934203  0.49402284  0.16629754  1
  Sb  Sb59  1  0.49808236  0.15778115  0.66896807  1
  Sb  Sb60  1  0.49363047  0.49973987  -0.00639356  1
  Sb  Sb61  1  0.00061804  0.16527379  0.16580277  1
  Sb  Sb62  1  0.00239175  0.50430263  0.50240202  1
  Sb  Sb63  1  0.66707052  0.66354222  0.00039579  1
  Sb  Sb64  1  0.66044316  0.32539979  0.67412336  1
  Sb  Sb65  1  0.66729228  0.50565089  0.49987989  1
  Sb  Sb66  1  0.83866731  0.67947842  0.49302340  1
  Sb  Sb67  1  0.67233371  0.00557102  -0.00167393  1
  Sb  Sb68  1  -0.00052526  0.67011264  0.32770703  1
  Sb  Sb69  1  0.66429372  0.67747133  0.66882026  1
  Sb  Sb70  1  0.17077936  0.66922367  0.83315246  1
  Sb  Sb71  1  0.83035191  0.16032278  0.66655796  1
  Sb  Sb72  1  0.33180623  0.49897309  0.16160170  1
  Sb  Sb73  1  0.66277836  0.49757725  0.83382208  1
  Sb  Sb74  1  0.82889679  0.50278876  0.66612452  1
  Sb  Sb75  1  0.83183815  0.66631968  0.83908940  1
  Sb  Sb76  1  0.84038792  0.49236166  0.00395170  1
  Sb  Sb77  1  0.33246648  0.66919395  0.32915951  1
  Sb  Sb78  1  0.00527860  0.33507735  0.67032225  1
  Sb  Sb79  1  0.66427547  0.83963282  0.16717755  1
  Sb  Sb80  1  -0.00057088  0.49763015  0.16195277  1
  Sb  Sb81  1  0.33458937  0.67149666  0.67200978  1
  Sb  Sb82  1  0.33132809  0.50133578  0.50608620  1
  Sb  Sb83  1  0.00264121  0.83691443  0.16927093  1
  Sb  Sb84  1  0.66309215  0.15827364  0.49778280  1
  Sb  Sb85  1  0.17245323  0.49729418  0.67300371  1
  Sb  Sb86  1  0.84008593  0.32447429  0.49404998  1
  Sb  Sb87  1  0.67143190  0.32326488  0.32940516  1
  Sb  Sb88  1  0.49461825  0.67706412  0.50192779  1
  Sb  Sb89  1  0.17131909  0.83640278  0.66218604  1
  Sb  Sb90  1  0.00797177  0.15723431  0.49363539  1
  Sb  Sb91  1  -0.00094456  0.16549163  0.83704745  1
  Sb  Sb92  1  0.32688739  -0.00243853  -0.00315217  1
  Sb  Sb93  1  0.49256669  0.32678560  0.50573535  1
  Sb  Sb94  1  0.49918801  0.16711547  -0.00043492  1
  Sb  Sb95  1  0.49775582  0.33426339  0.16307379  1
  Sb  Sb96  1  0.83612557  0.83924510  0.00297427  1
  Sb  Sb97  1  0.32562126  0.33370109  -0.00188673  1
  Sb  Sb98  1  0.50133799  0.50426317  0.33681300  1
  Sb  Sb99  1  0.16311185  0.49454422  0.32903981  1
  Sb  Sb100  1  0.16622080  0.83765588  0.00181197  1
  Sb  Sb101  1  0.00091985  0.67126392  0.67239917  1
  Sb  Sb102  1  0.66828666  0.67767293  0.33201153  1
  Sb  Sb103  1  0.16906295  0.16559840  0.66505195  1
  Sb  Sb104  1  0.49867489  0.83339090  -0.00389152  1
  Sb  Sb105  1  0.00198101  -0.00284106  0.66569216  1
  Sb  Sb106  1  0.49638818  0.15955007  0.33247132  1
  Sb  Sb107  1  0.49705092  -0.00309539  0.16787966  1
  Te  Te108  1  0.16469947  0.16539992  0.16740665  1
  Te  Te109  1  0.17182310  0.16639487  0.49820381  1
  Te  Te110  1  0.16680238  0.16611208  0.83568014  1
  Te  Te111  1  0.16695835  0.49786047  0.16032093  1
  Te  Te112  1  0.16591482  0.48852821  0.50043894  1
  Te  Te113  1  0.16864210  0.50268295  0.83719583  1
  Te  Te114  1  0.17167125  0.83667636  0.17197905  1
  Te  Te115  1  0.16843447  0.84065784  0.49951292  1
  Te  Te116  1  0.16773875  0.83531787  0.83231528  1
  Te  Te117  1  0.49747763  0.16662267  0.16691661  1
  Te  Te118  1  0.49265809  0.15847151  0.49929736  1
  Te  Te119  1  0.50396370  0.17230424  0.83444323  1
  Te  Te120  1  0.50081597  0.50810747  0.16767705  1
  Te  Te121  1  0.50046478  0.50254580  0.50612975  1
  Te  Te122  1  0.49631936  0.49602575  0.82982587  1
  Te  Te123  1  0.49590507  0.83064466  0.16744682  1
  Te  Te124  1  0.49801343  0.83552311  0.50047699  1
  Te  Te125  1  0.49791916  0.83451134  0.83259598  1
  Te  Te126  1  0.83565586  0.16494140  0.16718916  1
  Te  Te127  1  0.83215572  0.15861236  0.49720841  1
  Te  Te128  1  0.82970241  0.17134126  0.83422357  1
  Te  Te129  1  0.83273863  0.50355928  0.17146489  1
  Te  Te130  1  0.83423522  0.49988950  0.49665570  1
  Te  Te131  1  0.83483078  0.49568687  0.83242930  1
  Te  Te132  1  0.83255630  0.83692449  0.17126293  1
  Te  Te133  1  0.83220199  0.83685553  0.49798340  1
  Te  Te134  1  0.83785869  0.83210244  0.83338032  1
  Te  Te135  1  0.16222375  0.00325746  -0.00317529  1
  Te  Te136  1  0.16596669  0.00215211  0.33260481  1
  Te  Te137  1  0.17173128  0.00008346  0.67455525  1
  Te  Te138  1  0.16483760  0.33083545  0.00066145  1
  Te  Te139  1  0.16429684  0.33236914  0.32914932  1
  Te  Te140  1  0.17263719  0.33276107  0.67389805  1
  Te  Te141  1  0.16556790  0.66772826  0.00071669  1
  Te  Te142  1  0.16609048  0.66533276  0.33640619  1
  Te  Te143  1  0.16741037  0.66453198  0.65626849  1
  Te  Te144  1  0.50055513  0.00103009  -0.00855748  1
  Te  Te145  1  0.50247880  -0.00565822  0.33456756  1
  Te  Te146  1  0.49836013  -0.00400386  0.66691643  1
  Te  Te147  1  0.50118311  0.33488842  -0.00557457  1
  Te  Te148  1  0.49887561  0.33509133  0.33436150  1
  Te  Te149  1  0.49453015  0.33382674  0.67120129  1
  Te  Te150  1  0.49834775  0.66585384  -0.00130139  1
  Te  Te151  1  0.50049868  0.67298032  0.33027464  1
  Te  Te152  1  0.49915990  0.66951390  0.67126727  1
  Te  Te153  1  0.84003811  0.00689859  0.00261692  1
  Te  Te154  1  0.83727154  0.00152767  0.33303413  1
  Te  Te155  1  0.83166565  -0.00514202  0.66572687  1
  Te  Te156  1  0.83828502  0.33048349  0.00163612  1
  Te  Te157  1  0.83691847  0.33038939  0.32973448  1
  Te  Te158  1  0.83190169  0.33393091  0.66753624  1
  Te  Te159  1  0.83615251  0.66510042  0.00621292  1
  Te  Te160  1  0.83381878  0.66095291  0.32738220  1
  Te  Te161  1  0.83251564  0.67267356  0.66579988  1
  Te  Te162  1  0.00054405  0.16619316  -0.00216308  1
  Te  Te163  1  0.00111062  0.16644253  0.33430749  1
  Te  Te164  1  -0.00185512  0.16697777  0.66422185  1
  Te  Te165  1  0.00397845  0.49722482  -0.00413020  1
  Te  Te166  1  -0.00419092  0.49755156  0.33453779  1
  Te  Te167  1  -0.00194807  0.50267223  0.67633205  1
  Te  Te168  1  0.00060624  0.83527390  -0.00455651  1
  Te  Te169  1  0.00120137  0.83517861  0.33559226  1
  Te  Te170  1  -0.00471079  0.83357823  0.66712850  1
  Te  Te171  1  0.32674068  0.16588790  0.00666055  1
  Te  Te172  1  0.33112160  0.16980406  0.33214164  1
  Te  Te173  1  0.33327501  0.16604333  0.66215934  1
  Te  Te174  1  0.32717158  0.50472708  -0.00582525  1
  Te  Te175  1  0.33442733  0.49304286  0.33369220  1
  Te  Te176  1  0.33858610  0.49778496  0.67325546  1
  Te  Te177  1  0.33230468  0.82903564  -0.00403454  1
  Te  Te178  1  0.33166438  0.83253311  0.33345612  1
  Te  Te179  1  0.33685938  0.83661207  0.66822328  1
  Te  Te180  1  0.66739043  0.17026483  0.00049045  1
  Te  Te181  1  0.66799294  0.15960854  0.33024592  1
  Te  Te182  1  0.66577817  0.15759164  0.67136484  1
  Te  Te183  1  0.66700684  0.49077333  -0.00053327  1
  Te  Te184  1  0.67104893  0.49881300  0.33468589  1
  Te  Te185  1  0.65970151  0.49961545  0.66603748  1
  Te  Te186  1  0.66827793  0.83277397  -0.00811499  1
  Te  Te187  1  0.67079141  0.83992259  0.33373573  1
  Te  Te188  1  0.66540114  0.83843718  0.66727986  1
  Te  Te189  1  0.00174924  -0.00183350  0.16691102  1
  Te  Te190  1  0.00346935  -0.00530628  0.49862577  1
  Te  Te191  1  0.00347739  -0.00340414  0.83379929  1
  Te  Te192  1  -0.00007310  0.33509692  0.16608428  1
  Te  Te193  1  0.00678740  0.33522747  0.50124355  1
  Te  Te194  1  0.00318034  0.33395534  0.83506189  1
  Te  Te195  1  -0.00291042  0.66787501  0.15952692  1
  Te  Te196  1  0.00589165  0.67280494  0.49988905  1
  Te  Te197  1  0.00048177  0.66922598  0.83937200  1
  Te  Te198  1  0.33004799  -0.00081938  0.16415213  1
  Te  Te199  1  0.33149282  -0.00257740  0.50121463  1
  Te  Te200  1  0.33380440  -0.00056905  0.83066063  1
  Te  Te201  1  0.33151166  0.33122997  0.16957207  1
  Te  Te202  1  0.33007728  0.33439362  0.50074091  1
  Te  Te203  1  0.33075856  0.33179758  0.83234833  1
  Te  Te204  1  0.33527389  0.66885244  0.16199393  1
  Te  Te205  1  0.32771795  0.67023033  0.49965246  1
  Te  Te206  1  0.33589487  0.66840714  0.83655950  1
  Te  Te207  1  0.66662966  0.00471971  0.16651807  1
  Te  Te208  1  0.66566325  -0.00199765  0.50046015  1
  Te  Te209  1  0.66689144  0.00053536  0.83339924  1
  Te  Te210  1  0.66708757  0.32674942  0.16216844  1
  Te  Te211  1  0.66624428  0.33287046  0.50140698  1
  Te  Te212  1  0.66978814  0.33070874  0.83601309  1
  Te  Te213  1  0.66629618  0.66697126  0.16475976  1
  Te  Te214  1  0.66696961  0.67650808  0.50013984  1
  Te  Te215  1  0.66037668  0.66979576  0.83568101  1
