# generated using pymatgen
data_AgSbTe2
_symmetry_space_group_name_H-M   'P 1'
_cell_length_a   18.32318198
_cell_length_b   18.32665337
_cell_length_c   18.32135615
_cell_angle_alpha   89.99706750
_cell_angle_beta   90.00133401
_cell_angle_gamma   90.00019816
_symmetry_Int_Tables_number   1
_chemical_formula_structural   AgSbTe2
_chemical_formula_sum   'Ag54 Sb54 Te108'
_cell_volume   6152.35911039
_cell_formula_units_Z   54
loop_
 _symmetry_equiv_pos_site_id
 _symmetry_equiv_pos_as_xyz
  1  'x, y, z'
loop_
 _atom_site_type_symbol
 _atom_site_label
 _atom_site_symmetry_multiplicity
 _atom_site_fract_x
 _atom_site_fract_y
 _atom_site_fract_z
 _atom_site_occupancy
  Ag  Ag0  1  0.66483663  -0.00640804  0.32623146  1
  Ag  Ag1  1  0.32738286  0.50553408  0.15798342  1
  Ag  Ag2  1  -0.01340205  -0.00357726  0.33336655  1
  Ag  Ag3  1  0.33472906  -0.00797652  0.67877776  1
  Ag  Ag4  1  0.83551495  0.49885776  0.66653640  1
  Ag  Ag5  1  0.50550341  0.33329050  0.50600742  1
  Ag  Ag6  1  0.17481688  0.17330439  -0.00059795  1
  Ag  Ag7  1  0.82977622  0.33959664  0.49851556  1
  Ag  Ag8  1  0.66462379  0.83638105  0.15670001  1
  Ag  Ag9  1  0.82752365  0.66774875  0.49983455  1
  Ag  Ag10  1  0.82894011  -0.00538757  0.83476068  1
  Ag  Ag11  1  0.50086349  -0.00852286  0.84149772  1
  Ag  Ag12  1  0.49745522  0.67296467  0.83920168  1
  Ag  Ag13  1  0.83560913  0.33465649  0.16829872  1
  Ag  Ag14  1  0.82258569  0.83480511  0.33341370  1
  Ag  Ag15  1  0.82023988  0.83348714  -0.00183826  1
  Ag  Ag16  1  -0.00024242  0.17203659  0.83347152  1
  Ag  Ag17  1  0.65944240  -0.00975394  0.00134410  1
  Ag  Ag18  1  -0.00171076  0.49919417  0.83618586  1
  Ag  Ag19  1  0.00672352  0.33568162  -0.00521638  1
  Ag  Ag20  1  0.50474706  0.83392226  -0.00304133  1
  Ag  Ag21  1  0.33810668  0.50863207  0.83960629  1
  Ag  Ag22  1  0.49341765  0.15763902  0.00040318  1
  Ag  Ag23  1  0.00287946  0.66675068  0.66970774  1
  Ag  Ag24  1  0.00533302  0.49811201  0.15766945  1
  Ag  Ag25  1  0.65598586  0.67856041  -0.00229030  1
  Ag  Ag26  1  0.16654397  0.16520664  0.67551422  1
  Ag  Ag27  1  0.33010696  0.33587402  0.00071735  1
  Ag  Ag28  1  0.34176637  0.00003935  -0.00177616  1
  Ag  Ag29  1  0.49635859  0.66836916  0.15528749  1
  Ag  Ag30  1  0.16799479  0.83298611  0.66889350  1
  Ag  Ag31  1  0.17802662  0.66171189  0.16409023  1
  Ag  Ag32  1  -0.00339257  0.83141939  0.83148668  1
  Ag  Ag33  1  0.66077322  0.83097712  0.84279683  1
  Ag  Ag34  1  -0.00351576  0.33956468  0.67499485  1
  Ag  Ag35  1  0.33815860  0.66575465  -0.00032546  1
  Ag  Ag36  1  0.16388520  0.33841671  0.15985487  1
  Ag  Ag37  1  0.67092958  0.33513445  0.66757110  1
  Ag  Ag38  1  -0.00768014  0.83179756  0.50536889  1
  Ag  Ag39  1  0.83310617  0.50144734  0.33602251  1
  Ag  Ag40  1  0.50266688  0.67499637  0.50060232  1
  Ag  Ag41  1  0.50543422  0.83432848  0.33059802  1
  Ag  Ag42  1  0.66282927  0.50686205  0.83391162  1
  Ag  Ag43  1  0.34252385  -0.00738308  0.32923491  1
  Ag  Ag44  1  0.83282850  0.16154827  0.33143230  1
  Ag  Ag45  1  0.34434324  0.82858420  0.83530739  1
  Ag  Ag46  1  0.33861694  0.67155178  0.32172825  1
  Ag  Ag47  1  0.33667443  0.16924954  0.16018760  1
  Ag  Ag48  1  0.17058861  0.49404653  0.00158096  1
  Ag  Ag49  1  0.50075491  0.33503563  0.83511950  1
  Ag  Ag50  1  0.66659153  0.83225750  0.49761880  1
  Ag  Ag51  1  0.33222800  0.67181694  0.67758682  1
  Ag  Ag52  1  0.66108828  0.15928856  0.16442509  1
  Ag  Ag53  1  0.50020767  -0.00895701  0.50002640  1
  Sb  Sb54  1  0.16504268  0.33288152  0.49939130  1
  Sb  Sb55  1  0.00041063  0.17241025  0.16202433  1
  Sb  Sb56  1  -0.00591109  0.82832225  0.16426231  1
  Sb  Sb57  1  0.33171643  0.16420609  0.84130127  1
  Sb  Sb58  1  0.33617288  0.16454525  0.49660189  1
  Sb  Sb59  1  -0.00252115  0.16270296  0.50357766  1
  Sb  Sb60  1  0.33633250  0.33510113  0.32555133  1
  Sb  Sb61  1  0.83033390  0.00257744  0.16640280  1
  Sb  Sb62  1  0.83251724  0.16365351  0.00279298  1
  Sb  Sb63  1  0.50380383  0.50724648  0.33310146  1
  Sb  Sb64  1  0.83673931  0.17179777  0.66452092  1
  Sb  Sb65  1  0.66439744  0.33313700  -0.00366371  1
  Sb  Sb66  1  0.83685031  0.50350965  -0.00182696  1
  Sb  Sb67  1  0.50335397  0.15849455  0.32671230  1
  Sb  Sb68  1  0.16945287  0.83281700  0.33604303  1
  Sb  Sb69  1  0.17065667  -0.00087320  0.83352956  1
  Sb  Sb70  1  0.33249714  0.33487525  0.67559333  1
  Sb  Sb71  1  -0.00478015  0.33150550  0.33215047  1
  Sb  Sb72  1  0.66192305  0.67484184  0.32937718  1
  Sb  Sb73  1  0.16781036  0.33299752  0.84122088  1
  Sb  Sb74  1  0.49241557  0.50571135  -0.00240612  1
  Sb  Sb75  1  0.00025113  0.66992165  0.33583838  1
  Sb  Sb76  1  0.83271524  0.33247406  0.83389591  1
  Sb  Sb77  1  0.50118162  -0.00755281  0.16204512  1
  Sb  Sb78  1  0.00377590  -0.00345017  0.66711403  1
  Sb  Sb79  1  0.66131219  0.00054813  0.67043722  1
  Sb  Sb80  1  0.49966805  0.33687203  0.16227293  1
  Sb  Sb81  1  -0.00018569  0.00270988  -0.00011002  1
  Sb  Sb82  1  0.17475510  0.66735208  0.83773812  1
  Sb  Sb83  1  0.16300811  0.50133824  0.32238043  1
  Sb  Sb84  1  0.16409169  0.16528205  0.32874396  1
  Sb  Sb85  1  0.33820029  0.83303101  0.50401923  1
  Sb  Sb86  1  0.49497573  0.16574741  0.67285015  1
  Sb  Sb87  1  0.66686532  0.50279662  0.16073181  1
  Sb  Sb88  1  0.49620726  0.83222960  0.67120690  1
  Sb  Sb89  1  0.83000970  0.67040521  0.83067778  1
  Sb  Sb90  1  0.83674963  0.82808638  0.66736733  1
  Sb  Sb91  1  0.66514186  0.66501725  0.67132059  1
  Sb  Sb92  1  -0.00375400  0.50461366  0.50298043  1
  Sb  Sb93  1  0.16846387  0.66852016  0.49948267  1
  Sb  Sb94  1  0.66820347  0.16349550  0.83849357  1
  Sb  Sb95  1  0.33961247  0.82997277  0.16164790  1
  Sb  Sb96  1  0.66621973  0.16284972  0.49545766  1
  Sb  Sb97  1  0.16191613  0.50098019  0.67487296  1
  Sb  Sb98  1  0.66842912  0.32949705  0.33646539  1
  Sb  Sb99  1  0.33662700  0.50345191  0.50210410  1
  Sb  Sb100  1  0.66878913  0.50399312  0.50392818  1
  Sb  Sb101  1  0.83073841  0.66418847  0.17015244  1
  Sb  Sb102  1  0.17099484  0.83255002  -0.00443285  1
  Sb  Sb103  1  0.00289171  0.66334919  -0.00561325  1
  Sb  Sb104  1  0.50306444  0.50078291  0.67142388  1
  Sb  Sb105  1  0.17138855  -0.00223196  0.50166226  1
  Sb  Sb106  1  0.16985130  -0.00071372  0.16473213  1
  Sb  Sb107  1  0.82852061  -0.00422875  0.50075266  1
  Te  Te108  1  0.16953940  0.17059933  0.16163958  1
  Te  Te109  1  0.16679341  0.16660965  0.50403664  1
  Te  Te110  1  0.16162874  0.16609481  0.83473623  1
  Te  Te111  1  0.16723875  0.49965805  0.16194936  1
  Te  Te112  1  0.16637088  0.49936070  0.49769849  1
  Te  Te113  1  0.16346937  0.50031659  0.84018224  1
  Te  Te114  1  0.16430622  0.82635109  0.16660950  1
  Te  Te115  1  0.15844119  0.83286462  0.50606983  1
  Te  Te116  1  0.15922777  0.83305380  0.82818781  1
  Te  Te117  1  0.49967889  0.16959145  0.16109832  1
  Te  Te118  1  0.50101745  0.17167056  0.49961263  1
  Te  Te119  1  0.50026071  0.16795460  0.83976894  1
  Te  Te120  1  0.49598240  0.50688186  0.16829121  1
  Te  Te121  1  0.50191044  0.49599161  0.50081211  1
  Te  Te122  1  0.50137982  0.49889229  0.83292114  1
  Te  Te123  1  0.50436371  0.82713444  0.16859405  1
  Te  Te124  1  0.50183353  0.83351418  0.49983187  1
  Te  Te125  1  0.50090542  0.83313157  0.83475984  1
  Te  Te126  1  0.83260891  0.17122327  0.17076034  1
  Te  Te127  1  0.83245386  0.17195730  0.49344074  1
  Te  Te128  1  0.83777759  0.16044325  0.83327731  1
  Te  Te129  1  0.83480879  0.49635805  0.16880684  1
  Te  Te130  1  0.83301475  0.50031990  0.49927961  1
  Te  Te131  1  0.83553964  0.50057646  0.83054893  1
  Te  Te132  1  0.82782766  0.83285962  0.16810630  1
  Te  Te133  1  0.83255525  0.83163486  0.49866044  1
  Te  Te134  1  0.83320067  0.83453307  0.83384891  1
  Te  Te135  1  0.17120378  0.00592899  0.00053193  1
  Te  Te136  1  0.17490807  0.00034046  0.33322059  1
  Te  Te137  1  0.17365034  -0.00022084  0.66677680  1
  Te  Te138  1  0.16721578  0.33285367  0.00282782  1
  Te  Te139  1  0.16632847  0.33263251  0.32627694  1
  Te  Te140  1  0.16111229  0.33068356  0.66551614  1
  Te  Te141  1  0.17091505  0.66475235  0.00487698  1
  Te  Te142  1  0.17420937  0.66703746  0.32818973  1
  Te  Te143  1  0.16706380  0.66863042  0.66610962  1
  Te  Te144  1  0.49992798  -0.00286394  -0.00019468  1
  Te  Te145  1  0.50252155  -0.00411579  0.33496807  1
  Te  Te146  1  0.49366829  0.00152614  0.66329130  1
  Te  Te147  1  0.49712669  0.33024243  -0.00324018  1
  Te  Te148  1  0.50088414  0.33262859  0.33946141  1
  Te  Te149  1  0.50091129  0.33319530  0.66800891  1
  Te  Te150  1  0.49878065  0.66867652  -0.00267653  1
  Te  Te151  1  0.49722516  0.67090015  0.34122126  1
  Te  Te152  1  0.49535947  0.66579548  0.66342236  1
  Te  Te153  1  0.83190076  -0.00480795  -0.00287445  1
  Te  Te154  1  0.82843666  -0.00352441  0.33462394  1
  Te  Te155  1  0.83268830  0.00220611  0.67174691  1
  Te  Te156  1  0.83693839  0.33325358  0.00440530  1
  Te  Te157  1  0.83283291  0.33487626  0.33448045  1
  Te  Te158  1  0.83549996  0.33665587  0.66619459  1
  Te  Te159  1  0.83237056  0.67270644  0.00109755  1
  Te  Te160  1  0.83334331  0.66959091  0.33849924  1
  Te  Te161  1  0.83561978  0.66118683  0.66151187  1
  Te  Te162  1  0.00117417  0.17043068  -0.00515664  1
  Te  Te163  1  -0.00420870  0.15962397  0.33318388  1
  Te  Te164  1  0.00464487  0.16684860  0.67098626  1
  Te  Te165  1  0.00284091  0.49684871  -0.00163204  1
  Te  Te166  1  -0.00626013  0.50092279  0.33163235  1
  Te  Te167  1  -0.00250425  0.50098979  0.66962490  1
  Te  Te168  1  0.00142681  0.83319876  -0.00514180  1
  Te  Te169  1  -0.00007066  0.83710154  0.33285555  1
  Te  Te170  1  0.00283651  0.83135025  0.66803769  1
  Te  Te171  1  0.33389539  0.16453370  0.00069979  1
  Te  Te172  1  0.33356545  0.16400971  0.32556692  1
  Te  Te173  1  0.32677984  0.16555141  0.66591128  1
  Te  Te174  1  0.33208458  0.50151766  -0.00100748  1
  Te  Te175  1  0.33375248  0.50520109  0.33041883  1
  Te  Te176  1  0.33066105  0.50449043  0.67330492  1
  Te  Te177  1  0.33452694  0.83439890  -0.00455474  1
  Te  Te178  1  0.33686536  0.83267959  0.33390268  1
  Te  Te179  1  0.33049676  0.83288688  0.66999910  1
  Te  Te180  1  0.66460173  0.16463329  0.00517725  1
  Te  Te181  1  0.67080513  0.15997877  0.32731418  1
  Te  Te182  1  0.66613284  0.17382767  0.66678409  1
  Te  Te183  1  0.66837027  0.50119888  -0.00692326  1
  Te  Te184  1  0.67357286  0.50204332  0.33099513  1
  Te  Te185  1  0.67186471  0.49621006  0.67208128  1
  Te  Te186  1  0.66516530  0.83463025  -0.00081814  1
  Te  Te187  1  0.66571998  0.83433594  0.33716297  1
  Te  Te188  1  0.66834205  0.83407581  0.66209453  1
  Te  Te189  1  0.00099381  -0.00050841  0.17252344  1
  Te  Te190  1  -0.00059939  -0.00555205  0.49565651  1
  Te  Te191  1  -0.00300165  -0.00450831  0.83358010  1
  Te  Te192  1  -0.00065751  0.33707854  0.16543124  1
  Te  Te193  1  -0.00401048  0.33242926  0.50431610  1
  Te  Te194  1  -0.00052124  0.33525148  0.83434502  1
  Te  Te195  1  0.00080608  0.65923245  0.16695844  1
  Te  Te196  1  -0.00131957  0.67177071  0.50417252  1
  Te  Te197  1  -0.00090102  0.66556791  0.82925233  1
  Te  Te198  1  0.33420888  0.00195074  0.16498661  1
  Te  Te199  1  0.33989244  -0.00038821  0.49398726  1
  Te  Te200  1  0.33687167  -0.00175891  0.83556654  1
  Te  Te201  1  0.33317795  0.33430298  0.16127858  1
  Te  Te202  1  0.33638450  0.33395468  0.50071251  1
  Te  Te203  1  0.33836831  0.33672528  0.83897164  1
  Te  Te204  1  0.33584237  0.66810116  0.16350360  1
  Te  Te205  1  0.33720311  0.66662320  0.50143387  1
  Te  Te206  1  0.33625371  0.66791460  0.83517233  1
  Te  Te207  1  0.66697316  -0.00079962  0.16516451  1
  Te  Te208  1  0.66127947  -0.00405219  0.50055113  1
  Te  Te209  1  0.66345689  -0.00346553  0.83570577  1
  Te  Te210  1  0.66996443  0.33252493  0.16633789  1
  Te  Te211  1  0.66772560  0.33371292  0.50413035  1
  Te  Te212  1  0.66414735  0.33347687  0.82939711  1
  Te  Te213  1  0.66274897  0.67027774  0.15990114  1
  Te  Te214  1  0.66576168  0.67030822  0.50164806  1
  Te  Te215  1  0.66307662  0.66817306  0.83572823  1
