# generated using pymatgen
data_AgSbTe2
_symmetry_space_group_name_H-M   'P 1'
_cell_length_a   18.31119473
_cell_length_b   18.31131317
_cell_length_c   18.31229762
_cell_angle_alpha   89.99757308
_cell_angle_beta   89.99778983
_cell_angle_gamma   90.00258005
_symmetry_Int_Tables_number   1
_chemical_formula_structural   AgSbTe2
_chemical_formula_sum   'Ag54 Sb54 Te108'
_cell_volume   6140.15038810
_cell_formula_units_Z   54
loop_
 _symmetry_equiv_pos_site_id
 _symmetry_equiv_pos_as_xyz
  1  'x, y, z'
loop_
 _atom_site_type_symbol
 _atom_site_label
 _atom_site_symmetry_multiplicity
 _atom_site_fract_x
 _atom_site_fract_y
 _atom_site_fract_z
 _atom_site_occupancy
  Ag  Ag0  1  0.50855739  0.34052586  0.50006678  1
  Ag  Ag1  1  0.67291721  0.34342838  0.33520725  1
  Ag  Ag2  1  0.83401790  0.83511694  -0.00220979  1
  Ag  Ag3  1  0.33570932  0.16392985  0.50841689  1
  Ag  Ag4  1  0.50892224  0.66342987  0.50613972  1
  Ag  Ag5  1  0.83180190  0.16424657  -0.00530429  1
  Ag  Ag6  1  0.66423321  0.67148183  0.66075972  1
  Ag  Ag7  1  0.83811599  0.50294843  0.00667063  1
  Ag  Ag8  1  0.16244531  0.33702750  0.16874737  1
  Ag  Ag9  1  0.66974351  0.15961219  0.83677656  1
  Ag  Ag10  1  -0.01100504  0.66180897  0.33124939  1
  Ag  Ag11  1  -0.00357920  0.66211130  -0.00027966  1
  Ag  Ag12  1  -0.00172929  0.33907603  0.66814049  1
  Ag  Ag13  1  0.66835732  -0.00648757  0.33491357  1
  Ag  Ag14  1  0.82939815  0.82331998  0.33369003  1
  Ag  Ag15  1  0.33414981  0.67097980  -0.00102510  1
  Ag  Ag16  1  0.50614545  -0.00320390  0.16386642  1
  Ag  Ag17  1  0.16595556  0.50500195  0.66732140  1
  Ag  Ag18  1  -0.00979527  0.49903031  0.49589847  1
  Ag  Ag19  1  -0.00626617  0.16515310  0.83570710  1
  Ag  Ag20  1  0.33287086  0.50463360  0.16002649  1
  Ag  Ag21  1  -0.00323332  0.34174687  -0.00130025  1
  Ag  Ag22  1  0.16588708  0.83478849  0.66713655  1
  Ag  Ag23  1  0.33445748  -0.00402770  -0.00463592  1
  Ag  Ag24  1  0.82723702  0.66109909  0.49674147  1
  Ag  Ag25  1  0.33492899  0.16146199  0.83329982  1
  Ag  Ag26  1  -0.00778532  0.34252416  0.33340297  1
  Ag  Ag27  1  0.50896498  0.82939463  0.67005582  1
  Ag  Ag28  1  0.49948888  0.50923568  0.66462805  1
  Ag  Ag29  1  0.16765623  -0.00157162  0.82951610  1
  Ag  Ag30  1  0.33654189  0.83192780  0.16271186  1
  Ag  Ag31  1  0.83167682  0.34192171  0.49813603  1
  Ag  Ag32  1  0.67445285  0.49723273  0.17651066  1
  Ag  Ag33  1  0.66457559  -0.00997823  0.66457515  1
  Ag  Ag34  1  0.50959210  0.83216940  0.33415096  1
  Ag  Ag35  1  0.50127191  0.83696228  -0.00040020  1
  Ag  Ag36  1  0.00042546  0.50027138  0.83511203  1
  Ag  Ag37  1  0.50637101  0.15920920  -0.00273411  1
  Ag  Ag38  1  -0.00513885  0.49811360  0.16522810  1
  Ag  Ag39  1  0.66798913  0.16475941  0.16208103  1
  Ag  Ag40  1  0.16744944  -0.00140801  0.50939938  1
  Ag  Ag41  1  0.50135705  0.66901802  0.82936616  1
  Ag  Ag42  1  0.66909588  0.83750175  0.82897309  1
  Ag  Ag43  1  0.16207892  0.83378959  0.33616163  1
  Ag  Ag44  1  0.83172193  0.16095653  0.67315511  1
  Ag  Ag45  1  0.67182344  0.66830648  0.34051455  1
  Ag  Ag46  1  0.33523217  -0.00135532  0.67357931  1
  Ag  Ag47  1  0.83353988  0.50578570  0.33395240  1
  Ag  Ag48  1  -0.00350190  -0.00233126  -0.00269491  1
  Ag  Ag49  1  0.82572812  0.83592992  0.67151244  1
  Ag  Ag50  1  0.32858017  0.50035087  0.83578834  1
  Ag  Ag51  1  0.67387772  0.50299275  0.49552380  1
  Ag  Ag52  1  -0.00563896  0.83294696  0.83560342  1
  Ag  Ag53  1  0.82620576  -0.00096487  0.16520368  1
  Sb  Sb54  1  0.83114666  0.16823946  0.33225643  1
  Sb  Sb55  1  0.67345372  0.33104371  0.00546526  1
  Sb  Sb56  1  0.33862956  0.16437070  0.16139166  1
  Sb  Sb57  1  0.50048184  0.33621043  0.82945586  1
  Sb  Sb58  1  0.33567426  0.49760899  0.50179687  1
  Sb  Sb59  1  0.66919729  0.50178280  0.83149480  1
  Sb  Sb60  1  0.50091400  0.67181041  0.16626207  1
  Sb  Sb61  1  0.16201035  0.33153953  0.83478666  1
  Sb  Sb62  1  0.66727262  0.00023540  0.00002346  1
  Sb  Sb63  1  -0.00125911  0.00010809  0.67320923  1
  Sb  Sb64  1  0.49882666  -0.00266964  0.49877868  1
  Sb  Sb65  1  0.50056547  0.33115871  0.17006892  1
  Sb  Sb66  1  -0.00019905  0.17208277  0.50652890  1
  Sb  Sb67  1  0.16830389  0.67070218  0.83208920  1
  Sb  Sb68  1  0.33570887  0.83458449  0.83663985  1
  Sb  Sb69  1  0.33049317  0.33058787  0.66678218  1
  Sb  Sb70  1  0.16513397  0.66957290  0.50038376  1
  Sb  Sb71  1  0.16291420  0.16413824  0.66884204  1
  Sb  Sb72  1  0.83571603  0.33204416  0.82927075  1
  Sb  Sb73  1  0.50312624  0.16235656  0.33152494  1
  Sb  Sb74  1  0.67070524  0.33433398  0.66157320  1
  Sb  Sb75  1  0.83051977  0.66906763  0.82995171  1
  Sb  Sb76  1  0.66697954  0.82582369  0.50417490  1
  Sb  Sb77  1  0.83626386  0.33457737  0.17079467  1
  Sb  Sb78  1  0.15955993  0.49982217  -0.00311435  1
  Sb  Sb79  1  0.16711837  0.00056229  0.16470561  1
  Sb  Sb80  1  0.16560424  0.83449780  -0.00226406  1
  Sb  Sb81  1  0.50940143  0.50598645  0.33697211  1
  Sb  Sb82  1  0.50242284  0.50267998  -0.00233124  1
  Sb  Sb83  1  0.15690869  0.50447544  0.33545414  1
  Sb  Sb84  1  0.83620125  -0.00050104  0.83904668  1
  Sb  Sb85  1  0.83362684  0.50220483  0.66258098  1
  Sb  Sb86  1  -0.00480476  -0.00380098  0.32793931  1
  Sb  Sb87  1  0.34128201  0.67092171  0.67204744  1
  Sb  Sb88  1  0.66939902  0.66854011  0.00071640  1
  Sb  Sb89  1  0.66411893  0.17115432  0.50102878  1
  Sb  Sb90  1  0.33693417  -0.00349127  0.33244156  1
  Sb  Sb91  1  0.49863657  -0.00521797  0.83740251  1
  Sb  Sb92  1  0.83514185  -0.00165383  0.49777475  1
  Sb  Sb93  1  -0.00521367  0.66334958  0.66798237  1
  Sb  Sb94  1  0.32971393  0.33355665  -0.00003547  1
  Sb  Sb95  1  0.50385608  0.16363312  0.67130509  1
  Sb  Sb96  1  0.33371346  0.83627331  0.49979227  1
  Sb  Sb97  1  0.33462537  0.33583986  0.33337166  1
  Sb  Sb98  1  -0.00173220  0.82878981  0.50349066  1
  Sb  Sb99  1  0.83263792  0.66815365  0.17166284  1
  Sb  Sb100  1  0.16589386  0.66363258  0.16713490  1
  Sb  Sb101  1  -0.00723699  0.17241900  0.15881565  1
  Sb  Sb102  1  0.00028561  0.82898769  0.16202874  1
  Sb  Sb103  1  0.16230672  0.16603809  -0.00193351  1
  Sb  Sb104  1  0.66516962  0.83505384  0.16678486  1
  Sb  Sb105  1  0.16294760  0.33179287  0.49772759  1
  Sb  Sb106  1  0.16473596  0.16251931  0.33489998  1
  Sb  Sb107  1  0.33609924  0.66813433  0.33003635  1
  Te  Te108  1  0.16796656  0.17197362  0.16730278  1
  Te  Te109  1  0.17215639  0.16092365  0.50096761  1
  Te  Te110  1  0.17000734  0.16125550  0.83304364  1
  Te  Te111  1  0.16611224  0.49698446  0.16769664  1
  Te  Te112  1  0.16562794  0.50011372  0.50652527  1
  Te  Te113  1  0.16617267  0.49952291  0.82781270  1
  Te  Te114  1  0.17172842  0.83366786  0.17126853  1
  Te  Te115  1  0.16586289  0.83741359  0.50178209  1
  Te  Te116  1  0.16273805  0.83766232  0.82962844  1
  Te  Te117  1  0.50565089  0.16294702  0.16107714  1
  Te  Te118  1  0.49576874  0.16933098  0.50104174  1
  Te  Te119  1  0.50032100  0.16861125  0.83816935  1
  Te  Te120  1  0.49762167  0.49919991  0.16648275  1
  Te  Te121  1  0.50005960  0.50076372  0.50319495  1
  Te  Te122  1  0.50011232  0.50435692  0.82927149  1
  Te  Te123  1  0.49881803  0.83625582  0.16235459  1
  Te  Te124  1  0.49939760  0.82945698  0.50093963  1
  Te  Te125  1  0.50194022  0.82940717  0.83294581  1
  Te  Te126  1  0.82724035  0.16228467  0.16311709  1
  Te  Te127  1  0.83324225  0.16952601  0.50568451  1
  Te  Te128  1  0.83333796  0.16645042  0.83394713  1
  Te  Te129  1  0.83413378  0.50057577  0.16701292  1
  Te  Te130  1  0.83381601  0.50109752  0.50009159  1
  Te  Te131  1  0.83823426  0.50038525  0.83851059  1
  Te  Te132  1  0.83329492  0.83772674  0.16351739  1
  Te  Te133  1  0.83480066  0.83041512  0.49768303  1
  Te  Te134  1  0.83289712  0.83339175  0.83381280  1
  Te  Te135  1  0.16868521  0.00014650  -0.00386270  1
  Te  Te136  1  0.16507278  -0.00664461  0.33425665  1
  Te  Te137  1  0.16618380  -0.00195695  0.66802853  1
  Te  Te138  1  0.15892215  0.33283060  0.00611400  1
  Te  Te139  1  0.16221622  0.33327181  0.32959253  1
  Te  Te140  1  0.16031176  0.33769284  0.66580848  1
  Te  Te141  1  0.16714629  0.66700594  -0.00033371  1
  Te  Te142  1  0.16376050  0.67500068  0.33464075  1
  Te  Te143  1  0.16878180  0.66907900  0.66571736  1
  Te  Te144  1  0.49909831  -0.00195794  0.00277094  1
  Te  Te145  1  0.50469720  -0.00593711  0.32908275  1
  Te  Te146  1  0.50040712  -0.00466007  0.66587901  1
  Te  Te147  1  0.50055669  0.32913172  -0.00005826  1
  Te  Te148  1  0.50457809  0.33327257  0.33873806  1
  Te  Te149  1  0.49936401  0.33574428  0.66110220  1
  Te  Te150  1  0.49878789  0.67012711  -0.00370021  1
  Te  Te151  1  0.50377941  0.67277793  0.33658733  1
  Te  Te152  1  0.50186230  0.66886472  0.66693971  1
  Te  Te153  1  0.83436559  -0.00242798  0.00395530  1
  Te  Te154  1  0.82934616  -0.00208438  0.32925600  1
  Te  Te155  1  0.83038334  -0.00346042  0.66461722  1
  Te  Te156  1  0.83882626  0.33154520  0.00079869  1
  Te  Te157  1  0.83310768  0.33453003  0.33690091  1
  Te  Te158  1  0.83737532  0.33175859  0.66084468  1
  Te  Te159  1  0.83687571  0.66950495  -0.00115304  1
  Te  Te160  1  0.83329303  0.66644940  0.33551803  1
  Te  Te161  1  0.82748493  0.67269727  0.66141914  1
  Te  Te162  1  -0.00429737  0.16336805  -0.00522900  1
  Te  Te163  1  -0.00103948  0.17142697  0.33289370  1
  Te  Te164  1  -0.00567156  0.17069621  0.67360047  1
  Te  Te165  1  -0.00196369  0.50158803  -0.00119124  1
  Te  Te166  1  -0.00339263  0.50122789  0.33378470  1
  Te  Te167  1  0.00056684  0.49927741  0.67108922  1
  Te  Te168  1  -0.00205019  0.83353902  -0.00300894  1
  Te  Te169  1  -0.00429251  0.82912479  0.33215497  1
  Te  Te170  1  0.00022038  0.83192959  0.67169375  1
  Te  Te171  1  0.33637367  0.16434293  -0.00425376  1
  Te  Te172  1  0.33391750  0.16605293  0.33559023  1
  Te  Te173  1  0.33421805  0.16208720  0.67079908  1
  Te  Te174  1  0.33426868  0.50173121  -0.00169007  1
  Te  Te175  1  0.33090048  0.50123181  0.32701896  1
  Te  Te176  1  0.33378857  0.49939699  0.67034491  1
  Te  Te177  1  0.33424710  0.83355472  0.00146978  1
  Te  Te178  1  0.33469102  0.83259588  0.32772882  1
  Te  Te179  1  0.32945849  0.83892906  0.66774356  1
  Te  Te180  1  0.66911006  0.16634961  -0.00158375  1
  Te  Te181  1  0.66671930  0.16150700  0.32944699  1
  Te  Te182  1  0.67132237  0.16590141  0.66956999  1
  Te  Te183  1  0.67350076  0.49954423  0.00201393  1
  Te  Te184  1  0.67035694  0.50199987  0.33456187  1
  Te  Te185  1  0.66302083  0.50306504  0.66472176  1
  Te  Te186  1  0.66789203  0.83278920  -0.00433858  1
  Te  Te187  1  0.66846735  0.83223515  0.33144973  1
  Te  Te188  1  0.66727961  0.83340892  0.66809042  1
  Te  Te189  1  -0.00214513  0.00162079  0.15938661  1
  Te  Te190  1  0.00583702  0.00224634  0.49806412  1
  Te  Te191  1  0.00298419  -0.00017882  0.83725047  1
  Te  Te192  1  0.00117424  0.33711723  0.16612097  1
  Te  Te193  1  -0.00212645  0.33761978  0.49959973  1
  Te  Te194  1  0.00012759  0.33455631  0.83466171  1
  Te  Te195  1  -0.00043582  0.66023420  0.16476791  1
  Te  Te196  1  -0.00236401  0.66065742  0.49745436  1
  Te  Te197  1  0.00047694  0.66660293  0.83644392  1
  Te  Te198  1  0.33554486  -0.00311144  0.16196616  1
  Te  Te199  1  0.33092942  0.00357224  0.50173890  1
  Te  Te200  1  0.33159906  0.00061750  0.83402784  1
  Te  Te201  1  0.32914557  0.33752295  0.16653290  1
  Te  Te202  1  0.33532052  0.32706406  0.49949143  1
  Te  Te203  1  0.33151021  0.33553558  0.83397239  1
  Te  Te204  1  0.33338505  0.66617289  0.16112118  1
  Te  Te205  1  0.33950408  0.66632173  0.49922394  1
  Te  Te206  1  0.33643654  0.66214355  0.83844376  1
  Te  Te207  1  0.66620588  0.00053974  0.16803172  1
  Te  Te208  1  0.66741008  0.00297606  0.49945234  1
  Te  Te209  1  0.66587252  -0.00025262  0.82664832  1
  Te  Te210  1  0.66628991  0.33477076  0.17321939  1
  Te  Te211  1  0.66783129  0.33728076  0.49569796  1
  Te  Te212  1  0.66693890  0.32678716  0.83311134  1
  Te  Te213  1  0.66570676  0.65841899  0.17251513  1
  Te  Te214  1  0.66642001  0.66325043  0.50027287  1
  Te  Te215  1  0.66267004  0.66941500  0.82992404  1
