# generated using pymatgen
data_AgSbTe2
_symmetry_space_group_name_H-M   'P 1'
_cell_length_a   18.32622758
_cell_length_b   18.32112651
_cell_length_c   18.32303468
_cell_angle_alpha   90.00258365
_cell_angle_beta   89.99724892
_cell_angle_gamma   90.00084394
_symmetry_Int_Tables_number   1
_chemical_formula_structural   AgSbTe2
_chemical_formula_sum   'Ag54 Sb54 Te108'
_cell_volume   6152.08959304
_cell_formula_units_Z   54
loop_
 _symmetry_equiv_pos_site_id
 _symmetry_equiv_pos_as_xyz
  1  'x, y, z'
loop_
 _atom_site_type_symbol
 _atom_site_label
 _atom_site_symmetry_multiplicity
 _atom_site_fract_x
 _atom_site_fract_y
 _atom_site_fract_z
 _atom_site_occupancy
  Ag  Ag0  1  0.16096798  0.16185502  0.00388878  1
  Ag  Ag1  1  -0.00181347  0.50339711  0.82920446  1
  Ag  Ag2  1  0.83358444  0.65827604  0.17565059  1
  Ag  Ag3  1  0.15958722  0.49788102  0.33655039  1
  Ag  Ag4  1  0.32262783  0.33424820  0.00208799  1
  Ag  Ag5  1  0.00242791  0.34515689  0.66881355  1
  Ag  Ag6  1  0.32531924  0.67077168  0.66496037  1
  Ag  Ag7  1  0.66878587  0.50918379  0.50009985  1
  Ag  Ag8  1  0.50282163  -0.00593064  0.49985059  1
  Ag  Ag9  1  0.50376486  0.50395866  0.66219791  1
  Ag  Ag10  1  0.83599283  0.16888784  0.32884728  1
  Ag  Ag11  1  0.49624840  0.00438777  0.16901023  1
  Ag  Ag12  1  0.66498930  0.15473449  0.83546738  1
  Ag  Ag13  1  0.16701567  0.84150985  -0.00964149  1
  Ag  Ag14  1  0.00240583  -0.00045403  0.33425340  1
  Ag  Ag15  1  0.00137662  0.33626421  -0.00074230  1
  Ag  Ag16  1  0.83405205  -0.00782498  0.49860230  1
  Ag  Ag17  1  0.83571311  0.49821767  0.00831912  1
  Ag  Ag18  1  0.66299812  0.83278040  0.82622030  1
  Ag  Ag19  1  0.16887935  0.00525956  0.16058868  1
  Ag  Ag20  1  0.82794331  0.66650698  0.49764892  1
  Ag  Ag21  1  0.16395600  0.16755582  0.32932789  1
  Ag  Ag22  1  0.16772101  -0.00655890  0.83846935  1
  Ag  Ag23  1  0.00269929  0.66371044  0.66021497  1
  Ag  Ag24  1  -0.00011458  0.65984646  -0.00247921  1
  Ag  Ag25  1  0.66873326  0.67188944  0.66149613  1
  Ag  Ag26  1  0.33464126  0.49748778  0.17010983  1
  Ag  Ag27  1  0.66764884  0.82314107  0.50886506  1
  Ag  Ag28  1  0.16208894  0.66441346  0.50358742  1
  Ag  Ag29  1  0.67349709  0.50089725  0.16859219  1
  Ag  Ag30  1  0.00270469  0.50461005  0.50131756  1
  Ag  Ag31  1  0.83994435  0.16935075  0.00511170  1
  Ag  Ag32  1  0.32453022  0.50373493  0.49935815  1
  Ag  Ag33  1  0.00425923  0.00146388  0.00193715  1
  Ag  Ag34  1  0.33176555  0.15807851  0.83434414  1
  Ag  Ag35  1  0.49753760  0.83524567  -0.00098431  1
  Ag  Ag36  1  0.66311860  -0.01118077  0.66807418  1
  Ag  Ag37  1  0.49896516  0.33334440  0.16646121  1
  Ag  Ag38  1  0.16435176  -0.00362176  0.50022335  1
  Ag  Ag39  1  0.16573085  0.83092764  0.67038680  1
  Ag  Ag40  1  0.51400580  0.66799342  0.50261171  1
  Ag  Ag41  1  0.50287384  0.16427474  0.33287285  1
  Ag  Ag42  1  0.67359536  0.50549255  0.83083202  1
  Ag  Ag43  1  0.32788710  0.83711555  0.83056139  1
  Ag  Ag44  1  0.16356162  0.67204088  0.82289539  1
  Ag  Ag45  1  0.83651572  0.50655665  0.32908396  1
  Ag  Ag46  1  0.33419801  -0.00894870  0.66706055  1
  Ag  Ag47  1  0.67031947  -0.00090855  -0.00625418  1
  Ag  Ag48  1  0.67701909  0.66364266  0.34896250  1
  Ag  Ag49  1  0.16576655  0.33173565  0.16706970  1
  Ag  Ag50  1  0.82740442  0.83028345  0.66401551  1
  Ag  Ag51  1  0.16482186  0.34644342  0.49412544  1
  Ag  Ag52  1  0.83566919  0.34081816  0.16501377  1
  Ag  Ag53  1  -0.00420746  0.66100766  0.34368424  1
  Sb  Sb54  1  0.33018262  0.66279191  0.34173483  1
  Sb  Sb55  1  0.33031934  0.33437867  0.32737168  1
  Sb  Sb56  1  0.67187641  0.33818408  0.66693599  1
  Sb  Sb57  1  0.66735651  0.16468985  0.50266816  1
  Sb  Sb58  1  0.83443514  0.33488652  0.83908981  1
  Sb  Sb59  1  -0.00388215  0.82541927  0.50229550  1
  Sb  Sb60  1  0.49440755  0.33736462  0.49515933  1
  Sb  Sb61  1  0.83312245  0.16186724  0.66716284  1
  Sb  Sb62  1  0.32827423  0.00171012  0.33838475  1
  Sb  Sb63  1  0.66607516  0.16911754  0.16375746  1
  Sb  Sb64  1  0.50036789  0.16726746  0.66323210  1
  Sb  Sb65  1  0.50449091  0.66466726  0.17173187  1
  Sb  Sb66  1  0.32616807  0.66379894  -0.00542736  1
  Sb  Sb67  1  0.83600219  0.83308164  -0.00524698  1
  Sb  Sb68  1  0.66694300  0.83015565  0.16546025  1
  Sb  Sb69  1  0.50173733  0.83669068  0.33278752  1
  Sb  Sb70  1  0.16463657  0.83347456  0.33721673  1
  Sb  Sb71  1  0.49829628  0.66791334  0.82674197  1
  Sb  Sb72  1  -0.00339220  0.50014224  0.16848284  1
  Sb  Sb73  1  0.00221595  0.33576857  0.33098556  1
  Sb  Sb74  1  0.50279262  0.49796905  0.33645960  1
  Sb  Sb75  1  0.83829153  0.66592140  0.82881354  1
  Sb  Sb76  1  0.16631967  0.50807943  0.65966932  1
  Sb  Sb77  1  0.50439135  0.50316942  -0.00114407  1
  Sb  Sb78  1  0.67038882  0.33064053  0.00104433  1
  Sb  Sb79  1  0.67238124  0.66928262  -0.00408683  1
  Sb  Sb80  1  0.83313783  0.82846890  0.33907301  1
  Sb  Sb81  1  0.83935401  0.33895895  0.49453231  1
  Sb  Sb82  1  0.16614244  0.16069138  0.66850389  1
  Sb  Sb83  1  0.49939299  0.33369907  0.83883512  1
  Sb  Sb84  1  0.67085051  -0.00360342  0.33634069  1
  Sb  Sb85  1  0.00082932  0.16887666  0.83674596  1
  Sb  Sb86  1  0.33578821  0.82908580  0.50726737  1
  Sb  Sb87  1  0.83295183  0.50633754  0.66316297  1
  Sb  Sb88  1  0.32927455  0.00312987  -0.00466458  1
  Sb  Sb89  1  0.49824712  -0.00202631  0.83223577  1
  Sb  Sb90  1  0.15869715  0.49803647  0.00510232  1
  Sb  Sb91  1  0.00422392  0.82762982  0.83332951  1
  Sb  Sb92  1  0.00075429  0.83320719  0.16495622  1
  Sb  Sb93  1  0.83438473  -0.00125050  0.83126100  1
  Sb  Sb94  1  0.00170138  -0.00525080  0.66574482  1
  Sb  Sb95  1  0.50083212  0.82919423  0.66925457  1
  Sb  Sb96  1  0.66907180  0.33900028  0.33231945  1
  Sb  Sb97  1  0.16181273  0.66444796  0.16922106  1
  Sb  Sb98  1  0.33134332  0.17106681  0.16148824  1
  Sb  Sb99  1  0.16502389  0.33306678  0.83572423  1
  Sb  Sb100  1  0.33057342  0.16845312  0.50332218  1
  Sb  Sb101  1  0.33019747  0.50256039  0.83117028  1
  Sb  Sb102  1  0.83527464  0.00080843  0.16963064  1
  Sb  Sb103  1  0.32759859  0.33634085  0.66994282  1
  Sb  Sb104  1  0.00156668  0.16865473  0.49885280  1
  Sb  Sb105  1  0.00236350  0.16793320  0.16652782  1
  Sb  Sb106  1  0.33225677  0.83017669  0.15866780  1
  Sb  Sb107  1  0.49935217  0.16273500  0.00346928  1
  Te  Te108  1  0.16843402  0.16603704  0.16669590  1
  Te  Te109  1  0.16776523  0.15839722  0.49630799  1
  Te  Te110  1  0.16855889  0.16259164  0.83691380  1
  Te  Te111  1  0.17105805  0.49766317  0.17211779  1
  Te  Te112  1  0.16470403  0.50226947  0.49792289  1
  Te  Te113  1  0.16229964  0.50456272  0.83532439  1
  Te  Te114  1  0.16852513  0.83795998  0.16271957  1
  Te  Te115  1  0.16848898  0.83569179  0.50443050  1
  Te  Te116  1  0.16633761  0.83297615  0.83197141  1
  Te  Te117  1  0.49888387  0.16586008  0.17148073  1
  Te  Te118  1  0.49900579  0.16546169  0.49354474  1
  Te  Te119  1  0.50300824  0.16702601  0.83334728  1
  Te  Te120  1  0.49802129  0.49692261  0.16752919  1
  Te  Te121  1  0.50295528  0.50180755  0.50089557  1
  Te  Te122  1  0.50345224  0.49994078  0.82920115  1
  Te  Te123  1  0.49926417  0.83772909  0.16057511  1
  Te  Te124  1  0.50328340  0.83383913  0.49995429  1
  Te  Te125  1  0.50256561  0.83311437  0.83944246  1
  Te  Te126  1  0.83235848  0.16902339  0.16629777  1
  Te  Te127  1  0.83337451  0.16677732  0.49510303  1
  Te  Te128  1  0.82745547  0.16695598  0.83890275  1
  Te  Te129  1  0.83296823  0.50023546  0.16852561  1
  Te  Te130  1  0.83399003  0.50253321  0.49626707  1
  Te  Te131  1  0.83443797  0.50045385  0.83702249  1
  Te  Te132  1  0.83254713  0.82662746  0.16473112  1
  Te  Te133  1  0.82906755  0.83283813  0.50401904  1
  Te  Te134  1  0.82523604  0.83304483  0.82628782  1
  Te  Te135  1  0.16747689  0.00123529  0.00014385  1
  Te  Te136  1  0.16318656  0.00069120  0.33491937  1
  Te  Te137  1  0.16734602  -0.00417346  0.66461700  1
  Te  Te138  1  0.16329311  0.33120814  0.00244156  1
  Te  Te139  1  0.16518435  0.33188546  0.33258568  1
  Te  Te140  1  0.16240534  0.33112756  0.66373045  1
  Te  Te141  1  0.16073366  0.66864828  0.00140764  1
  Te  Te142  1  0.16101778  0.66436049  0.33725528  1
  Te  Te143  1  0.16503005  0.66831116  0.66550282  1
  Te  Te144  1  0.50140436  -0.00228143  0.00267283  1
  Te  Te145  1  0.50072981  0.00372713  0.33389165  1
  Te  Te146  1  0.50072329  0.00149295  0.66182856  1
  Te  Te147  1  0.49888811  0.33308600  0.00710907  1
  Te  Te148  1  0.49991286  0.32676334  0.32644156  1
  Te  Te149  1  0.49823162  0.33946077  0.66532261  1
  Te  Te150  1  0.49816745  0.67270825  0.00115713  1
  Te  Te151  1  0.50175031  0.66736249  0.34052495  1
  Te  Te152  1  0.50400065  0.66379242  0.66171225  1
  Te  Te153  1  0.83585539  0.00234884  0.00110722  1
  Te  Te154  1  0.83783282  0.00194160  0.33672740  1
  Te  Te155  1  0.83133753  -0.00444392  0.66051270  1
  Te  Te156  1  0.83678173  0.33213876  0.00477394  1
  Te  Te157  1  0.83579277  0.32915824  0.32698814  1
  Te  Te158  1  0.84079719  0.33227955  0.66487404  1
  Te  Te159  1  0.83917257  0.66462146  -0.00036434  1
  Te  Te160  1  0.83552103  0.66600965  0.33544539  1
  Te  Te161  1  0.83398194  0.66960719  0.66254713  1
  Te  Te162  1  0.00011801  0.16537501  -0.00083949  1
  Te  Te163  1  0.00106334  0.16295410  0.33386725  1
  Te  Te164  1  -0.00148479  0.17411190  0.66864615  1
  Te  Te165  1  -0.00445642  0.49984356  -0.00045363  1
  Te  Te166  1  -0.00118851  0.50114997  0.33652555  1
  Te  Te167  1  -0.00060304  0.50315136  0.66673441  1
  Te  Te168  1  0.00461463  0.83819268  -0.00131569  1
  Te  Te169  1  -0.00002796  0.83801452  0.33332751  1
  Te  Te170  1  0.00177947  0.82665154  0.66797861  1
  Te  Te171  1  0.33016696  0.17117663  -0.00506499  1
  Te  Te172  1  0.32750134  0.16719669  0.33436933  1
  Te  Te173  1  0.33450140  0.16451539  0.67441564  1
  Te  Te174  1  0.33470165  0.49549618  0.00154625  1
  Te  Te175  1  0.32925422  0.49979736  0.33485200  1
  Te  Te176  1  0.33834011  0.50393680  0.66415108  1
  Te  Te177  1  0.33101661  0.83205728  -0.00787181  1
  Te  Te178  1  0.33354831  0.83174835  0.33145074  1
  Te  Te179  1  0.33258181  0.83255941  0.67104289  1
  Te  Te180  1  0.66843019  0.16143882  -0.00361901  1
  Te  Te181  1  0.67022650  0.16590052  0.33362495  1
  Te  Te182  1  0.66694198  0.16537385  0.67367205  1
  Te  Te183  1  0.67172160  0.50071630  -0.00136094  1
  Te  Te184  1  0.66961156  0.50406965  0.33306432  1
  Te  Te185  1  0.66700030  0.50174670  0.66700296  1
  Te  Te186  1  0.66669711  0.83778844  -0.00246757  1
  Te  Te187  1  0.66592294  0.82552518  0.33681397  1
  Te  Te188  1  0.66404511  0.83318207  0.66590689  1
  Te  Te189  1  0.00421635  -0.00044118  0.16572457  1
  Te  Te190  1  -0.00034161  0.00015959  0.49967977  1
  Te  Te191  1  0.00559931  0.00052829  0.83543466  1
  Te  Te192  1  0.00226152  0.33434054  0.16065802  1
  Te  Te193  1  0.00564374  0.33900313  0.50148086  1
  Te  Te194  1  0.00016796  0.33953794  0.83467522  1
  Te  Te195  1  -0.00489160  0.66714491  0.16444093  1
  Te  Te196  1  0.00202567  0.66491865  0.49997885  1
  Te  Te197  1  0.00366628  0.66301799  0.83563166  1
  Te  Te198  1  0.33364844  -0.00076906  0.16751041  1
  Te  Te199  1  0.33439295  -0.00056337  0.50570177  1
  Te  Te200  1  0.33151941  -0.00140201  0.82921293  1
  Te  Te201  1  0.32942666  0.33678363  0.16225180  1
  Te  Te202  1  0.32610934  0.33971448  0.50166987  1
  Te  Te203  1  0.33284080  0.33063129  0.83911623  1
  Te  Te204  1  0.33443409  0.65973807  0.16728866  1
  Te  Te205  1  0.32416691  0.66330102  0.50576185  1
  Te  Te206  1  0.32830369  0.67055551  0.82699200  1
  Te  Te207  1  0.66416063  -0.00081138  0.16403703  1
  Te  Te208  1  0.66675393  0.00044998  0.50233344  1
  Te  Te209  1  0.66670946  -0.00283092  0.83200973  1
  Te  Te210  1  0.66755091  0.33923965  0.16624579  1
  Te  Te211  1  0.66557144  0.33911150  0.50076198  1
  Te  Te212  1  0.66623894  0.34048531  0.83280575  1
  Te  Te213  1  0.67076469  0.66171969  0.16420239  1
  Te  Te214  1  0.66969565  0.66492289  0.50419758  1
  Te  Te215  1  0.66664425  0.66662320  0.82866457  1
