# generated using pymatgen
data_AgSbTe2
_symmetry_space_group_name_H-M   'P 1'
_cell_length_a   18.34714851
_cell_length_b   18.34147518
_cell_length_c   18.34240710
_cell_angle_alpha   89.99557456
_cell_angle_beta   90.00049695
_cell_angle_gamma   89.99845162
_symmetry_Int_Tables_number   1
_chemical_formula_structural   AgSbTe2
_chemical_formula_sum   'Ag54 Sb54 Te108'
_cell_volume   6172.47252542
_cell_formula_units_Z   54
loop_
 _symmetry_equiv_pos_site_id
 _symmetry_equiv_pos_as_xyz
  1  'x, y, z'
loop_
 _atom_site_type_symbol
 _atom_site_label
 _atom_site_symmetry_multiplicity
 _atom_site_fract_x
 _atom_site_fract_y
 _atom_site_fract_z
 _atom_site_occupancy
  Ag  Ag0  1  0.49350651  0.33367422  0.15943947  1
  Ag  Ag1  1  0.00958346  0.83702510  0.50172032  1
  Ag  Ag2  1  0.17258983  0.83059761  0.66176990  1
  Ag  Ag3  1  0.34540198  0.33449522  0.00550818  1
  Ag  Ag4  1  0.33037291  0.48973246  0.49052098  1
  Ag  Ag5  1  0.49380084  0.00927991  0.49827040  1
  Ag  Ag6  1  0.83259177  0.16744265  0.66159498  1
  Ag  Ag7  1  0.17764907  0.49110606  0.33787075  1
  Ag  Ag8  1  0.50406426  0.17707818  0.00203019  1
  Ag  Ag9  1  0.33370478  0.65375474  0.33453161  1
  Ag  Ag10  1  0.33549484  0.82668794  0.82420741  1
  Ag  Ag11  1  0.48954429  0.17214771  0.33563475  1
  Ag  Ag12  1  0.49517662  0.83667332  0.33934717  1
  Ag  Ag13  1  0.33000418  0.17227924  0.17464842  1
  Ag  Ag14  1  0.50202037  0.48893642  0.01280586  1
  Ag  Ag15  1  0.66548973  0.83412409  0.16701607  1
  Ag  Ag16  1  0.49208631  0.84010648  0.65774552  1
  Ag  Ag17  1  -0.00594495  0.33045094  0.00026557  1
  Ag  Ag18  1  0.66498805  0.00184720  0.66452355  1
  Ag  Ag19  1  -0.00060183  0.00012989  0.65569132  1
  Ag  Ag20  1  0.49183438  0.65612146  0.83198503  1
  Ag  Ag21  1  0.00581696  0.16823250  0.16914131  1
  Ag  Ag22  1  0.49356649  0.49017741  0.33197463  1
  Ag  Ag23  1  0.17205587  0.16874313  0.33279807  1
  Ag  Ag24  1  0.83044673  0.17075077  0.00083299  1
  Ag  Ag25  1  0.33496996  0.50259502  0.83406388  1
  Ag  Ag26  1  0.49020218  0.33067902  0.49764466  1
  Ag  Ag27  1  0.82604783  0.48768479  0.00661563  1
  Ag  Ag28  1  0.83670008  0.16928167  0.33362008  1
  Ag  Ag29  1  0.16762209  0.01076039  0.18006889  1
  Ag  Ag30  1  0.00414151  0.67088729  0.66461253  1
  Ag  Ag31  1  0.83053053  0.83676489  0.33365942  1
  Ag  Ag32  1  0.01031518  0.49616906  0.49730390  1
  Ag  Ag33  1  0.33825658  0.48946054  0.17261744  1
  Ag  Ag34  1  0.17218980  0.33645312  0.49402391  1
  Ag  Ag35  1  0.65983054  0.33123557  0.00057114  1
  Ag  Ag36  1  0.83161867  0.49304846  0.33430163  1
  Ag  Ag37  1  0.65854713  0.49710901  0.17091782  1
  Ag  Ag38  1  0.16706912  0.50114360  0.65529337  1
  Ag  Ag39  1  0.83432493  0.33378169  0.49893900  1
  Ag  Ag40  1  0.17486737  0.00474926  0.49641350  1
  Ag  Ag41  1  -0.00158943  0.16793499  0.83657761  1
  Ag  Ag42  1  0.65638357  0.49495090  0.49206176  1
  Ag  Ag43  1  0.33117062  0.83861530  0.49878640  1
  Ag  Ag44  1  0.83155656  0.33109998  0.84633002  1
  Ag  Ag45  1  0.32914997  0.00687666  0.33697195  1
  Ag  Ag46  1  0.50017726  0.33510609  0.84672307  1
  Ag  Ag47  1  0.17339895  0.66412303  0.82817967  1
  Ag  Ag48  1  0.33605429  0.16913954  0.49283407  1
  Ag  Ag49  1  0.83130613  0.83813508  0.00397911  1
  Ag  Ag50  1  0.01016012  0.00277855  0.33850890  1
  Ag  Ag51  1  0.17496487  0.32917053  0.17426065  1
  Ag  Ag52  1  0.66626626  0.00953837  0.00053221  1
  Ag  Ag53  1  0.50059870  0.16404021  0.65472308  1
  Sb  Sb54  1  0.83348923  0.66014520  0.83249835  1
  Sb  Sb55  1  0.16240396  0.83566796  -0.00387673  1
  Sb  Sb56  1  0.66077404  0.17218541  0.49872536  1
  Sb  Sb57  1  0.66406168  0.00022953  0.33410778  1
  Sb  Sb58  1  0.00367537  0.16689719  0.49637987  1
  Sb  Sb59  1  0.66551272  0.66169307  0.00049885  1
  Sb  Sb60  1  0.17008277  0.49600376  0.00335816  1
  Sb  Sb61  1  0.33443369  0.33407775  0.66646193  1
  Sb  Sb62  1  0.33356969  -0.00196935  0.65782143  1
  Sb  Sb63  1  0.66962389  0.16805850  0.83445219  1
  Sb  Sb64  1  0.49525836  0.49739281  0.66250333  1
  Sb  Sb65  1  0.00134458  0.32807134  0.33099826  1
  Sb  Sb66  1  0.16772037  0.16581761  0.65841739  1
  Sb  Sb67  1  0.16985541  0.66278612  0.16629621  1
  Sb  Sb68  1  0.17087016  0.83761786  0.34070647  1
  Sb  Sb69  1  0.66185165  0.83448618  0.83731493  1
  Sb  Sb70  1  0.33862440  0.00592521  0.00599935  1
  Sb  Sb71  1  0.00509413  0.66919693  0.33894843  1
  Sb  Sb72  1  0.66548076  0.32962463  0.66845531  1
  Sb  Sb73  1  0.83789977  0.49255354  0.66300229  1
  Sb  Sb74  1  0.66439665  0.33483101  0.32959187  1
  Sb  Sb75  1  0.66365166  0.16949158  0.16508368  1
  Sb  Sb76  1  0.00248873  0.83659918  0.82744940  1
  Sb  Sb77  1  0.66113029  0.66458202  0.33339181  1
  Sb  Sb78  1  -0.00402780  0.00671688  0.00338821  1
  Sb  Sb79  1  0.32982502  0.66733750  0.66362479  1
  Sb  Sb80  1  0.66646868  0.67058814  0.66553397  1
  Sb  Sb81  1  0.49841064  0.00555044  0.82746876  1
  Sb  Sb82  1  0.83436053  0.84019497  0.66347865  1
  Sb  Sb83  1  0.50294481  0.83477101  0.00173789  1
  Sb  Sb84  1  0.33471950  0.33152790  0.32801401  1
  Sb  Sb85  1  0.00212303  0.49238120  0.17247605  1
  Sb  Sb86  1  0.16835384  0.66340080  0.50366878  1
  Sb  Sb87  1  0.49703254  0.00795046  0.17337110  1
  Sb  Sb88  1  0.16887399  0.33598135  0.83261967  1
  Sb  Sb89  1  0.83365841  0.00319096  0.16826940  1
  Sb  Sb90  1  0.49890243  0.65858884  0.16521219  1
  Sb  Sb91  1  0.66009827  0.49696534  0.83474581  1
  Sb  Sb92  1  0.83391701  0.00677253  0.83365387  1
  Sb  Sb93  1  0.16617559  0.16930555  0.01014995  1
  Sb  Sb94  1  0.49587900  0.66429560  0.50124236  1
  Sb  Sb95  1  0.33768461  0.83592510  0.17365382  1
  Sb  Sb96  1  0.83149738  0.33215913  0.16545174  1
  Sb  Sb97  1  0.33488571  0.66016766  -0.00012732  1
  Sb  Sb98  1  0.83242162  0.00657445  0.49837210  1
  Sb  Sb99  1  0.83387783  0.66571502  0.16799067  1
  Sb  Sb100  1  0.33212114  0.16880233  0.83426677  1
  Sb  Sb101  1  0.16810011  -0.00186005  0.82619846  1
  Sb  Sb102  1  0.83571641  0.65992508  0.49946012  1
  Sb  Sb103  1  -0.00229689  0.84202789  0.17440052  1
  Sb  Sb104  1  0.00380686  0.49473039  0.82986713  1
  Sb  Sb105  1  -0.00053654  0.32970043  0.66683882  1
  Sb  Sb106  1  0.66299677  0.83200930  0.49603913  1
  Sb  Sb107  1  -0.00073745  0.66099775  -0.00616778  1
  Te  Te108  1  0.16862563  0.16844176  0.17118668  1
  Te  Te109  1  0.17031604  0.16709911  0.49502360  1
  Te  Te110  1  0.16219203  0.16698575  0.83061453  1
  Te  Te111  1  0.17108998  0.49494024  0.17176999  1
  Te  Te112  1  0.16923082  0.49925664  0.49782461  1
  Te  Te113  1  0.17103869  0.50214282  0.83352642  1
  Te  Te114  1  0.16737436  0.83451772  0.16605036  1
  Te  Te115  1  0.16799242  0.83604240  0.50250680  1
  Te  Te116  1  0.17082398  0.83038900  0.82823704  1
  Te  Te117  1  0.49792236  0.17175801  0.17086397  1
  Te  Te118  1  0.49893834  0.16776118  0.49648792  1
  Te  Te119  1  0.49845930  0.17282486  0.83804210  1
  Te  Te120  1  0.49939723  0.49719320  0.17008179  1
  Te  Te121  1  0.49504918  0.49815969  0.49709810  1
  Te  Te122  1  0.49562853  0.49574297  0.82781568  1
  Te  Te123  1  0.50439484  0.83274457  0.17069156  1
  Te  Te124  1  0.49939694  0.83054550  0.49938264  1
  Te  Te125  1  0.49508550  0.83669782  0.83306793  1
  Te  Te126  1  0.83526904  0.16731746  0.16671314  1
  Te  Te127  1  0.83340032  0.17179937  0.49983659  1
  Te  Te128  1  0.83639816  0.17160387  0.83740304  1
  Te  Te129  1  0.83222598  0.49950144  0.16650803  1
  Te  Te130  1  0.83816466  0.49465659  0.49825147  1
  Te  Te131  1  0.83337961  0.49319888  0.83562943  1
  Te  Te132  1  0.83013290  0.83351314  0.16888722  1
  Te  Te133  1  0.83173172  0.83304579  0.49557999  1
  Te  Te134  1  0.83283531  0.83091824  0.83675564  1
  Te  Te135  1  0.16708784  0.00048624  0.00187863  1
  Te  Te136  1  0.16728130  -0.00021415  0.33711735  1
  Te  Te137  1  0.16222064  -0.00243176  0.65978885  1
  Te  Te138  1  0.16087758  0.33306514  0.00102178  1
  Te  Te139  1  0.16357291  0.33178066  0.33413596  1
  Te  Te140  1  0.16667439  0.33709472  0.66183408  1
  Te  Te141  1  0.16609518  0.66653041  -0.00836007  1
  Te  Te142  1  0.17201296  0.65885140  0.33094811  1
  Te  Te143  1  0.16439749  0.66843548  0.66903433  1
  Te  Te144  1  0.50578511  0.00400710  0.00084676  1
  Te  Te145  1  0.49887990  0.00120522  0.33783987  1
  Te  Te146  1  0.50026811  0.00118498  0.66248890  1
  Te  Te147  1  0.50166157  0.33382037  0.00229318  1
  Te  Te148  1  0.50264994  0.33182621  0.33996491  1
  Te  Te149  1  0.50113591  0.32806254  0.65538537  1
  Te  Te150  1  0.49972266  0.66314935  -0.00735543  1
  Te  Te151  1  0.49447518  0.66862549  0.33315529  1
  Te  Te152  1  0.50100030  0.67210743  0.67219008  1
  Te  Te153  1  0.82844887  0.00074441  0.00061519  1
  Te  Te154  1  0.83313921  -0.00180958  0.33323269  1
  Te  Te155  1  0.83302745  0.00721616  0.66663599  1
  Te  Te156  1  0.83435408  0.33097048  0.00302922  1
  Te  Te157  1  0.83310044  0.33350116  0.33385094  1
  Te  Te158  1  0.83275190  0.32614010  0.66467321  1
  Te  Te159  1  0.83369275  0.66913398  -0.00113579  1
  Te  Te160  1  0.83563434  0.67080688  0.33357155  1
  Te  Te161  1  0.83989193  0.66712784  0.66794469  1
  Te  Te162  1  -0.00231574  0.16849530  0.00183213  1
  Te  Te163  1  -0.00377454  0.16230850  0.33125681  1
  Te  Te164  1  -0.00091013  0.16207120  0.66629578  1
  Te  Te165  1  -0.00529865  0.49546504  0.00065956  1
  Te  Te166  1  -0.00873622  0.50303702  0.33808228  1
  Te  Te167  1  0.00556724  0.50055171  0.66223134  1
  Te  Te168  1  -0.00678382  0.83386851  0.00020611  1
  Te  Te169  1  -0.00180257  0.83702028  0.33965410  1
  Te  Te170  1  -0.00046802  0.83804732  0.66248820  1
  Te  Te171  1  0.33782432  0.17202927  0.00198413  1
  Te  Te172  1  0.33275164  0.16685070  0.33452554  1
  Te  Te173  1  0.33874933  0.16555168  0.66529118  1
  Te  Te174  1  0.33735004  0.49583042  -0.00152876  1
  Te  Te175  1  0.33583128  0.49667785  0.33407589  1
  Te  Te176  1  0.32768280  0.50122549  0.66996181  1
  Te  Te177  1  0.33298551  0.83414884  0.00073154  1
  Te  Te178  1  0.33649662  0.84027036  0.33751812  1
  Te  Te179  1  0.33319343  0.83286368  0.66408481  1
  Te  Te180  1  0.66732007  0.16824471  0.00072229  1
  Te  Te181  1  0.67870922  0.16538141  0.33229159  1
  Te  Te182  1  0.66495657  0.16186313  0.66608624  1
  Te  Te183  1  0.66550690  0.49673995  0.00164705  1
  Te  Te184  1  0.67111108  0.50087265  0.33176131  1
  Te  Te185  1  0.66754952  0.50161075  0.66075617  1
  Te  Te186  1  0.67067967  0.83264027  0.00438706  1
  Te  Te187  1  0.66777117  0.83203367  0.32966634  1
  Te  Te188  1  0.66422182  0.83905686  0.66664697  1
  Te  Te189  1  0.00579845  0.00691782  0.17081810  1
  Te  Te190  1  -0.00214314  0.00068431  0.49827958  1
  Te  Te191  1  0.00118046  0.00570507  0.83207782  1
  Te  Te192  1  0.00503493  0.32808405  0.16237051  1
  Te  Te193  1  -0.00096805  0.33618708  0.49972475  1
  Te  Te194  1  -0.00231593  0.32894866  0.83608289  1
  Te  Te195  1  0.00290061  0.66809762  0.16437731  1
  Te  Te196  1  0.00117907  0.67151025  0.50533288  1
  Te  Te197  1  0.00351649  0.66673839  0.82611166  1
  Te  Te198  1  0.32887990  0.00416113  0.17240295  1
  Te  Te199  1  0.33401283  -0.00018814  0.49736277  1
  Te  Te200  1  0.33213685  -0.00618423  0.83633221  1
  Te  Te201  1  0.33289676  0.33275612  0.16519777  1
  Te  Te202  1  0.33071997  0.33200437  0.50283362  1
  Te  Te203  1  0.33647260  0.33620245  0.83786236  1
  Te  Te204  1  0.33347946  0.66364462  0.17186404  1
  Te  Te205  1  0.33335538  0.67117121  0.49448294  1
  Te  Te206  1  0.33404717  0.66706232  0.83401219  1
  Te  Te207  1  0.66555162  -0.00307800  0.16288244  1
  Te  Te208  1  0.66095173  0.00003162  0.50349928  1
  Te  Te209  1  0.66617933  -0.00039283  0.83372905  1
  Te  Te210  1  0.66031985  0.33713667  0.16156183  1
  Te  Te211  1  0.67265144  0.33772488  0.50093774  1
  Te  Te212  1  0.66573470  0.33404988  0.83817833  1
  Te  Te213  1  0.66658034  0.66612281  0.16677847  1
  Te  Te214  1  0.66756135  0.65462095  0.50094474  1
  Te  Te215  1  0.65916168  0.66604176  0.83168893  1
