# generated using pymatgen
data_AgSbTe2
_symmetry_space_group_name_H-M   'P 1'
_cell_length_a   18.32474818
_cell_length_b   18.32445708
_cell_length_c   18.32787500
_cell_angle_alpha   89.99962997
_cell_angle_beta   90.00353352
_cell_angle_gamma   89.99880547
_symmetry_Int_Tables_number   1
_chemical_formula_structural   AgSbTe2
_chemical_formula_sum   'Ag54 Sb54 Te108'
_cell_volume   6154.33658852
_cell_formula_units_Z   54
loop_
 _symmetry_equiv_pos_site_id
 _symmetry_equiv_pos_as_xyz
  1  'x, y, z'
loop_
 _atom_site_type_symbol
 _atom_site_label
 _atom_site_symmetry_multiplicity
 _atom_site_fract_x
 _atom_site_fract_y
 _atom_site_fract_z
 _atom_site_occupancy
  Ag  Ag0  1  0.82915992  0.16425559  0.66441776  1
  Ag  Ag1  1  0.16884874  -0.00652950  0.16162813  1
  Ag  Ag2  1  0.16368461  0.50723506  0.00035101  1
  Ag  Ag3  1  0.00564380  0.49826558  0.50050375  1
  Ag  Ag4  1  0.17104002  0.50099178  0.66021356  1
  Ag  Ag5  1  0.33263805  0.33166225  0.00026950  1
  Ag  Ag6  1  0.15118487  0.83472360  0.00192878  1
  Ag  Ag7  1  0.00260448  -0.01082058  -0.00045942  1
  Ag  Ag8  1  0.83466021  0.83189488  -0.00137481  1
  Ag  Ag9  1  0.33335371  0.66351973  0.65759853  1
  Ag  Ag10  1  0.00240189  0.15984996  0.17043288  1
  Ag  Ag11  1  0.16588154  0.67074531  0.16699048  1
  Ag  Ag12  1  -0.00510106  0.67729529  0.00140168  1
  Ag  Ag13  1  0.82501012  0.67068201  0.49923862  1
  Ag  Ag14  1  0.16284281  0.16796805  0.33373280  1
  Ag  Ag15  1  -0.00184186  0.33332992  0.66106559  1
  Ag  Ag16  1  0.34016287  -0.00511610  0.33329574  1
  Ag  Ag17  1  0.66224294  0.00225498  0.66684721  1
  Ag  Ag18  1  0.16651926  0.50193120  0.34015231  1
  Ag  Ag19  1  0.66803122  0.15369295  0.82431344  1
  Ag  Ag20  1  0.33593419  0.66972992  0.33932294  1
  Ag  Ag21  1  0.66702201  0.83544072  0.15982195  1
  Ag  Ag22  1  0.50223967  -0.00340821  0.16476804  1
  Ag  Ag23  1  0.82007162  -0.00185871  0.50555807  1
  Ag  Ag24  1  -0.00405765  0.83816594  0.84545637  1
  Ag  Ag25  1  0.16723992  0.00030163  0.84237445  1
  Ag  Ag26  1  -0.00409933  0.16948482  0.49709103  1
  Ag  Ag27  1  0.50165749  0.33012166  0.16954495  1
  Ag  Ag28  1  0.50935104  -0.00168439  0.83430358  1
  Ag  Ag29  1  0.33450359  -0.00268804  0.00040207  1
  Ag  Ag30  1  0.50214435  0.33550789  0.49912871  1
  Ag  Ag31  1  0.65828717  -0.00871222  0.35125973  1
  Ag  Ag32  1  0.17239426  0.66230509  0.49430434  1
  Ag  Ag33  1  0.34231885  -0.00297985  0.66548878  1
  Ag  Ag34  1  0.16571082  0.33237635  0.83422579  1
  Ag  Ag35  1  0.66533654  0.84073107  0.49693727  1
  Ag  Ag36  1  0.51820367  0.83681966  0.00579653  1
  Ag  Ag37  1  0.66628039  0.50108908  0.83675485  1
  Ag  Ag38  1  0.66710650  0.32557878  0.66625626  1
  Ag  Ag39  1  0.66338795  -0.01268327  -0.01772731  1
  Ag  Ag40  1  0.65964179  0.67537356  0.33336974  1
  Ag  Ag41  1  0.66476856  0.51286377  0.16129700  1
  Ag  Ag42  1  0.00389821  0.33111328  0.34024823  1
  Ag  Ag43  1  0.50473733  0.83674145  0.33153724  1
  Ag  Ag44  1  0.82174509  -0.00206669  0.83156218  1
  Ag  Ag45  1  0.32861585  0.50528464  0.50213169  1
  Ag  Ag46  1  0.66896514  0.84374052  0.84797675  1
  Ag  Ag47  1  0.49931399  0.66846840  0.49809341  1
  Ag  Ag48  1  0.00000334  0.83757543  0.15846053  1
  Ag  Ag49  1  0.67056401  0.15403731  0.50499828  1
  Ag  Ag50  1  0.67048051  0.67740939  0.00434736  1
  Ag  Ag51  1  0.49904463  0.50066499  0.66272487  1
  Ag  Ag52  1  0.83394015  0.50857332  -0.00128307  1
  Ag  Ag53  1  0.50749023  -0.00334437  0.49874686  1
  Sb  Sb54  1  0.83564156  0.50277498  0.33209728  1
  Sb  Sb55  1  0.49816524  0.15767810  0.33407539  1
  Sb  Sb56  1  0.83664556  0.16346696  0.33939624  1
  Sb  Sb57  1  0.83333967  0.66807410  0.16628734  1
  Sb  Sb58  1  0.16204754  0.16918851  0.66350777  1
  Sb  Sb59  1  0.33457590  0.50007703  0.82959416  1
  Sb  Sb60  1  0.00534986  0.33397881  -0.00064077  1
  Sb  Sb61  1  0.16664969  0.66846752  0.83675618  1
  Sb  Sb62  1  -0.00217601  0.00349000  0.67018286  1
  Sb  Sb63  1  0.50113845  0.15576384  0.00120662  1
  Sb  Sb64  1  0.00386627  0.66237815  0.66763345  1
  Sb  Sb65  1  0.16537493  0.15933559  0.00309720  1
  Sb  Sb66  1  0.00265692  0.66497426  0.33044019  1
  Sb  Sb67  1  0.33619678  0.50134559  0.16959248  1
  Sb  Sb68  1  0.83256128  0.15885344  -0.00474312  1
  Sb  Sb69  1  0.50002029  0.67130963  0.17150082  1
  Sb  Sb70  1  0.33650946  0.83598650  0.16574150  1
  Sb  Sb71  1  0.16701478  0.83059411  0.67118037  1
  Sb  Sb72  1  0.50040971  0.50496542  -0.00277162  1
  Sb  Sb73  1  0.33678117  0.83726436  0.83555626  1
  Sb  Sb74  1  -0.00143633  0.50241791  0.83154105  1
  Sb  Sb75  1  0.16927125  -0.00419458  0.49789512  1
  Sb  Sb76  1  0.66709047  0.33282961  0.33764777  1
  Sb  Sb77  1  0.83134500  0.67239261  0.83317442  1
  Sb  Sb78  1  -0.00020222  0.50104171  0.16818713  1
  Sb  Sb79  1  0.83253830  0.33197553  0.50175549  1
  Sb  Sb80  1  0.33481910  0.16810293  0.49931886  1
  Sb  Sb81  1  0.50261567  0.67261015  0.82998780  1
  Sb  Sb82  1  0.33874126  0.82759233  0.49857701  1
  Sb  Sb83  1  0.32900550  0.16191177  0.16796474  1
  Sb  Sb84  1  0.66271987  0.66843030  0.66445791  1
  Sb  Sb85  1  0.66170561  0.33448130  -0.00361390  1
  Sb  Sb86  1  0.66922141  0.15743779  0.16881350  1
  Sb  Sb87  1  0.16674997  0.33972789  0.50216376  1
  Sb  Sb88  1  0.00126416  0.00232223  0.32829787  1
  Sb  Sb89  1  0.49974409  0.32994908  0.83274886  1
  Sb  Sb90  1  0.16966043  0.33292043  0.16340192  1
  Sb  Sb91  1  0.83027733  0.83854760  0.67120427  1
  Sb  Sb92  1  0.66544701  0.50288019  0.50105323  1
  Sb  Sb93  1  0.50172755  0.83428339  0.66478692  1
  Sb  Sb94  1  0.82457500  0.83365335  0.32955473  1
  Sb  Sb95  1  0.83480842  0.32902301  0.83317749  1
  Sb  Sb96  1  0.50685251  0.16602561  0.66482557  1
  Sb  Sb97  1  0.17134810  0.83121815  0.32692338  1
  Sb  Sb98  1  0.33708604  0.16248161  0.83294431  1
  Sb  Sb99  1  -0.00296152  0.16067147  0.83256008  1
  Sb  Sb100  1  0.33076908  0.33429372  0.33143502  1
  Sb  Sb101  1  0.83178497  -0.00225842  0.16417157  1
  Sb  Sb102  1  0.83155065  0.49725796  0.66911112  1
  Sb  Sb103  1  0.82939281  0.33387292  0.16498854  1
  Sb  Sb104  1  0.33400052  0.33401572  0.66847045  1
  Sb  Sb105  1  0.49721676  0.50506575  0.33864300  1
  Sb  Sb106  1  -0.00606407  0.83311424  0.49755072  1
  Sb  Sb107  1  0.33249713  0.67127896  0.00207535  1
  Te  Te108  1  0.16147633  0.16422881  0.17119971  1
  Te  Te109  1  0.16247526  0.16644597  0.49539450  1
  Te  Te110  1  0.16566599  0.16578403  0.83254564  1
  Te  Te111  1  0.16686022  0.50225612  0.16361597  1
  Te  Te112  1  0.16651817  0.50075489  0.50013322  1
  Te  Te113  1  0.16654438  0.49918028  0.83569991  1
  Te  Te114  1  0.16512286  0.83382709  0.16328282  1
  Te  Te115  1  0.16302108  0.82562427  0.50009898  1
  Te  Te116  1  0.16420540  0.83629069  0.83836761  1
  Te  Te117  1  0.50049543  0.16746433  0.16788075  1
  Te  Te118  1  0.50291762  0.16553177  0.49887928  1
  Te  Te119  1  0.50738421  0.16070667  0.83360189  1
  Te  Te120  1  0.50505348  0.49930017  0.16686971  1
  Te  Te121  1  0.49876006  0.50171821  0.50262850  1
  Te  Te122  1  0.50386736  0.49937168  0.82795256  1
  Te  Te123  1  0.50418842  0.83623864  0.16747820  1
  Te  Te124  1  0.50329840  0.83478740  0.49825144  1
  Te  Te125  1  0.50647827  0.83949228  0.83656905  1
  Te  Te126  1  0.84187610  0.16682359  0.16678340  1
  Te  Te127  1  0.83320887  0.16528268  0.50441213  1
  Te  Te128  1  0.82923023  0.16053884  0.82854787  1
  Te  Te129  1  0.82622959  0.50072420  0.16063766  1
  Te  Te130  1  0.83965039  0.50404246  0.50087821  1
  Te  Te131  1  0.82936078  0.50054899  0.83755638  1
  Te  Te132  1  0.83273822  0.83248461  0.16031830  1
  Te  Te133  1  0.83002614  0.83389918  0.50051999  1
  Te  Te134  1  0.83104537  0.83800323  0.83630650  1
  Te  Te135  1  0.16678748  -0.00148982  0.00256537  1
  Te  Te136  1  0.17007099  0.00007533  0.32902496  1
  Te  Te137  1  0.16889890  -0.00020993  0.66786546  1
  Te  Te138  1  0.17054010  0.33578060  -0.00335824  1
  Te  Te139  1  0.16444632  0.33495015  0.33188265  1
  Te  Te140  1  0.16555631  0.33677002  0.67086662  1
  Te  Te141  1  0.16820292  0.66809140  0.00333646  1
  Te  Te142  1  0.16931584  0.66398916  0.33246873  1
  Te  Te143  1  0.17143201  0.66194925  0.66433139  1
  Te  Te144  1  0.50031991  -0.00416841  0.00200072  1
  Te  Te145  1  0.50010115  -0.00190869  0.33377521  1
  Te  Te146  1  0.50018079  0.00010442  0.66516568  1
  Te  Te147  1  0.49396606  0.33547540  0.00189732  1
  Te  Te148  1  0.49926026  0.33301945  0.33451319  1
  Te  Te149  1  0.50227518  0.33761314  0.66440950  1
  Te  Te150  1  0.50275172  0.67408412  0.00003525  1
  Te  Te151  1  0.49924251  0.67063754  0.33716449  1
  Te  Te152  1  0.49556266  0.66376214  0.66207228  1
  Te  Te153  1  0.83217301  -0.00270990  -0.00346878  1
  Te  Te154  1  0.82869144  -0.00030379  0.34121553  1
  Te  Te155  1  0.83180522  0.00363692  0.66624192  1
  Te  Te156  1  0.83402596  0.34074359  -0.00075966  1
  Te  Te157  1  0.84139019  0.33417879  0.33307956  1
  Te  Te158  1  0.83177055  0.32948820  0.66729276  1
  Te  Te159  1  0.83151346  0.66661801  -0.00000805  1
  Te  Te160  1  0.82803371  0.66648040  0.34016973  1
  Te  Te161  1  0.83424339  0.66570173  0.65856583  1
  Te  Te162  1  -0.00160351  0.16462653  0.00464301  1
  Te  Te163  1  0.00245398  0.16866494  0.33521210  1
  Te  Te164  1  -0.00486142  0.17144284  0.66299913  1
  Te  Te165  1  0.00155321  0.50179868  -0.00004797  1
  Te  Te166  1  0.00415213  0.49716119  0.33602412  1
  Te  Te167  1  0.00282997  0.49516581  0.66391067  1
  Te  Te168  1  -0.00429472  0.83341750  0.00181287  1
  Te  Te169  1  -0.00166220  0.83269260  0.32607957  1
  Te  Te170  1  -0.00093980  0.83252971  0.67143973  1
  Te  Te171  1  0.33328854  0.16558563  0.00049966  1
  Te  Te172  1  0.32423488  0.16262633  0.33429848  1
  Te  Te173  1  0.33129803  0.15895251  0.66539709  1
  Te  Te174  1  0.32948798  0.50157418  -0.00044646  1
  Te  Te175  1  0.32805091  0.50241067  0.33760228  1
  Te  Te176  1  0.33269742  0.49967933  0.66325248  1
  Te  Te177  1  0.33014982  0.83854672  -0.00058969  1
  Te  Te178  1  0.33962168  0.83404994  0.33280958  1
  Te  Te179  1  0.33380801  0.83718343  0.66767793  1
  Te  Te180  1  0.66839920  0.16455268  -0.00248258  1
  Te  Te181  1  0.66769762  0.16389369  0.33890496  1
  Te  Te182  1  0.66762634  0.16658367  0.66493874  1
  Te  Te183  1  0.66615916  0.49888217  0.00079525  1
  Te  Te184  1  0.66688190  0.50183026  0.32644941  1
  Te  Te185  1  0.66426399  0.50062169  0.66963482  1
  Te  Te186  1  0.67316646  0.83368072  0.00312780  1
  Te  Te187  1  0.66436634  0.83298119  0.33617668  1
  Te  Te188  1  0.66667018  0.83670170  0.66034316  1
  Te  Te189  1  -0.00057751  -0.00130090  0.16343333  1
  Te  Te190  1  -0.00009655  0.00322476  0.49953647  1
  Te  Te191  1  0.00672271  -0.00216681  0.83714984  1
  Te  Te192  1  -0.00020701  0.33116701  0.16954352  1
  Te  Te193  1  0.00028557  0.33335289  0.50081978  1
  Te  Te194  1  0.00443035  0.33231318  0.82922020  1
  Te  Te195  1  0.00344998  0.66889679  0.16256515  1
  Te  Te196  1  0.00311508  0.66443723  0.49932626  1
  Te  Te197  1  -0.00099686  0.67271990  0.83942503  1
  Te  Te198  1  0.33539185  0.00050900  0.16646053  1
  Te  Te199  1  0.33562235  -0.00007721  0.49920025  1
  Te  Te200  1  0.32805923  0.00045564  0.83484517  1
  Te  Te201  1  0.34026086  0.33268008  0.16250156  1
  Te  Te202  1  0.34051865  0.33795002  0.50004446  1
  Te  Te203  1  0.32880024  0.33177002  0.83774247  1
  Te  Te204  1  0.32769998  0.66653161  0.17268267  1
  Te  Te205  1  0.33444360  0.66575768  0.49949646  1
  Te  Te206  1  0.33425621  0.66805809  0.82442727  1
  Te  Te207  1  0.66386498  -0.00272681  0.16461911  1
  Te  Te208  1  0.66452905  -0.00125692  0.50629468  1
  Te  Te209  1  0.66569578  -0.00167376  0.82733095  1
  Te  Te210  1  0.66165414  0.32867582  0.16751867  1
  Te  Te211  1  0.66282431  0.33500532  0.50393214  1
  Te  Te212  1  0.66636571  0.33844937  0.82827067  1
  Te  Te213  1  0.66628818  0.67021530  0.16693778  1
  Te  Te214  1  0.66367146  0.66675394  0.49780285  1
  Te  Te215  1  0.66703403  0.66348613  0.83634120  1
