# generated using pymatgen
data_AgSbTe2
_symmetry_space_group_name_H-M   'P 1'
_cell_length_a   18.34125148
_cell_length_b   18.33177671
_cell_length_c   18.32735457
_cell_angle_alpha   89.99596310
_cell_angle_beta   89.99987567
_cell_angle_gamma   89.99552490
_symmetry_Int_Tables_number   1
_chemical_formula_structural   AgSbTe2
_chemical_formula_sum   'Ag54 Sb54 Te108'
_cell_volume   6162.16473036
_cell_formula_units_Z   54
loop_
 _symmetry_equiv_pos_site_id
 _symmetry_equiv_pos_as_xyz
  1  'x, y, z'
loop_
 _atom_site_type_symbol
 _atom_site_label
 _atom_site_symmetry_multiplicity
 _atom_site_fract_x
 _atom_site_fract_y
 _atom_site_fract_z
 _atom_site_occupancy
  Ag  Ag0  1  0.49689424  0.82896322  0.67150188  1
  Ag  Ag1  1  0.50317281  0.50745987  -0.00896453  1
  Ag  Ag2  1  -0.00482448  0.01079828  0.33466049  1
  Ag  Ag3  1  0.83270190  0.00591289  0.16716415  1
  Ag  Ag4  1  0.15586801  0.33184577  0.49851449  1
  Ag  Ag5  1  0.49986027  0.51007558  0.67210962  1
  Ag  Ag6  1  0.16771736  0.16264113  0.66561175  1
  Ag  Ag7  1  0.66099015  0.50884136  0.83577872  1
  Ag  Ag8  1  0.67401424  -0.00033198  0.32798640  1
  Ag  Ag9  1  0.32914360  -0.00340715  0.66855081  1
  Ag  Ag10  1  0.16884108  0.84187523  0.67102756  1
  Ag  Ag11  1  0.50323810  0.67148783  0.82964402  1
  Ag  Ag12  1  0.32849524  0.16740939  0.50454287  1
  Ag  Ag13  1  -0.00377196  0.32422378  0.65762672  1
  Ag  Ag14  1  0.00092755  0.32725957  0.34471275  1
  Ag  Ag15  1  0.33389777  0.83405365  0.50607135  1
  Ag  Ag16  1  0.82326427  0.50088625  -0.00031199  1
  Ag  Ag17  1  0.32578633  0.33311305  0.33226848  1
  Ag  Ag18  1  0.34077559  0.67563306  0.66414949  1
  Ag  Ag19  1  0.83758907  0.16718188  0.33377598  1
  Ag  Ag20  1  -0.00012270  0.84196031  0.16172640  1
  Ag  Ag21  1  0.66375344  0.49751391  0.16171156  1
  Ag  Ag22  1  0.83797754  0.32389292  0.17371381  1
  Ag  Ag23  1  0.83890336  0.83872342  0.67206418  1
  Ag  Ag24  1  0.16959198  -0.00379852  0.82767256  1
  Ag  Ag25  1  -0.00527802  0.83525648  0.82810326  1
  Ag  Ag26  1  0.66483499  0.82807198  0.83132367  1
  Ag  Ag27  1  0.82270568  0.67414514  0.83041975  1
  Ag  Ag28  1  0.34332430  0.49819352  0.83465222  1
  Ag  Ag29  1  0.49839157  0.66585856  0.51222154  1
  Ag  Ag30  1  -0.00926434  0.16459696  0.17660960  1
  Ag  Ag31  1  0.66475149  0.66370980  -0.00784806  1
  Ag  Ag32  1  0.16998717  0.83021013  -0.01036335  1
  Ag  Ag33  1  0.34017653  0.66189295  0.34086228  1
  Ag  Ag34  1  0.33320933  0.17248367  0.17115790  1
  Ag  Ag35  1  0.17034794  0.50330243  -0.00014529  1
  Ag  Ag36  1  0.16131994  0.33033738  0.17206486  1
  Ag  Ag37  1  0.50476804  0.00108686  0.16232638  1
  Ag  Ag38  1  0.00489538  0.00011123  0.66620325  1
  Ag  Ag39  1  0.33908430  0.49572339  0.16226853  1
  Ag  Ag40  1  0.00076925  0.17124680  0.50030138  1
  Ag  Ag41  1  0.33559376  0.16530873  0.82079923  1
  Ag  Ag42  1  -0.00494103  0.48436015  0.50394354  1
  Ag  Ag43  1  0.49681459  0.82861345  -0.01076837  1
  Ag  Ag44  1  0.66753638  0.50003257  0.50783221  1
  Ag  Ag45  1  0.83998113  0.16430752  0.66338870  1
  Ag  Ag46  1  0.83235739  -0.00641326  0.82973012  1
  Ag  Ag47  1  0.66329221  0.66610987  0.33149505  1
  Ag  Ag48  1  0.00219503  0.67555086  0.66696124  1
  Ag  Ag49  1  0.67532447  0.16854266  0.16918678  1
  Ag  Ag50  1  0.50087935  -0.01011321  0.83084413  1
  Ag  Ag51  1  0.49088975  0.16355297  0.66818467  1
  Ag  Ag52  1  0.84354437  0.33173355  0.49851451  1
  Ag  Ag53  1  0.67091186  0.33420757  0.66495512  1
  Sb  Sb54  1  0.16956957  0.49849994  0.66992099  1
  Sb  Sb55  1  0.33862819  0.66521273  -0.00589098  1
  Sb  Sb56  1  -0.00210735  0.66586153  0.34028860  1
  Sb  Sb57  1  -0.00111675  -0.00100297  -0.00295653  1
  Sb  Sb58  1  0.17124505  0.66231529  0.50305999  1
  Sb  Sb59  1  0.50119000  0.33008870  0.16715375  1
  Sb  Sb60  1  0.66327781  0.82806825  0.50680041  1
  Sb  Sb61  1  0.49982366  -0.00355319  0.50535114  1
  Sb  Sb62  1  0.17045904  0.67160603  0.83059633  1
  Sb  Sb63  1  0.83196994  0.66818595  0.16236524  1
  Sb  Sb64  1  0.33608501  0.83485475  0.82596681  1
  Sb  Sb65  1  0.49989777  0.33696939  0.50254691  1
  Sb  Sb66  1  0.66981991  0.83373674  0.16204581  1
  Sb  Sb67  1  0.33472893  0.49781266  0.50149010  1
  Sb  Sb68  1  0.33243644  0.33646053  0.00523170  1
  Sb  Sb69  1  0.16794650  0.66310649  0.16509870  1
  Sb  Sb70  1  0.82791026  0.66141991  0.50699666  1
  Sb  Sb71  1  0.66562586  -0.00491751  0.00174088  1
  Sb  Sb72  1  0.83173219  0.49456801  0.33057353  1
  Sb  Sb73  1  0.50126293  0.66903386  0.16354191  1
  Sb  Sb74  1  0.00397288  0.83761743  0.50688684  1
  Sb  Sb75  1  0.00249429  0.15943056  0.82524568  1
  Sb  Sb76  1  0.66835890  0.17073542  0.49909372  1
  Sb  Sb77  1  0.83453878  0.00595895  0.50251177  1
  Sb  Sb78  1  0.16812614  0.49594719  0.33065033  1
  Sb  Sb79  1  0.33178711  0.32989068  0.66168614  1
  Sb  Sb80  1  0.16708066  0.16583471  -0.00354639  1
  Sb  Sb81  1  0.83363118  0.33247493  0.82983689  1
  Sb  Sb82  1  0.82896715  0.49894905  0.67008226  1
  Sb  Sb83  1  0.66325510  0.66197660  0.67070675  1
  Sb  Sb84  1  0.33070818  0.83320546  0.17030228  1
  Sb  Sb85  1  -0.00143878  0.50535883  0.82780583  1
  Sb  Sb86  1  0.66320681  0.16561514  0.83417855  1
  Sb  Sb87  1  0.49979751  0.33784414  0.83014400  1
  Sb  Sb88  1  0.50076429  0.83329737  0.33501663  1
  Sb  Sb89  1  0.50273086  0.16523474  0.33630945  1
  Sb  Sb90  1  0.49865202  0.16512872  -0.00298490  1
  Sb  Sb91  1  0.33339939  -0.00116737  -0.00758852  1
  Sb  Sb92  1  0.16576303  0.83439023  0.33695700  1
  Sb  Sb93  1  -0.00011372  0.33478010  0.00132335  1
  Sb  Sb94  1  0.83290633  0.16931974  0.00051850  1
  Sb  Sb95  1  0.16647661  0.00602087  0.50757881  1
  Sb  Sb96  1  0.66809928  0.34126582  -0.00209810  1
  Sb  Sb97  1  0.33226594  0.00324136  0.33697353  1
  Sb  Sb98  1  0.16707723  0.33012269  0.83098483  1
  Sb  Sb99  1  0.67023389  0.33374119  0.33516031  1
  Sb  Sb100  1  0.83186454  0.83073387  -0.00692576  1
  Sb  Sb101  1  0.83347132  0.84027913  0.33666243  1
  Sb  Sb102  1  -0.00416591  0.66833730  -0.00641821  1
  Sb  Sb103  1  0.66706190  0.00314020  0.66538782  1
  Sb  Sb104  1  -0.00066909  0.49620009  0.16961923  1
  Sb  Sb105  1  0.50077076  0.50133139  0.33388501  1
  Sb  Sb106  1  0.16020954  0.16713413  0.33842577  1
  Sb  Sb107  1  0.16411009  0.00521637  0.16174835  1
  Te  Te108  1  0.17256733  0.17088903  0.16417878  1
  Te  Te109  1  0.16726855  0.17090016  0.50435613  1
  Te  Te110  1  0.17144246  0.16214706  0.82935871  1
  Te  Te111  1  0.16879110  0.49564349  0.16208315  1
  Te  Te112  1  0.16342178  0.49370232  0.50107965  1
  Te  Te113  1  0.16850812  0.49881626  0.83878311  1
  Te  Te114  1  0.16156047  0.83452419  0.16556054  1
  Te  Te115  1  0.17222471  0.83183121  0.50685619  1
  Te  Te116  1  0.16768502  0.83599507  0.83105886  1
  Te  Te117  1  0.49730541  0.16257691  0.16573173  1
  Te  Te118  1  0.49842531  0.16528991  0.50547618  1
  Te  Te119  1  0.49624268  0.16289260  0.83084311  1
  Te  Te120  1  0.50081338  0.50022500  0.16482750  1
  Te  Te121  1  0.50326153  0.50442252  0.50444815  1
  Te  Te122  1  0.50078536  0.50059734  0.83199146  1
  Te  Te123  1  0.50045552  0.84029760  0.16335615  1
  Te  Te124  1  0.49553310  0.82854253  0.50545887  1
  Te  Te125  1  0.49873697  0.83243980  0.83205272  1
  Te  Te126  1  0.83284236  0.16549570  0.16412172  1
  Te  Te127  1  0.83367902  0.17153372  0.50222220  1
  Te  Te128  1  0.83294020  0.16235958  0.83095702  1
  Te  Te129  1  0.83105112  0.50026069  0.16239246  1
  Te  Te130  1  0.83130315  0.49439135  0.50019152  1
  Te  Te131  1  0.83064014  0.50049054  0.83817256  1
  Te  Te132  1  0.83837816  0.83814734  0.16652030  1
  Te  Te133  1  0.83269792  0.83235864  0.50954145  1
  Te  Te134  1  0.83274640  0.83317241  0.83219793  1
  Te  Te135  1  0.16659352  -0.00641133  -0.00923223  1
  Te  Te136  1  0.15860805  -0.00082864  0.33204654  1
  Te  Te137  1  0.16750958  0.00125919  0.66877707  1
  Te  Te138  1  0.16544882  0.33782165  0.00410298  1
  Te  Te139  1  0.16448119  0.33219099  0.33282529  1
  Te  Te140  1  0.16198943  0.33028890  0.66353658  1
  Te  Te141  1  0.16687960  0.66863585  -0.00110754  1
  Te  Te142  1  0.17250458  0.66626473  0.33411022  1
  Te  Te143  1  0.16528685  0.66857753  0.66653140  1
  Te  Te144  1  0.49952940  -0.00369066  -0.00277038  1
  Te  Te145  1  0.50172879  -0.00037659  0.32703284  1
  Te  Te146  1  0.50024940  0.00113484  0.66936658  1
  Te  Te147  1  0.50034673  0.34255975  -0.00050973  1
  Te  Te148  1  0.49208612  0.33305858  0.33429775  1
  Te  Te149  1  0.50347978  0.32617394  0.66610246  1
  Te  Te150  1  0.50356503  0.66785693  -0.00276382  1
  Te  Te151  1  0.49992726  0.66749992  0.33346075  1
  Te  Te152  1  0.49967254  0.66789245  0.66902632  1
  Te  Te153  1  0.83225115  -0.00028467  -0.00089619  1
  Te  Te154  1  0.83466420  0.00494052  0.33206357  1
  Te  Te155  1  0.83266884  0.00097539  0.66836526  1
  Te  Te156  1  0.83402081  0.33950756  0.00517960  1
  Te  Te157  1  0.83545720  0.32838802  0.33371946  1
  Te  Te158  1  0.83524368  0.33155224  0.66482295  1
  Te  Te159  1  0.82847022  0.66266780  -0.00534314  1
  Te  Te160  1  0.82798663  0.66797087  0.33515013  1
  Te  Te161  1  0.83674862  0.66841766  0.67174624  1
  Te  Te162  1  0.00126944  0.16732193  0.01028337  1
  Te  Te163  1  -0.00244823  0.16786703  0.33435283  1
  Te  Te164  1  -0.00005763  0.16340203  0.66540483  1
  Te  Te165  1  0.00496628  0.50235698  -0.00055627  1
  Te  Te166  1  -0.00016085  0.49795096  0.34091758  1
  Te  Te167  1  0.00063528  0.50074248  0.66333445  1
  Te  Te168  1  0.00413105  0.83203890  -0.00150314  1
  Te  Te169  1  -0.00042327  0.83460760  0.33154538  1
  Te  Te170  1  0.00028364  0.83770923  0.66798360  1
  Te  Te171  1  0.33290990  0.16729127  0.00739471  1
  Te  Te172  1  0.33419778  0.16791580  0.33274195  1
  Te  Te173  1  0.33225525  0.16867180  0.66457153  1
  Te  Te174  1  0.33462392  0.50211698  0.00051531  1
  Te  Te175  1  0.33414278  0.50001494  0.33034291  1
  Te  Te176  1  0.33758069  0.49848530  0.66966696  1
  Te  Te177  1  0.33240022  0.83132745  0.00302531  1
  Te  Te178  1  0.33276492  0.83088739  0.34129800  1
  Te  Te179  1  0.33421364  0.83454414  0.66563344  1
  Te  Te180  1  0.66495213  0.16856532  0.00821956  1
  Te  Te181  1  0.67057534  0.16537785  0.33016567  1
  Te  Te182  1  0.67012569  0.17143016  0.66694927  1
  Te  Te183  1  0.66399452  0.50319255  -0.00113954  1
  Te  Te184  1  0.66638885  0.50192226  0.32834662  1
  Te  Te185  1  0.66325306  0.49646173  0.66777933  1
  Te  Te186  1  0.66255385  0.82709563  -0.00546193  1
  Te  Te187  1  0.66741620  0.83242965  0.33377725  1
  Te  Te188  1  0.66485387  0.83508338  0.67115322  1
  Te  Te189  1  -0.00135234  0.00235134  0.16609244  1
  Te  Te190  1  0.00012574  0.00561559  0.50008600  1
  Te  Te191  1  -0.00379754  -0.00413258  0.82939103  1
  Te  Te192  1  -0.00083788  0.33185203  0.16812190  1
  Te  Te193  1  -0.00006599  0.32844450  0.50116573  1
  Te  Te194  1  0.00024242  0.33234507  0.82739733  1
  Te  Te195  1  -0.00016410  0.67048187  0.17017279  1
  Te  Te196  1  -0.00104980  0.66691174  0.50514697  1
  Te  Te197  1  -0.00141528  0.67281311  0.82660797  1
  Te  Te198  1  0.33429961  0.00208535  0.16804592  1
  Te  Te199  1  0.33325376  0.00255284  0.50496935  1
  Te  Te200  1  0.33582859  0.00313234  0.82820331  1
  Te  Te201  1  0.33473231  0.33541160  0.17117861  1
  Te  Te202  1  0.33271950  0.32984801  0.49412699  1
  Te  Te203  1  0.33212936  0.33117232  0.83387262  1
  Te  Te204  1  0.33376709  0.66329376  0.17307244  1
  Te  Te205  1  0.33704942  0.66472112  0.50276433  1
  Te  Te206  1  0.33776055  0.65991496  0.82762271  1
  Te  Te207  1  0.66870617  -0.00034595  0.16806710  1
  Te  Te208  1  0.66657876  -0.00137260  0.48892662  1
  Te  Te209  1  0.66637733  -0.00234321  0.83413913  1
  Te  Te210  1  0.67015798  0.33441010  0.16771070  1
  Te  Te211  1  0.66769793  0.33886272  0.50210210  1
  Te  Te212  1  0.66798465  0.33615006  0.82674936  1
  Te  Te213  1  0.66714467  0.66367814  0.16953365  1
  Te  Te214  1  0.66200734  0.66135919  0.49575131  1
  Te  Te215  1  0.66514940  0.66683995  0.83220373  1
