# generated using pymatgen
data_AgSbTe2
_symmetry_space_group_name_H-M   'P 1'
_cell_length_a   18.34484007
_cell_length_b   18.34768135
_cell_length_c   18.34297901
_cell_angle_alpha   89.99747413
_cell_angle_beta   90.00029301
_cell_angle_gamma   90.00058366
_symmetry_Int_Tables_number   1
_chemical_formula_structural   AgSbTe2
_chemical_formula_sum   'Ag54 Sb54 Te108'
_cell_volume   6173.97672298
_cell_formula_units_Z   54
loop_
 _symmetry_equiv_pos_site_id
 _symmetry_equiv_pos_as_xyz
  1  'x, y, z'
loop_
 _atom_site_type_symbol
 _atom_site_label
 _atom_site_symmetry_multiplicity
 _atom_site_fract_x
 _atom_site_fract_y
 _atom_site_fract_z
 _atom_site_occupancy
  Ag  Ag0  1  0.34855363  0.65781713  0.67044238  1
  Ag  Ag1  1  0.66924049  -0.00299178  0.67056763  1
  Ag  Ag2  1  -0.00469423  0.66748215  0.00034368  1
  Ag  Ag3  1  0.66492986  0.00311131  0.00094975  1
  Ag  Ag4  1  0.82363165  0.65944718  0.51063126  1
  Ag  Ag5  1  0.66643911  0.83149009  0.83112058  1
  Ag  Ag6  1  0.82952518  0.33481261  0.50379409  1
  Ag  Ag7  1  0.15597184  0.33062780  0.16760317  1
  Ag  Ag8  1  -0.01693130  0.16725354  0.17447671  1
  Ag  Ag9  1  0.50748274  0.65916283  0.50907608  1
  Ag  Ag10  1  0.66910319  0.84174099  0.16831266  1
  Ag  Ag11  1  0.17817181  0.49866043  0.66566496  1
  Ag  Ag12  1  0.82402060  0.33647618  0.82324039  1
  Ag  Ag13  1  0.50943271  0.16785113  0.32883713  1
  Ag  Ag14  1  0.50594682  0.00259872  0.83370240  1
  Ag  Ag15  1  0.66662515  0.16243830  0.17663176  1
  Ag  Ag16  1  0.66664250  0.32378862  0.33334169  1
  Ag  Ag17  1  0.82340715  0.66518614  0.82831227  1
  Ag  Ag18  1  0.50128957  0.50125675  -0.01208211  1
  Ag  Ag19  1  0.66474365  0.16541336  0.83313617  1
  Ag  Ag20  1  0.66724448  0.17118988  0.48953731  1
  Ag  Ag21  1  0.66651854  0.66313216  0.66504528  1
  Ag  Ag22  1  -0.01053663  0.83563701  0.16434768  1
  Ag  Ag23  1  0.66466576  0.50384027  0.82524022  1
  Ag  Ag24  1  0.82805352  0.32724718  0.16917010  1
  Ag  Ag25  1  0.82139625  0.16884193  0.33009788  1
  Ag  Ag26  1  0.66693583  0.01083770  0.33188306  1
  Ag  Ag27  1  0.66592551  0.66644453  0.34519448  1
  Ag  Ag28  1  0.82992454  0.82607756  0.67001186  1
  Ag  Ag29  1  -0.00487827  0.48915544  0.16698007  1
  Ag  Ag30  1  0.34760072  0.49571116  0.50605078  1
  Ag  Ag31  1  0.34453572  0.16697095  0.83124206  1
  Ag  Ag32  1  0.83074197  0.66347939  0.16517772  1
  Ag  Ag33  1  0.16363039  0.00429756  0.50094773  1
  Ag  Ag34  1  0.50675591  0.66228249  0.82814172  1
  Ag  Ag35  1  0.50793825  0.33695746  0.83314307  1
  Ag  Ag36  1  -0.00776743  0.00481098  0.66192680  1
  Ag  Ag37  1  0.50634205  0.01018149  0.16683603  1
  Ag  Ag38  1  0.50704642  0.32941102  0.16921060  1
  Ag  Ag39  1  0.33386002  0.34048798  0.66547690  1
  Ag  Ag40  1  0.34961925  0.82888498  0.83200892  1
  Ag  Ag41  1  0.34319153  0.17229542  0.50168222  1
  Ag  Ag42  1  0.50691828  0.49745234  0.33838377  1
  Ag  Ag43  1  -0.01304785  0.83224305  0.83286924  1
  Ag  Ag44  1  0.33920581  0.66541651  -0.00976227  1
  Ag  Ag45  1  0.82833101  0.16971521  0.01206556  1
  Ag  Ag46  1  -0.00636289  0.33267547  0.66649560  1
  Ag  Ag47  1  0.66469862  0.50523655  0.50514808  1
  Ag  Ag48  1  0.82630836  0.50300174  0.66628596  1
  Ag  Ag49  1  -0.01209820  0.16507516  0.49466357  1
  Ag  Ag50  1  0.35055112  0.16968275  0.16753070  1
  Ag  Ag51  1  0.50605778  0.50265210  0.66484416  1
  Ag  Ag52  1  0.50666082  0.83889142  0.33097159  1
  Ag  Ag53  1  -0.00800156  0.00445412  0.33451234  1
  Sb  Sb54  1  0.16197886  0.82966141  0.66773938  1
  Sb  Sb55  1  0.66761573  0.66868101  -0.00511357  1
  Sb  Sb56  1  -0.00900062  0.50430240  0.83473719  1
  Sb  Sb57  1  0.16964562  0.50013687  -0.00499899  1
  Sb  Sb58  1  -0.00453552  0.83917989  0.50061079  1
  Sb  Sb59  1  0.16701806  0.00650602  0.17176584  1
  Sb  Sb60  1  0.16402798  0.32932513  0.49766388  1
  Sb  Sb61  1  0.16643115  0.16690401  0.33371893  1
  Sb  Sb62  1  0.33748559  0.00035408  0.66684909  1
  Sb  Sb63  1  0.33821403  0.33575634  -0.00319379  1
  Sb  Sb64  1  0.15851724  0.66098217  0.16620948  1
  Sb  Sb65  1  -0.00773340  0.16323055  0.83256808  1
  Sb  Sb66  1  0.82374570  -0.00086574  0.83039775  1
  Sb  Sb67  1  0.16677773  0.17010157  0.66526408  1
  Sb  Sb68  1  0.82631861  0.49577390  0.33597468  1
  Sb  Sb69  1  0.83217532  0.00411728  0.50105057  1
  Sb  Sb70  1  0.34277207  0.33147078  0.33792274  1
  Sb  Sb71  1  0.17033922  0.49800672  0.33761315  1
  Sb  Sb72  1  -0.00777294  0.66468494  0.67001927  1
  Sb  Sb73  1  0.66703161  0.33713073  0.66593601  1
  Sb  Sb74  1  0.50652937  0.66394933  0.16490597  1
  Sb  Sb75  1  -0.00914377  0.32751832  0.33444458  1
  Sb  Sb76  1  -0.01186856  0.67103674  0.32870194  1
  Sb  Sb77  1  0.16749531  0.83562321  0.33231310  1
  Sb  Sb78  1  -0.00842100  -0.00234458  0.00112011  1
  Sb  Sb79  1  0.16278315  0.16772665  0.00224297  1
  Sb  Sb80  1  0.16773802  0.66718987  0.50241297  1
  Sb  Sb81  1  0.66697484  0.32847676  0.00057337  1
  Sb  Sb82  1  0.16512512  0.83289944  -0.00048483  1
  Sb  Sb83  1  0.34020008  0.00271359  0.33436994  1
  Sb  Sb84  1  0.50759699  0.33856363  0.50070811  1
  Sb  Sb85  1  0.33742816  0.83154786  0.50603248  1
  Sb  Sb86  1  0.34226842  -0.00129022  -0.00201954  1
  Sb  Sb87  1  0.50404657  0.82958842  -0.00096732  1
  Sb  Sb88  1  0.50753752  0.82782204  0.66718492  1
  Sb  Sb89  1  0.34431311  0.50042024  0.82541080  1
  Sb  Sb90  1  0.16933972  0.66580811  0.83150575  1
  Sb  Sb91  1  -0.00370461  0.33742298  -0.00067000  1
  Sb  Sb92  1  0.50205911  0.00060004  0.50062794  1
  Sb  Sb93  1  0.34686603  0.66572565  0.33686272  1
  Sb  Sb94  1  0.50256144  0.17289913  0.66706010  1
  Sb  Sb95  1  0.50668190  0.17023828  0.00137062  1
  Sb  Sb96  1  0.82453539  0.00239256  0.16751028  1
  Sb  Sb97  1  -0.00532618  0.49547838  0.49892835  1
  Sb  Sb98  1  0.82957440  0.16967241  0.66381167  1
  Sb  Sb99  1  0.16762070  0.33305865  0.83263765  1
  Sb  Sb100  1  0.66847892  0.49708635  0.16759403  1
  Sb  Sb101  1  0.83025081  0.83332995  -0.00205855  1
  Sb  Sb102  1  0.33995140  0.83592964  0.16162855  1
  Sb  Sb103  1  0.17071159  0.00039624  0.82785511  1
  Sb  Sb104  1  0.82736966  0.49819863  -0.00176107  1
  Sb  Sb105  1  0.66662014  0.83107601  0.50077190  1
  Sb  Sb106  1  0.33513182  0.49508682  0.17003474  1
  Sb  Sb107  1  0.82574776  0.83711016  0.33470657  1
  Te  Te108  1  0.16735100  0.17233468  0.16666354  1
  Te  Te109  1  0.16963594  0.16363803  0.49959059  1
  Te  Te110  1  0.17505633  0.16681148  0.83438822  1
  Te  Te111  1  0.16316668  0.49338071  0.16725159  1
  Te  Te112  1  0.16562714  0.49814388  0.50506598  1
  Te  Te113  1  0.16302037  0.49800444  0.82613035  1
  Te  Te114  1  0.16425924  0.83418730  0.16680974  1
  Te  Te115  1  0.16757314  0.84087747  0.49968753  1
  Te  Te116  1  0.16216867  0.83388514  0.83318303  1
  Te  Te117  1  0.50657064  0.16785003  0.16403577  1
  Te  Te118  1  0.50234256  0.16740169  0.49828037  1
  Te  Te119  1  0.50202371  0.16790573  0.83386128  1
  Te  Te120  1  0.50021686  0.49527141  0.17453150  1
  Te  Te121  1  0.50420662  0.50008955  0.50088150  1
  Te  Te122  1  0.50381056  0.50049422  0.82977841  1
  Te  Te123  1  0.50406833  0.83389848  0.16930298  1
  Te  Te124  1  0.49899358  0.82673318  0.49226558  1
  Te  Te125  1  0.50568762  0.83128363  0.83275778  1
  Te  Te126  1  0.82721940  0.16609733  0.16961897  1
  Te  Te127  1  0.83015514  0.17007208  0.49821624  1
  Te  Te128  1  0.83054883  0.17304594  0.83152222  1
  Te  Te129  1  0.83593599  0.50077432  0.16636909  1
  Te  Te130  1  0.82991534  0.49870377  0.50179061  1
  Te  Te131  1  0.82767021  0.49858308  0.83193759  1
  Te  Te132  1  0.83094231  0.83001126  0.16688863  1
  Te  Te133  1  0.83358439  0.82289236  0.50509190  1
  Te  Te134  1  0.82880208  0.83131022  0.83250872  1
  Te  Te135  1  0.16722536  0.00050812  0.00017596  1
  Te  Te136  1  0.16089791  -0.00017823  0.33925913  1
  Te  Te137  1  0.16192677  -0.00141000  0.66226314  1
  Te  Te138  1  0.16718502  0.33498789  0.00896957  1
  Te  Te139  1  0.16709254  0.33444972  0.32601439  1
  Te  Te140  1  0.16771359  0.33786541  0.66530140  1
  Te  Te141  1  0.16546482  0.66547240  -0.00031691  1
  Te  Te142  1  0.16763236  0.66733240  0.33468710  1
  Te  Te143  1  0.16870626  0.65996244  0.66501250  1
  Te  Te144  1  0.50579993  -0.00157264  -0.00039271  1
  Te  Te145  1  0.50501025  0.00289903  0.33319750  1
  Te  Te146  1  0.50505154  -0.00199620  0.67047036  1
  Te  Te147  1  0.50073491  0.34091350  -0.00433483  1
  Te  Te148  1  0.50646173  0.33108145  0.33355166  1
  Te  Te149  1  0.49571073  0.33828767  0.67180382  1
  Te  Te150  1  0.49771896  0.66284374  -0.00346677  1
  Te  Te151  1  0.50643284  0.66262326  0.33210088  1
  Te  Te152  1  0.50482523  0.66636149  0.66834047  1
  Te  Te153  1  0.82656916  0.00841537  -0.00220887  1
  Te  Te154  1  0.83169452  0.00466851  0.33444205  1
  Te  Te155  1  0.83309485  -0.00450981  0.66603688  1
  Te  Te156  1  0.83374025  0.33030886  0.00435191  1
  Te  Te157  1  0.82733752  0.33002539  0.33288154  1
  Te  Te158  1  0.83356269  0.33524572  0.66563032  1
  Te  Te159  1  0.83608240  0.66580216  0.00036500  1
  Te  Te160  1  0.82616229  0.66693428  0.32826266  1
  Te  Te161  1  0.83040207  0.66479460  0.66968818  1
  Te  Te162  1  -0.00579819  0.16634400  0.00379611  1
  Te  Te163  1  0.00038294  0.16357536  0.33385086  1
  Te  Te164  1  -0.00047532  0.16597984  0.66496164  1
  Te  Te165  1  0.00146984  0.50514623  0.00538103  1
  Te  Te166  1  0.00177626  0.50073558  0.32703011  1
  Te  Te167  1  -0.00898808  0.49591813  0.66671172  1
  Te  Te168  1  -0.00164253  0.83021797  0.00161652  1
  Te  Te169  1  -0.00091986  0.83979583  0.32816833  1
  Te  Te170  1  -0.00533047  0.83486807  0.66949207  1
  Te  Te171  1  0.33200750  0.16694561  0.00117091  1
  Te  Te172  1  0.33741811  0.16649352  0.33255870  1
  Te  Te173  1  0.33461845  0.16808452  0.66549867  1
  Te  Te174  1  0.33725146  0.50548430  0.00071960  1
  Te  Te175  1  0.33879677  0.49997743  0.34250220  1
  Te  Te176  1  0.33698797  0.50042514  0.66512854  1
  Te  Te177  1  0.33314073  0.82754396  -0.00739892  1
  Te  Te178  1  0.34086410  0.83390421  0.33186394  1
  Te  Te179  1  0.33097302  0.83169373  0.67297605  1
  Te  Te180  1  0.66968781  0.16295436  -0.00767120  1
  Te  Te181  1  0.66506949  0.16730299  0.33344582  1
  Te  Te182  1  0.66612905  0.16021349  0.67388714  1
  Te  Te183  1  0.66045516  0.50085804  -0.00424066  1
  Te  Te184  1  0.66474042  0.50615765  0.33466666  1
  Te  Te185  1  0.66619488  0.50042825  0.66568326  1
  Te  Te186  1  0.66711407  0.84046946  0.00309391  1
  Te  Te187  1  0.66422536  0.82831922  0.33155086  1
  Te  Te188  1  0.66975753  0.83414667  0.66758547  1
  Te  Te189  1  0.00165665  0.00192471  0.16798985  1
  Te  Te190  1  -0.00145990  0.00436451  0.50072850  1
  Te  Te191  1  0.00129659  -0.00544752  0.83163953  1
  Te  Te192  1  -0.00701262  0.32920944  0.16696849  1
  Te  Te193  1  -0.00421452  0.32704282  0.50295656  1
  Te  Te194  1  -0.00093360  0.33276929  0.82891374  1
  Te  Te195  1  -0.00497700  0.67331017  0.16397475  1
  Te  Te196  1  -0.00281716  0.66629454  0.49795735  1
  Te  Te197  1  -0.00104484  0.67152222  0.83674101  1
  Te  Te198  1  0.33919193  0.00581082  0.16613631  1
  Te  Te199  1  0.33072188  0.00520108  0.50112944  1
  Te  Te200  1  0.34055062  0.00127092  0.83289295  1
  Te  Te201  1  0.34500879  0.32947614  0.16689907  1
  Te  Te202  1  0.33101663  0.33221400  0.50400103  1
  Te  Te203  1  0.33441797  0.32897133  0.82930273  1
  Te  Te204  1  0.33055126  0.66711788  0.16419402  1
  Te  Te205  1  0.33632580  0.66309251  0.50547718  1
  Te  Te206  1  0.33474001  0.66714003  0.83086031  1
  Te  Te207  1  0.66359419  0.00010891  0.17000104  1
  Te  Te208  1  0.66609268  0.00467746  0.49784404  1
  Te  Te209  1  0.66360134  -0.00198081  0.82973896  1
  Te  Te210  1  0.66733030  0.33214069  0.16802216  1
  Te  Te211  1  0.67031921  0.33139808  0.49891796  1
  Te  Te212  1  0.66708910  0.33315569  0.83340465  1
  Te  Te213  1  0.67070684  0.66729562  0.16141854  1
  Te  Te214  1  0.66706380  0.66709129  0.50361028  1
  Te  Te215  1  0.66686520  0.66836088  0.83419023  1
