# generated using pymatgen
data_AgSbTe2
_symmetry_space_group_name_H-M   'P 1'
_cell_length_a   18.33059436
_cell_length_b   18.33591925
_cell_length_c   18.33317835
_cell_angle_alpha   90.00101717
_cell_angle_beta   89.99888917
_cell_angle_gamma   90.00360227
_symmetry_Int_Tables_number   1
_chemical_formula_structural   AgSbTe2
_chemical_formula_sum   'Ag54 Sb54 Te108'
_cell_volume   6161.93335982
_cell_formula_units_Z   54
loop_
 _symmetry_equiv_pos_site_id
 _symmetry_equiv_pos_as_xyz
  1  'x, y, z'
loop_
 _atom_site_type_symbol
 _atom_site_label
 _atom_site_symmetry_multiplicity
 _atom_site_fract_x
 _atom_site_fract_y
 _atom_site_fract_z
 _atom_site_occupancy
  Ag  Ag0  1  0.16210183  0.16926832  0.66819117  1
  Ag  Ag1  1  0.83670395  0.49479029  0.33281683  1
  Ag  Ag2  1  0.17193891  0.83862084  -0.00211055  1
  Ag  Ag3  1  0.33804706  0.00080103  0.34365785  1
  Ag  Ag4  1  0.83024158  0.84452749  0.33191185  1
  Ag  Ag5  1  0.49707745  0.00543847  0.50789178  1
  Ag  Ag6  1  0.16235859  0.65860128  0.83729531  1
  Ag  Ag7  1  0.16831294  0.32691190  0.50821230  1
  Ag  Ag8  1  0.16205726  0.66042514  0.15674272  1
  Ag  Ag9  1  0.33628930  0.00128898  0.00027094  1
  Ag  Ag10  1  0.66553352  0.00527366  0.66974925  1
  Ag  Ag11  1  0.51218803  0.32850993  0.83103863  1
  Ag  Ag12  1  0.66723157  -0.00161562  0.34040565  1
  Ag  Ag13  1  0.00475904  0.16664712  0.51050429  1
  Ag  Ag14  1  -0.00234565  0.16838318  0.16659777  1
  Ag  Ag15  1  0.50470193  0.00622910  0.82648078  1
  Ag  Ag16  1  0.34005688  0.84518137  0.49923510  1
  Ag  Ag17  1  0.50547744  0.49695799  -0.01122938  1
  Ag  Ag18  1  0.34370242  0.49886100  0.83358671  1
  Ag  Ag19  1  0.49861463  0.32322524  0.51273909  1
  Ag  Ag20  1  0.66606810  0.48615324  0.83316102  1
  Ag  Ag21  1  0.16078333  0.48703942  0.67210521  1
  Ag  Ag22  1  -0.00892385  0.16639447  0.82938224  1
  Ag  Ag23  1  0.66314378  0.83903484  0.83273951  1
  Ag  Ag24  1  0.17658256  0.00900717  0.50180846  1
  Ag  Ag25  1  0.82438503  0.33227204  0.83439849  1
  Ag  Ag26  1  0.66774425  0.33314930  -0.01140497  1
  Ag  Ag27  1  0.83668174  0.32882492  0.16314632  1
  Ag  Ag28  1  0.15838471  0.33258876  0.16636121  1
  Ag  Ag29  1  0.66902522  0.17039408  0.83086843  1
  Ag  Ag30  1  -0.00665037  0.00684947  0.66713019  1
  Ag  Ag31  1  0.82828357  0.49673048  -0.00921908  1
  Ag  Ag32  1  0.66802237  0.83822327  0.16186934  1
  Ag  Ag33  1  -0.00151780  0.33308670  0.33135983  1
  Ag  Ag34  1  0.50138716  0.49807484  0.33294458  1
  Ag  Ag35  1  0.16325154  0.49586309  0.33561014  1
  Ag  Ag36  1  0.32715142  0.16314184  0.50035398  1
  Ag  Ag37  1  0.16469241  0.33256321  0.83066251  1
  Ag  Ag38  1  0.00271207  0.66694549  0.00001422  1
  Ag  Ag39  1  0.83213014  0.16827458  0.67280167  1
  Ag  Ag40  1  0.66773457  0.32440544  0.67628705  1
  Ag  Ag41  1  0.66112848  0.84067459  0.50451762  1
  Ag  Ag42  1  -0.00055184  0.65684802  0.32881424  1
  Ag  Ag43  1  0.83145715  0.00804575  0.16401942  1
  Ag  Ag44  1  0.50712431  0.66332252  0.83538952  1
  Ag  Ag45  1  0.50080858  0.84024376  -0.01015842  1
  Ag  Ag46  1  0.83454229  0.48926260  0.67592105  1
  Ag  Ag47  1  0.50438893  0.84572636  0.67330756  1
  Ag  Ag48  1  0.83496910  0.16639326  0.33594994  1
  Ag  Ag49  1  0.83162133  0.65544486  0.83442851  1
  Ag  Ag50  1  0.16831388  0.16748443  -0.00940615  1
  Ag  Ag51  1  0.51132893  0.16332137  0.67186910  1
  Ag  Ag52  1  0.82331602  0.00999231  0.83269341  1
  Ag  Ag53  1  0.49785621  0.16369079  -0.01065067  1
  Sb  Sb54  1  -0.00430408  0.83712854  0.16620094  1
  Sb  Sb55  1  0.33021864  0.66888188  0.33376470  1
  Sb  Sb56  1  0.66946798  0.50213249  0.16259830  1
  Sb  Sb57  1  0.50290010  0.49557048  0.67100241  1
  Sb  Sb58  1  0.00197104  0.00107572  -0.00456611  1
  Sb  Sb59  1  -0.00082656  0.66946002  0.67030790  1
  Sb  Sb60  1  -0.00400943  0.00597854  0.33823413  1
  Sb  Sb61  1  0.50566368  0.83241096  0.33511728  1
  Sb  Sb62  1  0.66651738  0.16356286  0.50827944  1
  Sb  Sb63  1  -0.00331179  0.33420469  0.00154115  1
  Sb  Sb64  1  0.33733790  0.32868585  -0.00295888  1
  Sb  Sb65  1  0.82857517  0.00269159  0.50261840  1
  Sb  Sb66  1  0.34125367  0.83265090  0.83077479  1
  Sb  Sb67  1  0.83466989  0.66708840  0.50306935  1
  Sb  Sb68  1  0.66311464  0.00415492  -0.00759297  1
  Sb  Sb69  1  0.32942057  0.67029740  -0.00319458  1
  Sb  Sb70  1  0.33209163  0.49889679  0.16199229  1
  Sb  Sb71  1  0.16241416  0.83087012  0.33083068  1
  Sb  Sb72  1  -0.00497102  0.49287937  0.83314543  1
  Sb  Sb73  1  0.16948239  0.00367940  0.82987069  1
  Sb  Sb74  1  0.50542431  0.16831591  0.33725191  1
  Sb  Sb75  1  0.67277255  0.66943594  0.33221286  1
  Sb  Sb76  1  0.17208159  0.83829728  0.67107082  1
  Sb  Sb77  1  0.83380457  0.33031502  0.50298773  1
  Sb  Sb78  1  0.16606552  0.49630133  -0.00397164  1
  Sb  Sb79  1  0.33632546  0.83602014  0.16847338  1
  Sb  Sb80  1  -0.00016040  0.49466980  0.16730575  1
  Sb  Sb81  1  0.83871470  0.66436790  0.16391150  1
  Sb  Sb82  1  -0.00199021  0.32602292  0.66608118  1
  Sb  Sb83  1  0.32791992  0.16565365  0.17004897  1
  Sb  Sb84  1  -0.00070896  0.84125476  0.49909225  1
  Sb  Sb85  1  0.82959915  0.83095467  0.00050543  1
  Sb  Sb86  1  0.83387641  0.17081078  -0.00505174  1
  Sb  Sb87  1  0.82652697  0.83922554  0.66668018  1
  Sb  Sb88  1  0.33326559  0.66588179  0.66941527  1
  Sb  Sb89  1  0.66751778  0.66714573  0.67200201  1
  Sb  Sb90  1  0.66938810  0.66325877  -0.00406630  1
  Sb  Sb91  1  0.00136708  0.49197546  0.49812518  1
  Sb  Sb92  1  0.50459253  0.33248931  0.16158400  1
  Sb  Sb93  1  0.33930769  0.00266802  0.66586171  1
  Sb  Sb94  1  0.15896153  0.17170092  0.33800233  1
  Sb  Sb95  1  0.33309815  0.49666070  0.50416772  1
  Sb  Sb96  1  0.32848263  0.32937705  0.33544932  1
  Sb  Sb97  1  0.50701785  0.00031826  0.16546128  1
  Sb  Sb98  1  0.49732517  0.66673350  0.15964820  1
  Sb  Sb99  1  0.50016728  0.66911086  0.50577831  1
  Sb  Sb100  1  0.67226304  0.32951774  0.33514467  1
  Sb  Sb101  1  0.33761726  0.16998780  0.82842735  1
  Sb  Sb102  1  0.66642578  0.50019624  0.50473448  1
  Sb  Sb103  1  -0.00424838  0.83748111  0.83376160  1
  Sb  Sb104  1  0.16153006  0.00365719  0.16952452  1
  Sb  Sb105  1  0.33596316  0.33105279  0.66890745  1
  Sb  Sb106  1  0.16510378  0.66457719  0.50237466  1
  Sb  Sb107  1  0.67291782  0.16348687  0.16080230  1
  Te  Te108  1  0.16108147  0.17006956  0.16611963  1
  Te  Te109  1  0.16559375  0.16823734  0.49845514  1
  Te  Te110  1  0.17203867  0.16727190  0.83153696  1
  Te  Te111  1  0.16681327  0.49816189  0.16826785  1
  Te  Te112  1  0.16818411  0.49493469  0.50024569  1
  Te  Te113  1  0.16118695  0.49936258  0.83232069  1
  Te  Te114  1  0.16687886  0.83316865  0.16127755  1
  Te  Te115  1  0.16902211  0.83548807  0.50085029  1
  Te  Te116  1  0.16839541  0.83226870  0.83772437  1
  Te  Te117  1  0.49940898  0.16801204  0.15981223  1
  Te  Te118  1  0.50059471  0.16607283  0.50121221  1
  Te  Te119  1  0.49751741  0.16876323  0.83164243  1
  Te  Te120  1  0.50032099  0.50039330  0.16943814  1
  Te  Te121  1  0.49851705  0.49844745  0.49858698  1
  Te  Te122  1  0.50337117  0.49731896  0.83183440  1
  Te  Te123  1  0.50577454  0.83164905  0.16130923  1
  Te  Te124  1  0.50125291  0.83468597  0.50022071  1
  Te  Te125  1  0.50065967  0.83412958  0.83308338  1
  Te  Te126  1  0.83657286  0.16770273  0.16249108  1
  Te  Te127  1  0.83860178  0.16660131  0.50015264  1
  Te  Te128  1  0.83195816  0.16905986  0.83372321  1
  Te  Te129  1  0.83275724  0.49540081  0.17224145  1
  Te  Te130  1  0.83315623  0.49929789  0.49493393  1
  Te  Te131  1  0.83222764  0.49643359  0.83315741  1
  Te  Te132  1  0.82833576  0.83318483  0.16885024  1
  Te  Te133  1  0.82900642  0.83332074  0.49481707  1
  Te  Te134  1  0.82776456  0.83517835  0.83348407  1
  Te  Te135  1  0.16967199  0.00142193  0.00066089  1
  Te  Te136  1  0.16918266  -0.00085133  0.33811557  1
  Te  Te137  1  0.16531817  0.00345844  0.66269940  1
  Te  Te138  1  0.16623501  0.32998719  0.00050299  1
  Te  Te139  1  0.16321650  0.33614389  0.33128916  1
  Te  Te140  1  0.16456217  0.33085250  0.66538467  1
  Te  Te141  1  0.16393195  0.66359498  -0.00216495  1
  Te  Te142  1  0.16215613  0.66246820  0.33394236  1
  Te  Te143  1  0.16490848  0.66697566  0.67387537  1
  Te  Te144  1  0.49820997  0.00090648  0.00003625  1
  Te  Te145  1  0.50198714  -0.00021255  0.33473298  1
  Te  Te146  1  0.50224879  0.00346177  0.66687862  1
  Te  Te147  1  0.50349644  0.33448644  -0.00283830  1
  Te  Te148  1  0.50054010  0.33685223  0.33050792  1
  Te  Te149  1  0.50222899  0.33040978  0.66984809  1
  Te  Te150  1  0.49910245  0.66302903  -0.00508400  1
  Te  Te151  1  0.49948281  0.66011293  0.33171812  1
  Te  Te152  1  0.50004347  0.66703664  0.67486138  1
  Te  Te153  1  0.83334969  -0.00089259  -0.00217181  1
  Te  Te154  1  0.83112914  0.00262359  0.33437957  1
  Te  Te155  1  0.82990083  0.00379212  0.67010124  1
  Te  Te156  1  0.83102179  0.33626937  -0.00220794  1
  Te  Te157  1  0.83634160  0.33097244  0.33532370  1
  Te  Te158  1  0.83178616  0.33058213  0.66892811  1
  Te  Te159  1  0.83846230  0.66271456  -0.00395158  1
  Te  Te160  1  0.83904885  0.65867892  0.33290590  1
  Te  Te161  1  0.83510112  0.66113819  0.67269005  1
  Te  Te162  1  0.00595730  0.16682595  -0.00403542  1
  Te  Te163  1  -0.00582650  0.16947256  0.32845326  1
  Te  Te164  1  -0.00014371  0.16478892  0.66897523  1
  Te  Te165  1  -0.00587226  0.50553740  0.00053467  1
  Te  Te166  1  0.00191210  0.49717147  0.33296651  1
  Te  Te167  1  -0.00087807  0.50153160  0.66515457  1
  Te  Te168  1  0.00613841  0.82938817  0.00008275  1
  Te  Te169  1  -0.00687132  0.83160058  0.33327866  1
  Te  Te170  1  -0.00085700  0.84248590  0.66543166  1
  Te  Te171  1  0.33225497  0.16282724  0.00189764  1
  Te  Te172  1  0.33672716  0.16053981  0.33768704  1
  Te  Te173  1  0.32380549  0.16664780  0.65992417  1
  Te  Te174  1  0.33919464  0.49989145  -0.00508617  1
  Te  Te175  1  0.33243852  0.50026677  0.33405871  1
  Te  Te176  1  0.32473538  0.49951210  0.67234560  1
  Te  Te177  1  0.33488950  0.83784360  0.00045242  1
  Te  Te178  1  0.33365317  0.83880169  0.33703022  1
  Te  Te179  1  0.34058314  0.83310206  0.66026216  1
  Te  Te180  1  0.66198194  0.17096343  -0.00590809  1
  Te  Te181  1  0.67340351  0.16110832  0.33181350  1
  Te  Te182  1  0.66868789  0.16623200  0.66890432  1
  Te  Te183  1  0.66695259  0.49726207  -0.00330241  1
  Te  Te184  1  0.66646056  0.50045842  0.33476523  1
  Te  Te185  1  0.67185072  0.49763899  0.67079732  1
  Te  Te186  1  0.66238107  0.83364598  -0.00254639  1
  Te  Te187  1  0.67023082  0.83570298  0.33441386  1
  Te  Te188  1  0.66302932  0.83535493  0.66805072  1
  Te  Te189  1  -0.00736334  0.00604012  0.16651844  1
  Te  Te190  1  0.00374407  0.00617194  0.50460441  1
  Te  Te191  1  -0.00086742  0.00540592  0.82870693  1
  Te  Te192  1  -0.00252150  0.32903827  0.16752943  1
  Te  Te193  1  0.00460707  0.32643031  0.49392761  1
  Te  Te194  1  0.00615030  0.32632318  0.83430905  1
  Te  Te195  1  0.00412800  0.66974552  0.16685108  1
  Te  Te196  1  0.00015482  0.66813262  0.49392975  1
  Te  Te197  1  -0.00150374  0.66992639  0.83542948  1
  Te  Te198  1  0.33286810  0.00006036  0.16638540  1
  Te  Te199  1  0.33634689  0.00237347  0.50220305  1
  Te  Te200  1  0.33968277  -0.00021189  0.83925972  1
  Te  Te201  1  0.32318423  0.33317793  0.16655369  1
  Te  Te202  1  0.33532636  0.32910963  0.50059771  1
  Te  Te203  1  0.32317300  0.33972156  0.83446628  1
  Te  Te204  1  0.32204001  0.66732634  0.16747490  1
  Te  Te205  1  0.33357304  0.67368366  0.49996872  1
  Te  Te206  1  0.33059718  0.66059852  0.83385359  1
  Te  Te207  1  0.67327966  -0.00279280  0.17120548  1
  Te  Te208  1  0.66253019  -0.00087189  0.50127554  1
  Te  Te209  1  0.66464156  0.00142279  0.83232458  1
  Te  Te210  1  0.67396580  0.33329563  0.16560924  1
  Te  Te211  1  0.65882580  0.33388386  0.50301193  1
  Te  Te212  1  0.66776514  0.33105276  0.83236495  1
  Te  Te213  1  0.66696572  0.67536447  0.16546070  1
  Te  Te214  1  0.66612123  0.67578360  0.50076996  1
  Te  Te215  1  0.66769299  0.67355890  0.83445040  1
