# generated using pymatgen
data_AgSbTe2
_symmetry_space_group_name_H-M   'P 1'
_cell_length_a   18.32539518
_cell_length_b   18.32412051
_cell_length_c   18.31962721
_cell_angle_alpha   89.99967790
_cell_angle_beta   90.00028270
_cell_angle_gamma   89.99855505
_symmetry_Int_Tables_number   1
_chemical_formula_structural   AgSbTe2
_chemical_formula_sum   'Ag54 Sb54 Te108'
_cell_volume   6151.67126784
_cell_formula_units_Z   54
loop_
 _symmetry_equiv_pos_site_id
 _symmetry_equiv_pos_as_xyz
  1  'x, y, z'
loop_
 _atom_site_type_symbol
 _atom_site_label
 _atom_site_symmetry_multiplicity
 _atom_site_fract_x
 _atom_site_fract_y
 _atom_site_fract_z
 _atom_site_occupancy
  Ag  Ag0  1  0.33198974  0.16273189  0.49948946  1
  Ag  Ag1  1  0.33686088  0.66357018  0.33276246  1
  Ag  Ag2  1  0.32878380  -0.00903850  -0.00928452  1
  Ag  Ag3  1  0.16567855  0.33992327  0.16969019  1
  Ag  Ag4  1  0.32850805  0.67192754  0.00095561  1
  Ag  Ag5  1  0.16366643  0.83271019  0.33455581  1
  Ag  Ag6  1  0.00798903  0.67700415  -0.00494569  1
  Ag  Ag7  1  0.00256710  0.83349339  0.14730180  1
  Ag  Ag8  1  0.50187589  0.67323948  0.83352005  1
  Ag  Ag9  1  0.66977992  0.82898414  0.83368509  1
  Ag  Ag10  1  0.00331129  0.67922652  0.67073145  1
  Ag  Ag11  1  0.49602036  0.50211562  0.33599616  1
  Ag  Ag12  1  0.65617585  0.66351155  0.34291433  1
  Ag  Ag13  1  0.83267469  0.33193418  0.16261493  1
  Ag  Ag14  1  0.84561642  0.83427965  -0.00711006  1
  Ag  Ag15  1  0.66946871  0.34048767  0.00313197  1
  Ag  Ag16  1  0.66771611  0.82793378  0.50226966  1
  Ag  Ag17  1  0.84424355  0.83324807  0.67480591  1
  Ag  Ag18  1  0.15787016  0.82853663  -0.00014785  1
  Ag  Ag19  1  0.16559850  -0.00236343  0.49954826  1
  Ag  Ag20  1  0.15799806  0.83280974  0.66808919  1
  Ag  Ag21  1  0.33251664  0.33756143  0.33247378  1
  Ag  Ag22  1  0.00713430  -0.00926772  0.66470318  1
  Ag  Ag23  1  0.49343694  -0.00397605  0.50332116  1
  Ag  Ag24  1  0.49686406  0.82803311  0.33593741  1
  Ag  Ag25  1  0.33250724  0.49848066  0.83276473  1
  Ag  Ag26  1  0.83448707  -0.00676088  0.83473680  1
  Ag  Ag27  1  0.82676801  0.67204516  0.49864345  1
  Ag  Ag28  1  0.49814080  -0.00603943  0.82940379  1
  Ag  Ag29  1  0.00471408  -0.00368935  0.34384724  1
  Ag  Ag30  1  0.66465508  0.66776752  -0.00263574  1
  Ag  Ag31  1  0.65798067  0.34108364  0.32804069  1
  Ag  Ag32  1  0.66160556  0.50869956  0.83306271  1
  Ag  Ag33  1  0.16504917  0.33765630  0.83976666  1
  Ag  Ag34  1  -0.00277216  0.83451170  0.83144206  1
  Ag  Ag35  1  0.00440218  -0.00994226  -0.00495181  1
  Ag  Ag36  1  0.16623555  0.66561216  0.16459156  1
  Ag  Ag37  1  0.49509150  0.16164713  0.66091871  1
  Ag  Ag38  1  0.00100028  0.83507566  0.51456200  1
  Ag  Ag39  1  0.17268874  0.49780503  0.33268513  1
  Ag  Ag40  1  0.16891640  0.50895657  -0.00043808  1
  Ag  Ag41  1  0.49125536  0.17125865  0.33883944  1
  Ag  Ag42  1  0.50420293  0.67405083  0.49190289  1
  Ag  Ag43  1  0.83543271  0.32933021  0.83980103  1
  Ag  Ag44  1  0.00726519  0.15205105  0.49719635  1
  Ag  Ag45  1  0.33386871  0.16507398  0.82994866  1
  Ag  Ag46  1  0.17001982  0.17017485  0.33569240  1
  Ag  Ag47  1  0.49893957  0.83065930  -0.00252296  1
  Ag  Ag48  1  0.83466967  0.16251313  -0.00367847  1
  Ag  Ag49  1  0.16718381  0.50607002  0.66996094  1
  Ag  Ag50  1  0.33107480  0.00110374  0.66938183  1
  Ag  Ag51  1  0.01141249  0.32853162  0.33194061  1
  Ag  Ag52  1  0.66361711  0.50993802  0.49643050  1
  Ag  Ag53  1  0.50216518  0.33285107  0.17219899  1
  Sb  Sb54  1  0.32833313  0.67186216  0.66736492  1
  Sb  Sb55  1  0.16519489  -0.00388806  0.17043362  1
  Sb  Sb56  1  0.33125391  0.32866898  0.66462817  1
  Sb  Sb57  1  -0.00235543  0.33371541  0.00376398  1
  Sb  Sb58  1  0.16600040  0.32908411  0.49496520  1
  Sb  Sb59  1  0.83587107  0.16851240  0.33075558  1
  Sb  Sb60  1  0.66693550  0.17107906  0.16647629  1
  Sb  Sb61  1  -0.00056403  0.50536001  0.49893975  1
  Sb  Sb62  1  0.33341321  0.83399672  0.83579145  1
  Sb  Sb63  1  0.49866016  0.83605239  0.66631943  1
  Sb  Sb64  1  0.66395634  0.16527417  0.49804716  1
  Sb  Sb65  1  0.32742208  0.83210965  0.16561061  1
  Sb  Sb66  1  0.00584238  0.67122346  0.33299811  1
  Sb  Sb67  1  0.00138203  0.50490479  0.83397041  1
  Sb  Sb68  1  0.67069010  0.82986865  0.16510642  1
  Sb  Sb69  1  0.49632810  0.50532716  0.00184942  1
  Sb  Sb70  1  0.66280951  0.16550363  0.83481373  1
  Sb  Sb71  1  0.82954755  0.67197178  0.83166491  1
  Sb  Sb72  1  0.83177764  0.49993346  0.33437631  1
  Sb  Sb73  1  0.83827424  -0.00752783  0.50595404  1
  Sb  Sb74  1  0.00297242  0.33138666  0.66443435  1
  Sb  Sb75  1  0.83769212  0.83284668  0.33381312  1
  Sb  Sb76  1  0.66714567  0.33562772  0.66833661  1
  Sb  Sb77  1  0.00163899  0.16389501  0.17130679  1
  Sb  Sb78  1  0.33267376  0.83814604  0.50005396  1
  Sb  Sb79  1  0.00425624  0.50278145  0.16682829  1
  Sb  Sb80  1  0.32981536  -0.00073196  0.33643660  1
  Sb  Sb81  1  0.17122646  0.66471560  0.84005244  1
  Sb  Sb82  1  0.49565114  0.49946978  0.66427713  1
  Sb  Sb83  1  0.49759379  0.00035654  0.16780179  1
  Sb  Sb84  1  0.66741122  -0.00363285  0.33758941  1
  Sb  Sb85  1  0.83732097  0.00216237  0.15921598  1
  Sb  Sb86  1  0.83789355  0.66488220  0.16771562  1
  Sb  Sb87  1  0.17044896  0.16260104  0.66218292  1
  Sb  Sb88  1  0.83198338  0.15945262  0.67158878  1
  Sb  Sb89  1  0.66502947  0.50011720  0.16733149  1
  Sb  Sb90  1  0.83304894  0.33616708  0.49862973  1
  Sb  Sb91  1  0.49600459  0.66527604  0.16882302  1
  Sb  Sb92  1  0.33189394  0.16768140  0.16914467  1
  Sb  Sb93  1  0.16407850  0.16423979  0.00280750  1
  Sb  Sb94  1  0.33587228  0.49780676  0.49998521  1
  Sb  Sb95  1  0.83448149  0.50335591  -0.00264654  1
  Sb  Sb96  1  0.66454431  -0.00331714  0.66689909  1
  Sb  Sb97  1  0.50203277  0.16330653  0.00054551  1
  Sb  Sb98  1  0.66903804  0.66858828  0.66521683  1
  Sb  Sb99  1  0.16807109  0.67279557  0.49559673  1
  Sb  Sb100  1  0.33466786  0.33497100  0.00277373  1
  Sb  Sb101  1  0.49947102  0.33356779  0.83810519  1
  Sb  Sb102  1  0.83758635  0.50634804  0.66839456  1
  Sb  Sb103  1  0.33202714  0.50024685  0.16581605  1
  Sb  Sb104  1  0.00421057  0.16103929  0.82970392  1
  Sb  Sb105  1  0.16875084  -0.00049205  0.83001883  1
  Sb  Sb106  1  0.50068613  0.33139983  0.49240575  1
  Sb  Sb107  1  0.66732876  -0.00695648  -0.00351688  1
  Te  Te108  1  0.16644027  0.17401400  0.17389100  1
  Te  Te109  1  0.16682225  0.16296148  0.49619460  1
  Te  Te110  1  0.17208483  0.17293939  0.83351665  1
  Te  Te111  1  0.16704537  0.50097390  0.16875344  1
  Te  Te112  1  0.16731614  0.50087747  0.49675223  1
  Te  Te113  1  0.16751899  0.49900686  0.83552630  1
  Te  Te114  1  0.16194780  0.83069885  0.16656280  1
  Te  Te115  1  0.16535914  0.83694348  0.49751954  1
  Te  Te116  1  0.16325420  0.83249038  0.83619606  1
  Te  Te117  1  0.49951976  0.17063472  0.17336775  1
  Te  Te118  1  0.49911722  0.16323392  0.49857471  1
  Te  Te119  1  0.49495032  0.16289801  0.83302264  1
  Te  Te120  1  0.49892741  0.49401101  0.17461814  1
  Te  Te121  1  0.50321886  0.50425394  0.49704571  1
  Te  Te122  1  0.49977035  0.50171735  0.83283360  1
  Te  Te123  1  0.50137901  0.83395312  0.16982871  1
  Te  Te124  1  0.50012857  0.83409695  0.49986671  1
  Te  Te125  1  0.50089277  0.83353808  0.83250343  1
  Te  Te126  1  0.83437171  0.17292227  0.15896951  1
  Te  Te127  1  0.83524433  0.16566155  0.50174017  1
  Te  Te128  1  0.83331158  0.16632138  0.83671420  1
  Te  Te129  1  0.83565660  0.49165394  0.16588045  1
  Te  Te130  1  0.82746933  0.50727877  0.50248591  1
  Te  Te131  1  0.82858902  0.49347399  0.83214553  1
  Te  Te132  1  0.83966930  0.83346869  0.16108650  1
  Te  Te133  1  0.83159021  0.83079282  0.50015370  1
  Te  Te134  1  0.83079636  0.83304684  0.83394512  1
  Te  Te135  1  0.16648868  -0.00296114  0.00069344  1
  Te  Te136  1  0.16511128  -0.00329040  0.33592470  1
  Te  Te137  1  0.16754073  -0.00197160  0.66346711  1
  Te  Te138  1  0.16610886  0.33301588  0.00205785  1
  Te  Te139  1  0.16907910  0.33408703  0.33317970  1
  Te  Te140  1  0.16620772  0.33860060  0.67215610  1
  Te  Te141  1  0.16855689  0.66826394  0.00121985  1
  Te  Te142  1  0.17038263  0.66877428  0.33036561  1
  Te  Te143  1  0.16367440  0.66903244  0.66531203  1
  Te  Te144  1  0.49871141  -0.00374771  -0.00218406  1
  Te  Te145  1  0.49882130  -0.00352181  0.33605753  1
  Te  Te146  1  0.49775492  0.00100725  0.66722591  1
  Te  Te147  1  0.50476852  0.33338496  0.00733259  1
  Te  Te148  1  0.49887003  0.33354203  0.33215002  1
  Te  Te149  1  0.49940781  0.32724024  0.66730611  1
  Te  Te150  1  0.49986954  0.66867001  0.00161884  1
  Te  Te151  1  0.49789068  0.66761423  0.33110618  1
  Te  Te152  1  0.49675701  0.66632393  0.67059181  1
  Te  Te153  1  0.83397372  -0.00265046  -0.00574076  1
  Te  Te154  1  0.84077687  0.00203563  0.33223414  1
  Te  Te155  1  0.83746577  -0.00486228  0.67358901  1
  Te  Te156  1  0.83167982  0.33656151  -0.00027307  1
  Te  Te157  1  0.83011403  0.33278542  0.32984015  1
  Te  Te158  1  0.83476018  0.33208284  0.67348890  1
  Te  Te159  1  0.83062110  0.67112863  0.00153746  1
  Te  Te160  1  0.82650736  0.66601115  0.33616199  1
  Te  Te161  1  0.84029053  0.67160845  0.66235169  1
  Te  Te162  1  -0.00456110  0.16297130  -0.00072734  1
  Te  Te163  1  0.00217285  0.16545568  0.33730897  1
  Te  Te164  1  0.00055767  0.16268505  0.65929736  1
  Te  Te165  1  0.00736513  0.50494427  -0.00040833  1
  Te  Te166  1  0.00451293  0.49742504  0.33403966  1
  Te  Te167  1  0.00773412  0.50161018  0.66601393  1
  Te  Te168  1  0.00151292  0.83317713  -0.00860413  1
  Te  Te169  1  0.00280091  0.83486993  0.34004112  1
  Te  Te170  1  0.00040123  0.83502015  0.67138941  1
  Te  Te171  1  0.33377161  0.16513151  -0.00488837  1
  Te  Te172  1  0.33188562  0.16483002  0.33542699  1
  Te  Te173  1  0.33551559  0.16244486  0.66607092  1
  Te  Te174  1  0.32903149  0.50275508  -0.00618647  1
  Te  Te175  1  0.33360047  0.50096045  0.33527506  1
  Te  Te176  1  0.32720362  0.49991041  0.67083411  1
  Te  Te177  1  0.33844305  0.83143631  0.00002364  1
  Te  Te178  1  0.33320505  0.83067840  0.33263893  1
  Te  Te179  1  0.32433843  0.83984452  0.66764252  1
  Te  Te180  1  0.67201318  0.17269387  -0.00065507  1
  Te  Te181  1  0.66278120  0.17020640  0.33433234  1
  Te  Te182  1  0.65841423  0.16715941  0.66596820  1
  Te  Te183  1  0.66576352  0.50231117  -0.00432535  1
  Te  Te184  1  0.66513730  0.50228608  0.33466552  1
  Te  Te185  1  0.66633919  0.50009670  0.66927659  1
  Te  Te186  1  0.65856288  0.82886594  -0.00175517  1
  Te  Te187  1  0.66549534  0.82890591  0.33507142  1
  Te  Te188  1  0.66939467  0.83308697  0.66786755  1
  Te  Te189  1  0.00021946  -0.00573306  0.16143252  1
  Te  Te190  1  0.00007237  -0.00418787  0.50223031  1
  Te  Te191  1  0.00106424  -0.00195520  0.83330994  1
  Te  Te192  1  0.00244637  0.33282630  0.17140700  1
  Te  Te193  1  -0.00229494  0.33341263  0.49396473  1
  Te  Te194  1  0.00092198  0.33256473  0.83409633  1
  Te  Te195  1  0.00417416  0.67217202  0.16339730  1
  Te  Te196  1  -0.00188510  0.67220027  0.50181289  1
  Te  Te197  1  -0.00193091  0.67050652  0.83397631  1
  Te  Te198  1  0.33247420  0.00087207  0.15140885  1
  Te  Te199  1  0.33355627  0.00411108  0.50183319  1
  Te  Te200  1  0.33481176  0.00132900  0.83207636  1
  Te  Te201  1  0.33062563  0.33377903  0.17167369  1
  Te  Te202  1  0.33335810  0.32578839  0.49412557  1
  Te  Te203  1  0.33044214  0.33441226  0.83368434  1
  Te  Te204  1  0.32717150  0.66656363  0.16631281  1
  Te  Te205  1  0.34042846  0.66647397  0.49671852  1
  Te  Te206  1  0.33978938  0.66352279  0.83473804  1
  Te  Te207  1  0.66801077  0.00053354  0.16736454  1
  Te  Te208  1  0.66074869  -0.00672243  0.50059227  1
  Te  Te209  1  0.66436417  -0.00478798  0.83288348  1
  Te  Te210  1  0.66704829  0.33543000  0.16675979  1
  Te  Te211  1  0.66848640  0.33805545  0.49573000  1
  Te  Te212  1  0.66857135  0.33395172  0.83635028  1
  Te  Te213  1  0.66858834  0.66546905  0.16127471  1
  Te  Te214  1  0.66404576  0.66903948  0.50157865  1
  Te  Te215  1  0.66447204  0.66771687  0.83312817  1
