# generated using pymatgen
data_AgSbTe2
_symmetry_space_group_name_H-M   'P 1'
_cell_length_a   18.32420751
_cell_length_b   18.33693741
_cell_length_c   18.33256140
_cell_angle_alpha   90.00136313
_cell_angle_beta   90.00227413
_cell_angle_gamma   89.99830263
_symmetry_Int_Tables_number   1
_chemical_formula_structural   AgSbTe2
_chemical_formula_sum   'Ag54 Sb54 Te108'
_cell_volume   6159.92112699
_cell_formula_units_Z   54
loop_
 _symmetry_equiv_pos_site_id
 _symmetry_equiv_pos_as_xyz
  1  'x, y, z'
loop_
 _atom_site_type_symbol
 _atom_site_label
 _atom_site_symmetry_multiplicity
 _atom_site_fract_x
 _atom_site_fract_y
 _atom_site_fract_z
 _atom_site_occupancy
  Ag  Ag0  1  0.50270272  0.49559301  0.00406115  1
  Ag  Ag1  1  0.66430886  0.00198383  0.33558812  1
  Ag  Ag2  1  0.83627110  0.67064047  0.82554050  1
  Ag  Ag3  1  0.50617144  0.66283778  0.49373956  1
  Ag  Ag4  1  0.00435146  -0.00019220  0.67197087  1
  Ag  Ag5  1  0.16413820  0.16679814  -0.00113751  1
  Ag  Ag6  1  0.51006108  0.33760888  0.50370713  1
  Ag  Ag7  1  0.15537452  0.00287368  0.82796657  1
  Ag  Ag8  1  0.33999220  -0.00306639  0.33984874  1
  Ag  Ag9  1  -0.00182980  0.66614400  0.34169885  1
  Ag  Ag10  1  0.00056873  0.50594461  0.50702085  1
  Ag  Ag11  1  0.15854873  0.16397541  0.67195884  1
  Ag  Ag12  1  0.32453001  0.00070520  0.66262125  1
  Ag  Ag13  1  0.33781263  0.50208444  0.49937404  1
  Ag  Ag14  1  0.50135769  0.17294973  -0.00384437  1
  Ag  Ag15  1  0.50314723  0.50827572  0.33202373  1
  Ag  Ag16  1  0.65869154  0.66516755  0.33639211  1
  Ag  Ag17  1  0.49636696  0.66414138  0.18074985  1
  Ag  Ag18  1  0.00073534  0.50201569  0.16834424  1
  Ag  Ag19  1  0.66284790  0.33171699  -0.00763798  1
  Ag  Ag20  1  0.67368041  0.83471624  0.82440814  1
  Ag  Ag21  1  0.83038686  0.33244706  0.50003809  1
  Ag  Ag22  1  0.15932138  0.49983418  0.66657215  1
  Ag  Ag23  1  0.66918972  0.48982347  0.83461345  1
  Ag  Ag24  1  0.16172262  0.33373993  0.16584262  1
  Ag  Ag25  1  0.49941081  0.16686425  0.66974093  1
  Ag  Ag26  1  -0.00372726  0.15747805  0.82574890  1
  Ag  Ag27  1  0.15622333  0.83847882  0.66754143  1
  Ag  Ag28  1  0.66504521  0.17584821  0.16622911  1
  Ag  Ag29  1  0.50319762  0.82134713  0.34130648  1
  Ag  Ag30  1  0.33472897  0.16646881  0.16774771  1
  Ag  Ag31  1  0.16693124  0.66277223  0.16733935  1
  Ag  Ag32  1  0.83525871  -0.00015372  0.50325302  1
  Ag  Ag33  1  0.00148952  0.82752087  0.17029664  1
  Ag  Ag34  1  -0.00523880  0.50094619  0.82243459  1
  Ag  Ag35  1  -0.00697657  0.82802339  0.50705888  1
  Ag  Ag36  1  0.00061819  0.00382591  -0.01411235  1
  Ag  Ag37  1  0.34641138  0.66860515  0.33180790  1
  Ag  Ag38  1  0.66915916  0.17076596  0.83252227  1
  Ag  Ag39  1  0.33551095  0.66454911  0.01061224  1
  Ag  Ag40  1  0.84104815  -0.00116218  0.82628151  1
  Ag  Ag41  1  0.49994755  0.83547907  0.66020491  1
  Ag  Ag42  1  0.50862892  0.33137192  0.82692176  1
  Ag  Ag43  1  -0.00525861  0.84559585  0.82295827  1
  Ag  Ag44  1  0.00198495  0.16738814  0.16562865  1
  Ag  Ag45  1  0.66261013  0.49445203  0.16891618  1
  Ag  Ag46  1  0.83703799  0.66785750  0.50112549  1
  Ag  Ag47  1  -0.00133856  0.33083085  0.66515473  1
  Ag  Ag48  1  0.83285839  0.16547577  0.33592883  1
  Ag  Ag49  1  0.66536910  0.33176764  0.66656929  1
  Ag  Ag50  1  -0.00294650  0.16574892  0.51012016  1
  Ag  Ag51  1  0.00104064  0.66930623  0.66108471  1
  Ag  Ag52  1  0.66921033  0.82924142  0.50323815  1
  Ag  Ag53  1  0.66628172  0.33438430  0.33556218  1
  Sb  Sb54  1  0.66855761  0.50128243  0.49989244  1
  Sb  Sb55  1  0.33197441  0.83401436  0.83036325  1
  Sb  Sb56  1  0.33651381  0.83049541  0.49990473  1
  Sb  Sb57  1  0.50713634  0.66375333  0.83007757  1
  Sb  Sb58  1  0.82950795  0.49916871  0.33512012  1
  Sb  Sb59  1  0.83414817  0.16657537  0.00107861  1
  Sb  Sb60  1  0.67148018  0.00672890  0.00047873  1
  Sb  Sb61  1  0.16165501  0.16527442  0.33186720  1
  Sb  Sb62  1  0.83012685  0.33129339  0.82660074  1
  Sb  Sb63  1  0.50121886  0.83188472  -0.00162813  1
  Sb  Sb64  1  0.16018819  -0.00041722  0.50645828  1
  Sb  Sb65  1  -0.00490936  0.32972030  -0.00350447  1
  Sb  Sb66  1  0.83658878  0.16667062  0.66271333  1
  Sb  Sb67  1  0.32925014  0.83327164  0.16910971  1
  Sb  Sb68  1  0.50554351  0.16823034  0.33429034  1
  Sb  Sb69  1  0.82908962  0.49907178  -0.00130552  1
  Sb  Sb70  1  0.83430688  0.66526587  0.17068413  1
  Sb  Sb71  1  0.66911144  0.83132135  0.17035567  1
  Sb  Sb72  1  0.16532583  0.32895693  0.83428948  1
  Sb  Sb73  1  0.50024047  -0.00138288  0.16798058  1
  Sb  Sb74  1  0.33045517  0.16833064  0.49768165  1
  Sb  Sb75  1  0.83491990  0.00199626  0.16947739  1
  Sb  Sb76  1  0.83381424  0.33220782  0.17314591  1
  Sb  Sb77  1  0.50339440  0.00411236  0.83079923  1
  Sb  Sb78  1  0.16809806  0.50201773  0.33593342  1
  Sb  Sb79  1  0.16278258  0.33442287  0.49861970  1
  Sb  Sb80  1  0.83942779  0.49955692  0.66517912  1
  Sb  Sb81  1  0.33492100  0.50068061  0.82893430  1
  Sb  Sb82  1  0.66271315  0.66071597  0.00305401  1
  Sb  Sb83  1  0.67085636  0.66474279  0.66333031  1
  Sb  Sb84  1  0.33521827  0.49940371  0.17070518  1
  Sb  Sb85  1  0.33848775  0.33459760  0.00177211  1
  Sb  Sb86  1  0.49753119  0.49906231  0.66370871  1
  Sb  Sb87  1  0.16391905  0.00096720  0.16353807  1
  Sb  Sb88  1  0.33957743  0.33506848  0.33311180  1
  Sb  Sb89  1  -0.00200728  -0.00225027  0.33786597  1
  Sb  Sb90  1  0.32930201  0.00071099  -0.00163391  1
  Sb  Sb91  1  0.50549969  -0.00079199  0.50068132  1
  Sb  Sb92  1  0.16303878  0.66608416  0.49744246  1
  Sb  Sb93  1  0.16395107  0.83659475  -0.00416700  1
  Sb  Sb94  1  0.16935178  0.49667187  -0.00230038  1
  Sb  Sb95  1  0.33275657  0.32889314  0.66505543  1
  Sb  Sb96  1  0.82928187  0.83525906  0.33771298  1
  Sb  Sb97  1  0.67025795  0.00184309  0.66406958  1
  Sb  Sb98  1  0.00263289  0.66830139  -0.00033349  1
  Sb  Sb99  1  0.83448779  0.83404978  -0.00375339  1
  Sb  Sb100  1  0.67180907  0.16732835  0.50098484  1
  Sb  Sb101  1  0.32898357  0.67003219  0.66221914  1
  Sb  Sb102  1  0.33314918  0.16579921  0.83468427  1
  Sb  Sb103  1  -0.00515475  0.33609109  0.33839865  1
  Sb  Sb104  1  0.50226793  0.33647119  0.16772791  1
  Sb  Sb105  1  0.15929177  0.66988483  0.83457379  1
  Sb  Sb106  1  0.16730776  0.83211358  0.33819033  1
  Sb  Sb107  1  0.83629957  0.83366082  0.66548143  1
  Te  Te108  1  0.16254558  0.16670093  0.16510355  1
  Te  Te109  1  0.16089400  0.16791773  0.50438430  1
  Te  Te110  1  0.16503868  0.16567524  0.83369078  1
  Te  Te111  1  0.16612479  0.49942506  0.16565278  1
  Te  Te112  1  0.16070355  0.49950674  0.50408020  1
  Te  Te113  1  0.16303983  0.49841542  0.82975220  1
  Te  Te114  1  0.16136173  0.82882577  0.16694018  1
  Te  Te115  1  0.15925604  0.83289892  0.50663136  1
  Te  Te116  1  0.16176900  0.83725564  0.82816188  1
  Te  Te117  1  0.50363878  0.16699756  0.16490387  1
  Te  Te118  1  0.49908336  0.17119280  0.50518968  1
  Te  Te119  1  0.50146187  0.16963883  0.83290906  1
  Te  Te120  1  0.50127069  0.50254470  0.16681134  1
  Te  Te121  1  0.50181556  0.50030512  0.49883365  1
  Te  Te122  1  0.50302867  0.49591863  0.83460206  1
  Te  Te123  1  0.50001696  0.82657876  0.16778238  1
  Te  Te124  1  0.50285956  0.83284860  0.49998292  1
  Te  Te125  1  0.50524937  0.83391481  0.83013306  1
  Te  Te126  1  0.83063588  0.16665707  0.17166974  1
  Te  Te127  1  0.83670813  0.16629333  0.49700240  1
  Te  Te128  1  0.83416912  0.16442971  0.83374950  1
  Te  Te129  1  0.83425560  0.50014163  0.16642279  1
  Te  Te130  1  0.83975797  0.50308254  0.49899187  1
  Te  Te131  1  0.83173353  0.50218219  0.83350665  1
  Te  Te132  1  0.84210217  0.83338881  0.16633308  1
  Te  Te133  1  0.83195872  0.83074429  0.50006395  1
  Te  Te134  1  0.83402311  0.83346804  0.83221263  1
  Te  Te135  1  0.16297063  0.00549792  -0.00569909  1
  Te  Te136  1  0.17664448  -0.00134014  0.33408204  1
  Te  Te137  1  0.16513803  0.00137166  0.66785818  1
  Te  Te138  1  0.16657091  0.32833765  0.00325793  1
  Te  Te139  1  0.16722600  0.33336735  0.32632710  1
  Te  Te140  1  0.16361164  0.33003934  0.66702980  1
  Te  Te141  1  0.17175921  0.66539879  0.00491219  1
  Te  Te142  1  0.15815328  0.66709745  0.32695756  1
  Te  Te143  1  0.16210272  0.66629719  0.66742301  1
  Te  Te144  1  0.49909714  0.00709108  -0.00020392  1
  Te  Te145  1  0.50113280  -0.00047265  0.33370981  1
  Te  Te146  1  0.49923610  0.00085140  0.66612788  1
  Te  Te147  1  0.50419776  0.33306833  0.00164001  1
  Te  Te148  1  0.50572667  0.33593650  0.33786880  1
  Te  Te149  1  0.49983581  0.33244451  0.66528148  1
  Te  Te150  1  0.49601595  0.66338488  -0.00175252  1
  Te  Te151  1  0.50225045  0.66496361  0.33687092  1
  Te  Te152  1  0.49850701  0.67074546  0.66170255  1
  Te  Te153  1  0.83978129  0.00017894  -0.00631458  1
  Te  Te154  1  0.82959373  0.00298470  0.33826686  1
  Te  Te155  1  0.83825298  0.00087303  0.66481185  1
  Te  Te156  1  0.82237672  0.33261819  0.00069201  1
  Te  Te157  1  0.82739283  0.32963387  0.34028173  1
  Te  Te158  1  0.83210614  0.33297252  0.65951857  1
  Te  Te159  1  0.83248775  0.66661599  -0.00769315  1
  Te  Te160  1  0.83889799  0.66698138  0.33829896  1
  Te  Te161  1  0.83853344  0.66623909  0.66406405  1
  Te  Te162  1  0.00137170  0.16617498  0.00259936  1
  Te  Te163  1  -0.00405011  0.16705208  0.32948164  1
  Te  Te164  1  -0.00017826  0.16804871  0.66805005  1
  Te  Te165  1  0.00110399  0.49809907  0.00684406  1
  Te  Te166  1  0.00023820  0.50248163  0.32868981  1
  Te  Te167  1  0.00162906  0.49900913  0.66593781  1
  Te  Te168  1  0.00110391  0.83910358  0.00202608  1
  Te  Te169  1  -0.00018250  0.83061795  0.33303538  1
  Te  Te170  1  -0.00014258  0.83242281  0.66643162  1
  Te  Te171  1  0.33373127  0.16599368  0.00535497  1
  Te  Te172  1  0.33291052  0.16440328  0.32966127  1
  Te  Te173  1  0.33516415  0.16184043  0.66580427  1
  Te  Te174  1  0.33831864  0.50338818  -0.00066436  1
  Te  Te175  1  0.33759524  0.50361918  0.33829226  1
  Te  Te176  1  0.32563261  0.50071066  0.66074486  1
  Te  Te177  1  0.33304232  0.82735863  -0.00028310  1
  Te  Te178  1  0.33818859  0.83314234  0.33371291  1
  Te  Te179  1  0.33643136  0.83837159  0.66619063  1
  Te  Te180  1  0.66511909  0.16998261  0.00039866  1
  Te  Te181  1  0.66924163  0.16616604  0.33376360  1
  Te  Te182  1  0.66171841  0.16860692  0.66939287  1
  Te  Te183  1  0.66273564  0.49575270  0.00007041  1
  Te  Te184  1  0.66399723  0.50097345  0.33335198  1
  Te  Te185  1  0.66436586  0.49611625  0.67300270  1
  Te  Te186  1  0.66584627  0.83547380  -0.00367227  1
  Te  Te187  1  0.66297074  0.83153669  0.33335952  1
  Te  Te188  1  0.66133009  0.83308294  0.66522960  1
  Te  Te189  1  0.00005074  0.00415531  0.16997550  1
  Te  Te190  1  -0.00484565  0.00175129  0.50161839  1
  Te  Te191  1  -0.00126179  0.00094724  0.83004464  1
  Te  Te192  1  0.00077468  0.33291782  0.16598746  1
  Te  Te193  1  -0.00213775  0.33173331  0.50346548  1
  Te  Te194  1  -0.00216884  0.33925958  0.82876013  1
  Te  Te195  1  -0.00009916  0.66534886  0.16482225  1
  Te  Te196  1  0.00094115  0.66697510  0.50141095  1
  Te  Te197  1  -0.00331599  0.65986757  0.83348552  1
  Te  Te198  1  0.33247198  0.00447644  0.16794460  1
  Te  Te199  1  0.33421801  -0.00009981  0.50007420  1
  Te  Te200  1  0.32913841  -0.00084518  0.82846508  1
  Te  Te201  1  0.32740908  0.32782532  0.16723935  1
  Te  Te202  1  0.33712111  0.33867668  0.49855787  1
  Te  Te203  1  0.34429495  0.33436621  0.83360409  1
  Te  Te204  1  0.33370405  0.66634737  0.17121858  1
  Te  Te205  1  0.33492159  0.66334053  0.49465838  1
  Te  Te206  1  0.33260699  0.66683624  0.83510220  1
  Te  Te207  1  0.66757194  0.00236343  0.17217872  1
  Te  Te208  1  0.67260984  -0.00443746  0.49639099  1
  Te  Te209  1  0.67152516  0.00123857  0.83280349  1
  Te  Te210  1  0.66740267  0.33486027  0.17330703  1
  Te  Te211  1  0.66854870  0.33457964  0.50254252  1
  Te  Te212  1  0.66784798  0.33116768  0.82901256  1
  Te  Te213  1  0.66572737  0.66302934  0.17126262  1
  Te  Te214  1  0.66803271  0.66784574  0.49791864  1
  Te  Te215  1  0.67293093  0.67016976  0.83312380  1
