# generated using pymatgen
data_AgSbTe2
_symmetry_space_group_name_H-M   'P 1'
_cell_length_a   18.31227648
_cell_length_b   18.31319976
_cell_length_c   18.30429393
_cell_angle_alpha   89.99882947
_cell_angle_beta   89.99967022
_cell_angle_gamma   90.00157096
_symmetry_Int_Tables_number   1
_chemical_formula_structural   AgSbTe2
_chemical_formula_sum   'Ag54 Sb54 Te108'
_cell_volume   6138.46169529
_cell_formula_units_Z   54
loop_
 _symmetry_equiv_pos_site_id
 _symmetry_equiv_pos_as_xyz
  1  'x, y, z'
loop_
 _atom_site_type_symbol
 _atom_site_label
 _atom_site_symmetry_multiplicity
 _atom_site_fract_x
 _atom_site_fract_y
 _atom_site_fract_z
 _atom_site_occupancy
  Ag  Ag0  1  0.83500542  -0.00187847  0.83192677  1
  Ag  Ag1  1  0.82821803  0.83934877  0.33525691  1
  Ag  Ag2  1  0.33302461  0.17040475  0.16664454  1
  Ag  Ag3  1  0.16793569  0.66581753  0.17087677  1
  Ag  Ag4  1  0.16588441  0.00070980  0.83198026  1
  Ag  Ag5  1  0.82397479  0.66285248  0.49892791  1
  Ag  Ag6  1  0.34251375  0.33411992  0.67100225  1
  Ag  Ag7  1  0.33376041  0.49271432  0.83590791  1
  Ag  Ag8  1  0.82371963  0.33868254  0.50017779  1
  Ag  Ag9  1  0.66471759  0.16433967  0.49404371  1
  Ag  Ag10  1  0.82625749  0.49859841  -0.00404446  1
  Ag  Ag11  1  0.66594278  0.83643698  0.83274673  1
  Ag  Ag12  1  0.66315966  0.83761660  0.17370551  1
  Ag  Ag13  1  0.33340281  0.17166804  0.83639950  1
  Ag  Ag14  1  0.33913064  -0.00066069  0.66139658  1
  Ag  Ag15  1  0.50044765  0.49832280  0.00201552  1
  Ag  Ag16  1  0.16231708  0.15823839  0.33153107  1
  Ag  Ag17  1  0.66481626  0.33794060  -0.00471551  1
  Ag  Ag18  1  0.33005664  0.66899242  0.33645116  1
  Ag  Ag19  1  0.50390743  0.83267704  -0.00080552  1
  Ag  Ag20  1  -0.00148296  0.83656712  0.83557457  1
  Ag  Ag21  1  0.82964191  0.50084192  0.66614513  1
  Ag  Ag22  1  0.66321585  0.83642477  0.49612307  1
  Ag  Ag23  1  0.50421623  0.83311268  0.34138665  1
  Ag  Ag24  1  0.65994338  0.33122112  0.66304353  1
  Ag  Ag25  1  0.50544759  0.67175128  0.49803430  1
  Ag  Ag26  1  0.33424410  0.66623259  0.66078422  1
  Ag  Ag27  1  0.16749011  0.83238321  0.00332754  1
  Ag  Ag28  1  0.00512366  0.16637503  0.17018149  1
  Ag  Ag29  1  0.66533572  -0.00339269  0.33958582  1
  Ag  Ag30  1  0.50741859  0.33388205  0.50376460  1
  Ag  Ag31  1  0.17150538  0.50169530  0.00413040  1
  Ag  Ag32  1  0.00381071  0.00036669  0.33156715  1
  Ag  Ag33  1  0.50070985  0.17047221  0.00087488  1
  Ag  Ag34  1  0.00262101  0.00159997  0.00170726  1
  Ag  Ag35  1  0.00263249  0.66867918  0.65969005  1
  Ag  Ag36  1  0.00186665  0.32626510  0.33013692  1
  Ag  Ag37  1  0.16566989  0.83648566  0.33057790  1
  Ag  Ag38  1  0.65979506  -0.00120956  0.65855646  1
  Ag  Ag39  1  -0.00241292  0.33112699  0.00290243  1
  Ag  Ag40  1  0.66507649  0.16329997  0.17217452  1
  Ag  Ag41  1  0.17304821  0.50665712  0.32909171  1
  Ag  Ag42  1  0.00771695  0.67105256  0.33672852  1
  Ag  Ag43  1  0.17637662  0.33067495  0.83476183  1
  Ag  Ag44  1  0.83521443  0.15841233  0.33281574  1
  Ag  Ag45  1  0.49550093  0.50507570  0.33569555  1
  Ag  Ag46  1  0.17290676  -0.00024373  0.49102535  1
  Ag  Ag47  1  0.66413787  0.66463174  0.00081308  1
  Ag  Ag48  1  0.32865854  -0.00414005  0.33964735  1
  Ag  Ag49  1  0.33250448  0.49588816  0.16535272  1
  Ag  Ag50  1  0.66496291  0.49846414  0.49883739  1
  Ag  Ag51  1  0.50231557  0.83572522  0.65779691  1
  Ag  Ag52  1  0.49586404  0.33407491  0.82989402  1
  Ag  Ag53  1  0.50345094  -0.00549523  0.49918614  1
  Sb  Sb54  1  0.00036838  -0.00521267  0.66538954  1
  Sb  Sb55  1  0.83003118  0.16883054  0.00512201  1
  Sb  Sb56  1  0.50226951  0.49978171  0.66428826  1
  Sb  Sb57  1  0.33038600  0.00065335  0.00014609  1
  Sb  Sb58  1  -0.00528408  0.50136807  0.49785439  1
  Sb  Sb59  1  0.66847431  0.32826924  0.33826436  1
  Sb  Sb60  1  0.50083377  0.33283924  0.16584361  1
  Sb  Sb61  1  0.49941941  0.16524006  0.66814606  1
  Sb  Sb62  1  0.83134772  0.32967932  0.83079359  1
  Sb  Sb63  1  0.82712224  0.83042419  0.66263358  1
  Sb  Sb64  1  0.00506821  0.16197449  0.84031195  1
  Sb  Sb65  1  0.66232028  0.50149328  0.83285777  1
  Sb  Sb66  1  0.83153616  0.50125217  0.33477055  1
  Sb  Sb67  1  0.66153601  0.50001815  0.16776629  1
  Sb  Sb68  1  0.16696307  0.33638314  0.16306276  1
  Sb  Sb69  1  0.83276906  0.66951869  0.82861049  1
  Sb  Sb70  1  0.50025809  0.16435847  0.33119020  1
  Sb  Sb71  1  0.66377890  0.67385030  0.33363627  1
  Sb  Sb72  1  0.83074015  0.83103528  0.00213766  1
  Sb  Sb73  1  -0.00144912  0.33821375  0.66712414  1
  Sb  Sb74  1  0.16747671  0.50141288  0.66576137  1
  Sb  Sb75  1  0.66211385  0.16377968  0.83381717  1
  Sb  Sb76  1  0.66790344  -0.00082424  0.00029241  1
  Sb  Sb77  1  0.82664616  -0.00089522  0.49894089  1
  Sb  Sb78  1  0.16893689  0.16490551  0.66306241  1
  Sb  Sb79  1  0.34002469  0.50027568  0.49817280  1
  Sb  Sb80  1  0.66379315  0.66796087  0.66468631  1
  Sb  Sb81  1  0.82978102  0.16880968  0.66026148  1
  Sb  Sb82  1  0.34135434  0.83475284  0.49757352  1
  Sb  Sb83  1  0.49827238  0.00150154  0.82892383  1
  Sb  Sb84  1  -0.00081603  0.83731258  0.16735741  1
  Sb  Sb85  1  0.33920321  0.16397407  0.49859466  1
  Sb  Sb86  1  0.33688938  0.83368960  0.17076574  1
  Sb  Sb87  1  0.49922636  0.66440337  0.83028444  1
  Sb  Sb88  1  0.17166731  0.83431140  0.66349814  1
  Sb  Sb89  1  0.33617873  0.33486900  -0.00733018  1
  Sb  Sb90  1  0.33725499  0.66363910  0.00266106  1
  Sb  Sb91  1  0.50028184  -0.00091845  0.17252226  1
  Sb  Sb92  1  0.16711664  -0.00309121  0.16980679  1
  Sb  Sb93  1  0.83310241  0.33309218  0.17165364  1
  Sb  Sb94  1  -0.00652279  0.16525151  0.49061876  1
  Sb  Sb95  1  -0.00569369  0.83297250  0.49800547  1
  Sb  Sb96  1  0.33456151  0.83442474  0.83274099  1
  Sb  Sb97  1  0.16973189  0.16748324  0.00460681  1
  Sb  Sb98  1  0.16979898  0.67176793  0.49246563  1
  Sb  Sb99  1  0.83327174  -0.00000568  0.16762786  1
  Sb  Sb100  1  0.16813904  0.32974585  0.50012404  1
  Sb  Sb101  1  0.33086623  0.33328592  0.33751097  1
  Sb  Sb102  1  0.00402321  0.50224154  0.83553068  1
  Sb  Sb103  1  0.16808288  0.66815264  0.83716010  1
  Sb  Sb104  1  0.00546829  0.49640713  0.16808776  1
  Sb  Sb105  1  -0.00153024  0.66734679  0.00254327  1
  Sb  Sb106  1  0.49630739  0.66719275  0.17238440  1
  Sb  Sb107  1  0.83553193  0.66733357  0.17277459  1
  Te  Te108  1  0.16817871  0.16822358  0.17184554  1
  Te  Te109  1  0.16718118  0.16128115  0.49309815  1
  Te  Te110  1  0.17172373  0.16590310  0.83431567  1
  Te  Te111  1  0.17122044  0.50233471  0.16704624  1
  Te  Te112  1  0.16670567  0.49895922  0.49348760  1
  Te  Te113  1  0.17154176  0.49799616  0.83559440  1
  Te  Te114  1  0.16711416  0.82900859  0.16542205  1
  Te  Te115  1  0.16401977  0.83945122  0.49485924  1
  Te  Te116  1  0.16618812  0.83603785  0.83574423  1
  Te  Te117  1  0.50054079  0.16606878  0.16112353  1
  Te  Te118  1  0.50620344  0.16835404  0.49878676  1
  Te  Te119  1  0.49539058  0.17127987  0.83918926  1
  Te  Te120  1  0.49377039  0.50007298  0.16629818  1
  Te  Te121  1  0.50439932  0.49957886  0.49777867  1
  Te  Te122  1  0.49570180  0.49628036  0.83741692  1
  Te  Te123  1  0.50465602  0.83271329  0.16207541  1
  Te  Te124  1  0.50395481  0.83431413  0.49866929  1
  Te  Te125  1  0.50281371  0.83282922  0.83807374  1
  Te  Te126  1  0.82862618  0.16667357  0.17318794  1
  Te  Te127  1  0.82589874  0.17036835  0.49335604  1
  Te  Te128  1  0.83463000  0.15981518  0.83338340  1
  Te  Te129  1  0.83212340  0.50053687  0.15818354  1
  Te  Te130  1  0.82849840  0.50058160  0.50086462  1
  Te  Te131  1  0.83403489  0.49951925  0.83461321  1
  Te  Te132  1  0.82499392  0.83270114  0.17383737  1
  Te  Te133  1  0.82675759  0.82947396  0.49511739  1
  Te  Te134  1  0.83255600  0.83692275  0.83347986  1
  Te  Te135  1  0.16324887  -0.00248274  -0.00229202  1
  Te  Te136  1  0.16759508  -0.00237247  0.33209670  1
  Te  Te137  1  0.17063080  -0.00170362  0.66965545  1
  Te  Te138  1  0.16320558  0.33522558  -0.00426204  1
  Te  Te139  1  0.16225392  0.33453390  0.33480547  1
  Te  Te140  1  0.16754717  0.33314003  0.67223272  1
  Te  Te141  1  0.16733275  0.66663319  0.00504410  1
  Te  Te142  1  0.16877550  0.66727196  0.33242093  1
  Te  Te143  1  0.16847981  0.66752475  0.66476015  1
  Te  Te144  1  0.49960311  -0.00491669  -0.00111549  1
  Te  Te145  1  0.50063453  -0.00286621  0.33826308  1
  Te  Te146  1  0.49961722  -0.00152158  0.66288286  1
  Te  Te147  1  0.50244138  0.33573531  -0.00072538  1
  Te  Te148  1  0.49964891  0.33775642  0.33856766  1
  Te  Te149  1  0.50198473  0.33349361  0.66660800  1
  Te  Te150  1  0.50315058  0.66710619  0.00072426  1
  Te  Te151  1  0.49721162  0.66795987  0.33711212  1
  Te  Te152  1  0.49596208  0.67016521  0.66172691  1
  Te  Te153  1  0.84000549  0.00012361  -0.00520759  1
  Te  Te154  1  0.83369167  -0.00093127  0.33454886  1
  Te  Te155  1  0.82996019  -0.00005934  0.67022020  1
  Te  Te156  1  0.83359433  0.33667427  -0.00096206  1
  Te  Te157  1  0.83875053  0.33322200  0.33881773  1
  Te  Te158  1  0.83075426  0.33771621  0.66235666  1
  Te  Te159  1  0.82919556  0.66146410  0.00023095  1
  Te  Te160  1  0.83767015  0.66883842  0.33889849  1
  Te  Te161  1  0.83483684  0.66252939  0.66133357  1
  Te  Te162  1  -0.00072391  0.16704693  0.00742488  1
  Te  Te163  1  0.00002954  0.16448830  0.33001802  1
  Te  Te164  1  -0.00082152  0.16676737  0.66635922  1
  Te  Te165  1  0.00468069  0.49718093  0.00061346  1
  Te  Te166  1  0.00214805  0.50229747  0.33240455  1
  Te  Te167  1  -0.00418360  0.50742095  0.66748231  1
  Te  Te168  1  0.00162563  0.83571714  -0.00149362  1
  Te  Te169  1  0.00268489  0.83520476  0.33234921  1
  Te  Te170  1  -0.00059085  0.82795486  0.67094730  1
  Te  Te171  1  0.33803711  0.16700441  0.00265578  1
  Te  Te172  1  0.33124459  0.16483087  0.33065926  1
  Te  Te173  1  0.33289450  0.16493300  0.67029730  1
  Te  Te174  1  0.33238862  0.50017916  0.00132790  1
  Te  Te175  1  0.33414949  0.50038203  0.33210328  1
  Te  Te176  1  0.33367829  0.50007071  0.66988699  1
  Te  Te177  1  0.33190737  0.83214373  0.00172534  1
  Te  Te178  1  0.33285815  0.83424595  0.33198671  1
  Te  Te179  1  0.33975571  0.83430825  0.66669386  1
  Te  Te180  1  0.66261541  0.16837964  0.00268357  1
  Te  Te181  1  0.66718895  0.16294266  0.33230218  1
  Te  Te182  1  0.66642991  0.16613378  0.66370848  1
  Te  Te183  1  0.66257341  0.49846981  0.00028848  1
  Te  Te184  1  0.66191116  0.49967977  0.33636912  1
  Te  Te185  1  0.66932651  0.49800001  0.66493209  1
  Te  Te186  1  0.66588227  0.83372949  -0.00089360  1
  Te  Te187  1  0.66395633  0.83508186  0.33322631  1
  Te  Te188  1  0.66225885  0.83533417  0.66720541  1
  Te  Te189  1  0.00007675  0.00514069  0.16754091  1
  Te  Te190  1  0.00456556  -0.00008369  0.49604000  1
  Te  Te191  1  0.00372863  -0.00309176  0.83271835  1
  Te  Te192  1  -0.00022295  0.32826372  0.16672994  1
  Te  Te193  1  -0.00159081  0.33322419  0.49728936  1
  Te  Te194  1  0.00139933  0.33192718  0.83741906  1
  Te  Te195  1  0.00466420  0.66740151  0.17281138  1
  Te  Te196  1  -0.00101233  0.66751410  0.49807229  1
  Te  Te197  1  0.00040886  0.67380592  0.83104437  1
  Te  Te198  1  0.33368878  0.00715582  0.17227151  1
  Te  Te199  1  0.33467313  0.00098147  0.50035098  1
  Te  Te200  1  0.32950351  0.00302856  0.83115223  1
  Te  Te201  1  0.33345396  0.33186810  0.16860881  1
  Te  Te202  1  0.33711978  0.33201358  0.50961001  1
  Te  Te203  1  0.33440839  0.33256913  0.83035662  1
  Te  Te204  1  0.32906475  0.66279690  0.17244436  1
  Te  Te205  1  0.33813507  0.66642472  0.49922844  1
  Te  Te206  1  0.33274305  0.66196057  0.82689629  1
  Te  Te207  1  0.66667454  0.00126770  0.17078363  1
  Te  Te208  1  0.66581675  -0.00061344  0.49988802  1
  Te  Te209  1  0.66731723  -0.00299861  0.83050797  1
  Te  Te210  1  0.66734195  0.32938967  0.16081490  1
  Te  Te211  1  0.66521381  0.33365212  0.50012619  1
  Te  Te212  1  0.66313985  0.33237414  0.83185894  1
  Te  Te213  1  0.66737279  0.66883903  0.16178071  1
  Te  Te214  1  0.66486580  0.66614237  0.49977877  1
  Te  Te215  1  0.66668496  0.67314603  0.83824394  1
