# generated using pymatgen
data_AgSbTe2
_symmetry_space_group_name_H-M   'P 1'
_cell_length_a   18.31162630
_cell_length_b   18.30915948
_cell_length_c   18.31110485
_cell_angle_alpha   89.99768914
_cell_angle_beta   90.00053083
_cell_angle_gamma   89.99786034
_symmetry_Int_Tables_number   1
_chemical_formula_structural   AgSbTe2
_chemical_formula_sum   'Ag54 Sb54 Te108'
_cell_volume   6139.17301686
_cell_formula_units_Z   54
loop_
 _symmetry_equiv_pos_site_id
 _symmetry_equiv_pos_as_xyz
  1  'x, y, z'
loop_
 _atom_site_type_symbol
 _atom_site_label
 _atom_site_symmetry_multiplicity
 _atom_site_fract_x
 _atom_site_fract_y
 _atom_site_fract_z
 _atom_site_occupancy
  Ag  Ag0  1  -0.00351828  0.33061679  0.33698562  1
  Ag  Ag1  1  0.33140358  0.49326137  0.83186128  1
  Ag  Ag2  1  0.00453266  0.16155424  0.83392886  1
  Ag  Ag3  1  0.16454061  0.67062764  0.16454245  1
  Ag  Ag4  1  0.16517449  0.83470198  0.32730286  1
  Ag  Ag5  1  0.33367129  0.50362437  0.16226926  1
  Ag  Ag6  1  -0.00394131  -0.00844851  -0.00645582  1
  Ag  Ag7  1  0.82961089  0.33669958  0.50184533  1
  Ag  Ag8  1  -0.00207761  0.84364975  0.84640785  1
  Ag  Ag9  1  -0.00287888  0.83616095  0.15887126  1
  Ag  Ag10  1  0.83183557  0.49864608  0.33910749  1
  Ag  Ag11  1  0.49854256  0.83408532  0.32627348  1
  Ag  Ag12  1  0.33496379  0.66703137  0.32705925  1
  Ag  Ag13  1  0.50346584  0.00091424  0.16396937  1
  Ag  Ag14  1  -0.00337205  0.00054592  0.67146677  1
  Ag  Ag15  1  0.66923796  0.33752565  0.34015502  1
  Ag  Ag16  1  0.49695257  0.16193533  0.00290366  1
  Ag  Ag17  1  0.84000423  0.83038622  -0.00027266  1
  Ag  Ag18  1  0.66888961  -0.00492229  0.00101051  1
  Ag  Ag19  1  0.67429187  0.67714473  0.00843469  1
  Ag  Ag20  1  0.17226764  0.33002203  0.83185235  1
  Ag  Ag21  1  0.49305362  0.33015256  0.82923397  1
  Ag  Ag22  1  0.16550955  0.49937341  0.66610887  1
  Ag  Ag23  1  0.00441005  0.16429779  0.50125731  1
  Ag  Ag24  1  0.33070282  0.66301449  0.66797862  1
  Ag  Ag25  1  0.32799997  0.17193585  0.82898460  1
  Ag  Ag26  1  0.50654105  0.32801994  0.50097695  1
  Ag  Ag27  1  -0.00085424  0.84059534  0.49959286  1
  Ag  Ag28  1  0.33675523  0.33035889  0.66958452  1
  Ag  Ag29  1  0.83489899  0.66791070  0.16236943  1
  Ag  Ag30  1  0.16402246  0.16408096  0.33240503  1
  Ag  Ag31  1  0.49695344  0.00565957  0.49941285  1
  Ag  Ag32  1  -0.00148136  0.16001975  0.16388112  1
  Ag  Ag33  1  0.67630141  0.00507280  0.66889097  1
  Ag  Ag34  1  0.50754123  0.83880898  0.00626464  1
  Ag  Ag35  1  0.50173659  0.32669264  0.16741075  1
  Ag  Ag36  1  0.83667625  0.49723186  0.66069034  1
  Ag  Ag37  1  0.32934191  0.16576238  0.50678867  1
  Ag  Ag38  1  0.66842063  0.83476182  0.16372617  1
  Ag  Ag39  1  -0.00318157  0.67906900  0.00279253  1
  Ag  Ag40  1  0.33138797  0.66817529  0.00520450  1
  Ag  Ag41  1  0.33149381  0.00839765  0.66472073  1
  Ag  Ag42  1  0.83604743  0.16187985  0.66678088  1
  Ag  Ag43  1  0.16519694  0.00301845  0.50112838  1
  Ag  Ag44  1  0.83360333  0.51023851  0.00215891  1
  Ag  Ag45  1  0.66537586  0.32971586  0.65944194  1
  Ag  Ag46  1  0.83782777  -0.00068800  0.83145087  1
  Ag  Ag47  1  0.66767416  0.16197067  0.16534033  1
  Ag  Ag48  1  0.16510135  0.16027690  0.00004371  1
  Ag  Ag49  1  0.15426294  0.83574729  0.00582572  1
  Ag  Ag50  1  0.67428208  0.49257342  0.49859629  1
  Ag  Ag51  1  0.66607845  0.66398259  0.32671333  1
  Ag  Ag52  1  0.83646384  0.84116894  0.67243955  1
  Ag  Ag53  1  -0.00631374  0.49332654  0.50140173  1
  Sb  Sb54  1  0.33218635  0.49573445  0.50359862  1
  Sb  Sb55  1  -0.00128536  0.32765262  0.66167830  1
  Sb  Sb56  1  0.83512102  0.16260405  -0.00283490  1
  Sb  Sb57  1  0.67101911  0.83263842  0.49615611  1
  Sb  Sb58  1  0.16482165  0.16859094  0.66810158  1
  Sb  Sb59  1  0.00101403  0.00318583  0.33442886  1
  Sb  Sb60  1  0.49920331  0.66744541  0.49816280  1
  Sb  Sb61  1  0.66768452  0.66613336  0.66548159  1
  Sb  Sb62  1  0.00054323  0.50148280  0.16887777  1
  Sb  Sb63  1  0.33312566  -0.00296735  0.33801913  1
  Sb  Sb64  1  0.16773826  -0.00341737  0.16810475  1
  Sb  Sb65  1  0.83067575  0.33629602  0.17110888  1
  Sb  Sb66  1  0.32819369  0.83522606  0.83443918  1
  Sb  Sb67  1  0.16554796  0.32784798  0.50370305  1
  Sb  Sb68  1  0.83816414  0.17274213  0.33748738  1
  Sb  Sb69  1  0.33295305  0.17047467  0.16448034  1
  Sb  Sb70  1  0.83108471  -0.00450758  0.16023927  1
  Sb  Sb71  1  0.83609448  0.00540392  0.50808427  1
  Sb  Sb72  1  0.00125358  0.67063092  0.67033453  1
  Sb  Sb73  1  0.66462385  0.00092553  0.33117531  1
  Sb  Sb74  1  0.00243773  0.49696943  0.82956225  1
  Sb  Sb75  1  0.50028958  0.67083195  0.16630529  1
  Sb  Sb76  1  0.49691855  0.66432206  0.83565579  1
  Sb  Sb77  1  0.16576407  0.67109122  0.49549852  1
  Sb  Sb78  1  0.50423078  0.50132603  0.33330714  1
  Sb  Sb79  1  0.50455283  0.83777016  0.66685379  1
  Sb  Sb80  1  0.50216887  0.50080494  0.00202485  1
  Sb  Sb81  1  0.83441294  0.66064379  0.49539240  1
  Sb  Sb82  1  0.16056269  0.83239213  0.66744731  1
  Sb  Sb83  1  0.66535725  0.33127860  0.00127830  1
  Sb  Sb84  1  0.33324801  0.82921506  0.16568538  1
  Sb  Sb85  1  0.16096382  0.00455126  0.83006314  1
  Sb  Sb86  1  0.33427173  0.33626029  0.33767506  1
  Sb  Sb87  1  0.16725758  0.66453608  0.83902958  1
  Sb  Sb88  1  0.83399847  0.32941103  0.82725237  1
  Sb  Sb89  1  0.66495266  0.49794228  0.83010801  1
  Sb  Sb90  1  0.32988970  0.83861453  0.50042142  1
  Sb  Sb91  1  0.50244659  0.00440513  0.83523386  1
  Sb  Sb92  1  0.66681702  0.16606000  0.83577206  1
  Sb  Sb93  1  0.33467057  0.33535191  -0.00737441  1
  Sb  Sb94  1  0.83496474  0.67087034  0.84026177  1
  Sb  Sb95  1  -0.00118783  0.33028128  0.00270074  1
  Sb  Sb96  1  0.49709569  0.16446646  0.33028994  1
  Sb  Sb97  1  0.16934697  0.33437684  0.16368192  1
  Sb  Sb98  1  0.66503047  0.50195691  0.16973817  1
  Sb  Sb99  1  0.66710805  0.17070586  0.49810413  1
  Sb  Sb100  1  0.67262461  0.83577069  0.84225648  1
  Sb  Sb101  1  0.16443152  0.50254630  -0.00292232  1
  Sb  Sb102  1  0.49863446  0.49599327  0.66627557  1
  Sb  Sb103  1  0.83544742  0.82780284  0.32953504  1
  Sb  Sb104  1  0.16284670  0.50080257  0.33645397  1
  Sb  Sb105  1  0.33277464  -0.00235269  -0.00454684  1
  Sb  Sb106  1  0.50061159  0.16760750  0.66914367  1
  Sb  Sb107  1  -0.00110507  0.66579562  0.32825289  1
  Te  Te108  1  0.16322474  0.16640374  0.16602687  1
  Te  Te109  1  0.16512338  0.16370542  0.49932541  1
  Te  Te110  1  0.16571999  0.16890980  0.83521513  1
  Te  Te111  1  0.17155000  0.50374096  0.16669314  1
  Te  Te112  1  0.16178158  0.50031119  0.50507685  1
  Te  Te113  1  0.16996812  0.49473189  0.82937586  1
  Te  Te114  1  0.16543268  0.83156832  0.16644829  1
  Te  Te115  1  0.16208576  0.83848035  0.49738190  1
  Te  Te116  1  0.15985815  0.83341258  0.83989018  1
  Te  Te117  1  0.49989164  0.16536670  0.16373388  1
  Te  Te118  1  0.49714940  0.16572149  0.49838753  1
  Te  Te119  1  0.49675215  0.17065248  0.83987309  1
  Te  Te120  1  0.49459383  0.49214509  0.16653566  1
  Te  Te121  1  0.50422687  0.49448330  0.49960939  1
  Te  Te122  1  0.49392085  0.49226608  0.83425535  1
  Te  Te123  1  0.50071947  0.83623743  0.16663962  1
  Te  Te124  1  0.50170029  0.83806765  0.49734339  1
  Te  Te125  1  0.49923246  0.83401004  0.83928178  1
  Te  Te126  1  0.83596822  0.16692649  0.16670217  1
  Te  Te127  1  0.83795528  0.17303229  0.50458426  1
  Te  Te128  1  0.83800877  0.16265655  0.82929514  1
  Te  Te129  1  0.83333416  0.50430793  0.16409404  1
  Te  Te130  1  0.83433609  0.49827623  0.50035757  1
  Te  Te131  1  0.83372793  0.49859306  0.83015986  1
  Te  Te132  1  0.83455263  0.82939269  0.16394015  1
  Te  Te133  1  0.83838482  0.83259382  0.50106412  1
  Te  Te134  1  0.83796761  0.83637051  0.83335787  1
  Te  Te135  1  0.16408625  -0.00035006  0.00045322  1
  Te  Te136  1  0.16719003  -0.00085765  0.33764433  1
  Te  Te137  1  0.16640554  -0.00122607  0.66130036  1
  Te  Te138  1  0.16702352  0.32844934  -0.00460657  1
  Te  Te139  1  0.16389973  0.33000251  0.33256276  1
  Te  Te140  1  0.16904022  0.33727753  0.67034190  1
  Te  Te141  1  0.16876243  0.66792788  0.00463606  1
  Te  Te142  1  0.16970769  0.66899049  0.32791563  1
  Te  Te143  1  0.17025709  0.66281048  0.66684813  1
  Te  Te144  1  0.50077050  0.00059739  0.00159898  1
  Te  Te145  1  0.49984962  -0.00523912  0.33413434  1
  Te  Te146  1  0.49831967  0.00082813  0.66300961  1
  Te  Te147  1  0.50113120  0.32903864  0.00270209  1
  Te  Te148  1  0.50290153  0.33277612  0.33508591  1
  Te  Te149  1  0.50127733  0.33155586  0.66496239  1
  Te  Te150  1  0.49716560  0.67009052  0.00004566  1
  Te  Te151  1  0.50007747  0.67253978  0.33335829  1
  Te  Te152  1  0.49384974  0.66833952  0.66702637  1
  Te  Te153  1  0.83260059  -0.00355433  -0.00439124  1
  Te  Te154  1  0.83187793  -0.00021227  0.33419697  1
  Te  Te155  1  0.83470705  0.00055226  0.66926788  1
  Te  Te156  1  0.83156909  0.34022766  -0.00124718  1
  Te  Te157  1  0.83226984  0.33840329  0.33756351  1
  Te  Te158  1  0.83123203  0.33544001  0.66341593  1
  Te  Te159  1  0.83340313  0.66953309  0.00194414  1
  Te  Te160  1  0.82936647  0.66052857  0.32706431  1
  Te  Te161  1  0.83178066  0.66355544  0.66734999  1
  Te  Te162  1  0.00160227  0.16491459  0.00138325  1
  Te  Te163  1  0.00344326  0.16870906  0.33376800  1
  Te  Te164  1  -0.00142479  0.16270772  0.66575377  1
  Te  Te165  1  -0.00491671  0.50089862  -0.00075591  1
  Te  Te166  1  -0.00437118  0.49640579  0.33712907  1
  Te  Te167  1  -0.00032095  0.50111114  0.66346764  1
  Te  Te168  1  -0.00230452  0.83515369  0.00179067  1
  Te  Te169  1  0.00379121  0.83311528  0.33566368  1
  Te  Te170  1  -0.00382739  0.83643005  0.66069447  1
  Te  Te171  1  0.33124278  0.16636366  -0.00361370  1
  Te  Te172  1  0.32577716  0.16713059  0.33674567  1
  Te  Te173  1  0.33307172  0.16785131  0.66710529  1
  Te  Te174  1  0.33321523  0.50517614  -0.00191619  1
  Te  Te175  1  0.33232776  0.50554630  0.33374028  1
  Te  Te176  1  0.33205002  0.49805060  0.66853256  1
  Te  Te177  1  0.33532906  0.82892553  -0.00167666  1
  Te  Te178  1  0.33124795  0.82832047  0.33398676  1
  Te  Te179  1  0.33328808  0.83116907  0.66779151  1
  Te  Te180  1  0.66603441  0.16287292  0.00448165  1
  Te  Te181  1  0.66695935  0.17136803  0.32618603  1
  Te  Te182  1  0.67057882  0.16604820  0.66703889  1
  Te  Te183  1  0.67125039  0.50351458  -0.00067652  1
  Te  Te184  1  0.67004358  0.49954886  0.33612134  1
  Te  Te185  1  0.67008899  0.49858489  0.66224927  1
  Te  Te186  1  0.66578615  0.83529650  0.00340161  1
  Te  Te187  1  0.66602991  0.82992406  0.32833631  1
  Te  Te188  1  0.67351311  0.83584426  0.66599564  1
  Te  Te189  1  0.00019363  -0.00042840  0.16346143  1
  Te  Te190  1  0.00062148  0.00247453  0.50137315  1
  Te  Te191  1  -0.00013966  0.00173200  0.83289801  1
  Te  Te192  1  0.00020943  0.32939631  0.17279331  1
  Te  Te193  1  -0.00059901  0.33191626  0.49703102  1
  Te  Te194  1  0.00360769  0.32720888  0.83311471  1
  Te  Te195  1  0.00093008  0.66837510  0.16281397  1
  Te  Te196  1  0.00053258  0.66755448  0.50027089  1
  Te  Te197  1  0.00125570  0.66862846  0.84055357  1
  Te  Te198  1  0.34164622  0.00152807  0.16632047  1
  Te  Te199  1  0.33462824  0.00429900  0.50434364  1
  Te  Te200  1  0.33364857  0.00558344  0.82604179  1
  Te  Te201  1  0.33811956  0.33923304  0.16823973  1
  Te  Te202  1  0.33597397  0.32792723  0.50501788  1
  Te  Te203  1  0.33354832  0.33233545  0.83071192  1
  Te  Te204  1  0.33397568  0.66408733  0.16680838  1
  Te  Te205  1  0.33323262  0.66592116  0.50183763  1
  Te  Te206  1  0.33217519  0.66364048  0.83102556  1
  Te  Te207  1  0.66480183  -0.00030658  0.16431135  1
  Te  Te208  1  0.66300369  0.00102110  0.50407186  1
  Te  Te209  1  0.67122541  0.00077544  0.83075072  1
  Te  Te210  1  0.66331424  0.33079591  0.16926611  1
  Te  Te211  1  0.66669625  0.33226214  0.50030723  1
  Te  Te212  1  0.66170489  0.33279325  0.82699942  1
  Te  Te213  1  0.66645711  0.66851911  0.16674066  1
  Te  Te214  1  0.66584721  0.66212858  0.49485501  1
  Te  Te215  1  0.66516899  0.66633730  0.84012398  1
