# generated using pymatgen
data_AgSbTe2
_symmetry_space_group_name_H-M   'P 1'
_cell_length_a   18.34594211
_cell_length_b   18.34232142
_cell_length_c   18.34658255
_cell_angle_alpha   90.00105300
_cell_angle_beta   90.00054322
_cell_angle_gamma   89.99780010
_symmetry_Int_Tables_number   1
_chemical_formula_structural   AgSbTe2
_chemical_formula_sum   'Ag54 Sb54 Te108'
_cell_volume   6173.75650761
_cell_formula_units_Z   54
loop_
 _symmetry_equiv_pos_site_id
 _symmetry_equiv_pos_as_xyz
  1  'x, y, z'
loop_
 _atom_site_type_symbol
 _atom_site_label
 _atom_site_symmetry_multiplicity
 _atom_site_fract_x
 _atom_site_fract_y
 _atom_site_fract_z
 _atom_site_occupancy
  Ag  Ag0  1  0.16901642  0.66981591  0.50745497  1
  Ag  Ag1  1  0.17755598  0.33398326  0.83845289  1
  Ag  Ag2  1  0.17620724  0.50264447  0.32975715  1
  Ag  Ag3  1  0.66413131  0.49120395  0.83815496  1
  Ag  Ag4  1  0.17871197  0.83221775  -0.00778316  1
  Ag  Ag5  1  0.49841792  0.32614252  0.49886562  1
  Ag  Ag6  1  0.01578328  0.83028171  0.83629411  1
  Ag  Ag7  1  0.65940728  0.83310636  0.83626722  1
  Ag  Ag8  1  0.65816169  0.17288814  0.83799038  1
  Ag  Ag9  1  0.49699658  0.83633343  0.32566936  1
  Ag  Ag10  1  0.65836991  0.17000875  0.15747466  1
  Ag  Ag11  1  0.49644924  0.01020085  0.49579874  1
  Ag  Ag12  1  0.49891214  0.01128246  0.16847628  1
  Ag  Ag13  1  0.00509962  0.16716143  0.49679681  1
  Ag  Ag14  1  0.33384293  0.67417000  0.67624574  1
  Ag  Ag15  1  0.34293960  0.17420091  0.15830973  1
  Ag  Ag16  1  0.82325197  0.16636795  0.67898009  1
  Ag  Ag17  1  0.65887211  0.48881382  0.15802868  1
  Ag  Ag18  1  0.50228066  0.16706167  0.00478556  1
  Ag  Ag19  1  0.33519992  0.66709068  -0.00450626  1
  Ag  Ag20  1  0.17684161  0.82847628  0.33303877  1
  Ag  Ag21  1  0.33849551  0.16849280  0.83537454  1
  Ag  Ag22  1  0.83054104  0.49061514  -0.00307428  1
  Ag  Ag23  1  0.17725555  0.67418909  0.83079510  1
  Ag  Ag24  1  0.50017292  0.17057824  0.67190087  1
  Ag  Ag25  1  0.16717323  -0.01019411  0.83555201  1
  Ag  Ag26  1  0.33477244  -0.00321149  0.66945716  1
  Ag  Ag27  1  0.49622152  0.48942611  0.32975481  1
  Ag  Ag28  1  0.83891662  0.66752632  0.51091791  1
  Ag  Ag29  1  0.33302488  0.83167050  0.83173513  1
  Ag  Ag30  1  0.00124360  0.00995591  -0.00326131  1
  Ag  Ag31  1  -0.00172322  0.50315564  0.83541836  1
  Ag  Ag32  1  0.83731917  0.00119427  0.83428056  1
  Ag  Ag33  1  0.49419605  0.32601191  0.15960092  1
  Ag  Ag34  1  0.33336704  0.83636594  0.51153103  1
  Ag  Ag35  1  0.49985057  0.48845875  0.67653334  1
  Ag  Ag36  1  0.49734721  0.83950743  -0.00083899  1
  Ag  Ag37  1  0.49864986  0.32743825  0.83712374  1
  Ag  Ag38  1  0.17360137  0.83144457  0.67833265  1
  Ag  Ag39  1  0.17896741  0.33143937  0.15525141  1
  Ag  Ag40  1  0.65939862  0.83683079  0.15481140  1
  Ag  Ag41  1  0.65877710  0.33034180  0.67894471  1
  Ag  Ag42  1  0.82355713  0.17127515  -0.00223208  1
  Ag  Ag43  1  0.83116940  0.67085499  0.83257874  1
  Ag  Ag44  1  0.34080819  0.48985960  0.16664210  1
  Ag  Ag45  1  0.33989405  0.16491690  0.50243455  1
  Ag  Ag46  1  0.33593643  0.33237216  0.31986258  1
  Ag  Ag47  1  0.65719424  0.33179453  -0.00182286  1
  Ag  Ag48  1  0.00173354  0.32859293  -0.00145726  1
  Ag  Ag49  1  0.82410129  0.16726086  0.33022130  1
  Ag  Ag50  1  0.33707105  0.33260415  0.00276582  1
  Ag  Ag51  1  0.50017842  0.17110433  0.32240630  1
  Ag  Ag52  1  -0.00092349  0.16783593  0.16320531  1
  Ag  Ag53  1  0.49488361  0.66289566  0.83370882  1
  Sb  Sb54  1  0.17278528  0.33373269  0.50131103  1
  Sb  Sb55  1  0.33741375  0.00308030  0.33673302  1
  Sb  Sb56  1  0.66325536  0.00345562  0.33060385  1
  Sb  Sb57  1  0.82903309  0.83548334  -0.00489379  1
  Sb  Sb58  1  0.00047284  0.00331027  0.32858909  1
  Sb  Sb59  1  0.16893373  0.66323169  0.16364215  1
  Sb  Sb60  1  0.65561263  0.33081176  0.32732460  1
  Sb  Sb61  1  0.49498751  0.66563859  0.50650081  1
  Sb  Sb62  1  0.33277948  0.00372238  -0.00668879  1
  Sb  Sb63  1  0.66138852  0.66317607  0.67267648  1
  Sb  Sb64  1  0.66031496  0.66310872  -0.00486513  1
  Sb  Sb65  1  -0.00076588  0.16711422  0.83626010  1
  Sb  Sb66  1  0.34036900  0.33236542  0.67112092  1
  Sb  Sb67  1  0.00083516  0.49317471  0.15956945  1
  Sb  Sb68  1  0.49393692  0.83605495  0.67218167  1
  Sb  Sb69  1  0.82968666  0.49538799  0.32859123  1
  Sb  Sb70  1  0.16983126  0.16814065  -0.00136779  1
  Sb  Sb71  1  -0.00404385  0.33007570  0.67481254  1
  Sb  Sb72  1  0.33743875  0.83612099  0.16148807  1
  Sb  Sb73  1  0.33688338  0.50005094  0.83730076  1
  Sb  Sb74  1  0.00000253  0.83931499  0.15813461  1
  Sb  Sb75  1  0.82702621  0.32886284  0.16321388  1
  Sb  Sb76  1  0.16747029  0.49941910  -0.00006466  1
  Sb  Sb77  1  0.66347304  0.66644837  0.33317427  1
  Sb  Sb78  1  0.00731477  0.33023217  0.32757937  1
  Sb  Sb79  1  0.82816778  0.33205206  0.50090880  1
  Sb  Sb80  1  0.49664702  0.00456626  0.83488704  1
  Sb  Sb81  1  0.00847488  0.83618737  0.50417401  1
  Sb  Sb82  1  0.00393799  0.66529622  -0.00484209  1
  Sb  Sb83  1  0.00201729  0.66615542  0.33634370  1
  Sb  Sb84  1  0.00201139  0.49568535  0.50497623  1
  Sb  Sb85  1  0.82635849  0.49707753  0.67400970  1
  Sb  Sb86  1  0.82746043  0.00455127  0.16021903  1
  Sb  Sb87  1  0.66484252  0.49880304  0.50110587  1
  Sb  Sb88  1  0.33514390  0.49866886  0.49588638  1
  Sb  Sb89  1  0.49886592  0.66294184  0.15893954  1
  Sb  Sb90  1  0.17253651  0.16488306  0.66977640  1
  Sb  Sb91  1  0.65935971  0.00609794  0.67175281  1
  Sb  Sb92  1  0.17236496  0.00444317  0.16190574  1
  Sb  Sb93  1  0.17246667  -0.00330679  0.50514209  1
  Sb  Sb94  1  0.00449355  0.00188097  0.67275070  1
  Sb  Sb95  1  0.17454959  0.50432744  0.66817895  1
  Sb  Sb96  1  0.33507640  0.66450310  0.33136909  1
  Sb  Sb97  1  0.82669945  0.33123198  0.83821205  1
  Sb  Sb98  1  0.66685714  0.00686772  -0.00228351  1
  Sb  Sb99  1  0.50200006  0.49166128  -0.00016024  1
  Sb  Sb100  1  0.65673153  0.83220142  0.50276601  1
  Sb  Sb101  1  0.83636455  0.83546766  0.67112455  1
  Sb  Sb102  1  0.83036192  0.66617343  0.15967952  1
  Sb  Sb103  1  0.00468384  0.66664224  0.67170208  1
  Sb  Sb104  1  0.82954659  0.83696263  0.33514237  1
  Sb  Sb105  1  0.83026315  0.00181835  0.50631914  1
  Sb  Sb106  1  0.17434551  0.16682226  0.33205182  1
  Sb  Sb107  1  0.65852015  0.16863551  0.50068930  1
  Te  Te108  1  0.16409923  0.17105145  0.16763681  1
  Te  Te109  1  0.16892437  0.16636086  0.50063012  1
  Te  Te110  1  0.17187035  0.17435568  0.83272580  1
  Te  Te111  1  0.16717060  0.49561419  0.16998833  1
  Te  Te112  1  0.16538053  0.50530637  0.49715931  1
  Te  Te113  1  0.16487796  0.49660344  0.83204926  1
  Te  Te114  1  0.16606140  0.83441309  0.17046091  1
  Te  Te115  1  0.17093634  0.83040993  0.49379271  1
  Te  Te116  1  0.17124436  0.83170020  0.83552100  1
  Te  Te117  1  0.50023751  0.16871725  0.16538848  1
  Te  Te118  1  0.49952668  0.16824874  0.50297162  1
  Te  Te119  1  0.49915131  0.16496826  0.83336442  1
  Te  Te120  1  0.50071060  0.49945782  0.16804713  1
  Te  Te121  1  0.50123450  0.49848440  0.49241325  1
  Te  Te122  1  0.50321606  0.50116748  0.83448947  1
  Te  Te123  1  0.50179251  0.82802703  0.16632830  1
  Te  Te124  1  0.49250664  0.83313123  0.49840560  1
  Te  Te125  1  0.49643057  0.83763818  0.83702611  1
  Te  Te126  1  0.83609408  0.16508842  0.16403584  1
  Te  Te127  1  0.83056016  0.16587006  0.49533285  1
  Te  Te128  1  0.83404141  0.16484893  0.83590378  1
  Te  Te129  1  0.82940347  0.49991155  0.16013797  1
  Te  Te130  1  0.83457853  0.50550305  0.49904292  1
  Te  Te131  1  0.82977389  0.49903435  0.83588017  1
  Te  Te132  1  0.82671367  0.83511389  0.16794102  1
  Te  Te133  1  0.83512132  0.82988204  0.50173735  1
  Te  Te134  1  0.82530899  0.83211821  0.83239109  1
  Te  Te135  1  0.16273539  -0.00562804  -0.00257865  1
  Te  Te136  1  0.16623300  -0.00690161  0.33318080  1
  Te  Te137  1  0.17220781  -0.00359130  0.67284956  1
  Te  Te138  1  0.16993806  0.33475369  -0.00110343  1
  Te  Te139  1  0.17469185  0.33721917  0.33508288  1
  Te  Te140  1  0.16409882  0.33565352  0.67183526  1
  Te  Te141  1  0.17085388  0.66980440  -0.00490908  1
  Te  Te142  1  0.16762350  0.66509008  0.33236528  1
  Te  Te143  1  0.17111101  0.66929734  0.66859035  1
  Te  Te144  1  0.50025265  0.00119120  0.00619093  1
  Te  Te145  1  0.50084518  -0.00075914  0.33241152  1
  Te  Te146  1  0.49398954  0.00501882  0.66230611  1
  Te  Te147  1  0.49855869  0.33115843  -0.00083536  1
  Te  Te148  1  0.49730741  0.33181214  0.33255223  1
  Te  Te149  1  0.50022411  0.33267621  0.67201302  1
  Te  Te150  1  0.49507041  0.67420684  -0.00674568  1
  Te  Te151  1  0.50015063  0.66983154  0.33679242  1
  Te  Te152  1  0.49466766  0.66683814  0.67263640  1
  Te  Te153  1  0.83825021  0.00333605  -0.00588311  1
  Te  Te154  1  0.83398591  0.00682866  0.33531608  1
  Te  Te155  1  0.83346240  0.00598203  0.67256573  1
  Te  Te156  1  0.83674610  0.33128935  0.00187393  1
  Te  Te157  1  0.83504479  0.32776414  0.33415168  1
  Te  Te158  1  0.82683279  0.32740471  0.66598957  1
  Te  Te159  1  0.83428705  0.66532253  -0.00778369  1
  Te  Te160  1  0.83352076  0.66661843  0.33353419  1
  Te  Te161  1  0.83278589  0.66511996  0.66913182  1
  Te  Te162  1  0.00397258  0.16781619  0.00093756  1
  Te  Te163  1  0.00133363  0.16740684  0.33427599  1
  Te  Te164  1  -0.00364799  0.16704886  0.66091516  1
  Te  Te165  1  -0.00402472  0.49650249  -0.00542128  1
  Te  Te166  1  0.00062493  0.49860364  0.33347995  1
  Te  Te167  1  -0.00240407  0.49844339  0.67471939  1
  Te  Te168  1  -0.00159246  0.83350809  -0.00503865  1
  Te  Te169  1  -0.00087961  0.83453538  0.33244525  1
  Te  Te170  1  0.00734339  0.83435345  0.67348986  1
  Te  Te171  1  0.33605715  0.16886668  -0.00263355  1
  Te  Te172  1  0.33796075  0.16959474  0.33624353  1
  Te  Te173  1  0.33694485  0.16603619  0.66824449  1
  Te  Te174  1  0.33352750  0.49575700  0.00627658  1
  Te  Te175  1  0.33421293  0.49825962  0.33006476  1
  Te  Te176  1  0.34133367  0.50470608  0.66444290  1
  Te  Te177  1  0.33511778  0.83610637  -0.00249314  1
  Te  Te178  1  0.33548521  0.83332202  0.32915940  1
  Te  Te179  1  0.33312704  0.83349429  0.66945398  1
  Te  Te180  1  0.66534066  0.16817414  -0.00147850  1
  Te  Te181  1  0.66400931  0.16742849  0.32819253  1
  Te  Te182  1  0.66450076  0.16954012  0.66944591  1
  Te  Te183  1  0.66844188  0.49780525  -0.00081278  1
  Te  Te184  1  0.66341081  0.49897646  0.32802822  1
  Te  Te185  1  0.65905927  0.49535405  0.67151106  1
  Te  Te186  1  0.66233824  0.83176094  -0.00170741  1
  Te  Te187  1  0.66112369  0.83421981  0.33504516  1
  Te  Te188  1  0.66727369  0.83354775  0.67241689  1
  Te  Te189  1  0.00023454  0.00598206  0.15928792  1
  Te  Te190  1  -0.00107686  0.00691863  0.49964648  1
  Te  Te191  1  0.00243325  -0.00169813  0.83625236  1
  Te  Te192  1  0.00121917  0.32834626  0.16071044  1
  Te  Te193  1  0.00034013  0.32668097  0.50026943  1
  Te  Te194  1  0.00330369  0.33609630  0.83794123  1
  Te  Te195  1  -0.00102248  0.66725119  0.16771939  1
  Te  Te196  1  0.00088969  0.66682518  0.50171918  1
  Te  Te197  1  -0.00246451  0.66710058  0.83357732  1
  Te  Te198  1  0.33933361  0.00855803  0.16720454  1
  Te  Te199  1  0.33637172  -0.00036132  0.50301701  1
  Te  Te200  1  0.32984542  0.00009224  0.83163576  1
  Te  Te201  1  0.33436302  0.33250025  0.16577218  1
  Te  Te202  1  0.33877745  0.32959026  0.50218231  1
  Te  Te203  1  0.33715690  0.33255442  0.83754909  1
  Te  Te204  1  0.33173738  0.66375082  0.15920101  1
  Te  Te205  1  0.32789032  0.66957784  0.49920644  1
  Te  Te206  1  0.33445464  0.66362878  0.83628258  1
  Te  Te207  1  0.66018392  -0.00145501  0.16566176  1
  Te  Te208  1  0.65945717  -0.00222071  0.50064107  1
  Te  Te209  1  0.67274261  -0.00367709  0.83248455  1
  Te  Te210  1  0.66138699  0.33138175  0.16124852  1
  Te  Te211  1  0.65926298  0.33527502  0.50424821  1
  Te  Te212  1  0.66388228  0.33123750  0.83674429  1
  Te  Te213  1  0.66702315  0.67047186  0.16543606  1
  Te  Te214  1  0.67486768  0.66715931  0.50194581  1
  Te  Te215  1  0.66776670  0.67003151  0.83221791  1
