# generated using pymatgen
data_AgSbTe2
_symmetry_space_group_name_H-M   'P 1'
_cell_length_a   18.32350536
_cell_length_b   18.32640425
_cell_length_c   18.32278845
_cell_angle_alpha   89.99901526
_cell_angle_beta   90.00276287
_cell_angle_gamma   89.99978650
_symmetry_Int_Tables_number   1
_chemical_formula_structural   AgSbTe2
_chemical_formula_sum   'Ag54 Sb54 Te108'
_cell_volume   6152.86503131
_cell_formula_units_Z   54
loop_
 _symmetry_equiv_pos_site_id
 _symmetry_equiv_pos_as_xyz
  1  'x, y, z'
loop_
 _atom_site_type_symbol
 _atom_site_label
 _atom_site_symmetry_multiplicity
 _atom_site_fract_x
 _atom_site_fract_y
 _atom_site_fract_z
 _atom_site_occupancy
  Ag  Ag0  1  0.67316161  -0.00129413  -0.00936411  1
  Ag  Ag1  1  0.67156692  0.33502500  0.33447744  1
  Ag  Ag2  1  0.50838990  0.50098611  -0.00763368  1
  Ag  Ag3  1  0.83196701  0.83390949  0.32975114  1
  Ag  Ag4  1  0.16346659  0.49805097  0.32749934  1
  Ag  Ag5  1  0.83315558  0.49184818  0.32919931  1
  Ag  Ag6  1  -0.00329160  0.83602966  0.49954019  1
  Ag  Ag7  1  0.33028661  0.83077583  0.16339437  1
  Ag  Ag8  1  0.49897340  0.66841229  0.50490736  1
  Ag  Ag9  1  -0.00231340  0.49448763  0.83992743  1
  Ag  Ag10  1  0.50394138  0.15706956  0.66969880  1
  Ag  Ag11  1  0.16757141  0.66697358  0.16815881  1
  Ag  Ag12  1  -0.00109977  0.50108409  0.16128822  1
  Ag  Ag13  1  -0.01029702  0.33916996  -0.00065952  1
  Ag  Ag14  1  0.49692083  0.66581698  0.17098258  1
  Ag  Ag15  1  0.50174747  0.50434394  0.33171130  1
  Ag  Ag16  1  0.50467553  0.82608434  0.33919100  1
  Ag  Ag17  1  0.83464495  0.33023818  0.15857810  1
  Ag  Ag18  1  0.34652334  -0.00919289  0.66843953  1
  Ag  Ag19  1  0.15387350  0.50448809  0.00488603  1
  Ag  Ag20  1  -0.00291462  0.16303897  0.50134579  1
  Ag  Ag21  1  0.66735661  0.66207063  -0.00553163  1
  Ag  Ag22  1  -0.00713762  0.16692401  0.16842198  1
  Ag  Ag23  1  0.34428276  0.67024040  0.66761254  1
  Ag  Ag24  1  0.83227553  0.33260270  0.49511538  1
  Ag  Ag25  1  0.67015490  0.83315108  0.50217361  1
  Ag  Ag26  1  0.51003507  0.00390596  0.82811448  1
  Ag  Ag27  1  0.83425509  0.83699466  0.00390585  1
  Ag  Ag28  1  0.15961665  0.82733204  0.00454023  1
  Ag  Ag29  1  0.83467621  0.00686152  0.15893731  1
  Ag  Ag30  1  -0.00175097  0.66877748  0.66438971  1
  Ag  Ag31  1  0.50215413  0.82876221  0.66482646  1
  Ag  Ag32  1  0.82789786  0.00744076  0.83861708  1
  Ag  Ag33  1  0.83326097  0.17318946  -0.00021132  1
  Ag  Ag34  1  0.33560893  0.50174578  0.83352501  1
  Ag  Ag35  1  0.16170017  -0.00853989  0.50145361  1
  Ag  Ag36  1  0.82741672  0.32818840  0.84412202  1
  Ag  Ag37  1  0.67304064  0.16696206  0.83260958  1
  Ag  Ag38  1  0.82835614  0.49722969  0.67597334  1
  Ag  Ag39  1  0.50990214  0.33415438  0.83108775  1
  Ag  Ag40  1  -0.00491869  -0.00266647  0.66663255  1
  Ag  Ag41  1  0.66210955  0.66539502  0.67053448  1
  Ag  Ag42  1  0.83580196  0.17592736  0.32654064  1
  Ag  Ag43  1  0.66811994  0.33458644  0.67396659  1
  Ag  Ag44  1  0.67775775  0.33624857  -0.00860999  1
  Ag  Ag45  1  0.16685438  0.66976644  0.49833922  1
  Ag  Ag46  1  -0.00900633  0.17025300  0.83289368  1
  Ag  Ag47  1  0.33575408  0.83061317  0.83245208  1
  Ag  Ag48  1  0.33873093  0.33723450  0.33282268  1
  Ag  Ag49  1  0.66590309  0.00075297  0.67220202  1
  Ag  Ag50  1  0.15262643  0.17306299  0.33447965  1
  Ag  Ag51  1  0.83527269  0.48843350  -0.00160541  1
  Ag  Ag52  1  -0.00200119  0.83148261  0.16686568  1
  Ag  Ag53  1  0.50766434  0.50612883  0.67325192  1
  Sb  Sb54  1  0.33943284  -0.00398499  -0.00636653  1
  Sb  Sb55  1  0.33399388  0.50093258  0.50297835  1
  Sb  Sb56  1  0.15965448  0.33525664  0.49598140  1
  Sb  Sb57  1  -0.00783745  0.33275272  0.32750252  1
  Sb  Sb58  1  0.33555794  0.33676349  0.00295892  1
  Sb  Sb59  1  0.16335936  0.33528749  0.83425065  1
  Sb  Sb60  1  0.67417352  0.16759653  0.16113356  1
  Sb  Sb61  1  0.66286203  0.84062134  0.82918711  1
  Sb  Sb62  1  0.16559199  0.16445421  0.66276578  1
  Sb  Sb63  1  0.66824167  0.49171034  0.83352713  1
  Sb  Sb64  1  0.32539512  0.16168117  0.16794955  1
  Sb  Sb65  1  0.83235871  0.66231299  0.83359536  1
  Sb  Sb66  1  0.50459014  0.82754138  -0.00244227  1
  Sb  Sb67  1  0.50125418  0.66330583  0.82955315  1
  Sb  Sb68  1  0.16495020  -0.00065450  0.83026242  1
  Sb  Sb69  1  0.51025660  0.17231067  -0.00607737  1
  Sb  Sb70  1  0.66472253  0.66363667  0.33407075  1
  Sb  Sb71  1  0.16550832  0.83099331  0.33163061  1
  Sb  Sb72  1  0.33347063  -0.00012582  0.33744435  1
  Sb  Sb73  1  0.50542852  0.17026188  0.33793652  1
  Sb  Sb74  1  0.15792105  -0.00564743  0.17031006  1
  Sb  Sb75  1  0.15927671  0.33973489  0.16815460  1
  Sb  Sb76  1  0.83222247  0.66553234  0.50176216  1
  Sb  Sb77  1  0.33591191  0.16723270  0.83176225  1
  Sb  Sb78  1  0.16656050  0.66606147  0.83459364  1
  Sb  Sb79  1  0.16959018  0.83250816  0.66863234  1
  Sb  Sb80  1  -0.00234555  0.00153372  0.33822419  1
  Sb  Sb81  1  0.67033211  0.00184812  0.33440445  1
  Sb  Sb82  1  0.33011783  0.50449753  0.16374967  1
  Sb  Sb83  1  0.83713067  0.00222706  0.50338326  1
  Sb  Sb84  1  -0.00454477  0.66239935  -0.00230578  1
  Sb  Sb85  1  0.82948348  0.17055150  0.67255025  1
  Sb  Sb86  1  -0.00000364  0.66628024  0.33564042  1
  Sb  Sb87  1  0.50593937  -0.00623622  0.16180296  1
  Sb  Sb88  1  0.67308402  0.16434812  0.50636974  1
  Sb  Sb89  1  0.49886888  -0.00595855  0.50815159  1
  Sb  Sb90  1  0.66741017  0.50414925  0.50215154  1
  Sb  Sb91  1  0.33694119  0.66583016  -0.00296176  1
  Sb  Sb92  1  0.33346438  0.83155295  0.50169749  1
  Sb  Sb93  1  0.67197909  0.83128660  0.16843266  1
  Sb  Sb94  1  -0.00275435  0.50021628  0.50000459  1
  Sb  Sb95  1  0.50827028  0.33919679  0.50382687  1
  Sb  Sb96  1  0.67305025  0.50046661  0.16427051  1
  Sb  Sb97  1  0.83505051  0.66434035  0.16489646  1
  Sb  Sb98  1  0.15392707  0.16768288  0.00519160  1
  Sb  Sb99  1  0.16484222  0.50318430  0.66702181  1
  Sb  Sb100  1  0.50689271  0.34014084  0.16380639  1
  Sb  Sb101  1  0.32772613  0.16587918  0.50103397  1
  Sb  Sb102  1  0.00054016  0.83351861  0.83318476  1
  Sb  Sb103  1  -0.00835639  0.00136619  -0.00406212  1
  Sb  Sb104  1  -0.00991742  0.33423568  0.67209531  1
  Sb  Sb105  1  0.82908558  0.83175713  0.66837599  1
  Sb  Sb106  1  0.34444053  0.33619414  0.66502842  1
  Sb  Sb107  1  0.33488235  0.66338754  0.33565346  1
  Te  Te108  1  0.15758866  0.16535310  0.17392195  1
  Te  Te109  1  0.15974266  0.16688558  0.49488035  1
  Te  Te110  1  0.15935172  0.16702124  0.83496491  1
  Te  Te111  1  0.16368029  0.50496290  0.16618199  1
  Te  Te112  1  0.16562049  0.50498490  0.49416058  1
  Te  Te113  1  0.16485376  0.49999433  0.83828615  1
  Te  Te114  1  0.16290786  0.82938854  0.16534990  1
  Te  Te115  1  0.16202992  0.83095722  0.49876456  1
  Te  Te116  1  0.17233332  0.83343985  0.84129463  1
  Te  Te117  1  0.49668886  0.16485359  0.16665253  1
  Te  Te118  1  0.50010205  0.16747692  0.50677257  1
  Te  Te119  1  0.50111475  0.16784808  0.82925173  1
  Te  Te120  1  0.49766936  0.50412129  0.17141522  1
  Te  Te121  1  0.50030643  0.50672751  0.49545735  1
  Te  Te122  1  0.49920826  0.49814182  0.83263997  1
  Te  Te123  1  0.49811542  0.82954107  0.16659414  1
  Te  Te124  1  0.49987840  0.82953207  0.50038055  1
  Te  Te125  1  0.49505902  0.83668160  0.83041871  1
  Te  Te126  1  0.83530117  0.16725289  0.16609915  1
  Te  Te127  1  0.83789609  0.16815428  0.49486509  1
  Te  Te128  1  0.83345085  0.16763252  0.83342162  1
  Te  Te129  1  0.83865014  0.49901294  0.16687313  1
  Te  Te130  1  0.83372822  0.49628921  0.49316052  1
  Te  Te131  1  0.83587142  0.49691210  0.83531496  1
  Te  Te132  1  0.83706079  0.83101692  0.16793652  1
  Te  Te133  1  0.83554594  0.83373815  0.49812760  1
  Te  Te134  1  0.83458009  0.83804134  0.83795615  1
  Te  Te135  1  0.16865314  -0.00409949  0.00083584  1
  Te  Te136  1  0.16839402  0.00386219  0.33930845  1
  Te  Te137  1  0.15938832  -0.00029371  0.66224285  1
  Te  Te138  1  0.16535080  0.33902774  0.00138692  1
  Te  Te139  1  0.16964002  0.33580379  0.33369939  1
  Te  Te140  1  0.17122034  0.33360100  0.66460371  1
  Te  Te141  1  0.16708708  0.66551940  0.00329504  1
  Te  Te142  1  0.16766662  0.66278747  0.33396386  1
  Te  Te143  1  0.16205839  0.66647261  0.66253012  1
  Te  Te144  1  0.50821045  0.00172014  -0.00704414  1
  Te  Te145  1  0.50088181  -0.00432015  0.33236888  1
  Te  Te146  1  0.50297904  -0.00369995  0.66877084  1
  Te  Te147  1  0.50393615  0.34000542  -0.00383781  1
  Te  Te148  1  0.50474472  0.33679887  0.33357143  1
  Te  Te149  1  0.50722593  0.34206229  0.66944673  1
  Te  Te150  1  0.50450581  0.66139899  0.00304057  1
  Te  Te151  1  0.49957115  0.66648679  0.33357771  1
  Te  Te152  1  0.50177162  0.66676542  0.66629342  1
  Te  Te153  1  0.83187341  -0.00297549  -0.00082459  1
  Te  Te154  1  0.83227936  -0.00630630  0.32912934  1
  Te  Te155  1  0.83166659  0.00006707  0.67071195  1
  Te  Te156  1  0.83394799  0.33258527  0.00108641  1
  Te  Te157  1  0.83199314  0.33439454  0.33382651  1
  Te  Te158  1  0.82784421  0.33738229  0.66606135  1
  Te  Te159  1  0.82717393  0.67278886  0.00010728  1
  Te  Te160  1  0.83167132  0.66936993  0.33321188  1
  Te  Te161  1  0.83194884  0.66061929  0.66678632  1
  Te  Te162  1  -0.00582376  0.16940521  -0.00017095  1
  Te  Te163  1  -0.00389536  0.16688045  0.33214140  1
  Te  Te164  1  -0.00064422  0.16440757  0.66662497  1
  Te  Te165  1  -0.00336634  0.50136757  -0.00033400  1
  Te  Te166  1  -0.00106676  0.49959999  0.33026569  1
  Te  Te167  1  -0.00366877  0.50232632  0.66842245  1
  Te  Te168  1  -0.00032057  0.83145980  0.00148677  1
  Te  Te169  1  -0.00273905  0.83355933  0.33327743  1
  Te  Te170  1  -0.00072262  0.83286023  0.66512022  1
  Te  Te171  1  0.32994644  0.16627121  0.00076460  1
  Te  Te172  1  0.33485620  0.17169692  0.33304230  1
  Te  Te173  1  0.33919160  0.16336021  0.66711399  1
  Te  Te174  1  0.33739793  0.49996994  -0.00531388  1
  Te  Te175  1  0.33493775  0.49713568  0.33220928  1
  Te  Te176  1  0.33561915  0.50365014  0.67172202  1
  Te  Te177  1  0.33325168  0.83246387  -0.00081341  1
  Te  Te178  1  0.33742169  0.83300281  0.32848809  1
  Te  Te179  1  0.33574014  0.83175989  0.66845501  1
  Te  Te180  1  0.67294695  0.16884921  -0.00488123  1
  Te  Te181  1  0.67216291  0.17081451  0.33500087  1
  Te  Te182  1  0.66355720  0.16666584  0.67047114  1
  Te  Te183  1  0.66915514  0.49961758  -0.00039511  1
  Te  Te184  1  0.66834357  0.49681205  0.33354265  1
  Te  Te185  1  0.66788377  0.50182810  0.66652590  1
  Te  Te186  1  0.67100705  0.83368323  0.00024693  1
  Te  Te187  1  0.66631904  0.83350876  0.33819482  1
  Te  Te188  1  0.66431359  0.83125999  0.66350622  1
  Te  Te189  1  -0.00620485  -0.00189059  0.16551377  1
  Te  Te190  1  0.00173973  -0.00132610  0.50415613  1
  Te  Te191  1  -0.00237794  0.00219053  0.82772177  1
  Te  Te192  1  -0.00461450  0.33408353  0.16145130  1
  Te  Te193  1  -0.00687888  0.32818030  0.50317492  1
  Te  Te194  1  -0.00272316  0.33345632  0.83771644  1
  Te  Te195  1  0.00474455  0.66730554  0.16619676  1
  Te  Te196  1  0.00231868  0.66997716  0.50383978  1
  Te  Te197  1  0.00002972  0.66224502  0.82542378  1
  Te  Te198  1  0.33325396  -0.00763393  0.16644664  1
  Te  Te199  1  0.32587171  -0.00042303  0.50730741  1
  Te  Te200  1  0.33365247  -0.00137115  0.82663490  1
  Te  Te201  1  0.33431300  0.33164966  0.17250007  1
  Te  Te202  1  0.33404944  0.33297023  0.49323432  1
  Te  Te203  1  0.33615612  0.33795834  0.83313067  1
  Te  Te204  1  0.33286133  0.67146081  0.16624611  1
  Te  Te205  1  0.33248202  0.66693711  0.50640787  1
  Te  Te206  1  0.33318903  0.66664928  0.82803888  1
  Te  Te207  1  0.67358282  -0.00024509  0.16197572  1
  Te  Te208  1  0.66724865  -0.00556573  0.50579677  1
  Te  Te209  1  0.66761117  0.00261682  0.83166594  1
  Te  Te210  1  0.67315637  0.33352236  0.16870126  1
  Te  Te211  1  0.67293425  0.33214675  0.49930996  1
  Te  Te212  1  0.66699447  0.32957095  0.83384553  1
  Te  Te213  1  0.65815168  0.66654279  0.16253709  1
  Te  Te214  1  0.66308948  0.67315919  0.50379197  1
  Te  Te215  1  0.66683883  0.67131977  0.83278332  1
