# generated using pymatgen
data_AgSbTe2
_symmetry_space_group_name_H-M   'P 1'
_cell_length_a   18.33038608
_cell_length_b   18.32973546
_cell_length_c   18.34167733
_cell_angle_alpha   90.00142738
_cell_angle_beta   90.00238808
_cell_angle_gamma   90.00252889
_symmetry_Int_Tables_number   1
_chemical_formula_structural   AgSbTe2
_chemical_formula_sum   'Ag54 Sb54 Te108'
_cell_volume   6162.64083870
_cell_formula_units_Z   54
loop_
 _symmetry_equiv_pos_site_id
 _symmetry_equiv_pos_as_xyz
  1  'x, y, z'
loop_
 _atom_site_type_symbol
 _atom_site_label
 _atom_site_symmetry_multiplicity
 _atom_site_fract_x
 _atom_site_fract_y
 _atom_site_fract_z
 _atom_site_occupancy
  Ag  Ag0  1  0.83854919  0.15338889  0.33536305  1
  Ag  Ag1  1  0.83550112  -0.00210263  0.82350103  1
  Ag  Ag2  1  0.33097160  0.50930665  0.16069089  1
  Ag  Ag3  1  0.16374564  0.66855533  0.49520495  1
  Ag  Ag4  1  0.15525969  0.16134945  0.32893683  1
  Ag  Ag5  1  0.00455261  0.49915472  0.16336557  1
  Ag  Ag6  1  0.48952477  0.66513487  0.17115906  1
  Ag  Ag7  1  0.15763335  0.16656002  0.66749246  1
  Ag  Ag8  1  0.66215092  0.67538017  0.00357580  1
  Ag  Ag9  1  0.66490722  0.83154496  0.16871341  1
  Ag  Ag10  1  0.00258962  0.32176040  -0.00405431  1
  Ag  Ag11  1  -0.00388606  0.66819885  0.66026045  1
  Ag  Ag12  1  0.16533811  0.66631116  0.83234207  1
  Ag  Ag13  1  -0.00380938  0.00331576  0.66080661  1
  Ag  Ag14  1  0.51464293  0.82349712  0.66608584  1
  Ag  Ag15  1  0.66767050  0.32375871  0.33259477  1
  Ag  Ag16  1  0.67830818  -0.00496635  0.33309101  1
  Ag  Ag17  1  -0.00176176  0.15847245  0.49876741  1
  Ag  Ag18  1  0.17585323  0.67057850  0.16890386  1
  Ag  Ag19  1  0.33528912  0.66251402  0.01164916  1
  Ag  Ag20  1  0.00270981  0.49678903  0.83154222  1
  Ag  Ag21  1  0.33816072  0.82174040  0.16827273  1
  Ag  Ag22  1  0.49811819  0.33555980  0.16273966  1
  Ag  Ag23  1  0.33238770  0.33747825  -0.00239821  1
  Ag  Ag24  1  0.33086890  0.49931973  0.83714990  1
  Ag  Ag25  1  -0.00524661  0.00449235  0.00375750  1
  Ag  Ag26  1  0.33171617  0.33608965  0.67355675  1
  Ag  Ag27  1  0.50059892  0.66925069  0.49432815  1
  Ag  Ag28  1  0.83582152  0.50954304  0.66622979  1
  Ag  Ag29  1  0.82823454  0.83661955  0.00000014  1
  Ag  Ag30  1  0.00270551  0.67350357  0.33810287  1
  Ag  Ag31  1  0.67899636  -0.00912986  0.66544164  1
  Ag  Ag32  1  0.67416084  0.83349668  0.50747463  1
  Ag  Ag33  1  -0.00033116  0.32445064  0.67076700  1
  Ag  Ag34  1  -0.00822657  0.83821422  0.49985678  1
  Ag  Ag35  1  0.83611714  -0.00189840  0.50041214  1
  Ag  Ag36  1  0.67627457  -0.00787816  0.00253539  1
  Ag  Ag37  1  0.82991458  0.83644531  0.34088499  1
  Ag  Ag38  1  0.82938114  0.83597747  0.66095125  1
  Ag  Ag39  1  0.00362319  0.16522069  0.16690578  1
  Ag  Ag40  1  0.66939077  0.67898341  0.66459622  1
  Ag  Ag41  1  0.16456048  -0.00066460  0.17008634  1
  Ag  Ag42  1  -0.00421473  0.00272797  0.33572210  1
  Ag  Ag43  1  0.15793711  0.16517528  0.00245167  1
  Ag  Ag44  1  0.50345080  0.16580860  0.32957640  1
  Ag  Ag45  1  0.50270357  0.50580517  0.66899270  1
  Ag  Ag46  1  0.33225722  0.67248518  0.32395518  1
  Ag  Ag47  1  0.00075847  0.16901125  0.83020928  1
  Ag  Ag48  1  0.83515552  0.32490437  0.50017519  1
  Ag  Ag49  1  0.33151996  -0.00469983  0.33005981  1
  Ag  Ag50  1  0.66639318  0.67696430  0.33364991  1
  Ag  Ag51  1  0.49742730  0.33289340  0.83643326  1
  Ag  Ag52  1  0.49695534  0.16900446  0.00700125  1
  Ag  Ag53  1  0.66944160  0.83364445  0.82048552  1
  Sb  Sb54  1  0.15806073  -0.00284559  0.49389759  1
  Sb  Sb55  1  0.83697196  0.50481805  -0.00540427  1
  Sb  Sb56  1  0.66496621  0.33205166  0.00419022  1
  Sb  Sb57  1  0.49757852  -0.00187042  0.16877519  1
  Sb  Sb58  1  0.16525328  0.50080807  0.33107554  1
  Sb  Sb59  1  -0.00711976  0.83409625  0.82896409  1
  Sb  Sb60  1  0.16171756  0.83504037  0.33234343  1
  Sb  Sb61  1  0.66852735  0.51054934  0.50090834  1
  Sb  Sb62  1  0.83398077  0.66849092  0.16778859  1
  Sb  Sb63  1  0.83662858  0.67295779  0.82983858  1
  Sb  Sb64  1  0.50496813  0.33685403  0.49937342  1
  Sb  Sb65  1  0.50794316  -0.00539023  0.49772775  1
  Sb  Sb66  1  0.33813834  0.33420649  0.32976632  1
  Sb  Sb67  1  0.16099785  0.83540351  0.66596606  1
  Sb  Sb68  1  0.83947418  0.15953680  0.66050902  1
  Sb  Sb69  1  0.66842355  0.16001950  0.16927900  1
  Sb  Sb70  1  0.83845880  -0.00121874  0.17077572  1
  Sb  Sb71  1  0.67228281  0.16066947  0.83414177  1
  Sb  Sb72  1  0.83181353  0.33291984  0.17047069  1
  Sb  Sb73  1  0.33919863  0.82722828  0.83847683  1
  Sb  Sb74  1  0.83538722  0.32836700  0.82848388  1
  Sb  Sb75  1  -0.00465903  0.32791231  0.33347083  1
  Sb  Sb76  1  0.15777058  -0.00143641  0.83701723  1
  Sb  Sb77  1  0.66768559  0.50496745  0.83147338  1
  Sb  Sb78  1  0.32590004  0.16726869  0.49718337  1
  Sb  Sb79  1  0.50870521  0.83393849  0.33522416  1
  Sb  Sb80  1  0.50834716  0.83482900  -0.00129539  1
  Sb  Sb81  1  0.66982200  0.33253907  0.66269555  1
  Sb  Sb82  1  0.16361171  0.49899444  0.66903001  1
  Sb  Sb83  1  0.50040284  0.50241485  0.33409576  1
  Sb  Sb84  1  0.33033856  0.00261566  0.66100396  1
  Sb  Sb85  1  0.16047022  0.33487272  0.50206132  1
  Sb  Sb86  1  0.32730027  0.17185092  0.83490166  1
  Sb  Sb87  1  0.16768264  0.33614122  0.83407122  1
  Sb  Sb88  1  0.16835365  0.33173840  0.16538792  1
  Sb  Sb89  1  -0.00204218  0.83476838  0.17160417  1
  Sb  Sb90  1  0.83740130  0.16047471  0.00509096  1
  Sb  Sb91  1  0.83508647  0.50367535  0.33874476  1
  Sb  Sb92  1  0.33456126  0.83145749  0.49389325  1
  Sb  Sb93  1  0.50751741  0.00402833  0.83395426  1
  Sb  Sb94  1  0.33360403  0.66309440  0.66626502  1
  Sb  Sb95  1  0.49837226  0.66237046  0.83403641  1
  Sb  Sb96  1  0.83380486  0.67387381  0.50168765  1
  Sb  Sb97  1  0.49753387  0.49770143  -0.00233335  1
  Sb  Sb98  1  0.49746266  0.16829688  0.66490530  1
  Sb  Sb99  1  0.16776838  0.49821651  -0.00017188  1
  Sb  Sb100  1  0.33392949  0.50185957  0.50105832  1
  Sb  Sb101  1  0.00161432  0.66927548  0.00113490  1
  Sb  Sb102  1  0.66492896  0.50651248  0.16733874  1
  Sb  Sb103  1  0.33170230  -0.00083887  0.00488157  1
  Sb  Sb104  1  0.33014901  0.16739229  0.16700094  1
  Sb  Sb105  1  -0.00300504  0.50346492  0.50292619  1
  Sb  Sb106  1  0.67281514  0.15987799  0.49728884  1
  Sb  Sb107  1  0.16179993  0.83586295  0.00249330  1
  Te  Te108  1  0.16394255  0.16542585  0.16702892  1
  Te  Te109  1  0.15921292  0.16678304  0.50037477  1
  Te  Te110  1  0.16050511  0.16570773  0.83438312  1
  Te  Te111  1  0.16623113  0.50379878  0.16640211  1
  Te  Te112  1  0.16583208  0.50891579  0.49940599  1
  Te  Te113  1  0.16562975  0.50646931  0.83385267  1
  Te  Te114  1  0.17036164  0.83340008  0.16633416  1
  Te  Te115  1  0.16370235  0.82685268  0.49981666  1
  Te  Te116  1  0.16922677  0.82598536  0.83416462  1
  Te  Te117  1  0.50068936  0.16902715  0.16779174  1
  Te  Te118  1  0.49837027  0.16723847  0.49483256  1
  Te  Te119  1  0.49969839  0.17213502  0.83424900  1
  Te  Te120  1  0.49726073  0.50154372  0.16662550  1
  Te  Te121  1  0.50092145  0.50628706  0.50737850  1
  Te  Te122  1  0.49802144  0.49492309  0.82950498  1
  Te  Te123  1  0.49936723  0.82852838  0.16613066  1
  Te  Te124  1  0.50140343  0.82776543  0.50543296  1
  Te  Te125  1  0.50661449  0.83462889  0.82816177  1
  Te  Te126  1  0.83962840  0.16855817  0.17558895  1
  Te  Te127  1  0.83836651  0.16371906  0.49495417  1
  Te  Te128  1  0.83992428  0.16022695  0.83666327  1
  Te  Te129  1  0.84172454  0.49966414  0.16502088  1
  Te  Te130  1  0.83275662  0.48982770  0.50685936  1
  Te  Te131  1  0.83897345  0.49750782  0.82708105  1
  Te  Te132  1  0.82864566  0.83256947  0.16495471  1
  Te  Te133  1  0.83383858  0.83514329  0.50040828  1
  Te  Te134  1  0.82876263  0.83837702  0.83318324  1
  Te  Te135  1  0.16305794  0.00463029  0.00416732  1
  Te  Te136  1  0.16407174  0.00229868  0.33060043  1
  Te  Te137  1  0.16165156  0.00472029  0.66701078  1
  Te  Te138  1  0.16480830  0.32575622  0.00021567  1
  Te  Te139  1  0.16826926  0.32429465  0.33486597  1
  Te  Te140  1  0.16339327  0.32942053  0.66658674  1
  Te  Te141  1  0.17019707  0.66830561  0.00455441  1
  Te  Te142  1  0.16466656  0.66715002  0.33105226  1
  Te  Te143  1  0.16389747  0.66753020  0.66613795  1
  Te  Te144  1  0.50141696  0.00735863  0.00045020  1
  Te  Te145  1  0.49616346  0.00467112  0.33321874  1
  Te  Te146  1  0.49967356  -0.00150010  0.66573060  1
  Te  Te147  1  0.50008775  0.33068162  0.00113561  1
  Te  Te148  1  0.50424611  0.33149272  0.33129598  1
  Te  Te149  1  0.50004021  0.33572945  0.66776177  1
  Te  Te150  1  0.49989624  0.66687880  0.00280724  1
  Te  Te151  1  0.50254733  0.66724813  0.33286948  1
  Te  Te152  1  0.50058112  0.66519309  0.66775395  1
  Te  Te153  1  0.83382795  -0.00298948  0.00322413  1
  Te  Te154  1  0.83497207  -0.00281644  0.33468014  1
  Te  Te155  1  0.83635954  -0.00179041  0.66439479  1
  Te  Te156  1  0.83745620  0.33431339  -0.00094080  1
  Te  Te157  1  0.82759215  0.33628777  0.33796794  1
  Te  Te158  1  0.83698433  0.33318598  0.66332725  1
  Te  Te159  1  0.82874571  0.67318837  -0.00220901  1
  Te  Te160  1  0.83209813  0.67075258  0.33474432  1
  Te  Te161  1  0.83286617  0.66907123  0.66686888  1
  Te  Te162  1  -0.00113130  0.16479166  0.00355813  1
  Te  Te163  1  -0.00173184  0.16668717  0.33329150  1
  Te  Te164  1  -0.00039530  0.16558662  0.66688273  1
  Te  Te165  1  0.00039985  0.49907531  -0.00162083  1
  Te  Te166  1  -0.00042569  0.50419010  0.32900617  1
  Te  Te167  1  -0.00152794  0.50542107  0.66901676  1
  Te  Te168  1  -0.00670774  0.83934224  -0.00018043  1
  Te  Te169  1  -0.00521084  0.83311118  0.33575011  1
  Te  Te170  1  -0.00331107  0.83112094  0.66317933  1
  Te  Te171  1  0.33588463  0.16956058  -0.00011977  1
  Te  Te172  1  0.33729543  0.16534679  0.33343943  1
  Te  Te173  1  0.32739634  0.17236799  0.66595401  1
  Te  Te174  1  0.33295421  0.49875803  -0.00087237  1
  Te  Te175  1  0.33310930  0.50417095  0.32799581  1
  Te  Te176  1  0.33476344  0.49580631  0.66996223  1
  Te  Te177  1  0.33441724  0.82905263  0.00564151  1
  Te  Te178  1  0.33498168  0.83271242  0.32876902  1
  Te  Te179  1  0.33443363  0.83485273  0.66739709  1
  Te  Te180  1  0.66342607  0.16252460  0.00135898  1
  Te  Te181  1  0.66645961  0.16284045  0.33287106  1
  Te  Te182  1  0.66545804  0.15889774  0.66644994  1
  Te  Te183  1  0.66826525  0.50791647  -0.00065453  1
  Te  Te184  1  0.66772171  0.50329907  0.33278861  1
  Te  Te185  1  0.66821407  0.50175417  0.66771769  1
  Te  Te186  1  0.66719154  0.83432991  0.00741567  1
  Te  Te187  1  0.66809625  0.83472021  0.33074003  1
  Te  Te188  1  0.66919182  0.83506271  0.66392934  1
  Te  Te189  1  0.00453801  0.00059380  0.16867247  1
  Te  Te190  1  -0.00230617  -0.00082685  0.49910670  1
  Te  Te191  1  -0.00332006  0.00137054  0.83350742  1
  Te  Te192  1  0.00001154  0.33384054  0.16393815  1
  Te  Te193  1  -0.00336411  0.33259406  0.50343909  1
  Te  Te194  1  0.00034723  0.33328817  0.83261955  1
  Te  Te195  1  0.00192131  0.66537232  0.16822062  1
  Te  Te196  1  0.00041540  0.66810698  0.49941541  1
  Te  Te197  1  0.00348754  0.66388852  0.83302216  1
  Te  Te198  1  0.32809265  -0.00105432  0.17128386  1
  Te  Te199  1  0.33225533  -0.00082660  0.49134194  1
  Te  Te200  1  0.33232620  -0.00212504  0.83246745  1
  Te  Te201  1  0.33750206  0.33637627  0.16252930  1
  Te  Te202  1  0.33356917  0.33515571  0.50563321  1
  Te  Te203  1  0.33450127  0.33735300  0.83533346  1
  Te  Te204  1  0.33288254  0.66492377  0.16784003  1
  Te  Te205  1  0.33513645  0.66636383  0.49543725  1
  Te  Te206  1  0.32958584  0.66063138  0.83468877  1
  Te  Te207  1  0.66471899  -0.00523286  0.16781602  1
  Te  Te208  1  0.67198129  -0.00569095  0.49733777  1
  Te  Te209  1  0.67219431  -0.00415970  0.83462112  1
  Te  Te210  1  0.66129870  0.33556342  0.17071343  1
  Te  Te211  1  0.67119133  0.33157532  0.49449485  1
  Te  Te212  1  0.66167952  0.33258625  0.83377223  1
  Te  Te213  1  0.66675586  0.66874752  0.16854137  1
  Te  Te214  1  0.66431092  0.67296852  0.50096586  1
  Te  Te215  1  0.66674867  0.67149907  0.83089205  1
