# generated using pymatgen
data_AgSbTe2
_symmetry_space_group_name_H-M   'P 1'
_cell_length_a   18.33842735
_cell_length_b   18.33006453
_cell_length_c   18.33225258
_cell_angle_alpha   90.00057663
_cell_angle_beta   90.00177113
_cell_angle_gamma   90.00149564
_symmetry_Int_Tables_number   1
_chemical_formula_structural   AgSbTe2
_chemical_formula_sum   'Ag54 Sb54 Te108'
_cell_volume   6162.28691086
_cell_formula_units_Z   54
loop_
 _symmetry_equiv_pos_site_id
 _symmetry_equiv_pos_as_xyz
  1  'x, y, z'
loop_
 _atom_site_type_symbol
 _atom_site_label
 _atom_site_symmetry_multiplicity
 _atom_site_fract_x
 _atom_site_fract_y
 _atom_site_fract_z
 _atom_site_occupancy
  Ag  Ag0  1  0.66959268  -0.00078452  0.66768933  1
  Ag  Ag1  1  0.33960177  0.16874641  0.16557356  1
  Ag  Ag2  1  0.66991835  0.67612357  0.65762051  1
  Ag  Ag3  1  0.66879906  0.00057259  0.33447579  1
  Ag  Ag4  1  0.33603241  0.49215962  0.16678670  1
  Ag  Ag5  1  0.15418990  0.83699757  0.00253754  1
  Ag  Ag6  1  0.66881019  0.16039837  0.49613921  1
  Ag  Ag7  1  0.50845204  0.33173935  0.16637532  1
  Ag  Ag8  1  0.83705915  0.32268222  0.84135852  1
  Ag  Ag9  1  0.50082805  0.83652004  0.33156875  1
  Ag  Ag10  1  0.51034613  -0.00127279  0.49554006  1
  Ag  Ag11  1  -0.00035695  0.50101773  0.49741266  1
  Ag  Ag12  1  0.15134075  -0.00130398  0.83740708  1
  Ag  Ag13  1  0.83367431  0.00351484  0.83642444  1
  Ag  Ag14  1  0.83836552  0.83504489  0.67124674  1
  Ag  Ag15  1  0.50258674  0.50479477  0.33027197  1
  Ag  Ag16  1  0.50502392  0.16108058  0.00170370  1
  Ag  Ag17  1  0.50694370  0.00241102  0.84533089  1
  Ag  Ag18  1  0.66479348  0.16981071  0.16116500  1
  Ag  Ag19  1  0.83710511  0.48910275  -0.00054602  1
  Ag  Ag20  1  0.15404860  0.50063314  0.00156420  1
  Ag  Ag21  1  0.83262229  0.33513910  0.16004402  1
  Ag  Ag22  1  0.15996485  0.66891001  0.49752296  1
  Ag  Ag23  1  0.00125844  0.83775145  0.49308497  1
  Ag  Ag24  1  -0.00231736  0.16249330  0.49482743  1
  Ag  Ag25  1  0.50486527  0.84284984  0.00539116  1
  Ag  Ag26  1  -0.00118284  0.84313502  0.84325283  1
  Ag  Ag27  1  0.33412748  0.16142237  0.84396988  1
  Ag  Ag28  1  -0.00112143  0.83631141  0.16615210  1
  Ag  Ag29  1  0.15845202  0.33425172  0.16745928  1
  Ag  Ag30  1  0.33345326  0.16310810  0.49295867  1
  Ag  Ag31  1  0.83012677  0.00129521  0.50010443  1
  Ag  Ag32  1  -0.00277392  -0.00207885  0.33428627  1
  Ag  Ag33  1  0.83383589  0.16353500  0.33543896  1
  Ag  Ag34  1  -0.00427319  0.67616220  0.33474936  1
  Ag  Ag35  1  0.50311209  0.67794945  0.49458208  1
  Ag  Ag36  1  -0.00671336  0.15996528  0.83870590  1
  Ag  Ag37  1  0.67033272  0.67401830  0.33484049  1
  Ag  Ag38  1  0.67591813  0.32240660  0.00642682  1
  Ag  Ag39  1  0.33749547  0.00091381  0.33161865  1
  Ag  Ag40  1  -0.00564027  0.32789706  0.00488552  1
  Ag  Ag41  1  0.34331520  0.00209952  0.00060718  1
  Ag  Ag42  1  -0.00045354  0.33162309  0.32811468  1
  Ag  Ag43  1  0.66457524  0.00475499  -0.00401233  1
  Ag  Ag44  1  0.83379641  0.66333139  0.16686079  1
  Ag  Ag45  1  -0.00465136  0.49803480  0.84037356  1
  Ag  Ag46  1  0.15412430  0.83479915  0.33278674  1
  Ag  Ag47  1  0.67342651  0.16092346  0.84432685  1
  Ag  Ag48  1  0.83771082  0.83882983  -0.00268081  1
  Ag  Ag49  1  0.15874201  0.33358185  0.49426159  1
  Ag  Ag50  1  0.66911071  0.49002362  0.16687538  1
  Ag  Ag51  1  -0.00301223  -0.00174036  -0.00701760  1
  Ag  Ag52  1  0.15591636  0.83539500  0.65811692  1
  Ag  Ag53  1  0.83500089  0.50496725  0.67203290  1
  Sb  Sb54  1  0.83401911  0.67154161  0.49564937  1
  Sb  Sb55  1  0.83868981  0.32790899  0.49893859  1
  Sb  Sb56  1  -0.00216826  0.67030666  0.00524854  1
  Sb  Sb57  1  0.83333150  0.00274674  0.16488657  1
  Sb  Sb58  1  0.32611294  0.84390966  0.83687230  1
  Sb  Sb59  1  0.33169966  0.33133773  0.66560177  1
  Sb  Sb60  1  0.16701166  0.50240670  0.32916943  1
  Sb  Sb61  1  -0.00683725  -0.00340153  0.66718233  1
  Sb  Sb62  1  0.50635463  0.32537802  0.84362982  1
  Sb  Sb63  1  0.32946475  0.83954086  0.49796584  1
  Sb  Sb64  1  0.16105608  0.66488345  0.17046479  1
  Sb  Sb65  1  0.67106381  0.32786257  0.67101891  1
  Sb  Sb66  1  0.32979205  0.32565987  0.00410161  1
  Sb  Sb67  1  0.16171400  0.16154302  0.33284480  1
  Sb  Sb68  1  0.16279891  0.67457625  0.83017064  1
  Sb  Sb69  1  0.32887589  0.49532407  0.49321901  1
  Sb  Sb70  1  0.67380579  0.49392284  0.83881618  1
  Sb  Sb71  1  0.15762729  0.32679714  0.83715432  1
  Sb  Sb72  1  -0.00343966  0.49967601  0.16666305  1
  Sb  Sb73  1  0.67451310  0.84260499  0.83392433  1
  Sb  Sb74  1  0.16479274  0.16017308  0.66614861  1
  Sb  Sb75  1  0.15850529  0.50523789  0.66924339  1
  Sb  Sb76  1  0.50331335  0.49829341  0.00604197  1
  Sb  Sb77  1  0.50109878  0.00388243  0.16615240  1
  Sb  Sb78  1  0.83303329  0.16179450  0.66544954  1
  Sb  Sb79  1  0.50684771  0.66285883  0.17286519  1
  Sb  Sb80  1  0.67232587  0.32787958  0.32688945  1
  Sb  Sb81  1  0.32700557  0.49063653  0.84261981  1
  Sb  Sb82  1  -0.00255690  0.33398178  0.66704705  1
  Sb  Sb83  1  -0.00631515  0.67045636  0.66005808  1
  Sb  Sb84  1  0.82854538  0.16600682  0.00227037  1
  Sb  Sb85  1  0.50482014  0.16237608  0.32802935  1
  Sb  Sb86  1  0.33578119  0.66819878  0.66267635  1
  Sb  Sb87  1  0.50206316  0.16465278  0.67024159  1
  Sb  Sb88  1  0.67126820  0.83693049  0.16709130  1
  Sb  Sb89  1  0.50347026  0.67634321  0.82995025  1
  Sb  Sb90  1  0.32809460  0.32625754  0.32855161  1
  Sb  Sb91  1  0.83428780  0.66979326  0.83614508  1
  Sb  Sb92  1  0.33355122  0.67239307  0.33229402  1
  Sb  Sb93  1  0.33233951  0.67374466  0.00207193  1
  Sb  Sb94  1  0.16243335  -0.00118378  0.50215346  1
  Sb  Sb95  1  0.50976995  0.50359402  0.66085125  1
  Sb  Sb96  1  0.33762868  0.00046191  0.66735387  1
  Sb  Sb97  1  0.32986706  0.83690938  0.16736078  1
  Sb  Sb98  1  0.66925478  0.66916385  0.00261390  1
  Sb  Sb99  1  -0.00373632  0.16585331  0.16591281  1
  Sb  Sb100  1  0.83221043  0.49793500  0.33031487  1
  Sb  Sb101  1  0.50408672  0.83753456  0.66485272  1
  Sb  Sb102  1  0.67232977  0.49773932  0.49422479  1
  Sb  Sb103  1  0.16850631  0.16233413  0.00129297  1
  Sb  Sb104  1  0.16526550  0.00341896  0.16302705  1
  Sb  Sb105  1  0.67271298  0.84065492  0.49867233  1
  Sb  Sb106  1  0.49799037  0.32769183  0.49072936  1
  Sb  Sb107  1  0.83576098  0.83893271  0.33146574  1
  Te  Te108  1  0.17289532  0.17411425  0.16746749  1
  Te  Te109  1  0.16372873  0.16949269  0.49989584  1
  Te  Te110  1  0.16538281  0.16017959  0.83334522  1
  Te  Te111  1  0.16801279  0.49694200  0.16208072  1
  Te  Te112  1  0.16195945  0.50066538  0.50040035  1
  Te  Te113  1  0.16120624  0.49893186  0.83893959  1
  Te  Te114  1  0.16264672  0.83295481  0.16765157  1
  Te  Te115  1  0.16337720  0.83208311  0.49688682  1
  Te  Te116  1  0.16016601  0.83772814  0.84089712  1
  Te  Te117  1  0.50087061  0.17038493  0.16370864  1
  Te  Te118  1  0.49969783  0.16288874  0.49880024  1
  Te  Te119  1  0.50168007  0.16262408  0.83710201  1
  Te  Te120  1  0.50299356  0.49631566  0.16912046  1
  Te  Te121  1  0.49927319  0.49828694  0.49350281  1
  Te  Te122  1  0.49772663  0.49984921  0.83265656  1
  Te  Te123  1  0.49853973  0.83055989  0.16730904  1
  Te  Te124  1  0.49880708  0.83619313  0.49740010  1
  Te  Te125  1  0.49787732  0.84102318  0.83430087  1
  Te  Te126  1  0.82955223  0.17160461  0.17402087  1
  Te  Te127  1  0.83564494  0.16275673  0.49922094  1
  Te  Te128  1  0.83328876  0.16468248  0.83050133  1
  Te  Te129  1  0.83130890  0.49754454  0.16345971  1
  Te  Te130  1  0.83950034  0.49968464  0.50180046  1
  Te  Te131  1  0.83652593  0.50306208  0.83774244  1
  Te  Te132  1  0.83769622  0.83170683  0.16183657  1
  Te  Te133  1  0.83943354  0.83856619  0.50293436  1
  Te  Te134  1  0.83920777  0.83566392  0.83449482  1
  Te  Te135  1  0.15896547  -0.00338444  -0.00199920  1
  Te  Te136  1  0.16278786  -0.00532931  0.33361886  1
  Te  Te137  1  0.16953697  -0.00720509  0.67395258  1
  Te  Te138  1  0.16138420  0.33669202  0.00234175  1
  Te  Te139  1  0.16116977  0.33401869  0.33279267  1
  Te  Te140  1  0.16565034  0.33538159  0.66040189  1
  Te  Te141  1  0.16744362  0.66844272  -0.00013800  1
  Te  Te142  1  0.16387760  0.67151566  0.33778198  1
  Te  Te143  1  0.16781913  0.67354317  0.65959029  1
  Te  Te144  1  0.50202558  0.00059758  0.00288371  1
  Te  Te145  1  0.50133599  -0.00133238  0.33459766  1
  Te  Te146  1  0.50771954  -0.00051711  0.65744131  1
  Te  Te147  1  0.50291341  0.33050385  0.00699554  1
  Te  Te148  1  0.49956102  0.33748148  0.32630952  1
  Te  Te149  1  0.50100309  0.33589751  0.66670070  1
  Te  Te150  1  0.50050076  0.67447216  -0.00125398  1
  Te  Te151  1  0.50097571  0.66945734  0.33654269  1
  Te  Te152  1  0.50788529  0.66937691  0.65790882  1
  Te  Te153  1  0.83522555  -0.00085801  -0.00055089  1
  Te  Te154  1  0.83418357  0.00202994  0.33317876  1
  Te  Te155  1  0.82787287  -0.00377241  0.66661112  1
  Te  Te156  1  0.83547019  0.33049399  -0.00016150  1
  Te  Te157  1  0.83948795  0.32951603  0.33151365  1
  Te  Te158  1  0.83300611  0.34160836  0.67431527  1
  Te  Te159  1  0.83185404  0.67116421  0.00609475  1
  Te  Te160  1  0.83225365  0.66661295  0.32939526  1
  Te  Te161  1  0.82796846  0.66893722  0.66559585  1
  Te  Te162  1  0.00168598  0.16485846  -0.00162117  1
  Te  Te163  1  -0.00281655  0.16437001  0.33338384  1
  Te  Te164  1  0.00025900  0.16678995  0.66464404  1
  Te  Te165  1  -0.00320922  0.50288530  0.00123082  1
  Te  Te166  1  0.00056189  0.49656629  0.33657656  1
  Te  Te167  1  -0.00527084  0.50196067  0.66417160  1
  Te  Te168  1  -0.00206238  0.83323682  0.00156461  1
  Te  Te169  1  -0.00314478  0.83563728  0.33311131  1
  Te  Te170  1  -0.00144115  0.83169867  0.66548628  1
  Te  Te171  1  0.33531661  0.16130563  0.00243994  1
  Te  Te172  1  0.33340346  0.15998084  0.33208435  1
  Te  Te173  1  0.33357845  0.16655098  0.66186978  1
  Te  Te174  1  0.33303797  0.49989967  0.00604676  1
  Te  Te175  1  0.33816820  0.49994007  0.32777540  1
  Te  Te176  1  0.33387365  0.49997244  0.66824953  1
  Te  Te177  1  0.33691481  0.84128530  0.00155550  1
  Te  Te178  1  0.33917355  0.84078898  0.33250611  1
  Te  Te179  1  0.32484186  0.83276320  0.66800558  1
  Te  Te180  1  0.66528815  0.16472866  0.00101319  1
  Te  Te181  1  0.66932167  0.16283266  0.33575532  1
  Te  Te182  1  0.66687992  0.16058262  0.66067707  1
  Te  Te183  1  0.67131763  0.50007174  0.00595635  1
  Te  Te184  1  0.66377725  0.50076710  0.32882698  1
  Te  Te185  1  0.67450925  0.50069056  0.66636298  1
  Te  Te186  1  0.66582144  0.83798720  0.00027216  1
  Te  Te187  1  0.66397524  0.83413516  0.33293306  1
  Te  Te188  1  0.67171899  0.83520567  0.66675251  1
  Te  Te189  1  0.00037642  -0.00238905  0.16978199  1
  Te  Te190  1  -0.00185816  0.00039512  0.49960727  1
  Te  Te191  1  -0.00467959  0.00069778  0.83178726  1
  Te  Te192  1  -0.00129179  0.33319146  0.16516862  1
  Te  Te193  1  0.00123936  0.32892790  0.49815768  1
  Te  Te194  1  -0.00343680  0.33396068  0.83650199  1
  Te  Te195  1  -0.00404263  0.67038137  0.17410190  1
  Te  Te196  1  0.00065552  0.66813403  0.49463462  1
  Te  Te197  1  0.00042082  0.65964911  0.83138012  1
  Te  Te198  1  0.33170177  0.00430378  0.16644892  1
  Te  Te199  1  0.33242366  0.00464940  0.49809963  1
  Te  Te200  1  0.34309579  0.00560948  0.83486980  1
  Te  Te201  1  0.33122226  0.33139185  0.16596860  1
  Te  Te202  1  0.32733548  0.32607366  0.49775655  1
  Te  Te203  1  0.33296038  0.32206245  0.83394320  1
  Te  Te204  1  0.33366973  0.65841635  0.16682158  1
  Te  Te205  1  0.33598999  0.66461327  0.49850267  1
  Te  Te206  1  0.33356964  0.66252812  0.83239289  1
  Te  Te207  1  0.66788192  0.00475288  0.17010470  1
  Te  Te208  1  0.66924130  0.00078371  0.49581154  1
  Te  Te209  1  0.66827120  0.00242647  0.83608285  1
  Te  Te210  1  0.67009649  0.33094188  0.16575150  1
  Te  Te211  1  0.66677128  0.32543349  0.50022036  1
  Te  Te212  1  0.67292397  0.32641639  0.83995487  1
  Te  Te213  1  0.67234592  0.66708841  0.17104439  1
  Te  Te214  1  0.66480453  0.66435014  0.49595949  1
  Te  Te215  1  0.66581694  0.66437801  0.82679749  1
