# generated using pymatgen
data_AgSbTe2
_symmetry_space_group_name_H-M   'P 1'
_cell_length_a   18.32926036
_cell_length_b   18.31979638
_cell_length_c   18.32451683
_cell_angle_alpha   90.00121776
_cell_angle_beta   89.99921593
_cell_angle_gamma   90.00116518
_symmetry_Int_Tables_number   1
_chemical_formula_structural   AgSbTe2
_chemical_formula_sum   'Ag54 Sb54 Te108'
_cell_volume   6153.15867345
_cell_formula_units_Z   54
loop_
 _symmetry_equiv_pos_site_id
 _symmetry_equiv_pos_as_xyz
  1  'x, y, z'
loop_
 _atom_site_type_symbol
 _atom_site_label
 _atom_site_symmetry_multiplicity
 _atom_site_fract_x
 _atom_site_fract_y
 _atom_site_fract_z
 _atom_site_occupancy
  Ag  Ag0  1  0.33902800  0.83821942  0.16731665  1
  Ag  Ag1  1  0.32640008  0.15872967  0.16710071  1
  Ag  Ag2  1  0.00475907  0.16916042  0.16403597  1
  Ag  Ag3  1  0.16807059  0.00346923  0.82301494  1
  Ag  Ag4  1  0.50465958  0.83356864  0.00185512  1
  Ag  Ag5  1  0.83798747  -0.00708719  0.50267692  1
  Ag  Ag6  1  0.00094318  0.34266119  0.00325978  1
  Ag  Ag7  1  0.84419470  0.50547035  -0.00618216  1
  Ag  Ag8  1  -0.00253011  0.49440491  0.15616436  1
  Ag  Ag9  1  -0.00050256  0.00093962  -0.00149169  1
  Ag  Ag10  1  0.00074036  0.33733366  0.32513083  1
  Ag  Ag11  1  0.66803646  0.66644073  0.66321980  1
  Ag  Ag12  1  0.67049732  0.49970651  0.84137407  1
  Ag  Ag13  1  0.16332418  0.16694496  0.00117086  1
  Ag  Ag14  1  0.66208434  -0.00136231  0.32564970  1
  Ag  Ag15  1  0.33151252  -0.00565641  0.33127389  1
  Ag  Ag16  1  0.33065673  0.66391032  0.00468574  1
  Ag  Ag17  1  0.66613867  0.50339904  0.16262628  1
  Ag  Ag18  1  0.66280834  0.83950656  0.16611747  1
  Ag  Ag19  1  0.16146199  0.33928422  0.83498129  1
  Ag  Ag20  1  0.32641672  0.50101951  0.83598643  1
  Ag  Ag21  1  0.50182844  0.50797685  0.67134444  1
  Ag  Ag22  1  0.16145274  -0.00669844  0.50955116  1
  Ag  Ag23  1  0.33081718  0.66888671  0.33010722  1
  Ag  Ag24  1  0.00169068  0.50128340  0.50483321  1
  Ag  Ag25  1  0.16691197  0.84198307  0.66208113  1
  Ag  Ag26  1  0.82973748  0.83313187  -0.00227743  1
  Ag  Ag27  1  0.82886299  -0.00167489  0.16524511  1
  Ag  Ag28  1  0.50276190  0.34052394  0.16618586  1
  Ag  Ag29  1  0.32054739  -0.00297908  0.66487848  1
  Ag  Ag30  1  0.16270109  0.15328910  0.66836957  1
  Ag  Ag31  1  0.83308681  0.67038057  0.50441583  1
  Ag  Ag32  1  0.16657283  0.66973887  0.49927639  1
  Ag  Ag33  1  0.16590476  0.50018773  0.33430693  1
  Ag  Ag34  1  0.16076202  0.50171752  0.67384679  1
  Ag  Ag35  1  0.50079110  0.66750242  0.50271063  1
  Ag  Ag36  1  0.16619205  0.16438046  0.32862069  1
  Ag  Ag37  1  0.84183438  0.15430862  0.66706212  1
  Ag  Ag38  1  0.83174127  0.83275599  0.66666954  1
  Ag  Ag39  1  0.66923164  0.33533474  0.32980121  1
  Ag  Ag40  1  0.49668176  -0.00283773  0.83934481  1
  Ag  Ag41  1  0.66944681  0.83193955  0.49892066  1
  Ag  Ag42  1  0.50079583  0.50658396  0.00033902  1
  Ag  Ag43  1  0.17075705  0.83849184  0.33978199  1
  Ag  Ag44  1  0.83871212  0.50377054  0.67376404  1
  Ag  Ag45  1  0.00274016  0.65408355  0.00094341  1
  Ag  Ag46  1  0.00837371  0.00021948  0.67007197  1
  Ag  Ag47  1  0.84160438  0.33998963  0.83359820  1
  Ag  Ag48  1  0.67113517  -0.00482029  0.00595028  1
  Ag  Ag49  1  0.50199799  0.82989442  0.66872788  1
  Ag  Ag50  1  0.49689602  0.50173082  0.32519173  1
  Ag  Ag51  1  0.50447102  -0.00262627  0.16362572  1
  Ag  Ag52  1  0.00154943  0.49760245  0.83998437  1
  Ag  Ag53  1  0.15546201  0.49829248  -0.00613984  1
  Sb  Sb54  1  0.00295556  0.17080676  0.83824730  1
  Sb  Sb55  1  0.33033375  0.33515234  0.32911430  1
  Sb  Sb56  1  0.49892651  0.33721158  0.83798184  1
  Sb  Sb57  1  0.32737643  0.50330707  0.50273905  1
  Sb  Sb58  1  0.67088122  0.33495652  0.00427608  1
  Sb  Sb59  1  0.16381379  0.33535867  0.50228092  1
  Sb  Sb60  1  0.16621204  0.83198172  -0.00094100  1
  Sb  Sb61  1  0.33102328  0.33224959  0.66879088  1
  Sb  Sb62  1  0.66928611  -0.00756214  0.66756605  1
  Sb  Sb63  1  0.50316115  0.34551360  0.49422166  1
  Sb  Sb64  1  0.66836850  0.16323449  0.16704396  1
  Sb  Sb65  1  0.66592728  0.83025199  0.83433046  1
  Sb  Sb66  1  -0.00168448  0.66587048  0.66832811  1
  Sb  Sb67  1  0.00681074  0.66016878  0.33167804  1
  Sb  Sb68  1  0.67082371  0.50750422  0.49880991  1
  Sb  Sb69  1  0.33397095  0.50138900  0.16326759  1
  Sb  Sb70  1  0.50017919  -0.00819545  0.49914922  1
  Sb  Sb71  1  0.83363942  0.66008206  0.82927371  1
  Sb  Sb72  1  0.66745539  0.66745941  -0.00323440  1
  Sb  Sb73  1  0.00068258  0.83073845  0.83307622  1
  Sb  Sb74  1  0.49452481  0.16884398  0.33043448  1
  Sb  Sb75  1  -0.00119289  0.83054388  0.50069227  1
  Sb  Sb76  1  0.49366091  0.16435833  0.00327096  1
  Sb  Sb77  1  0.83510638  0.33534701  0.50392919  1
  Sb  Sb78  1  0.66889635  0.16946674  0.83374309  1
  Sb  Sb79  1  0.33191988  -0.00482056  0.00227059  1
  Sb  Sb80  1  0.16617350  0.33318879  0.16276704  1
  Sb  Sb81  1  0.83840568  0.16428984  0.33546146  1
  Sb  Sb82  1  0.49961292  0.66786645  0.16800335  1
  Sb  Sb83  1  0.83322925  0.33193526  0.16283052  1
  Sb  Sb84  1  0.16665354  0.66326762  0.82920849  1
  Sb  Sb85  1  0.33277724  0.83221896  0.49646777  1
  Sb  Sb86  1  0.00149089  0.16873550  0.49832639  1
  Sb  Sb87  1  0.66194295  0.66787655  0.33704298  1
  Sb  Sb88  1  0.32791181  0.16734387  0.83833087  1
  Sb  Sb89  1  0.16712956  0.00202042  0.16693914  1
  Sb  Sb90  1  0.83474019  0.83529877  0.33456746  1
  Sb  Sb91  1  -0.00074581  0.83504721  0.16487427  1
  Sb  Sb92  1  0.83505793  0.50066263  0.33234342  1
  Sb  Sb93  1  0.32909080  0.16142302  0.49529627  1
  Sb  Sb94  1  0.66911928  0.15755103  0.49877940  1
  Sb  Sb95  1  0.49680524  0.16111114  0.66793705  1
  Sb  Sb96  1  0.33365375  0.83095831  0.83577861  1
  Sb  Sb97  1  0.33383375  0.66968890  0.66573808  1
  Sb  Sb98  1  0.84034914  0.16572531  -0.00264138  1
  Sb  Sb99  1  0.00027696  0.33293067  0.67109698  1
  Sb  Sb100  1  0.49956844  0.66713948  0.83025043  1
  Sb  Sb101  1  0.66864715  0.34242186  0.66421225  1
  Sb  Sb102  1  0.83334502  0.66930488  0.16885756  1
  Sb  Sb103  1  0.49623330  0.82994771  0.33117853  1
  Sb  Sb104  1  0.16733113  0.66491550  0.17048572  1
  Sb  Sb105  1  0.32697047  0.33982130  0.00204129  1
  Sb  Sb106  1  0.00447131  0.00356651  0.33329271  1
  Sb  Sb107  1  0.83604195  0.00281335  0.83303153  1
  Te  Te108  1  0.16555852  0.16753382  0.16616720  1
  Te  Te109  1  0.16570205  0.16343247  0.50421556  1
  Te  Te110  1  0.16700952  0.16501071  0.83153816  1
  Te  Te111  1  0.16439581  0.49872351  0.16682481  1
  Te  Te112  1  0.16328758  0.50095048  0.49669898  1
  Te  Te113  1  0.16504650  0.50126042  0.83516295  1
  Te  Te114  1  0.17043723  0.83362703  0.16930129  1
  Te  Te115  1  0.16613784  0.83295742  0.50065334  1
  Te  Te116  1  0.16676619  0.83927708  0.82680562  1
  Te  Te117  1  0.49747395  0.16006685  0.16710543  1
  Te  Te118  1  0.50013701  0.16874045  0.50050414  1
  Te  Te119  1  0.49888934  0.16074591  0.83398287  1
  Te  Te120  1  0.50021827  0.50074116  0.16630549  1
  Te  Te121  1  0.50028921  0.50760072  0.50442426  1
  Te  Te122  1  0.50274497  0.49892500  0.83263298  1
  Te  Te123  1  0.50165344  0.83518857  0.16502034  1
  Te  Te124  1  0.50436988  0.82808030  0.50374446  1
  Te  Te125  1  0.49987951  0.83800492  0.83425925  1
  Te  Te126  1  0.83913252  0.16058695  0.16633270  1
  Te  Te127  1  0.83428619  0.16192052  0.50799977  1
  Te  Te128  1  0.83374781  0.17428353  0.82586964  1
  Te  Te129  1  0.83187498  0.50011651  0.16252961  1
  Te  Te130  1  0.83791977  0.50314381  0.50322273  1
  Te  Te131  1  0.83321168  0.49916542  0.83452682  1
  Te  Te132  1  0.82974801  0.83712316  0.16384180  1
  Te  Te133  1  0.83201467  0.83263988  0.50123121  1
  Te  Te134  1  0.83330970  0.83393307  0.83408206  1
  Te  Te135  1  0.16363302  0.00061033  -0.00179613  1
  Te  Te136  1  0.16957208  0.00102548  0.33396970  1
  Te  Te137  1  0.16443999  -0.00229933  0.66616024  1
  Te  Te138  1  0.16201860  0.33554074  -0.00335700  1
  Te  Te139  1  0.16301126  0.33483227  0.33394801  1
  Te  Te140  1  0.16615811  0.34340316  0.67160737  1
  Te  Te141  1  0.16601892  0.66360470  -0.00051547  1
  Te  Te142  1  0.17075724  0.66267894  0.33706971  1
  Te  Te143  1  0.16647230  0.66114716  0.66099175  1
  Te  Te144  1  0.49887844  -0.00212337  0.00134087  1
  Te  Te145  1  0.49799545  -0.00001504  0.33029547  1
  Te  Te146  1  0.50016178  -0.00471693  0.66844931  1
  Te  Te147  1  0.50132842  0.33468419  0.00555613  1
  Te  Te148  1  0.50206004  0.33927013  0.32801037  1
  Te  Te149  1  0.49963990  0.33710040  0.66682598  1
  Te  Te150  1  0.49930575  0.66840354  -0.00088701  1
  Te  Te151  1  0.49488070  0.66177061  0.33864587  1
  Te  Te152  1  0.49893280  0.66852072  0.66402224  1
  Te  Te153  1  0.83324483  -0.00117946  -0.00097034  1
  Te  Te154  1  0.83127027  0.00042575  0.33497244  1
  Te  Te155  1  0.83375691  -0.00377950  0.66550134  1
  Te  Te156  1  0.83792859  0.33569694  -0.00417996  1
  Te  Te157  1  0.83283928  0.33191003  0.33365111  1
  Te  Te158  1  0.83363934  0.34183516  0.67120203  1
  Te  Te159  1  0.83559516  0.66805751  0.00133682  1
  Te  Te160  1  0.83410318  0.66777602  0.34301045  1
  Te  Te161  1  0.83388100  0.66873023  0.66317128  1
  Te  Te162  1  0.00390507  0.16002497  0.00413118  1
  Te  Te163  1  0.00579481  0.17177019  0.32893333  1
  Te  Te164  1  0.00107010  0.16513213  0.66590236  1
  Te  Te165  1  -0.00095450  0.49783780  -0.00049164  1
  Te  Te166  1  0.00222947  0.49672956  0.33138018  1
  Te  Te167  1  -0.00075444  0.49961751  0.66616824  1
  Te  Te168  1  -0.00493738  0.84131700  0.00008666  1
  Te  Te169  1  0.00999843  0.83243113  0.33176377  1
  Te  Te170  1  -0.00017768  0.83601077  0.66731893  1
  Te  Te171  1  0.32517337  0.16767437  0.00611031  1
  Te  Te172  1  0.32697791  0.16383272  0.32806929  1
  Te  Te173  1  0.32809375  0.16001050  0.66730103  1
  Te  Te174  1  0.33942019  0.50415890  -0.00123242  1
  Te  Te175  1  0.33238631  0.50261540  0.33256917  1
  Te  Te176  1  0.33431934  0.50087670  0.67136702  1
  Te  Te177  1  0.33574106  0.82718801  0.00372584  1
  Te  Te178  1  0.33069536  0.83312089  0.32997308  1
  Te  Te179  1  0.33389293  0.83652400  0.66820080  1
  Te  Te180  1  0.66710922  0.15931486  -0.00047894  1
  Te  Te181  1  0.66656814  0.16425868  0.33326675  1
  Te  Te182  1  0.66963341  0.16876293  0.66627200  1
  Te  Te183  1  0.66107415  0.50062095  0.00201217  1
  Te  Te184  1  0.66472642  0.49949892  0.32994184  1
  Te  Te185  1  0.66593685  0.50453119  0.66515759  1
  Te  Te186  1  0.66654636  0.83359977  0.00110779  1
  Te  Te187  1  0.66641795  0.83726401  0.33026811  1
  Te  Te188  1  0.66709213  0.82891188  0.66716646  1
  Te  Te189  1  -0.00424673  0.00229362  0.16554523  1
  Te  Te190  1  -0.00030160  0.00046459  0.50243315  1
  Te  Te191  1  0.00316269  0.00071354  0.83125766  1
  Te  Te192  1  -0.00054925  0.33327517  0.16431616  1
  Te  Te193  1  -0.00098982  0.34014880  0.49197671  1
  Te  Te194  1  0.00169907  0.33676925  0.83695415  1
  Te  Te195  1  -0.00055530  0.66151952  0.16011527  1
  Te  Te196  1  0.00234024  0.66183540  0.49970981  1
  Te  Te197  1  0.00024955  0.66000463  0.84151188  1
  Te  Te198  1  0.33482908  -0.00149908  0.16802730  1
  Te  Te199  1  0.32965717  -0.00174045  0.49870734  1
  Te  Te200  1  0.33284124  -0.00032599  0.83103410  1
  Te  Te201  1  0.34234579  0.32711067  0.16669949  1
  Te  Te202  1  0.33484829  0.33187568  0.49882497  1
  Te  Te203  1  0.32843579  0.33988736  0.83459311  1
  Te  Te204  1  0.33351086  0.67203622  0.16747696  1
  Te  Te205  1  0.33048578  0.66667154  0.49506275  1
  Te  Te206  1  0.33332856  0.66023574  0.84038956  1
  Te  Te207  1  0.66700892  -0.00017155  0.16597564  1
  Te  Te208  1  0.66939645  -0.00809606  0.49667953  1
  Te  Te209  1  0.66278108  0.00085091  0.83859427  1
  Te  Te210  1  0.66477369  0.33478397  0.17040257  1
  Te  Te211  1  0.66783493  0.33142817  0.49009674  1
  Te  Te212  1  0.66803316  0.33974716  0.83362233  1
  Te  Te213  1  0.66718254  0.66452073  0.16805478  1
  Te  Te214  1  0.66720392  0.67239703  0.50340448  1
  Te  Te215  1  0.66603386  0.65824140  0.82558836  1
