# generated using pymatgen
data_AgSbTe2
_symmetry_space_group_name_H-M   'P 1'
_cell_length_a   18.33743737
_cell_length_b   18.33581134
_cell_length_c   18.32862630
_cell_angle_alpha   90.00070075
_cell_angle_beta   90.00379085
_cell_angle_gamma   89.99866426
_symmetry_Int_Tables_number   1
_chemical_formula_structural   AgSbTe2
_chemical_formula_sum   'Ag54 Sb54 Te108'
_cell_volume   6162.66685331
_cell_formula_units_Z   54
loop_
 _symmetry_equiv_pos_site_id
 _symmetry_equiv_pos_as_xyz
  1  'x, y, z'
loop_
 _atom_site_type_symbol
 _atom_site_label
 _atom_site_symmetry_multiplicity
 _atom_site_fract_x
 _atom_site_fract_y
 _atom_site_fract_z
 _atom_site_occupancy
  Ag  Ag0  1  0.33846153  0.66817654  0.00243390  1
  Ag  Ag1  1  0.16813845  0.32810592  0.83277484  1
  Ag  Ag2  1  0.33387568  0.00275793  0.65563211  1
  Ag  Ag3  1  0.83726371  0.16484751  -0.00372285  1
  Ag  Ag4  1  0.82539320  -0.00759892  0.49797047  1
  Ag  Ag5  1  0.00099811  0.83627527  0.16616308  1
  Ag  Ag6  1  0.33838698  0.15547563  0.50866959  1
  Ag  Ag7  1  0.34269869  0.83850266  0.49810459  1
  Ag  Ag8  1  0.17513601  0.50001386  0.67651348  1
  Ag  Ag9  1  0.00779039  0.16186544  0.83819451  1
  Ag  Ag10  1  0.49746949  -0.00232518  0.50169265  1
  Ag  Ag11  1  0.16193589  0.83635671  0.33075856  1
  Ag  Ag12  1  0.17710859  -0.00195388  0.16481743  1
  Ag  Ag13  1  0.66149392  0.83743449  0.16624846  1
  Ag  Ag14  1  0.49551456  -0.00351374  0.16855549  1
  Ag  Ag15  1  0.33848992  0.83722547  0.16898944  1
  Ag  Ag16  1  0.66916356  0.83231233  0.82976472  1
  Ag  Ag17  1  0.66243497  0.83478776  0.50644614  1
  Ag  Ag18  1  0.16870385  0.00355130  0.83488588  1
  Ag  Ag19  1  0.49720208  0.67713930  0.16634019  1
  Ag  Ag20  1  0.00680665  0.50930126  0.16293099  1
  Ag  Ag21  1  -0.00235480  0.66976994  0.66665752  1
  Ag  Ag22  1  0.50368101  0.83223609  0.66072423  1
  Ag  Ag23  1  0.82970773  -0.00339411  0.16540364  1
  Ag  Ag24  1  0.49210864  0.16451606  0.66442553  1
  Ag  Ag25  1  0.82468059  0.83193215  0.66125273  1
  Ag  Ag26  1  0.17317916  0.16234385  0.67666691  1
  Ag  Ag27  1  0.33111615  0.15508076  0.16653014  1
  Ag  Ag28  1  0.82665337  0.67751995  0.50446715  1
  Ag  Ag29  1  0.16522007  0.16349303  -0.00706263  1
  Ag  Ag30  1  0.49978520  0.33314730  0.82883457  1
  Ag  Ag31  1  0.83100268  0.49935110  -0.00209499  1
  Ag  Ag32  1  -0.00018613  0.67251905  0.33215674  1
  Ag  Ag33  1  0.16466406  0.66780000  0.83353241  1
  Ag  Ag34  1  -0.00129325  0.83568645  0.83361416  1
  Ag  Ag35  1  0.66554341  -0.00519809  0.32570345  1
  Ag  Ag36  1  0.17990290  -0.00252306  0.50266140  1
  Ag  Ag37  1  0.66429747  0.67237204  0.67364302  1
  Ag  Ag38  1  0.49771696  0.16159752  0.34134741  1
  Ag  Ag39  1  0.33171179  0.50692296  0.16044140  1
  Ag  Ag40  1  0.83456892  0.83513390  0.34009099  1
  Ag  Ag41  1  0.49896067  0.32211906  0.51119405  1
  Ag  Ag42  1  0.50289625  0.67982320  0.50355423  1
  Ag  Ag43  1  0.33762372  0.32097045  0.66768532  1
  Ag  Ag44  1  0.33478488  -0.00122180  0.00642129  1
  Ag  Ag45  1  0.49471917  0.49835267  0.67151129  1
  Ag  Ag46  1  0.66847242  0.16371977  0.83412422  1
  Ag  Ag47  1  0.66197599  0.67297241  -0.00729983  1
  Ag  Ag48  1  0.00786970  0.15279658  0.15961727  1
  Ag  Ag49  1  0.17100693  0.49982314  -0.00470155  1
  Ag  Ag50  1  0.49728318  0.50399391  -0.00504107  1
  Ag  Ag51  1  0.66107523  -0.00663780  0.00291022  1
  Ag  Ag52  1  0.82829669  0.32961486  0.83393688  1
  Ag  Ag53  1  0.66443041  0.50304110  0.83495041  1
  Sb  Sb54  1  0.00620964  0.33721093  0.67007359  1
  Sb  Sb55  1  0.33209377  0.67198124  0.32851891  1
  Sb  Sb56  1  0.16981916  0.67294248  0.50480000  1
  Sb  Sb57  1  0.17614139  0.32590263  0.51050704  1
  Sb  Sb58  1  0.33494819  0.83518089  0.83340872  1
  Sb  Sb59  1  0.00095620  0.50437869  0.49909266  1
  Sb  Sb60  1  0.33350495  0.33067881  0.33794442  1
  Sb  Sb61  1  0.17012888  0.67328278  0.16066630  1
  Sb  Sb62  1  0.65681702  0.33768249  0.67114403  1
  Sb  Sb63  1  0.33516675  0.50038571  0.83655591  1
  Sb  Sb64  1  0.83428138  0.00141696  0.83554015  1
  Sb  Sb65  1  0.83014628  0.83610575  -0.00037425  1
  Sb  Sb66  1  0.16822140  0.32829948  0.16090646  1
  Sb  Sb67  1  0.66021156  -0.00667533  0.66950552  1
  Sb  Sb68  1  0.50289871  0.83924418  0.33581819  1
  Sb  Sb69  1  0.66416165  0.15650984  0.15951581  1
  Sb  Sb70  1  0.33556152  0.50351485  0.49931684  1
  Sb  Sb71  1  0.00009877  0.66689288  -0.00073923  1
  Sb  Sb72  1  0.66906202  0.67438971  0.33429351  1
  Sb  Sb73  1  0.00080326  0.50121142  0.83734529  1
  Sb  Sb74  1  -0.00381244  -0.00620154  0.32918037  1
  Sb  Sb75  1  0.66406170  0.32171971  0.33508225  1
  Sb  Sb76  1  0.00544466  0.16288001  0.50134452  1
  Sb  Sb77  1  0.83343837  0.50934201  0.32579258  1
  Sb  Sb78  1  0.16884728  0.83541672  0.66530269  1
  Sb  Sb79  1  0.83427682  0.32761820  0.15991114  1
  Sb  Sb80  1  0.49759025  0.16688710  -0.00365610  1
  Sb  Sb81  1  0.82985517  0.15669660  0.32723003  1
  Sb  Sb82  1  0.50064007  0.66498839  0.83336815  1
  Sb  Sb83  1  0.16688049  0.50707227  0.32904667  1
  Sb  Sb84  1  0.83128703  0.50597492  0.67279327  1
  Sb  Sb85  1  0.83151419  0.67567596  0.16780989  1
  Sb  Sb86  1  0.33671411  0.67019886  0.67107985  1
  Sb  Sb87  1  0.83387659  0.66636381  0.83152229  1
  Sb  Sb88  1  0.82513401  0.33082258  0.50908384  1
  Sb  Sb89  1  0.33279839  0.33168853  -0.00532734  1
  Sb  Sb90  1  0.17095239  0.15760153  0.33078312  1
  Sb  Sb91  1  0.66577660  0.33344549  -0.00306851  1
  Sb  Sb92  1  0.33088634  0.16535530  0.83106357  1
  Sb  Sb93  1  0.00578284  -0.00489540  0.66829758  1
  Sb  Sb94  1  0.50122288  0.83032171  -0.00039499  1
  Sb  Sb95  1  0.49691652  0.00255187  0.83236239  1
  Sb  Sb96  1  0.66252303  0.51127685  0.50829268  1
  Sb  Sb97  1  0.50148445  0.49812249  0.33221664  1
  Sb  Sb98  1  -0.00326648  0.83344750  0.49987287  1
  Sb  Sb99  1  0.16856121  0.83691059  0.00132308  1
  Sb  Sb100  1  0.83323642  0.15901697  0.67202059  1
  Sb  Sb101  1  0.66479362  0.51206382  0.15640796  1
  Sb  Sb102  1  0.49754797  0.33087299  0.16294191  1
  Sb  Sb103  1  -0.00072765  0.33664539  0.33101252  1
  Sb  Sb104  1  0.33953597  -0.00135685  0.33284306  1
  Sb  Sb105  1  0.00280344  0.00103720  0.00134911  1
  Sb  Sb106  1  0.65830666  0.15589520  0.50763716  1
  Sb  Sb107  1  0.00071461  0.33169805  -0.00270678  1
  Te  Te108  1  0.16710920  0.16270304  0.16521817  1
  Te  Te109  1  0.17304619  0.15946656  0.50001751  1
  Te  Te110  1  0.16712368  0.16493983  0.83368479  1
  Te  Te111  1  0.16673486  0.49952909  0.16290232  1
  Te  Te112  1  0.16781826  0.49904930  0.50356708  1
  Te  Te113  1  0.16540523  0.49976242  0.83438763  1
  Te  Te114  1  0.16348388  0.83733160  0.16760872  1
  Te  Te115  1  0.16858555  0.83781741  0.49730473  1
  Te  Te116  1  0.16453104  0.83585099  0.83372788  1
  Te  Te117  1  0.49649702  0.16347697  0.16465509  1
  Te  Te118  1  0.49776937  0.16185487  0.50336149  1
  Te  Te119  1  0.50294012  0.17067444  0.82927323  1
  Te  Te120  1  0.49704588  0.49954788  0.16363196  1
  Te  Te121  1  0.49945667  0.50116346  0.50384522  1
  Te  Te122  1  0.50192165  0.49960493  0.83274576  1
  Te  Te123  1  0.49959872  0.83501801  0.16777384  1
  Te  Te124  1  0.50113330  0.83646984  0.49822483  1
  Te  Te125  1  0.50464351  0.83329448  0.82534628  1
  Te  Te126  1  0.83552886  0.16185817  0.16002019  1
  Te  Te127  1  0.83255305  0.16317948  0.49927574  1
  Te  Te128  1  0.83342185  0.16805063  0.83567257  1
  Te  Te129  1  0.83519048  0.49785249  0.15886797  1
  Te  Te130  1  0.83163649  0.50075306  0.49923432  1
  Te  Te131  1  0.83161971  0.49552811  0.83789457  1
  Te  Te132  1  0.83635615  0.83757482  0.16659611  1
  Te  Te133  1  0.83486868  0.83371024  0.50101782  1
  Te  Te134  1  0.83426927  0.83384092  0.82982116  1
  Te  Te135  1  0.16993971  0.00243878  0.00274170  1
  Te  Te136  1  0.16287355  -0.00454587  0.33074833  1
  Te  Te137  1  0.17141906  0.00210926  0.66641448  1
  Te  Te138  1  0.16738262  0.33405126  -0.00622021  1
  Te  Te139  1  0.16542415  0.33538501  0.33674824  1
  Te  Te140  1  0.17243027  0.33480899  0.67186311  1
  Te  Te141  1  0.16820342  0.66294488  -0.00438281  1
  Te  Te142  1  0.16095901  0.67333394  0.33462480  1
  Te  Te143  1  0.16672919  0.66402641  0.67032526  1
  Te  Te144  1  0.49805244  0.00036922  0.00223199  1
  Te  Te145  1  0.50552690  0.00248152  0.33219141  1
  Te  Te146  1  0.49505550  0.00089482  0.66576314  1
  Te  Te147  1  0.49917038  0.34109719  -0.00602769  1
  Te  Te148  1  0.50023052  0.32527871  0.33665147  1
  Te  Te149  1  0.49724941  0.33511886  0.66892742  1
  Te  Te150  1  0.49987187  0.66458459  0.00111884  1
  Te  Te151  1  0.50053283  0.66453953  0.33214165  1
  Te  Te152  1  0.50118998  0.66766240  0.66545746  1
  Te  Te153  1  0.82760287  0.00319205  0.00231080  1
  Te  Te154  1  0.82806162  -0.00528236  0.33327805  1
  Te  Te155  1  0.83470562  -0.00676262  0.66339899  1
  Te  Te156  1  0.83232325  0.33130453  -0.00664641  1
  Te  Te157  1  0.83173824  0.33306016  0.33743497  1
  Te  Te158  1  0.83308666  0.33305176  0.67348916  1
  Te  Te159  1  0.82762619  0.66163236  -0.00016991  1
  Te  Te160  1  0.83723630  0.67308153  0.33834189  1
  Te  Te161  1  0.83208145  0.66991922  0.66459239  1
  Te  Te162  1  0.00146916  0.16650967  -0.00024112  1
  Te  Te163  1  -0.00067835  0.16824159  0.32579572  1
  Te  Te164  1  0.00368523  0.16763798  0.67122431  1
  Te  Te165  1  0.00227117  0.50052862  0.00411000  1
  Te  Te166  1  -0.00028023  0.50806506  0.32577729  1
  Te  Te167  1  0.00288865  0.50671504  0.66763262  1
  Te  Te168  1  -0.00165627  0.83228925  -0.00155733  1
  Te  Te169  1  -0.00233566  0.83024297  0.33163006  1
  Te  Te170  1  0.00068609  0.82874547  0.67082409  1
  Te  Te171  1  0.33020598  0.16490990  0.00487347  1
  Te  Te172  1  0.33777805  0.16751070  0.32899844  1
  Te  Te173  1  0.33261899  0.16320713  0.66720143  1
  Te  Te174  1  0.33225139  0.49876344  0.00217575  1
  Te  Te175  1  0.33324324  0.50023193  0.32336625  1
  Te  Te176  1  0.33372953  0.50285577  0.66530991  1
  Te  Te177  1  0.33466548  0.83324470  0.00479245  1
  Te  Te178  1  0.32723038  0.83262048  0.33130572  1
  Te  Te179  1  0.33780368  0.83814774  0.66456750  1
  Te  Te180  1  0.66704514  0.16393422  -0.00576560  1
  Te  Te181  1  0.66129579  0.15586218  0.33360387  1
  Te  Te182  1  0.66468804  0.16615510  0.67444575  1
  Te  Te183  1  0.66512064  0.50211784  -0.00544040  1
  Te  Te184  1  0.66773036  0.49834914  0.33213150  1
  Te  Te185  1  0.66291600  0.50777449  0.67439039  1
  Te  Te186  1  0.66612755  0.83288450  -0.00098228  1
  Te  Te187  1  0.67053607  0.83700909  0.32949758  1
  Te  Te188  1  0.66525826  0.83246918  0.66707298  1
  Te  Te189  1  -0.00372949  -0.00331632  0.16608168  1
  Te  Te190  1  -0.00272379  0.00182356  0.49993871  1
  Te  Te191  1  0.00437006  -0.00115859  0.83439777  1
  Te  Te192  1  -0.00004768  0.33608500  0.16721696  1
  Te  Te193  1  -0.00284653  0.33365910  0.50041664  1
  Te  Te194  1  0.00367863  0.32705703  0.83193712  1
  Te  Te195  1  -0.00014093  0.67062181  0.16733554  1
  Te  Te196  1  -0.00142806  0.66646157  0.50349694  1
  Te  Te197  1  0.00268527  0.67035072  0.83112536  1
  Te  Te198  1  0.33499495  -0.00235717  0.16835448  1
  Te  Te199  1  0.33567009  -0.00147023  0.49710537  1
  Te  Te200  1  0.32829632  -0.00158153  0.84418727  1
  Te  Te201  1  0.33306720  0.33468381  0.16798469  1
  Te  Te202  1  0.34083749  0.33302415  0.50612641  1
  Te  Te203  1  0.33348735  0.33344313  0.82761987  1
  Te  Te204  1  0.33635981  0.66839026  0.16241914  1
  Te  Te205  1  0.33920451  0.67231521  0.49931049  1
  Te  Te206  1  0.32628708  0.66843639  0.84126081  1
  Te  Te207  1  0.66670464  -0.00304210  0.16288181  1
  Te  Te208  1  0.66664370  -0.00585824  0.50291979  1
  Te  Te209  1  0.66621283  -0.00229047  0.83812117  1
  Te  Te210  1  0.66694776  0.33394599  0.16795040  1
  Te  Te211  1  0.65905598  0.33468333  0.50159405  1
  Te  Te212  1  0.66577366  0.33322861  0.83361744  1
  Te  Te213  1  0.66199590  0.67566476  0.16437709  1
  Te  Te214  1  0.66561373  0.67465219  0.50117128  1
  Te  Te215  1  0.66734609  0.66974237  0.83360570  1
