# generated using pymatgen
data_AgSbTe2
_symmetry_space_group_name_H-M   'P 1'
_cell_length_a   18.33280724
_cell_length_b   18.33205376
_cell_length_c   18.34077016
_cell_angle_alpha   89.99961674
_cell_angle_beta   89.99972475
_cell_angle_gamma   89.99879210
_symmetry_Int_Tables_number   1
_chemical_formula_structural   AgSbTe2
_chemical_formula_sum   'Ag54 Sb54 Te108'
_cell_volume   6163.92949697
_cell_formula_units_Z   54
loop_
 _symmetry_equiv_pos_site_id
 _symmetry_equiv_pos_as_xyz
  1  'x, y, z'
loop_
 _atom_site_type_symbol
 _atom_site_label
 _atom_site_symmetry_multiplicity
 _atom_site_fract_x
 _atom_site_fract_y
 _atom_site_fract_z
 _atom_site_occupancy
  Ag  Ag0  1  0.16547391  0.83266034  0.66871785  1
  Ag  Ag1  1  0.33017982  0.67053101  0.67047049  1
  Ag  Ag2  1  0.16672227  0.33819839  0.83363009  1
  Ag  Ag3  1  0.16186726  0.00516179  0.17519374  1
  Ag  Ag4  1  0.00064788  0.49665987  0.49923235  1
  Ag  Ag5  1  0.66460680  0.49606791  0.17859740  1
  Ag  Ag6  1  0.50272188  0.17333991  0.00124118  1
  Ag  Ag7  1  0.84832348  0.83668743  0.66017707  1
  Ag  Ag8  1  0.16504462  0.66868637  0.83103233  1
  Ag  Ag9  1  0.84633949  0.83115266  0.34057105  1
  Ag  Ag10  1  0.00363911  0.16829372  0.17847479  1
  Ag  Ag11  1  0.84481809  0.33689650  0.49759994  1
  Ag  Ag12  1  0.00339926  -0.00350078  0.65656978  1
  Ag  Ag13  1  0.00985231  0.33000520  0.33678178  1
  Ag  Ag14  1  0.32681542  0.66743758  -0.00329783  1
  Ag  Ag15  1  0.84496869  0.00002610  0.16870273  1
  Ag  Ag16  1  0.00739201  0.33541575  0.00404888  1
  Ag  Ag17  1  0.49823520  0.17432661  0.33501311  1
  Ag  Ag18  1  0.15954375  0.00712527  0.49422540  1
  Ag  Ag19  1  0.83873784  0.66333454  0.49754647  1
  Ag  Ag20  1  0.15929941  0.33063619  0.48977546  1
  Ag  Ag21  1  0.16019413  0.48486032  0.33957383  1
  Ag  Ag22  1  0.49843573  0.16950582  0.66450354  1
  Ag  Ag23  1  0.49894659  0.65985733  0.17187419  1
  Ag  Ag24  1  0.00467942  0.50215849  0.82793878  1
  Ag  Ag25  1  0.49660817  0.33354724  0.17055847  1
  Ag  Ag26  1  0.66662634  0.00804998  0.00099501  1
  Ag  Ag27  1  0.00366805  0.00064169  0.33867619  1
  Ag  Ag28  1  0.16703264  0.83118421  -0.00369583  1
  Ag  Ag29  1  0.32250987  0.82700889  0.83395480  1
  Ag  Ag30  1  0.66901019  0.49505379  0.83113092  1
  Ag  Ag31  1  0.50480446  0.65914524  0.49520788  1
  Ag  Ag32  1  0.84637708  0.16319219  0.66422501  1
  Ag  Ag33  1  0.00186728  0.67228029  0.33539241  1
  Ag  Ag34  1  0.00333667  0.16881000  0.49623919  1
  Ag  Ag35  1  0.00719745  0.82655341  0.82452558  1
  Ag  Ag36  1  0.16131938  0.17228091  0.33988529  1
  Ag  Ag37  1  0.00186361  0.83507203  0.50044123  1
  Ag  Ag38  1  0.49321808  0.83388233  0.66576105  1
  Ag  Ag39  1  0.16249031  0.16783442  0.65904885  1
  Ag  Ag40  1  0.16379911  0.49705890  0.66355636  1
  Ag  Ag41  1  0.65789492  0.33191898  0.00158106  1
  Ag  Ag42  1  0.66750938  0.65776558  0.33584309  1
  Ag  Ag43  1  0.66401819  0.33768550  0.33282634  1
  Ag  Ag44  1  0.66221270  0.17680519  0.83460513  1
  Ag  Ag45  1  0.16824290  0.33000270  0.17778978  1
  Ag  Ag46  1  0.16311417  0.83643388  0.33607987  1
  Ag  Ag47  1  0.32270883  0.33241325  0.32875349  1
  Ag  Ag48  1  0.49860375  0.33155922  0.84031980  1
  Ag  Ag49  1  0.32838543  0.83009788  0.16461113  1
  Ag  Ag50  1  0.00682112  0.66472172  0.00104512  1
  Ag  Ag51  1  0.50047773  0.33413428  0.48938711  1
  Ag  Ag52  1  0.67129328  0.49779148  0.49647112  1
  Ag  Ag53  1  0.33282377  0.33647744  0.00429159  1
  Sb  Sb54  1  0.66452300  0.33315163  0.66604759  1
  Sb  Sb55  1  0.66763627  0.83031420  0.83283016  1
  Sb  Sb56  1  0.00720182  0.83708687  0.17280174  1
  Sb  Sb57  1  0.32552014  -0.00400655  0.66708010  1
  Sb  Sb58  1  0.49428148  0.00417807  0.50041695  1
  Sb  Sb59  1  0.32565774  0.17015834  0.49961641  1
  Sb  Sb60  1  0.33086806  0.66297968  0.33339136  1
  Sb  Sb61  1  0.49721027  0.00398981  0.16761864  1
  Sb  Sb62  1  0.83188092  0.67109587  0.17438110  1
  Sb  Sb63  1  0.67363159  0.00297194  0.32937989  1
  Sb  Sb64  1  0.32853046  0.49898952  0.49952535  1
  Sb  Sb65  1  0.32530736  0.82923222  0.50104340  1
  Sb  Sb66  1  0.49484771  0.66165026  0.83399929  1
  Sb  Sb67  1  0.66246927  0.83032282  0.16691799  1
  Sb  Sb68  1  0.67411470  0.82671908  0.49967157  1
  Sb  Sb69  1  0.84115048  -0.00062440  0.49739597  1
  Sb  Sb70  1  -0.00040904  0.00024759  0.00321605  1
  Sb  Sb71  1  0.33405908  0.00029335  0.00142919  1
  Sb  Sb72  1  0.16891600  0.16843995  0.00031719  1
  Sb  Sb73  1  0.32885294  0.16778475  0.16719006  1
  Sb  Sb74  1  0.32860178  0.50162738  0.83296704  1
  Sb  Sb75  1  0.83672970  0.50225480  0.33592524  1
  Sb  Sb76  1  0.33031366  0.33604601  0.66620505  1
  Sb  Sb77  1  0.32340146  0.00493417  0.33165680  1
  Sb  Sb78  1  0.16900792  0.66490390  0.16494910  1
  Sb  Sb79  1  0.66489409  0.66144892  0.00504697  1
  Sb  Sb80  1  0.00336755  0.32990580  0.66132222  1
  Sb  Sb81  1  0.83467684  0.33291571  0.82804520  1
  Sb  Sb82  1  0.83920786  0.50056140  0.66232102  1
  Sb  Sb83  1  0.49363837  0.83600449  -0.00364782  1
  Sb  Sb84  1  0.67084040  0.17493922  0.50279204  1
  Sb  Sb85  1  0.00582802  0.67202654  0.66192092  1
  Sb  Sb86  1  0.49934130  0.49342556  0.33486322  1
  Sb  Sb87  1  0.49547166  0.49833915  0.66429419  1
  Sb  Sb88  1  0.16318717  0.66349016  0.50203460  1
  Sb  Sb89  1  0.16480683  -0.00244247  0.83194552  1
  Sb  Sb90  1  0.83487802  0.32981374  0.17292315  1
  Sb  Sb91  1  0.16512992  0.50083109  -0.00071086  1
  Sb  Sb92  1  0.83518889  0.00038294  0.83547831  1
  Sb  Sb93  1  0.67231902  0.00271994  0.66861526  1
  Sb  Sb94  1  0.84225188  0.66708754  0.82611503  1
  Sb  Sb95  1  0.83054713  0.16825469  -0.00295283  1
  Sb  Sb96  1  0.50051538  0.49288515  0.00042488  1
  Sb  Sb97  1  0.49667845  0.83417861  0.33719166  1
  Sb  Sb98  1  0.33464258  0.49919389  0.16753449  1
  Sb  Sb99  1  -0.00176048  0.49553214  0.17057033  1
  Sb  Sb100  1  0.33571908  0.16694324  0.83321334  1
  Sb  Sb101  1  0.66880532  0.17250241  0.16436775  1
  Sb  Sb102  1  0.50135708  0.00560374  0.83231612  1
  Sb  Sb103  1  0.66297448  0.66582271  0.66169969  1
  Sb  Sb104  1  -0.00075740  0.16940414  0.82982710  1
  Sb  Sb105  1  0.84182750  0.83327271  0.00088283  1
  Sb  Sb106  1  0.83968323  0.16619851  0.33775507  1
  Sb  Sb107  1  0.83472370  0.49904709  -0.00060840  1
  Te  Te108  1  0.16357853  0.16889253  0.16667716  1
  Te  Te109  1  0.16336654  0.17009041  0.49972797  1
  Te  Te110  1  0.16755136  0.17020245  0.82937791  1
  Te  Te111  1  0.16608472  0.49252236  0.17292174  1
  Te  Te112  1  0.16267202  0.49645852  0.50105078  1
  Te  Te113  1  0.16386934  0.50083946  0.83201810  1
  Te  Te114  1  0.16878600  0.83109081  0.16609681  1
  Te  Te115  1  0.16203664  0.83051819  0.50152526  1
  Te  Te116  1  0.16458781  0.83439749  0.83228295  1
  Te  Te117  1  0.49934817  0.17145930  0.16796332  1
  Te  Te118  1  0.50090418  0.17012803  0.49978291  1
  Te  Te119  1  0.50160163  0.17145141  0.83253273  1
  Te  Te120  1  0.50407627  0.49823363  0.16783226  1
  Te  Te121  1  0.50413221  0.49914243  0.50103322  1
  Te  Te122  1  0.50402011  0.49317844  0.83077567  1
  Te  Te123  1  0.49386225  0.83310784  0.16674832  1
  Te  Te124  1  0.50047656  0.83524261  0.50447585  1
  Te  Te125  1  0.49895148  0.83139674  0.82807888  1
  Te  Te126  1  0.83975930  0.16160579  0.16669802  1
  Te  Te127  1  0.83832177  0.16896969  0.50490099  1
  Te  Te128  1  0.82697914  0.16647549  0.82463830  1
  Te  Te129  1  0.82362905  0.50136737  0.16630664  1
  Te  Te130  1  0.83485494  0.49916180  0.50134316  1
  Te  Te131  1  0.83564918  0.50051857  0.82992794  1
  Te  Te132  1  0.83157353  0.83880957  0.16942886  1
  Te  Te133  1  0.83865020  0.83245220  0.50000383  1
  Te  Te134  1  0.83735787  0.83293394  0.82727194  1
  Te  Te135  1  0.16700746  -0.00377833  0.00544037  1
  Te  Te136  1  0.16278157  -0.00122223  0.33360825  1
  Te  Te137  1  0.16244073  0.00165450  0.66536029  1
  Te  Te138  1  0.16741690  0.33337455  -0.00581702  1
  Te  Te139  1  0.16659701  0.32936023  0.33388832  1
  Te  Te140  1  0.16797444  0.33193658  0.67225175  1
  Te  Te141  1  0.16635764  0.66792729  -0.00161895  1
  Te  Te142  1  0.16353866  0.67494268  0.33339903  1
  Te  Te143  1  0.16960261  0.66956320  0.66855847  1
  Te  Te144  1  0.50490386  0.00675737  0.00043807  1
  Te  Te145  1  0.49986154  0.00808620  0.33330330  1
  Te  Te146  1  0.49993951  0.00051414  0.66600127  1
  Te  Te147  1  0.49916412  0.33156297  0.00055038  1
  Te  Te148  1  0.50456583  0.33313044  0.32998913  1
  Te  Te149  1  0.49658554  0.33069899  0.66901863  1
  Te  Te150  1  0.49538663  0.66841586  0.00437274  1
  Te  Te151  1  0.50041389  0.66747371  0.33340280  1
  Te  Te152  1  0.49474889  0.66815904  0.66551475  1
  Te  Te153  1  0.82836317  0.00004327  0.00638810  1
  Te  Te154  1  0.83838067  -0.00478430  0.32960980  1
  Te  Te155  1  0.83894267  -0.00114734  0.66642024  1
  Te  Te156  1  0.83695271  0.33272273  0.00043891  1
  Te  Te157  1  0.82563713  0.33336077  0.33926422  1
  Te  Te158  1  0.83286159  0.32820735  0.65864900  1
  Te  Te159  1  0.83932304  0.66785151  0.00035900  1
  Te  Te160  1  0.83492645  0.67079112  0.33773640  1
  Te  Te161  1  0.83101892  0.67311253  0.65880663  1
  Te  Te162  1  -0.00031794  0.17163936  -0.00159528  1
  Te  Te163  1  0.00115007  0.16842275  0.33581319  1
  Te  Te164  1  0.00266760  0.16251295  0.66524193  1
  Te  Te165  1  0.00002456  0.49937982  -0.00179544  1
  Te  Te166  1  0.00174624  0.49712085  0.33543203  1
  Te  Te167  1  0.00474056  0.50012513  0.66623953  1
  Te  Te168  1  0.00517106  0.83135929  -0.00292474  1
  Te  Te169  1  0.00230902  0.83260142  0.33308727  1
  Te  Te170  1  0.00440111  0.83345116  0.66501481  1
  Te  Te171  1  0.34010214  0.17193660  -0.00001955  1
  Te  Te172  1  0.33445670  0.17221592  0.33311564  1
  Te  Te173  1  0.33508585  0.16529209  0.66771421  1
  Te  Te174  1  0.33320811  0.50059955  0.00022939  1
  Te  Te175  1  0.32215992  0.49456499  0.33324940  1
  Te  Te176  1  0.32473219  0.50769264  0.66629357  1
  Te  Te177  1  0.32948633  0.83232437  -0.00114676  1
  Te  Te178  1  0.32824156  0.83278585  0.32985356  1
  Te  Te179  1  0.33078884  0.83060203  0.66764536  1
  Te  Te180  1  0.66412459  0.17084552  -0.00244461  1
  Te  Te181  1  0.66448952  0.17095958  0.33362581  1
  Te  Te182  1  0.65852256  0.16551674  0.67166058  1
  Te  Te183  1  0.66764074  0.49485332  -0.00636006  1
  Te  Te184  1  0.66642224  0.50024444  0.33675243  1
  Te  Te185  1  0.66790918  0.50072032  0.66752624  1
  Te  Te186  1  0.66725014  0.83444833  -0.00092140  1
  Te  Te187  1  0.66645182  0.83187985  0.33301973  1
  Te  Te188  1  0.65976947  0.83471437  0.66758758  1
  Te  Te189  1  0.00380250  0.00356543  0.16789038  1
  Te  Te190  1  0.00274196  -0.00066572  0.49824460  1
  Te  Te191  1  -0.00017012  -0.00398897  0.83293424  1
  Te  Te192  1  0.00129513  0.33044580  0.16699962  1
  Te  Te193  1  0.00222104  0.33401169  0.49862633  1
  Te  Te194  1  0.00192504  0.33654296  0.83572262  1
  Te  Te195  1  -0.00061728  0.66480142  0.16662121  1
  Te  Te196  1  -0.00124880  0.66425692  0.49609137  1
  Te  Te197  1  0.00475463  0.66537996  0.83523145  1
  Te  Te198  1  0.32652682  -0.00718497  0.16587118  1
  Te  Te199  1  0.32083473  -0.00124699  0.49922270  1
  Te  Te200  1  0.33392171  -0.01139706  0.83507379  1
  Te  Te201  1  0.33419493  0.33332951  0.16564038  1
  Te  Te202  1  0.34017845  0.33472188  0.49623735  1
  Te  Te203  1  0.33357407  0.33422878  0.83699042  1
  Te  Te204  1  0.33784064  0.66744091  0.16449261  1
  Te  Te205  1  0.34394643  0.66497161  0.50181494  1
  Te  Te206  1  0.32938103  0.66762781  0.83557541  1
  Te  Te207  1  0.66583543  0.00033248  0.16215336  1
  Te  Te208  1  0.66614129  0.00050495  0.49884031  1
  Te  Te209  1  0.66753320  0.00198393  0.83975200  1
  Te  Te210  1  0.66743489  0.33590632  0.16533200  1
  Te  Te211  1  0.65939549  0.33793584  0.49875823  1
  Te  Te212  1  0.66814740  0.33438840  0.83461874  1
  Te  Te213  1  0.66184136  0.66218821  0.17156571  1
  Te  Te214  1  0.66470082  0.66153973  0.49580749  1
  Te  Te215  1  0.66775120  0.66025106  0.83598605  1
