# generated using pymatgen
data_AgSbTe2
_symmetry_space_group_name_H-M   'P 1'
_cell_length_a   18.33073517
_cell_length_b   18.33890715
_cell_length_c   18.33170536
_cell_angle_alpha   90.00149149
_cell_angle_beta   89.99624710
_cell_angle_gamma   89.99959603
_symmetry_Int_Tables_number   1
_chemical_formula_structural   AgSbTe2
_chemical_formula_sum   'Ag54 Sb54 Te108'
_cell_volume   6162.48963881
_cell_formula_units_Z   54
loop_
 _symmetry_equiv_pos_site_id
 _symmetry_equiv_pos_as_xyz
  1  'x, y, z'
loop_
 _atom_site_type_symbol
 _atom_site_label
 _atom_site_symmetry_multiplicity
 _atom_site_fract_x
 _atom_site_fract_y
 _atom_site_fract_z
 _atom_site_occupancy
  Ag  Ag0  1  0.16595773  0.49064806  0.33545634  1
  Ag  Ag1  1  0.66565261  0.83035020  0.17239390  1
  Ag  Ag2  1  0.16904697  0.83524284  -0.00757599  1
  Ag  Ag3  1  0.33742050  0.66167625  0.33265049  1
  Ag  Ag4  1  0.16912798  0.17111106  0.34156854  1
  Ag  Ag5  1  0.82531400  0.66308457  0.50033823  1
  Ag  Ag6  1  0.83520861  0.49799138  0.32883120  1
  Ag  Ag7  1  0.49531306  0.01124610  0.83019873  1
  Ag  Ag8  1  0.49265046  0.33281958  0.50908708  1
  Ag  Ag9  1  0.17444091  0.16438162  0.66170411  1
  Ag  Ag10  1  0.33737390  0.49260473  0.49541206  1
  Ag  Ag11  1  0.66760179  0.66144623  0.66188900  1
  Ag  Ag12  1  0.49091095  0.16707059  0.33459491  1
  Ag  Ag13  1  0.17091904  0.84652964  0.66575243  1
  Ag  Ag14  1  0.16297997  0.67139097  0.82876050  1
  Ag  Ag15  1  0.65687427  0.33885544  0.66954614  1
  Ag  Ag16  1  0.83682998  0.17418128  0.33066006  1
  Ag  Ag17  1  0.33586157  0.17195660  0.17072033  1
  Ag  Ag18  1  0.49320635  0.17485171  0.67502284  1
  Ag  Ag19  1  0.16726436  0.00733743  0.50757547  1
  Ag  Ag20  1  0.16960107  0.00285597  0.82484892  1
  Ag  Ag21  1  0.66274817  0.50328120  0.50599934  1
  Ag  Ag22  1  0.16754127  0.83736224  0.33708721  1
  Ag  Ag23  1  0.82486748  0.33758515  0.83401429  1
  Ag  Ag24  1  0.50306466  0.49335914  -0.00518817  1
  Ag  Ag25  1  0.82609994  0.50004979  -0.00339353  1
  Ag  Ag26  1  0.33537915  0.49414250  0.17313527  1
  Ag  Ag27  1  0.50731684  0.32385852  0.82065338  1
  Ag  Ag28  1  0.50145474  0.83666373  0.66644853  1
  Ag  Ag29  1  0.50203926  0.00260547  0.16246221  1
  Ag  Ag30  1  0.49657492  0.17059551  -0.01350279  1
  Ag  Ag31  1  0.83487245  0.65612186  0.82686165  1
  Ag  Ag32  1  0.65949184  0.00111441  0.66712383  1
  Ag  Ag33  1  0.34337017  0.33001031  0.66329899  1
  Ag  Ag34  1  0.17409132  0.32642329  0.49663567  1
  Ag  Ag35  1  0.82791468  0.00437155  0.16971801  1
  Ag  Ag36  1  0.50450963  0.48742705  0.66943792  1
  Ag  Ag37  1  -0.00483992  0.66808500  0.66922082  1
  Ag  Ag38  1  0.66912493  0.49575263  0.82642756  1
  Ag  Ag39  1  0.00412812  0.00944551  0.33695599  1
  Ag  Ag40  1  0.83512440  0.33625859  0.17021153  1
  Ag  Ag41  1  0.65456809  0.17755278  0.82746100  1
  Ag  Ag42  1  0.00199849  0.16990944  0.82970815  1
  Ag  Ag43  1  0.16868869  0.33213950  0.17751455  1
  Ag  Ag44  1  0.66488245  0.82300178  0.50088536  1
  Ag  Ag45  1  0.33131931  0.17348290  0.50404813  1
  Ag  Ag46  1  0.50581937  0.66727659  0.16906921  1
  Ag  Ag47  1  0.33548364  0.00421972  -0.00077973  1
  Ag  Ag48  1  0.00325417  0.32869389  0.33363933  1
  Ag  Ag49  1  0.82643235  0.65871543  0.17155222  1
  Ag  Ag50  1  0.34171143  0.16592135  0.82452887  1
  Ag  Ag51  1  0.00878611  0.00006644  0.66568120  1
  Ag  Ag52  1  0.66670637  0.66507146  0.33967777  1
  Ag  Ag53  1  -0.01291839  0.49671680  0.83130657  1
  Sb  Sb54  1  -0.00092398  0.66483213  -0.00663334  1
  Sb  Sb55  1  0.49525322  0.00694942  0.50381956  1
  Sb  Sb56  1  0.83621974  0.82885117  0.00210380  1
  Sb  Sb57  1  0.82767343  0.17167249  0.00215516  1
  Sb  Sb58  1  0.17461358  0.16344098  -0.00252107  1
  Sb  Sb59  1  0.49819994  0.83547620  0.33625202  1
  Sb  Sb60  1  0.66487764  0.50276265  0.16783144  1
  Sb  Sb61  1  0.16883929  0.50219534  0.00201031  1
  Sb  Sb62  1  -0.00253633  0.66483959  0.33809611  1
  Sb  Sb63  1  0.82538676  0.50096620  0.66877999  1
  Sb  Sb64  1  -0.00042957  0.33323077  0.00155976  1
  Sb  Sb65  1  0.33649537  0.83434338  0.16865197  1
  Sb  Sb66  1  0.66910585  -0.00232828  0.33731464  1
  Sb  Sb67  1  0.33746834  0.49444286  0.83192357  1
  Sb  Sb68  1  0.83597765  -0.00138634  0.49713716  1
  Sb  Sb69  1  0.33668762  0.66047443  0.66261492  1
  Sb  Sb70  1  0.33127039  0.84021467  0.83160241  1
  Sb  Sb71  1  0.49719970  0.83620510  -0.00154455  1
  Sb  Sb72  1  0.33436997  0.32849424  -0.00299043  1
  Sb  Sb73  1  0.83535401  0.83084616  0.33295763  1
  Sb  Sb74  1  0.33429707  0.66819699  0.00304841  1
  Sb  Sb75  1  0.83111065  0.33740175  0.50065110  1
  Sb  Sb76  1  0.17156306  0.49578666  0.66262561  1
  Sb  Sb77  1  0.50420778  0.66012238  0.49823940  1
  Sb  Sb78  1  -0.00115675  0.83333614  0.50146017  1
  Sb  Sb79  1  0.66668269  0.66585900  -0.00056834  1
  Sb  Sb80  1  0.16835828  0.32933218  0.83001873  1
  Sb  Sb81  1  0.49839613  0.49597812  0.33543167  1
  Sb  Sb82  1  -0.00063019  0.49913028  0.16534296  1
  Sb  Sb83  1  -0.00250860  0.83458808  0.16932912  1
  Sb  Sb84  1  0.67026416  0.33746672  0.33897982  1
  Sb  Sb85  1  0.00328908  0.16755579  0.16690981  1
  Sb  Sb86  1  0.16480420  0.66641781  0.50276733  1
  Sb  Sb87  1  0.49957673  0.33185336  0.16758834  1
  Sb  Sb88  1  0.83118998  0.83056199  0.66643705  1
  Sb  Sb89  1  0.00434252  0.00124403  -0.00190922  1
  Sb  Sb90  1  0.32889294  0.00341968  0.33011399  1
  Sb  Sb91  1  0.66571642  0.33483057  -0.00664657  1
  Sb  Sb92  1  0.33568733  0.83420106  0.50092369  1
  Sb  Sb93  1  0.65947291  0.17030805  0.50513448  1
  Sb  Sb94  1  0.00044441  0.33251934  0.66493700  1
  Sb  Sb95  1  0.33334001  0.00871533  0.67108264  1
  Sb  Sb96  1  0.16645598  0.66398111  0.16759688  1
  Sb  Sb97  1  0.66141583  0.16424887  0.16546183  1
  Sb  Sb98  1  0.66106526  0.00059484  -0.00408199  1
  Sb  Sb99  1  0.66523032  0.83070470  0.82851517  1
  Sb  Sb100  1  0.50117243  0.66334754  0.83352152  1
  Sb  Sb101  1  0.83182811  0.16683023  0.66447891  1
  Sb  Sb102  1  0.00671252  0.16696256  0.50083812  1
  Sb  Sb103  1  0.32782739  0.33529059  0.34038867  1
  Sb  Sb104  1  0.00264684  0.83229424  0.82967927  1
  Sb  Sb105  1  0.16922363  0.00433328  0.16789409  1
  Sb  Sb106  1  0.83341241  0.00332301  0.83528193  1
  Sb  Sb107  1  -0.00124368  0.49967172  0.50356664  1
  Te  Te108  1  0.17098283  0.17103374  0.16655077  1
  Te  Te109  1  0.16898586  0.16648948  0.50057422  1
  Te  Te110  1  0.16546096  0.16504243  0.83217460  1
  Te  Te111  1  0.16956889  0.49646016  0.17054862  1
  Te  Te112  1  0.16952399  0.49874471  0.49513994  1
  Te  Te113  1  0.16810675  0.49979977  0.83453932  1
  Te  Te114  1  0.16661056  0.83353542  0.17307653  1
  Te  Te115  1  0.16763872  0.83476986  0.50134269  1
  Te  Te116  1  0.16641695  0.83529461  0.82796793  1
  Te  Te117  1  0.49793909  0.16508802  0.17342322  1
  Te  Te118  1  0.49431350  0.17092609  0.49623766  1
  Te  Te119  1  0.49926766  0.16649578  0.83092042  1
  Te  Te120  1  0.49745034  0.50046969  0.16541542  1
  Te  Te121  1  0.49972661  0.49596184  0.50171194  1
  Te  Te122  1  0.50187322  0.49915706  0.83334005  1
  Te  Te123  1  0.50375340  0.83413903  0.16690847  1
  Te  Te124  1  0.50392933  0.83668916  0.50444149  1
  Te  Te125  1  0.49923081  0.83500565  0.82902298  1
  Te  Te126  1  0.83227144  0.16886977  0.16888313  1
  Te  Te127  1  0.83280303  0.16727689  0.49154337  1
  Te  Te128  1  0.83673950  0.17056058  0.83472623  1
  Te  Te129  1  0.83244000  0.49889617  0.16762600  1
  Te  Te130  1  0.83076377  0.50264462  0.49406347  1
  Te  Te131  1  0.83057392  0.49906430  0.83218631  1
  Te  Te132  1  0.82790614  0.83269692  0.16615078  1
  Te  Te133  1  0.82572152  0.82803330  0.49928381  1
  Te  Te134  1  0.83380723  0.82624092  0.83655611  1
  Te  Te135  1  0.17058879  -0.00380796  -0.00144690  1
  Te  Te136  1  0.16400840  0.00266708  0.33231600  1
  Te  Te137  1  0.16889826  0.00300048  0.66761686  1
  Te  Te138  1  0.16654245  0.33413080  0.00980520  1
  Te  Te139  1  0.16516227  0.33220199  0.33531115  1
  Te  Te140  1  0.16780588  0.32783442  0.66123586  1
  Te  Te141  1  0.16685152  0.67180241  -0.00498123  1
  Te  Te142  1  0.16552973  0.66658009  0.33397946  1
  Te  Te143  1  0.16785089  0.66388124  0.66934530  1
  Te  Te144  1  0.49690036  0.00155285  0.00004348  1
  Te  Te145  1  0.50013025  0.00436400  0.33067441  1
  Te  Te146  1  0.50004894  0.00001659  0.66836674  1
  Te  Te147  1  0.49962351  0.33301220  -0.00022817  1
  Te  Te148  1  0.50310415  0.32739312  0.33517338  1
  Te  Te149  1  0.50106651  0.33159411  0.66521250  1
  Te  Te150  1  0.49908306  0.66546505  0.00590222  1
  Te  Te151  1  0.50146459  0.66703711  0.32950849  1
  Te  Te152  1  0.50422231  0.67405933  0.66650792  1
  Te  Te153  1  0.83395979  -0.00039813  0.00709294  1
  Te  Te154  1  0.83767365  0.00100281  0.32994157  1
  Te  Te155  1  0.83854374  -0.00162165  0.66720461  1
  Te  Te156  1  0.83320091  0.33963811  -0.00000856  1
  Te  Te157  1  0.83642409  0.33541111  0.33402304  1
  Te  Te158  1  0.83152086  0.33213260  0.67160733  1
  Te  Te159  1  0.83336533  0.66099535  0.00232723  1
  Te  Te160  1  0.83172488  0.66401735  0.33311631  1
  Te  Te161  1  0.83252903  0.66676910  0.66716660  1
  Te  Te162  1  -0.00123687  0.16608460  -0.00807916  1
  Te  Te163  1  0.00171605  0.16747424  0.33230786  1
  Te  Te164  1  0.00045794  0.16454163  0.66947297  1
  Te  Te165  1  -0.00346533  0.49956576  -0.00785080  1
  Te  Te166  1  0.00117484  0.49750803  0.33391529  1
  Te  Te167  1  0.00289334  0.50280294  0.67109732  1
  Te  Te168  1  0.00998664  0.83330623  0.00135233  1
  Te  Te169  1  0.00687043  0.83717975  0.33499762  1
  Te  Te170  1  0.00676180  0.83467941  0.66604839  1
  Te  Te171  1  0.33874009  0.16361217  0.00418368  1
  Te  Te172  1  0.33008615  0.16688263  0.33200760  1
  Te  Te173  1  0.33403178  0.16984282  0.66518673  1
  Te  Te174  1  0.33781615  0.50003885  0.00443792  1
  Te  Te175  1  0.33292005  0.50155920  0.33321558  1
  Te  Te176  1  0.34031983  0.49381601  0.66271953  1
  Te  Te177  1  0.32825962  0.83879540  0.00094951  1
  Te  Te178  1  0.32860273  0.82567001  0.33418820  1
  Te  Te179  1  0.33162906  0.82885081  0.66522127  1
  Te  Te180  1  0.65886956  0.16583846  -0.00796782  1
  Te  Te181  1  0.67154322  0.16667719  0.33438646  1
  Te  Te182  1  0.66574699  0.16343126  0.66888810  1
  Te  Te183  1  0.66473503  0.50083991  -0.00504059  1
  Te  Te184  1  0.66902172  0.50439761  0.33674928  1
  Te  Te185  1  0.66387377  0.50086069  0.66624041  1
  Te  Te186  1  0.66639712  0.83353885  0.00788830  1
  Te  Te187  1  0.66622767  0.82913186  0.33521214  1
  Te  Te188  1  0.66499186  0.83462929  0.66446175  1
  Te  Te189  1  -0.00547598  0.00078548  0.17043529  1
  Te  Te190  1  0.00380121  -0.00048073  0.50096716  1
  Te  Te191  1  0.00205482  0.00355497  0.83004422  1
  Te  Te192  1  -0.00230109  0.33342186  0.17154795  1
  Te  Te193  1  0.00278955  0.33437618  0.49553581  1
  Te  Te194  1  -0.00011290  0.33433852  0.83311836  1
  Te  Te195  1  -0.00799134  0.66690004  0.16765728  1
  Te  Te196  1  -0.00758708  0.66661590  0.50789922  1
  Te  Te197  1  -0.00045254  0.66436065  0.82815930  1
  Te  Te198  1  0.33770980  0.00271818  0.16298281  1
  Te  Te199  1  0.32703554  0.00275818  0.49746216  1
  Te  Te200  1  0.33291083  0.00585992  0.83718648  1
  Te  Te201  1  0.33300200  0.33368164  0.16411888  1
  Te  Te202  1  0.33247135  0.33331054  0.50163411  1
  Te  Te203  1  0.33620620  0.32703100  0.82836107  1
  Te  Te204  1  0.33422844  0.66358476  0.17093771  1
  Te  Te205  1  0.33356998  0.66181732  0.49407824  1
  Te  Te206  1  0.32782175  0.66591889  0.83370034  1
  Te  Te207  1  0.66570095  -0.00303897  0.16796686  1
  Te  Te208  1  0.66727367  -0.00138895  0.50590155  1
  Te  Te209  1  0.66559025  -0.00099287  0.82838644  1
  Te  Te210  1  0.67402374  0.33336787  0.16796056  1
  Te  Te211  1  0.66375919  0.33802181  0.50704552  1
  Te  Te212  1  0.66620893  0.33452724  0.83002321  1
  Te  Te213  1  0.66662729  0.66742989  0.16720408  1
  Te  Te214  1  0.66578565  0.66459243  0.50010959  1
  Te  Te215  1  0.66939575  0.66341019  0.82872175  1
