# generated using pymatgen
data_AgSbTe2
_symmetry_space_group_name_H-M   'P 1'
_cell_length_a   18.33561011
_cell_length_b   18.33298548
_cell_length_c   18.33481429
_cell_angle_alpha   90.00422084
_cell_angle_beta   90.00109358
_cell_angle_gamma   90.00387806
_symmetry_Int_Tables_number   1
_chemical_formula_structural   AgSbTe2
_chemical_formula_sum   'Ag54 Sb54 Te108'
_cell_volume   6163.18314051
_cell_formula_units_Z   54
loop_
 _symmetry_equiv_pos_site_id
 _symmetry_equiv_pos_as_xyz
  1  'x, y, z'
loop_
 _atom_site_type_symbol
 _atom_site_label
 _atom_site_symmetry_multiplicity
 _atom_site_fract_x
 _atom_site_fract_y
 _atom_site_fract_z
 _atom_site_occupancy
  Ag  Ag0  1  0.16212641  0.50609504  0.32843983  1
  Ag  Ag1  1  0.66312267  0.49204794  0.83427219  1
  Ag  Ag2  1  0.16859928  0.17066430  0.01218370  1
  Ag  Ag3  1  0.49203101  0.33106532  0.16159562  1
  Ag  Ag4  1  0.66885082  0.17063851  0.84208473  1
  Ag  Ag5  1  0.33234315  0.67180915  0.65623687  1
  Ag  Ag6  1  0.66721603  0.66579085  0.01270148  1
  Ag  Ag7  1  0.00664301  0.17187359  0.16786774  1
  Ag  Ag8  1  0.50224768  0.33447258  0.84417599  1
  Ag  Ag9  1  0.17078824  0.49082672  0.01111771  1
  Ag  Ag10  1  0.50272992  0.50362496  0.33146951  1
  Ag  Ag11  1  0.16426569  0.66169539  0.16959509  1
  Ag  Ag12  1  0.83425386  0.50289071  0.33095288  1
  Ag  Ag13  1  0.67256682  -0.00494914  0.33655559  1
  Ag  Ag14  1  0.83650939  0.16190806  0.32504257  1
  Ag  Ag15  1  0.83477065  0.16247574  0.66526976  1
  Ag  Ag16  1  0.16638900  0.32846051  0.16556385  1
  Ag  Ag17  1  0.00223493  0.33699520  0.32576965  1
  Ag  Ag18  1  0.82659043  0.83702971  0.32838597  1
  Ag  Ag19  1  0.33442347  0.32550784  0.67043955  1
  Ag  Ag20  1  0.00445634  0.66164003  0.32875603  1
  Ag  Ag21  1  0.49847397  0.49004031  0.00464312  1
  Ag  Ag22  1  0.00517700  0.49047507  0.17019510  1
  Ag  Ag23  1  0.17239804  0.67264840  0.48630673  1
  Ag  Ag24  1  0.49983390  0.49767891  0.66173010  1
  Ag  Ag25  1  0.82539207  0.32898148  0.83659581  1
  Ag  Ag26  1  0.32541928  0.66916498  0.33444884  1
  Ag  Ag27  1  0.33059030  0.15877764  0.49542660  1
  Ag  Ag28  1  0.83537579  0.83997997  0.00894766  1
  Ag  Ag29  1  0.66419594  0.50703487  0.49062771  1
  Ag  Ag30  1  0.83657280  0.00436994  0.17151206  1
  Ag  Ag31  1  0.83626126  0.67219061  0.17241201  1
  Ag  Ag32  1  0.33583128  0.83988986  0.49528406  1
  Ag  Ag33  1  0.16348679  0.16825144  0.32421318  1
  Ag  Ag34  1  0.16925695  0.16357117  0.66331057  1
  Ag  Ag35  1  0.32754455  0.83722039  0.17107388  1
  Ag  Ag36  1  0.33254566  0.00459682  0.65840616  1
  Ag  Ag37  1  0.33346869  0.83319185  0.83636505  1
  Ag  Ag38  1  0.49920740  -0.00101062  0.49845092  1
  Ag  Ag39  1  0.16755728  0.83439822  0.00748862  1
  Ag  Ag40  1  0.67321918  0.16544537  0.16437116  1
  Ag  Ag41  1  0.66927018  0.67085267  0.33068610  1
  Ag  Ag42  1  0.32230944  0.16497002  0.16906589  1
  Ag  Ag43  1  0.83106234  0.16630194  0.00796196  1
  Ag  Ag44  1  0.66169528  0.83687513  0.49319605  1
  Ag  Ag45  1  0.50433808  0.82949552  0.33450534  1
  Ag  Ag46  1  0.00763001  0.32960976  0.00856159  1
  Ag  Ag47  1  0.82539443  0.00106735  0.48984378  1
  Ag  Ag48  1  0.00332464  0.00559832  0.66259089  1
  Ag  Ag49  1  0.66590547  0.00218706  0.65606330  1
  Ag  Ag50  1  0.17348265  0.00142332  0.49484812  1
  Ag  Ag51  1  0.33484236  0.33009618  0.00157643  1
  Ag  Ag52  1  0.49866873  0.17217721  0.00432323  1
  Ag  Ag53  1  0.16409348  0.01264622  0.17243128  1
  Sb  Sb54  1  0.83483726  0.67311326  0.48951315  1
  Sb  Sb55  1  0.66425776  0.16172407  0.49727359  1
  Sb  Sb56  1  0.32685295  0.49656916  0.16759289  1
  Sb  Sb57  1  0.49890382  0.16937817  0.66928414  1
  Sb  Sb58  1  0.66396588  0.33349613  0.00067602  1
  Sb  Sb59  1  0.16889546  0.00213627  0.83333131  1
  Sb  Sb60  1  0.66810172  0.00032388  0.00427084  1
  Sb  Sb61  1  0.33562087  -0.00297625  0.33713704  1
  Sb  Sb62  1  0.49940300  0.83348326  0.00763334  1
  Sb  Sb63  1  -0.00366202  0.00087526  0.33366367  1
  Sb  Sb64  1  0.66239770  0.32856045  0.66945399  1
  Sb  Sb65  1  0.67057501  0.33285437  0.33134706  1
  Sb  Sb66  1  0.00485266  0.32689103  0.66746834  1
  Sb  Sb67  1  0.17249478  0.49513740  0.66323684  1
  Sb  Sb68  1  0.33857420  0.50138581  0.83396499  1
  Sb  Sb69  1  0.49953685  0.00539827  0.82805489  1
  Sb  Sb70  1  0.66368674  0.66810876  0.66060484  1
  Sb  Sb71  1  0.49846394  0.33072321  0.49696507  1
  Sb  Sb72  1  -0.00545566  0.49654710  0.84297939  1
  Sb  Sb73  1  0.33208438  0.00417117  0.00028895  1
  Sb  Sb74  1  0.33547930  0.66432933  0.00536563  1
  Sb  Sb75  1  0.66721493  0.83613456  0.17335446  1
  Sb  Sb76  1  0.83103083  0.00546775  0.83444882  1
  Sb  Sb77  1  0.00223251  0.83745967  0.49444821  1
  Sb  Sb78  1  0.83819323  0.32748537  0.16446253  1
  Sb  Sb79  1  0.49901936  0.00453717  0.17209830  1
  Sb  Sb80  1  0.49656419  0.83148380  0.66119143  1
  Sb  Sb81  1  0.00659923  0.66904051  0.65668805  1
  Sb  Sb82  1  0.83225248  0.32696523  0.49932093  1
  Sb  Sb83  1  0.66299182  0.83531205  0.83138409  1
  Sb  Sb84  1  0.49514659  0.67097525  0.49580263  1
  Sb  Sb85  1  0.00488390  0.16403032  0.49291114  1
  Sb  Sb86  1  0.82728875  0.49493399  0.66138285  1
  Sb  Sb87  1  0.00094587  0.00556872  0.00075300  1
  Sb  Sb88  1  0.49811170  0.66145838  0.17075971  1
  Sb  Sb89  1  -0.00487800  0.16838435  0.83938895  1
  Sb  Sb90  1  0.16925611  0.66694970  0.83838908  1
  Sb  Sb91  1  0.33699230  0.16556182  0.83524356  1
  Sb  Sb92  1  0.83124047  0.49507841  0.00797765  1
  Sb  Sb93  1  0.66846295  0.49652590  0.16812743  1
  Sb  Sb94  1  -0.00154151  0.66192770  0.00953503  1
  Sb  Sb95  1  0.83018650  0.66200016  0.84357035  1
  Sb  Sb96  1  0.00311113  0.83484215  0.83665983  1
  Sb  Sb97  1  0.49946356  0.66021126  0.83364606  1
  Sb  Sb98  1  0.16964860  0.33002485  0.49163206  1
  Sb  Sb99  1  0.00168733  0.83556818  0.16897373  1
  Sb  Sb100  1  0.17121350  0.83935449  0.66662951  1
  Sb  Sb101  1  -0.00336571  0.50093631  0.48989337  1
  Sb  Sb102  1  0.49871069  0.16711652  0.32830950  1
  Sb  Sb103  1  0.83170909  0.84137124  0.66288053  1
  Sb  Sb104  1  0.16863580  0.83320353  0.32873396  1
  Sb  Sb105  1  0.17063587  0.33173933  0.84312607  1
  Sb  Sb106  1  0.33655068  0.50107860  0.49798269  1
  Sb  Sb107  1  0.32965758  0.33531507  0.32905995  1
  Te  Te108  1  0.16624207  0.16847629  0.16731535  1
  Te  Te109  1  0.17053621  0.16383041  0.50309401  1
  Te  Te110  1  0.16575886  0.16721730  0.82845776  1
  Te  Te111  1  0.16638960  0.50208893  0.16842850  1
  Te  Te112  1  0.16604365  0.50191370  0.49388570  1
  Te  Te113  1  0.16507801  0.49998934  0.83797175  1
  Te  Te114  1  0.16765969  0.83014765  0.16564375  1
  Te  Te115  1  0.17031547  0.83595474  0.49916124  1
  Te  Te116  1  0.17181954  0.83413372  0.84236297  1
  Te  Te117  1  0.50026622  0.16919930  0.16391652  1
  Te  Te118  1  0.49402363  0.16248911  0.49883200  1
  Te  Te119  1  0.50480763  0.17220869  0.83795694  1
  Te  Te120  1  0.50002744  0.49511174  0.16621241  1
  Te  Te121  1  0.50363454  0.49921571  0.49790834  1
  Te  Te122  1  0.50341965  0.49511944  0.83823498  1
  Te  Te123  1  0.49241973  0.83474460  0.17283493  1
  Te  Te124  1  0.49892058  0.83717427  0.49541728  1
  Te  Te125  1  0.49433730  0.83336957  0.83644235  1
  Te  Te126  1  0.83158356  0.16648976  0.16770864  1
  Te  Te127  1  0.83239583  0.16102625  0.50182754  1
  Te  Te128  1  0.82893515  0.16953424  0.83355761  1
  Te  Te129  1  0.83635286  0.50212216  0.17173515  1
  Te  Te130  1  0.82732537  0.49988052  0.49413225  1
  Te  Te131  1  0.82622759  0.49360754  0.83246057  1
  Te  Te132  1  0.83276402  0.83434167  0.16739323  1
  Te  Te133  1  0.83044969  0.84007042  0.49598773  1
  Te  Te134  1  0.83321593  0.83173752  0.84027339  1
  Te  Te135  1  0.16589227  0.00162448  0.00503663  1
  Te  Te136  1  0.16443295  0.00154000  0.33356457  1
  Te  Te137  1  0.16998642  0.00332955  0.66547888  1
  Te  Te138  1  0.16839965  0.33202644  0.00372918  1
  Te  Te139  1  0.16457237  0.33109196  0.32723209  1
  Te  Te140  1  0.17265842  0.32904578  0.66816699  1
  Te  Te141  1  0.16636549  0.66812541  0.00569057  1
  Te  Te142  1  0.16714422  0.66958214  0.33005957  1
  Te  Te143  1  0.17186836  0.66503300  0.66554981  1
  Te  Te144  1  0.50073372  0.00704466  -0.00056175  1
  Te  Te145  1  0.50646692  -0.00143489  0.33765717  1
  Te  Te146  1  0.49850825  -0.00017598  0.66107693  1
  Te  Te147  1  0.50002756  0.33291628  0.00120128  1
  Te  Te148  1  0.49864977  0.33836972  0.32895760  1
  Te  Te149  1  0.49517302  0.33706037  0.66572694  1
  Te  Te150  1  0.50519755  0.66409065  0.00201152  1
  Te  Te151  1  0.50554207  0.66515089  0.33317021  1
  Te  Te152  1  0.49469954  0.65965718  0.66594084  1
  Te  Te153  1  0.83412385  0.00089239  0.00501356  1
  Te  Te154  1  0.83471870  0.00147618  0.33186445  1
  Te  Te155  1  0.83029870  0.00357212  0.66743104  1
  Te  Te156  1  0.83566805  0.32910442  -0.00214077  1
  Te  Te157  1  0.83830586  0.33280914  0.33407613  1
  Te  Te158  1  0.83514227  0.32638610  0.67041759  1
  Te  Te159  1  0.83025901  0.66635336  0.00787661  1
  Te  Te160  1  0.82948628  0.66366697  0.33229876  1
  Te  Te161  1  0.83587668  0.66711766  0.66516212  1
  Te  Te162  1  0.00103505  0.16956750  0.00494768  1
  Te  Te163  1  0.00025813  0.16670219  0.32919896  1
  Te  Te164  1  -0.00040628  0.16442955  0.66662390  1
  Te  Te165  1  0.00367784  0.49445516  0.00748011  1
  Te  Te166  1  0.00222155  0.50035984  0.32929002  1
  Te  Te167  1  -0.00016925  0.49873059  0.66641571  1
  Te  Te168  1  -0.00104373  0.83315287  0.00026705  1
  Te  Te169  1  -0.01201432  0.82465628  0.33257666  1
  Te  Te170  1  0.00096139  0.83823808  0.66751265  1
  Te  Te171  1  0.33125948  0.16919750  0.00199665  1
  Te  Te172  1  0.33019000  0.16732690  0.33216478  1
  Te  Te173  1  0.33294068  0.16516621  0.66865413  1
  Te  Te174  1  0.33380826  0.49666577  -0.00028701  1
  Te  Te175  1  0.33603540  0.50520773  0.33373674  1
  Te  Te176  1  0.33806124  0.49987156  0.66634704  1
  Te  Te177  1  0.33121924  0.83328441  0.00384225  1
  Te  Te178  1  0.33448439  0.83087289  0.33379570  1
  Te  Te179  1  0.33328584  0.83156814  0.65993515  1
  Te  Te180  1  0.66996950  0.16451040  0.00071694  1
  Te  Te181  1  0.66987358  0.16523495  0.33079809  1
  Te  Te182  1  0.66876500  0.16248017  0.66526401  1
  Te  Te183  1  0.66484517  0.50444854  -0.00139891  1
  Te  Te184  1  0.66587154  0.49934486  0.33281519  1
  Te  Te185  1  0.66140959  0.50041791  0.67001713  1
  Te  Te186  1  0.66863963  0.82871982  -0.00102553  1
  Te  Te187  1  0.66628429  0.83351359  0.33399098  1
  Te  Te188  1  0.66462069  0.83833099  0.66140507  1
  Te  Te189  1  0.00074019  0.00568334  0.16686871  1
  Te  Te190  1  0.00279565  0.00031391  0.50432926  1
  Te  Te191  1  -0.00010334  0.00039728  0.82275658  1
  Te  Te192  1  0.00003091  0.33188352  0.16751035  1
  Te  Te193  1  0.00053621  0.33313322  0.49371960  1
  Te  Te194  1  -0.00454108  0.33394916  0.83783590  1
  Te  Te195  1  -0.00129860  0.66657825  0.17019759  1
  Te  Te196  1  0.00941383  0.66821134  0.49253316  1
  Te  Te197  1  -0.00030329  0.66582884  0.83013142  1
  Te  Te198  1  0.32969858  0.00201634  0.16732684  1
  Te  Te199  1  0.33225433  -0.00004235  0.49889394  1
  Te  Te200  1  0.33473887  -0.00647208  0.82592497  1
  Te  Te201  1  0.33069640  0.32950459  0.16370309  1
  Te  Te202  1  0.33346238  0.32726232  0.50624957  1
  Te  Te203  1  0.33843867  0.33374361  0.83542310  1
  Te  Te204  1  0.33116350  0.67098300  0.17122426  1
  Te  Te205  1  0.33017192  0.66750793  0.49717061  1
  Te  Te206  1  0.33337326  0.67294401  0.82995458  1
  Te  Te207  1  0.66936539  0.00365212  0.17155007  1
  Te  Te208  1  0.66638970  0.00016695  0.49737756  1
  Te  Te209  1  0.66505293  0.00418992  0.82832317  1
  Te  Te210  1  0.66005366  0.32654720  0.16714855  1
  Te  Te211  1  0.66592195  0.34306618  0.50137288  1
  Te  Te212  1  0.66442705  0.33163854  0.83337568  1
  Te  Te213  1  0.66887516  0.66676383  0.16968807  1
  Te  Te214  1  0.66794022  0.66954120  0.49536572  1
  Te  Te215  1  0.66677091  0.66487005  0.83131114  1
