# generated using pymatgen
data_AgSbTe2
_symmetry_space_group_name_H-M   'P 1'
_cell_length_a   18.31498869
_cell_length_b   18.30698679
_cell_length_c   18.31187003
_cell_angle_alpha   90.00305554
_cell_angle_beta   90.00090544
_cell_angle_gamma   90.00323590
_symmetry_Int_Tables_number   1
_chemical_formula_structural   AgSbTe2
_chemical_formula_sum   'Ag54 Sb54 Te108'
_cell_volume   6139.82819333
_cell_formula_units_Z   54
loop_
 _symmetry_equiv_pos_site_id
 _symmetry_equiv_pos_as_xyz
  1  'x, y, z'
loop_
 _atom_site_type_symbol
 _atom_site_label
 _atom_site_symmetry_multiplicity
 _atom_site_fract_x
 _atom_site_fract_y
 _atom_site_fract_z
 _atom_site_occupancy
  Ag  Ag0  1  0.33267129  0.83337727  0.16107997  1
  Ag  Ag1  1  0.32972354  0.33093766  0.00834239  1
  Ag  Ag2  1  0.16164580  0.67329677  0.50200040  1
  Ag  Ag3  1  0.16721895  0.83285437  0.68008097  1
  Ag  Ag4  1  0.49850686  0.50343291  -0.00035537  1
  Ag  Ag5  1  0.16638848  0.50949749  -0.00102976  1
  Ag  Ag6  1  0.66912868  0.83050068  0.16553713  1
  Ag  Ag7  1  0.00955009  0.83071159  0.83363294  1
  Ag  Ag8  1  0.83489679  0.67069897  0.16485619  1
  Ag  Ag9  1  0.49796413  0.33444728  0.17127156  1
  Ag  Ag10  1  -0.00134068  0.67354564  0.32816557  1
  Ag  Ag11  1  0.83015579  0.16359377  0.66835790  1
  Ag  Ag12  1  0.84102994  0.67061873  0.49444776  1
  Ag  Ag13  1  0.00444803  0.66967839  0.00167947  1
  Ag  Ag14  1  0.32401884  -0.00026844  -0.00281509  1
  Ag  Ag15  1  0.84144983  -0.00427958  0.49637292  1
  Ag  Ag16  1  0.16800293  -0.01023131  0.83875242  1
  Ag  Ag17  1  0.33914459  0.32787058  0.32812402  1
  Ag  Ag18  1  0.32711582  0.00246514  0.33415709  1
  Ag  Ag19  1  0.33176690  0.67447539  0.66872088  1
  Ag  Ag20  1  0.00182421  0.83303839  0.50058507  1
  Ag  Ag21  1  -0.00006404  -0.00567708  0.33249842  1
  Ag  Ag22  1  0.83209325  0.33100499  0.16689640  1
  Ag  Ag23  1  0.49617080  0.67008685  0.84030017  1
  Ag  Ag24  1  0.66414707  0.66584558  0.67386637  1
  Ag  Ag25  1  -0.00025727  0.33330163  0.33254951  1
  Ag  Ag26  1  0.83490557  -0.00291237  0.16464671  1
  Ag  Ag27  1  0.16650862  0.67698108  0.83988670  1
  Ag  Ag28  1  0.49625921  0.33256077  0.49027014  1
  Ag  Ag29  1  0.33498203  0.49664192  0.50017523  1
  Ag  Ag30  1  0.66468265  0.50133686  0.50343287  1
  Ag  Ag31  1  0.67044095  0.66418606  0.00056037  1
  Ag  Ag32  1  0.49686010  0.17094477  0.33473648  1
  Ag  Ag33  1  0.16431054  0.15784923  0.00058979  1
  Ag  Ag34  1  0.84066095  -0.00064635  0.83884432  1
  Ag  Ag35  1  0.33000766  -0.00490674  0.67201917  1
  Ag  Ag36  1  0.83688150  0.83421854  0.33033801  1
  Ag  Ag37  1  0.83423500  0.50331014  0.00013225  1
  Ag  Ag38  1  0.48918483  -0.00705932  0.83492458  1
  Ag  Ag39  1  -0.00001274  0.33248182  0.66277685  1
  Ag  Ag40  1  0.00492158  -0.00645607  -0.00131653  1
  Ag  Ag41  1  0.83699884  0.16443022  0.00311989  1
  Ag  Ag42  1  0.50086737  0.16643924  0.66274037  1
  Ag  Ag43  1  -0.00128535  0.50891709  0.83742255  1
  Ag  Ag44  1  0.66913382  0.16810157  0.16610918  1
  Ag  Ag45  1  0.66932809  0.50535306  0.83610862  1
  Ag  Ag46  1  0.50119759  0.66396526  0.15992460  1
  Ag  Ag47  1  0.16386011  -0.00708700  0.50258071  1
  Ag  Ag48  1  0.32222495  0.83468131  0.83779499  1
  Ag  Ag49  1  0.66056326  0.33298548  0.32964800  1
  Ag  Ag50  1  0.17000011  0.33628640  0.16396363  1
  Ag  Ag51  1  0.33393568  0.16740776  0.49803876  1
  Ag  Ag52  1  0.16628346  0.83238600  -0.00650439  1
  Ag  Ag53  1  0.16407994  0.66794387  0.15609685  1
  Sb  Sb54  1  0.33320078  0.50092113  0.16705537  1
  Sb  Sb55  1  0.83873761  0.83615567  0.66383232  1
  Sb  Sb56  1  0.66522161  0.33908753  0.00641792  1
  Sb  Sb57  1  0.66879204  0.33643961  0.66270942  1
  Sb  Sb58  1  0.66783496  0.16876033  0.83743179  1
  Sb  Sb59  1  0.00165733  0.66628414  0.66952362  1
  Sb  Sb60  1  0.00367517  0.33623352  0.00322430  1
  Sb  Sb61  1  0.16695382  0.50665840  0.67150838  1
  Sb  Sb62  1  0.83365775  0.49844209  0.67114869  1
  Sb  Sb63  1  -0.00459450  0.16636715  0.16531142  1
  Sb  Sb64  1  0.66913749  -0.00554502  0.00090734  1
  Sb  Sb65  1  0.17052473  0.16604598  0.32808706  1
  Sb  Sb66  1  0.32530719  0.83510546  0.50071941  1
  Sb  Sb67  1  0.33230217  0.50817004  0.83350304  1
  Sb  Sb68  1  0.49892712  0.66167871  0.49977326  1
  Sb  Sb69  1  0.66761041  0.82844350  0.83865510  1
  Sb  Sb70  1  0.66415656  -0.00461751  0.66755814  1
  Sb  Sb71  1  0.83413718  0.50308704  0.32783332  1
  Sb  Sb72  1  0.17063961  0.33426602  0.49402597  1
  Sb  Sb73  1  0.16588122  0.33485969  0.83975080  1
  Sb  Sb74  1  0.49312065  0.83485858  0.66859389  1
  Sb  Sb75  1  0.16802193  0.16029023  0.67047142  1
  Sb  Sb76  1  0.49300039  0.82894708  0.00015846  1
  Sb  Sb77  1  0.16611962  0.50067005  0.32853530  1
  Sb  Sb78  1  0.49853048  0.33638736  0.83601276  1
  Sb  Sb79  1  0.83544064  0.33145820  0.83865262  1
  Sb  Sb80  1  0.33409921  0.15686678  0.83168053  1
  Sb  Sb81  1  0.50037976  0.49487879  0.32962444  1
  Sb  Sb82  1  0.00326251  0.00156388  0.66818939  1
  Sb  Sb83  1  0.32948500  0.66905724  -0.00260061  1
  Sb  Sb84  1  0.49383416  0.00543927  0.50247587  1
  Sb  Sb85  1  0.33046790  0.33086054  0.66554208  1
  Sb  Sb86  1  0.50214944  0.83674576  0.33077212  1
  Sb  Sb87  1  0.16131161  0.83357228  0.33051147  1
  Sb  Sb88  1  0.00070488  0.83199428  0.16543604  1
  Sb  Sb89  1  0.83097048  0.16326023  0.33003929  1
  Sb  Sb90  1  0.84052835  0.83276056  0.00456183  1
  Sb  Sb91  1  0.16396138  -0.00244394  0.16231249  1
  Sb  Sb92  1  0.67512609  0.82772193  0.49612291  1
  Sb  Sb93  1  0.00352629  0.16151116  0.50019063  1
  Sb  Sb94  1  0.66382269  0.16938792  0.49634407  1
  Sb  Sb95  1  0.49971701  0.49869014  0.67046273  1
  Sb  Sb96  1  0.33619270  0.16561138  0.16936418  1
  Sb  Sb97  1  -0.00045085  0.16196925  0.83464444  1
  Sb  Sb98  1  0.83142098  0.33370491  0.49437245  1
  Sb  Sb99  1  0.67177298  0.66225924  0.32899389  1
  Sb  Sb100  1  0.32829282  0.66811042  0.33498376  1
  Sb  Sb101  1  0.83575138  0.67052082  0.83679281  1
  Sb  Sb102  1  0.49966633  0.16923271  0.00088494  1
  Sb  Sb103  1  0.66678477  0.50094493  0.16370151  1
  Sb  Sb104  1  0.00071675  0.50512048  0.50359604  1
  Sb  Sb105  1  0.50084494  0.00068690  0.16331057  1
  Sb  Sb106  1  0.66887767  0.00364726  0.33184503  1
  Sb  Sb107  1  0.00018109  0.50239935  0.16003159  1
  Te  Te108  1  0.16788583  0.17134241  0.15937488  1
  Te  Te109  1  0.17280799  0.16247898  0.50095847  1
  Te  Te110  1  0.16649607  0.16312159  0.84000415  1
  Te  Te111  1  0.16733325  0.50255964  0.16042913  1
  Te  Te112  1  0.16997692  0.50354349  0.50133821  1
  Te  Te113  1  0.16388065  0.50303651  0.83861169  1
  Te  Te114  1  0.17148893  0.82902155  0.16321766  1
  Te  Te115  1  0.16164070  0.83349193  0.49643791  1
  Te  Te116  1  0.16635367  0.83354716  0.83490195  1
  Te  Te117  1  0.50597183  0.16925939  0.16889787  1
  Te  Te118  1  0.49757912  0.17033493  0.49914131  1
  Te  Te119  1  0.50222755  0.16353188  0.82986379  1
  Te  Te120  1  0.49992877  0.50148228  0.16096773  1
  Te  Te121  1  0.49959476  0.49500439  0.50052410  1
  Te  Te122  1  0.50209978  0.50505659  0.83813745  1
  Te  Te123  1  0.49981897  0.83017818  0.16684031  1
  Te  Te124  1  0.50211658  0.83381643  0.49927216  1
  Te  Te125  1  0.49991070  0.83173539  0.83313580  1
  Te  Te126  1  0.82926363  0.16640914  0.16484730  1
  Te  Te127  1  0.83302763  0.16391379  0.50287248  1
  Te  Te128  1  0.83253467  0.16141055  0.83589752  1
  Te  Te129  1  0.83273077  0.50197975  0.16009257  1
  Te  Te130  1  0.83105471  0.50370529  0.50129435  1
  Te  Te131  1  0.83388688  0.49961264  0.83908380  1
  Te  Te132  1  0.83306329  0.83188967  0.16911106  1
  Te  Te133  1  0.83952829  0.83258769  0.49683982  1
  Te  Te134  1  0.83578346  0.84032051  0.83258885  1
  Te  Te135  1  0.16487751  -0.00135329  0.00049548  1
  Te  Te136  1  0.16531998  0.00081467  0.33463808  1
  Te  Te137  1  0.17012861  -0.00308597  0.66536756  1
  Te  Te138  1  0.16931127  0.33373721  0.00431479  1
  Te  Te139  1  0.16512553  0.33333014  0.32576898  1
  Te  Te140  1  0.16145163  0.33188499  0.66664994  1
  Te  Te141  1  0.16590481  0.66759638  -0.00082500  1
  Te  Te142  1  0.15991458  0.66594928  0.33579663  1
  Te  Te143  1  0.16839648  0.67124868  0.66544267  1
  Te  Te144  1  0.49710865  0.00011397  -0.00584439  1
  Te  Te145  1  0.49594387  0.00590901  0.33293216  1
  Te  Te146  1  0.49579473  0.00370105  0.67065692  1
  Te  Te147  1  0.49553058  0.33734705  0.00438922  1
  Te  Te148  1  0.49817574  0.33257939  0.33127860  1
  Te  Te149  1  0.49982628  0.32724070  0.66491091  1
  Te  Te150  1  0.49714227  0.66365465  0.00037255  1
  Te  Te151  1  0.49902325  0.66711386  0.32567274  1
  Te  Te152  1  0.49875771  0.66667482  0.66937933  1
  Te  Te153  1  0.83475939  -0.00003382  0.00239265  1
  Te  Te154  1  0.83588783  -0.00240292  0.33226213  1
  Te  Te155  1  0.83289786  0.00387383  0.66628476  1
  Te  Te156  1  0.83379592  0.33177167  0.00614204  1
  Te  Te157  1  0.83657888  0.33311721  0.32719062  1
  Te  Te158  1  0.83685052  0.32759835  0.66619172  1
  Te  Te159  1  0.83642790  0.66605245  0.00231652  1
  Te  Te160  1  0.83771760  0.66878394  0.33191228  1
  Te  Te161  1  0.82933019  0.66711010  0.66331215  1
  Te  Te162  1  -0.00181039  0.16198990  -0.00043992  1
  Te  Te163  1  0.00095181  0.16539712  0.33351135  1
  Te  Te164  1  -0.00446973  0.17241288  0.66754704  1
  Te  Te165  1  0.00027442  0.50255405  -0.00453234  1
  Te  Te166  1  0.00016714  0.49855284  0.33515313  1
  Te  Te167  1  -0.00031954  0.49346790  0.67456640  1
  Te  Te168  1  0.00453861  0.83271185  -0.00258270  1
  Te  Te169  1  -0.00376513  0.83414238  0.33553951  1
  Te  Te170  1  0.00619363  0.83362174  0.66745222  1
  Te  Te171  1  0.33167098  0.16569916  0.00023842  1
  Te  Te172  1  0.33600195  0.16604180  0.33543258  1
  Te  Te173  1  0.33608244  0.16275976  0.66186137  1
  Te  Te174  1  0.33192518  0.49567336  -0.00016434  1
  Te  Te175  1  0.33293511  0.49631301  0.34040634  1
  Te  Te176  1  0.33373824  0.50265967  0.66152760  1
  Te  Te177  1  0.32851807  0.83641539  0.00020418  1
  Te  Te178  1  0.33433543  0.83866885  0.32958013  1
  Te  Te179  1  0.32793450  0.83414321  0.66767472  1
  Te  Te180  1  0.67085606  0.16699530  0.00489418  1
  Te  Te181  1  0.66140188  0.17164400  0.32927108  1
  Te  Te182  1  0.66708195  0.16671173  0.66726562  1
  Te  Te183  1  0.66798485  0.50436352  -0.00216960  1
  Te  Te184  1  0.66741154  0.49398562  0.34070646  1
  Te  Te185  1  0.66656824  0.50444547  0.66706238  1
  Te  Te186  1  0.66605083  0.82574525  0.00607641  1
  Te  Te187  1  0.67264660  0.83336765  0.32714313  1
  Te  Te188  1  0.66638560  0.82513805  0.66544350  1
  Te  Te189  1  -0.00454718  -0.00030305  0.16772081  1
  Te  Te190  1  0.00115866  -0.00343688  0.49952480  1
  Te  Te191  1  0.00128826  -0.00351635  0.83532167  1
  Te  Te192  1  -0.00066332  0.33388651  0.17134490  1
  Te  Te193  1  0.00110637  0.33432132  0.49612522  1
  Te  Te194  1  0.00002035  0.33757253  0.83115297  1
  Te  Te195  1  0.00035703  0.66729265  0.16632258  1
  Te  Te196  1  0.00010462  0.66886867  0.50083774  1
  Te  Te197  1  0.00241081  0.66927589  0.83601454  1
  Te  Te198  1  0.33375245  -0.00327639  0.16618104  1
  Te  Te199  1  0.32999937  0.00194547  0.49712410  1
  Te  Te200  1  0.33080427  -0.00419232  0.83467700  1
  Te  Te201  1  0.33444518  0.33340121  0.16785185  1
  Te  Te202  1  0.33554791  0.33239003  0.49906167  1
  Te  Te203  1  0.33352770  0.33372339  0.83737137  1
  Te  Te204  1  0.33160942  0.67015752  0.16804901  1
  Te  Te205  1  0.32977231  0.66543120  0.50323696  1
  Te  Te206  1  0.33340478  0.67173707  0.83019875  1
  Te  Te207  1  0.67104824  -0.00137501  0.16640767  1
  Te  Te208  1  0.67447552  -0.00125326  0.50041821  1
  Te  Te209  1  0.66800587  -0.00050231  0.83337681  1
  Te  Te210  1  0.66659447  0.33358342  0.16983705  1
  Te  Te211  1  0.66307302  0.33731183  0.49507065  1
  Te  Te212  1  0.66683512  0.34258636  0.83224313  1
  Te  Te213  1  0.66838359  0.66745549  0.16358462  1
  Te  Te214  1  0.66811122  0.66139539  0.49963489  1
  Te  Te215  1  0.66730956  0.66450533  0.83583320  1
