# generated using pymatgen
data_AgSbTe2
_symmetry_space_group_name_H-M   'P 1'
_cell_length_a   18.32630580
_cell_length_b   18.32633580
_cell_length_c   18.32705442
_cell_angle_alpha   90.00211272
_cell_angle_beta   89.99809540
_cell_angle_gamma   90.00095030
_symmetry_Int_Tables_number   1
_chemical_formula_structural   AgSbTe2
_chemical_formula_sum   'Ag54 Sb54 Te108'
_cell_volume   6155.21515098
_cell_formula_units_Z   54
loop_
 _symmetry_equiv_pos_site_id
 _symmetry_equiv_pos_as_xyz
  1  'x, y, z'
loop_
 _atom_site_type_symbol
 _atom_site_label
 _atom_site_symmetry_multiplicity
 _atom_site_fract_x
 _atom_site_fract_y
 _atom_site_fract_z
 _atom_site_occupancy
  Ag  Ag0  1  0.50353204  0.66801365  0.82332415  1
  Ag  Ag1  1  0.66510604  0.17380243  0.49931471  1
  Ag  Ag2  1  0.33330352  0.49966056  0.49470849  1
  Ag  Ag3  1  0.50092253  0.50130372  0.66366288  1
  Ag  Ag4  1  0.66852009  -0.00294840  0.01000922  1
  Ag  Ag5  1  0.50126888  0.00214364  0.50138771  1
  Ag  Ag6  1  0.33915640  0.00115214  0.66565068  1
  Ag  Ag7  1  0.66448919  0.50273871  0.16908755  1
  Ag  Ag8  1  0.33794263  0.65331868  0.33538978  1
  Ag  Ag9  1  0.82995876  0.00599416  0.84138556  1
  Ag  Ag10  1  0.82410482  0.00031370  0.16397783  1
  Ag  Ag11  1  0.83413428  0.49598543  0.33362414  1
  Ag  Ag12  1  0.50616474  0.49733388  0.00382972  1
  Ag  Ag13  1  0.50588498  0.66054309  0.50328380  1
  Ag  Ag14  1  0.82435474  0.16994348  0.66047234  1
  Ag  Ag15  1  0.32215171  0.33753773  0.33260876  1
  Ag  Ag16  1  0.66881332  0.66615610  0.00910695  1
  Ag  Ag17  1  0.82520286  0.33746907  0.49522327  1
  Ag  Ag18  1  0.50112261  0.16974017  0.00339138  1
  Ag  Ag19  1  0.66817527  0.33458086  0.33743709  1
  Ag  Ag20  1  0.66211367  0.83132772  0.83581104  1
  Ag  Ag21  1  0.82676076  0.50188026  0.01103169  1
  Ag  Ag22  1  0.34136810  0.49199016  0.17817507  1
  Ag  Ag23  1  0.66642633  0.82986281  0.16505198  1
  Ag  Ag24  1  0.00131211  0.82579361  0.49813436  1
  Ag  Ag25  1  0.50799568  0.00783110  0.16874333  1
  Ag  Ag26  1  0.33670814  0.16715738  0.83314183  1
  Ag  Ag27  1  0.49739786  0.33231700  0.17689560  1
  Ag  Ag28  1  0.17016894  0.33741559  0.49216981  1
  Ag  Ag29  1  0.00179915  0.49998236  0.49413713  1
  Ag  Ag30  1  0.16703028  0.33386010  0.82946799  1
  Ag  Ag31  1  0.66467349  0.33597017  0.65723257  1
  Ag  Ag32  1  0.17481068  0.49678645  0.65193434  1
  Ag  Ag33  1  0.16333005  0.17996360  0.33193670  1
  Ag  Ag34  1  0.33758657  0.17434764  0.16885661  1
  Ag  Ag35  1  0.82766944  0.66127615  0.17365252  1
  Ag  Ag36  1  0.66909009  0.65892880  0.33222935  1
  Ag  Ag37  1  -0.01247318  0.66474918  0.00709360  1
  Ag  Ag38  1  0.17552214  0.33282280  0.18015547  1
  Ag  Ag39  1  -0.01192079  -0.00137009  0.00334019  1
  Ag  Ag40  1  0.34197261  0.83657601  0.82541325  1
  Ag  Ag41  1  0.66236856  0.66110977  0.65799556  1
  Ag  Ag42  1  0.00886373  0.33936306  0.33498875  1
  Ag  Ag43  1  0.16695871  0.49442235  0.33557660  1
  Ag  Ag44  1  -0.01155749  0.65638119  0.33470552  1
  Ag  Ag45  1  -0.00176655  0.16786337  0.16990939  1
  Ag  Ag46  1  0.83147160  0.33030390  0.82634742  1
  Ag  Ag47  1  0.82437793  0.65603855  0.48937825  1
  Ag  Ag48  1  0.83131047  0.17737957  0.33592171  1
  Ag  Ag49  1  0.33758134  0.82629949  0.50263509  1
  Ag  Ag50  1  0.66712190  0.00105034  0.32703473  1
  Ag  Ag51  1  0.50398020  0.16878495  0.66527512  1
  Ag  Ag52  1  0.50497012  0.33572520  0.49562912  1
  Ag  Ag53  1  0.50032636  0.82877188  0.66503531  1
  Sb  Sb54  1  0.16656590  0.83302516  -0.00033734  1
  Sb  Sb55  1  0.83002714  0.33448668  0.17456790  1
  Sb  Sb56  1  0.66321573  0.16407018  0.82922913  1
  Sb  Sb57  1  0.16554822  0.49780671  0.00637241  1
  Sb  Sb58  1  0.33985827  0.00435845  0.33659893  1
  Sb  Sb59  1  0.34003634  0.33156459  0.66024165  1
  Sb  Sb60  1  0.50451053  -0.00263959  0.83151595  1
  Sb  Sb61  1  0.50839635  0.66152095  0.17092329  1
  Sb  Sb62  1  0.33530667  0.33350846  0.00738802  1
  Sb  Sb63  1  0.17545812  0.82657001  0.66347586  1
  Sb  Sb64  1  0.66059752  0.00109631  0.66504572  1
  Sb  Sb65  1  0.66298778  0.83175903  0.49867277  1
  Sb  Sb66  1  -0.00584146  0.83423577  0.17068039  1
  Sb  Sb67  1  0.66281774  0.49619256  0.49244556  1
  Sb  Sb68  1  -0.00359502  0.33490471  0.00688399  1
  Sb  Sb69  1  0.16937856  0.17497064  0.66204402  1
  Sb  Sb70  1  0.34063219  0.66458508  0.00485110  1
  Sb  Sb71  1  -0.00608286  0.17107545  0.49275616  1
  Sb  Sb72  1  0.17243144  0.00656568  0.49908852  1
  Sb  Sb73  1  0.16168928  0.65895328  0.17045790  1
  Sb  Sb74  1  -0.00361395  0.49588962  0.17504747  1
  Sb  Sb75  1  0.66460324  0.16695406  0.17321407  1
  Sb  Sb76  1  0.82790755  0.16833172  0.00305014  1
  Sb  Sb77  1  -0.00853864  0.00253657  0.32987553  1
  Sb  Sb78  1  0.16656048  0.00463618  0.83334536  1
  Sb  Sb79  1  -0.00355281  0.83299340  0.83063846  1
  Sb  Sb80  1  0.82553917  0.83639745  0.66494845  1
  Sb  Sb81  1  0.34087468  0.17183840  0.49671426  1
  Sb  Sb82  1  0.33592216  0.49704441  0.83069035  1
  Sb  Sb83  1  -0.00466910  0.33478834  0.65832105  1
  Sb  Sb84  1  0.82519262  0.66537553  0.83533863  1
  Sb  Sb85  1  0.34366124  0.83295420  0.16992999  1
  Sb  Sb86  1  0.50226593  0.33501672  0.83025210  1
  Sb  Sb87  1  0.49890511  0.49739573  0.33546301  1
  Sb  Sb88  1  0.00142453  0.16822364  0.83877220  1
  Sb  Sb89  1  0.34340865  0.66727438  0.65849364  1
  Sb  Sb90  1  0.50379061  0.17035527  0.33436300  1
  Sb  Sb91  1  0.82690119  0.49485000  0.66074044  1
  Sb  Sb92  1  0.16610677  0.82882962  0.33562985  1
  Sb  Sb93  1  0.50211514  0.83223271  0.33969110  1
  Sb  Sb94  1  0.66620429  0.33446410  0.00269071  1
  Sb  Sb95  1  0.17343877  0.66175445  0.83309151  1
  Sb  Sb96  1  0.50443373  0.83190090  -0.00435550  1
  Sb  Sb97  1  -0.00111700  0.49945216  0.83089999  1
  Sb  Sb98  1  0.17073591  0.16915744  0.00531832  1
  Sb  Sb99  1  0.83131584  0.82741404  0.33446911  1
  Sb  Sb100  1  0.66585169  0.50410953  0.83774883  1
  Sb  Sb101  1  0.82662986  0.00218053  0.49643381  1
  Sb  Sb102  1  0.16657732  0.00858220  0.16875639  1
  Sb  Sb103  1  0.33913283  0.00183451  -0.00259031  1
  Sb  Sb104  1  0.16835245  0.65663932  0.49938352  1
  Sb  Sb105  1  -0.00844844  0.66377100  0.65949661  1
  Sb  Sb106  1  0.82959770  0.82987212  0.00112795  1
  Sb  Sb107  1  -0.00000860  0.00080904  0.66778169  1
  Te  Te108  1  0.16975985  0.17238986  0.17039562  1
  Te  Te109  1  0.16533614  0.17429675  0.49440954  1
  Te  Te110  1  0.17233857  0.17208886  0.83219190  1
  Te  Te111  1  0.17222066  0.49287105  0.17156216  1
  Te  Te112  1  0.16869382  0.49607113  0.49607019  1
  Te  Te113  1  0.16709030  0.49406203  0.83466038  1
  Te  Te114  1  0.17003971  0.83457098  0.16684528  1
  Te  Te115  1  0.16994797  0.83617916  0.50083971  1
  Te  Te116  1  0.17284300  0.83334759  0.83161171  1
  Te  Te117  1  0.49911556  0.16853990  0.16626318  1
  Te  Te118  1  0.50388859  0.16810590  0.50268091  1
  Te  Te119  1  0.49580697  0.16657781  0.83078058  1
  Te  Te120  1  0.50087807  0.49829401  0.16397301  1
  Te  Te121  1  0.49771285  0.49955195  0.50291615  1
  Te  Te122  1  0.49912751  0.50403503  0.83219147  1
  Te  Te123  1  0.50573322  0.83982457  0.16599685  1
  Te  Te124  1  0.49767304  0.83273393  0.50488737  1
  Te  Te125  1  0.50096281  0.83123644  0.82956275  1
  Te  Te126  1  0.83497872  0.16510198  0.16941246  1
  Te  Te127  1  0.82908012  0.16885947  0.49927536  1
  Te  Te128  1  0.83382279  0.16737117  0.83250576  1
  Te  Te129  1  0.83127144  0.50141162  0.16840956  1
  Te  Te130  1  0.83570242  0.49903949  0.49794099  1
  Te  Te131  1  0.83383174  0.49520733  0.83219241  1
  Te  Te132  1  0.82748732  0.83609156  0.16746541  1
  Te  Te133  1  0.83743789  0.83032360  0.50199599  1
  Te  Te134  1  0.82847855  0.83867450  0.83192414  1
  Te  Te135  1  0.15947075  0.00058438  0.00001869  1
  Te  Te136  1  0.16532271  0.00362993  0.33373786  1
  Te  Te137  1  0.17393706  0.00053672  0.66708125  1
  Te  Te138  1  0.16453865  0.33369627  -0.00877355  1
  Te  Te139  1  0.16571016  0.33484216  0.33532051  1
  Te  Te140  1  0.16631389  0.33822954  0.66690730  1
  Te  Te141  1  0.16009053  0.66587152  0.00105886  1
  Te  Te142  1  0.16780763  0.66127514  0.33342171  1
  Te  Te143  1  0.16388874  0.65721473  0.66909940  1
  Te  Te144  1  0.50449257  0.00321646  0.00226309  1
  Te  Te145  1  0.50477447  0.00012783  0.33461555  1
  Te  Te146  1  0.49752920  0.00400285  0.66479705  1
  Te  Te147  1  0.50041812  0.33468354  0.00078135  1
  Te  Te148  1  0.50857162  0.33215265  0.33526889  1
  Te  Te149  1  0.50448579  0.33245839  0.66434119  1
  Te  Te150  1  0.50656269  0.66227162  0.00099627  1
  Te  Te151  1  0.50258134  0.66712175  0.33880184  1
  Te  Te152  1  0.50341357  0.66475441  0.66409729  1
  Te  Te153  1  0.83009402  0.00208402  0.00205206  1
  Te  Te154  1  0.82784497  0.00369155  0.32933284  1
  Te  Te155  1  0.83322783  0.00606385  0.66711187  1
  Te  Te156  1  0.83350144  0.33885350  -0.00442211  1
  Te  Te157  1  0.82773118  0.33529858  0.33454332  1
  Te  Te158  1  0.82895026  0.32998693  0.66340506  1
  Te  Te159  1  0.82985566  0.66263581  0.00032814  1
  Te  Te160  1  0.83125020  0.66501600  0.33337335  1
  Te  Te161  1  0.82365574  0.66710296  0.66464192  1
  Te  Te162  1  0.00002445  0.16352290  0.00652185  1
  Te  Te163  1  -0.00276615  0.16799398  0.32956724  1
  Te  Te164  1  -0.00448057  0.16587354  0.66818809  1
  Te  Te165  1  -0.00382140  0.50415952  0.00052738  1
  Te  Te166  1  -0.00251046  0.49935052  0.33451829  1
  Te  Te167  1  0.00329892  0.50080396  0.65950055  1
  Te  Te168  1  0.00002690  0.83249890  0.00019781  1
  Te  Te169  1  0.00086014  0.82909409  0.33899008  1
  Te  Te170  1  0.00176315  0.83243497  0.66064587  1
  Te  Te171  1  0.33938263  0.16590245  0.00059522  1
  Te  Te172  1  0.32995318  0.17063666  0.32970182  1
  Te  Te173  1  0.33640070  0.16398843  0.66760982  1
  Te  Te174  1  0.33813658  0.50134838  0.00315790  1
  Te  Te175  1  0.33526679  0.49752317  0.33381529  1
  Te  Te176  1  0.33550832  0.49976920  0.66289055  1
  Te  Te177  1  0.33395537  0.83345319  -0.00590749  1
  Te  Te178  1  0.33292210  0.83284195  0.33923668  1
  Te  Te179  1  0.33870665  0.83420572  0.66543082  1
  Te  Te180  1  0.66068121  0.16315411  -0.00172376  1
  Te  Te181  1  0.67008495  0.16822009  0.33781986  1
  Te  Te182  1  0.66553092  0.16801010  0.66298773  1
  Te  Te183  1  0.66676268  0.50130031  0.00367159  1
  Te  Te184  1  0.67062222  0.50060824  0.32934973  1
  Te  Te185  1  0.66167711  0.50002576  0.66914920  1
  Te  Te186  1  0.66646525  0.83373455  0.00086791  1
  Te  Te187  1  0.66679959  0.83645286  0.32829079  1
  Te  Te188  1  0.66055950  0.83048149  0.66933112  1
  Te  Te189  1  -0.00255454  0.00163300  0.16254938  1
  Te  Te190  1  0.00089905  -0.00446585  0.49971751  1
  Te  Te191  1  -0.00582777  -0.00054826  0.83833387  1
  Te  Te192  1  0.00188500  0.32886362  0.17250129  1
  Te  Te193  1  -0.00182662  0.33597009  0.49411514  1
  Te  Te194  1  -0.00300013  0.33319016  0.83312254  1
  Te  Te195  1  -0.00646872  0.66765837  0.16823618  1
  Te  Te196  1  -0.00035289  0.66382944  0.49616548  1
  Te  Te197  1  0.00027528  0.66834057  0.83699678  1
  Te  Te198  1  0.33811065  0.00226858  0.16675578  1
  Te  Te199  1  0.33960910  -0.00059670  0.50370435  1
  Te  Te200  1  0.33299833  0.00088607  0.83012648  1
  Te  Te201  1  0.33606223  0.33369197  0.16918974  1
  Te  Te202  1  0.33659979  0.33649191  0.49514373  1
  Te  Te203  1  0.33202395  0.32919720  0.83243157  1
  Te  Te204  1  0.33264709  0.66606030  0.17392317  1
  Te  Te205  1  0.33441824  0.66476516  0.49544955  1
  Te  Te206  1  0.34060062  0.66994248  0.83565679  1
  Te  Te207  1  0.66557842  0.00457520  0.16706408  1
  Te  Te208  1  0.66121649  0.00030196  0.49578822  1
  Te  Te209  1  0.67107942  -0.00405980  0.83421076  1
  Te  Te210  1  0.66138125  0.33727756  0.16930515  1
  Te  Te211  1  0.66583002  0.33410425  0.50000320  1
  Te  Te212  1  0.67095589  0.33267615  0.82998359  1
  Te  Te213  1  0.66861068  0.66604843  0.16890914  1
  Te  Te214  1  0.66612960  0.66736074  0.49732010  1
  Te  Te215  1  0.66293061  0.67067305  0.83561597  1
