# generated using pymatgen
data_AgSbTe2
_symmetry_space_group_name_H-M   'P 1'
_cell_length_a   18.33725477
_cell_length_b   18.33119896
_cell_length_c   18.33606773
_cell_angle_alpha   90.00417669
_cell_angle_beta   90.00176196
_cell_angle_gamma   90.00195202
_symmetry_Int_Tables_number   1
_chemical_formula_structural   AgSbTe2
_chemical_formula_sum   'Ag54 Sb54 Te108'
_cell_volume   6163.55666215
_cell_formula_units_Z   54
loop_
 _symmetry_equiv_pos_site_id
 _symmetry_equiv_pos_as_xyz
  1  'x, y, z'
loop_
 _atom_site_type_symbol
 _atom_site_label
 _atom_site_symmetry_multiplicity
 _atom_site_fract_x
 _atom_site_fract_y
 _atom_site_fract_z
 _atom_site_occupancy
  Ag  Ag0  1  0.50517946  0.66902734  0.82639932  1
  Ag  Ag1  1  0.00759499  0.66996565  -0.00789660  1
  Ag  Ag2  1  0.82288376  0.83457532  -0.00342737  1
  Ag  Ag3  1  0.16443680  0.51618542  -0.00206294  1
  Ag  Ag4  1  0.83091297  0.00312182  0.16571122  1
  Ag  Ag5  1  0.66689111  0.50410637  0.51264769  1
  Ag  Ag6  1  0.82261206  0.15921661  0.00734015  1
  Ag  Ag7  1  0.33388642  0.17223033  0.49378593  1
  Ag  Ag8  1  0.00022464  0.82799622  0.83427444  1
  Ag  Ag9  1  0.50048215  0.82980013  0.32870160  1
  Ag  Ag10  1  0.67010667  0.51002252  0.82526044  1
  Ag  Ag11  1  0.17132712  0.67528318  0.16060501  1
  Ag  Ag12  1  0.50452098  0.82778774  -0.00008934  1
  Ag  Ag13  1  0.82528076  0.16506614  0.32424004  1
  Ag  Ag14  1  0.00256354  0.66904550  0.33497891  1
  Ag  Ag15  1  0.49885969  0.66365404  0.51135540  1
  Ag  Ag16  1  0.33732980  0.33775833  0.66284897  1
  Ag  Ag17  1  0.66538389  0.16515934  0.84227572  1
  Ag  Ag18  1  0.65800440  0.67425598  -0.01035142  1
  Ag  Ag19  1  0.65990440  0.67123820  0.33399322  1
  Ag  Ag20  1  0.34364977  0.66530983  0.66894359  1
  Ag  Ag21  1  0.50363991  0.16291623  0.32735012  1
  Ag  Ag22  1  -0.00167474  0.51030669  0.82823898  1
  Ag  Ag23  1  0.65942916  0.34778063  0.66828331  1
  Ag  Ag24  1  0.50981947  0.51332319  0.66560186  1
  Ag  Ag25  1  0.16624363  0.33040939  0.83276103  1
  Ag  Ag26  1  0.82818411  0.82392482  0.67624364  1
  Ag  Ag27  1  0.16864384  0.66834083  0.50251404  1
  Ag  Ag28  1  0.49778600  0.67177727  0.16369368  1
  Ag  Ag29  1  0.50035326  0.82505448  0.67538254  1
  Ag  Ag30  1  0.00067173  0.66665807  0.67269870  1
  Ag  Ag31  1  0.33168562  0.83278539  0.16540855  1
  Ag  Ag32  1  0.66909534  -0.00460112  0.00352334  1
  Ag  Ag33  1  0.50709498  0.16145155  0.00669527  1
  Ag  Ag34  1  -0.00279633  -0.00604634  0.33059158  1
  Ag  Ag35  1  0.16775176  0.82945824  0.67306709  1
  Ag  Ag36  1  0.16397141  -0.00669506  0.16353083  1
  Ag  Ag37  1  0.16803235  0.83072915  0.32073430  1
  Ag  Ag38  1  0.16758211  0.83290981  0.00131147  1
  Ag  Ag39  1  0.83174713  0.32150312  0.16715463  1
  Ag  Ag40  1  0.33152170  0.67107060  -0.00051332  1
  Ag  Ag41  1  0.66693255  0.82836822  0.83692826  1
  Ag  Ag42  1  0.00310445  0.33281679  0.33345695  1
  Ag  Ag43  1  0.65419837  0.65948632  0.67249291  1
  Ag  Ag44  1  0.49804895  0.33962775  0.50245561  1
  Ag  Ag45  1  0.33212877  0.32676604  0.33769619  1
  Ag  Ag46  1  0.33769593  0.16326784  0.16713023  1
  Ag  Ag47  1  -0.00209768  0.50474248  0.50652571  1
  Ag  Ag48  1  0.16797327  0.16055029  -0.00185897  1
  Ag  Ag49  1  0.16932062  0.16499282  0.67377770  1
  Ag  Ag50  1  0.16417824  -0.00162481  0.84442840  1
  Ag  Ag51  1  0.66928848  -0.00212360  0.32491841  1
  Ag  Ag52  1  0.66704820  0.16413443  0.16130566  1
  Ag  Ag53  1  0.82108520  0.50959178  0.66826603  1
  Sb  Sb54  1  0.33479868  0.66641604  0.33342693  1
  Sb  Sb55  1  0.50124378  0.50336391  0.33953739  1
  Sb  Sb56  1  0.00162635  0.82417948  0.50292810  1
  Sb  Sb57  1  0.50142461  -0.00263576  0.16608196  1
  Sb  Sb58  1  0.16633733  -0.00502949  0.49654555  1
  Sb  Sb59  1  0.49892077  -0.00464591  0.83659137  1
  Sb  Sb60  1  0.17151623  0.33926689  0.50306388  1
  Sb  Sb61  1  0.83264852  0.83622339  0.32849213  1
  Sb  Sb62  1  0.82824753  0.66953966  0.83061880  1
  Sb  Sb63  1  0.33326998  -0.00485967  0.00295484  1
  Sb  Sb64  1  -0.00293463  0.16518570  0.16666165  1
  Sb  Sb65  1  0.83270522  -0.00086823  0.49282598  1
  Sb  Sb66  1  0.83533895  -0.00263094  0.83998359  1
  Sb  Sb67  1  0.66071526  0.17100107  0.49827934  1
  Sb  Sb68  1  -0.00114112  -0.00664630  0.00396471  1
  Sb  Sb69  1  0.66659619  0.50013788  0.16361043  1
  Sb  Sb70  1  0.16623953  0.66929015  0.83467970  1
  Sb  Sb71  1  0.66716803  -0.00709324  0.67131276  1
  Sb  Sb72  1  0.83505000  0.33334310  0.83668497  1
  Sb  Sb73  1  0.16530508  0.50692397  0.33039915  1
  Sb  Sb74  1  0.33466547  0.00156559  0.32967820  1
  Sb  Sb75  1  0.33377423  0.50259082  0.16640925  1
  Sb  Sb76  1  0.00145156  0.33719061  0.00203656  1
  Sb  Sb77  1  0.33536529  0.49954147  0.50173660  1
  Sb  Sb78  1  -0.00030715  0.50342226  0.16578218  1
  Sb  Sb79  1  0.33162981  -0.00391888  0.66713855  1
  Sb  Sb80  1  0.33386256  0.83366195  0.49717765  1
  Sb  Sb81  1  0.49621428  0.16622648  0.66719044  1
  Sb  Sb82  1  0.49890606  0.33721678  0.82861495  1
  Sb  Sb83  1  0.83165445  0.66575986  0.50198896  1
  Sb  Sb84  1  0.82868880  0.33477033  0.49750598  1
  Sb  Sb85  1  0.83453099  0.49785423  0.33674635  1
  Sb  Sb86  1  0.16840962  0.16142309  0.33021898  1
  Sb  Sb87  1  0.33225040  0.33466526  -0.00010805  1
  Sb  Sb88  1  0.00101872  0.34123752  0.66406285  1
  Sb  Sb89  1  0.33533733  0.16778863  0.83706361  1
  Sb  Sb90  1  0.66492097  0.82563151  0.50415864  1
  Sb  Sb91  1  0.83223571  0.67063843  0.16451560  1
  Sb  Sb92  1  0.00153655  -0.00836803  0.66411223  1
  Sb  Sb93  1  0.33260932  0.82951454  0.83820428  1
  Sb  Sb94  1  0.66140622  0.83654952  0.16006760  1
  Sb  Sb95  1  0.00544676  0.17285819  0.49746171  1
  Sb  Sb96  1  0.83527080  0.16688450  0.66886220  1
  Sb  Sb97  1  0.00060538  0.16445362  0.83518618  1
  Sb  Sb98  1  0.16447145  0.33161177  0.16457931  1
  Sb  Sb99  1  0.00648536  0.83195571  0.16168738  1
  Sb  Sb100  1  0.66531410  0.33366205  0.33696326  1
  Sb  Sb101  1  0.83543800  0.50453499  -0.00537840  1
  Sb  Sb102  1  0.16776826  0.50489494  0.67138480  1
  Sb  Sb103  1  0.50104342  -0.00313231  0.49749124  1
  Sb  Sb104  1  0.49802085  0.50797719  -0.00757168  1
  Sb  Sb105  1  0.66666701  0.33196355  -0.00511830  1
  Sb  Sb106  1  0.33130140  0.50282166  0.83201814  1
  Sb  Sb107  1  0.50207913  0.33142220  0.17107386  1
  Te  Te108  1  0.16913897  0.16513771  0.16371324  1
  Te  Te109  1  0.17266201  0.16718854  0.50205929  1
  Te  Te110  1  0.16729294  0.16521456  0.83364890  1
  Te  Te111  1  0.16676436  0.50253369  0.15830539  1
  Te  Te112  1  0.16236847  0.50747742  0.49946640  1
  Te  Te113  1  0.16320143  0.49654341  0.83774609  1
  Te  Te114  1  0.16871832  0.83231020  0.16471072  1
  Te  Te115  1  0.16796548  0.82757468  0.50543827  1
  Te  Te116  1  0.16710116  0.83457712  0.83424190  1
  Te  Te117  1  0.50037992  0.16680044  0.16762352  1
  Te  Te118  1  0.49457902  0.16779279  0.49798402  1
  Te  Te119  1  0.50405936  0.16595342  0.83698061  1
  Te  Te120  1  0.50020479  0.50521985  0.16493547  1
  Te  Te121  1  0.50198633  0.50173332  0.50440517  1
  Te  Te122  1  0.50566501  0.50328013  0.82689868  1
  Te  Te123  1  0.49591109  0.83198011  0.16661293  1
  Te  Te124  1  0.49914950  0.82800454  0.49252184  1
  Te  Te125  1  0.50074104  0.83106930  0.83712416  1
  Te  Te126  1  0.83327126  0.16357367  0.16656007  1
  Te  Te127  1  0.83489367  0.16707681  0.49525360  1
  Te  Te128  1  0.82907652  0.16506418  0.83811812  1
  Te  Te129  1  0.83241622  0.49501725  0.16463957  1
  Te  Te130  1  0.83219103  0.49949627  0.50649468  1
  Te  Te131  1  0.83459079  0.49793224  0.82819614  1
  Te  Te132  1  0.83355573  0.83881927  0.16019782  1
  Te  Te133  1  0.83346083  0.83415893  0.51059162  1
  Te  Te134  1  0.83331840  0.83470670  0.83591299  1
  Te  Te135  1  0.16568254  -0.00228336  0.00259436  1
  Te  Te136  1  0.16334445  -0.00687878  0.32950536  1
  Te  Te137  1  0.16610104  -0.00210031  0.66428845  1
  Te  Te138  1  0.16738109  0.32335366  -0.00392818  1
  Te  Te139  1  0.16547641  0.33355887  0.33359159  1
  Te  Te140  1  0.16941888  0.33251893  0.66924735  1
  Te  Te141  1  0.16804350  0.67210827  -0.00122125  1
  Te  Te142  1  0.16738038  0.67060037  0.33289057  1
  Te  Te143  1  0.16145866  0.66871542  0.66765149  1
  Te  Te144  1  0.50497097  0.00092887  -0.00034108  1
  Te  Te145  1  0.50546092  -0.00142040  0.33294420  1
  Te  Te146  1  0.49950709  -0.01176875  0.66694942  1
  Te  Te147  1  0.49798568  0.32894313  0.00015941  1
  Te  Te148  1  0.49765809  0.33195324  0.33840336  1
  Te  Te149  1  0.49831521  0.33010096  0.66381885  1
  Te  Te150  1  0.50018233  0.66763798  0.00376635  1
  Te  Te151  1  0.50000622  0.66840644  0.32710079  1
  Te  Te152  1  0.49949877  0.67000903  0.66630374  1
  Te  Te153  1  0.83234934  -0.00062323  0.00483460  1
  Te  Te154  1  0.83192207  0.00258281  0.32741167  1
  Te  Te155  1  0.83456039  -0.00431793  0.66600844  1
  Te  Te156  1  0.83474228  0.32939736  0.00540573  1
  Te  Te157  1  0.83517454  0.32966187  0.32993968  1
  Te  Te158  1  0.82978178  0.33361111  0.66701723  1
  Te  Te159  1  0.83468309  0.67195775  0.00180034  1
  Te  Te160  1  0.83601289  0.66726383  0.33194185  1
  Te  Te161  1  0.84121134  0.66694177  0.66598535  1
  Te  Te162  1  0.00588491  0.16758801  -0.00102034  1
  Te  Te163  1  -0.00142073  0.16871081  0.33404463  1
  Te  Te164  1  0.00568107  0.16708633  0.66599928  1
  Te  Te165  1  0.00229470  0.50546230  -0.00550565  1
  Te  Te166  1  -0.00050907  0.50441537  0.33742495  1
  Te  Te167  1  0.00124688  0.50427888  0.66769746  1
  Te  Te168  1  0.00589712  0.82968319  -0.00434481  1
  Te  Te169  1  0.00022308  0.83163462  0.33519577  1
  Te  Te170  1  0.00329207  0.82882403  0.67046724  1
  Te  Te171  1  0.33239437  0.16621364  0.00440886  1
  Te  Te172  1  0.33565670  0.16724571  0.32988320  1
  Te  Te173  1  0.32935331  0.16730688  0.66848680  1
  Te  Te174  1  0.32741207  0.50631832  -0.00026063  1
  Te  Te175  1  0.33292906  0.48760463  0.33346615  1
  Te  Te176  1  0.33638759  0.50140054  0.66661752  1
  Te  Te177  1  0.33393111  0.82998009  0.00431784  1
  Te  Te178  1  0.33360619  0.83440715  0.32901512  1
  Te  Te179  1  0.33405198  0.82882385  0.66521304  1
  Te  Te180  1  0.66639705  0.16947059  0.00167971  1
  Te  Te181  1  0.66449965  0.16712610  0.33297611  1
  Te  Te182  1  0.66792160  0.16208979  0.66812807  1
  Te  Te183  1  0.66721790  0.50502756  -0.00587193  1
  Te  Te184  1  0.66755783  0.50636155  0.33371428  1
  Te  Te185  1  0.66580394  0.50332290  0.66851752  1
  Te  Te186  1  0.66480761  0.83352873  -0.00168206  1
  Te  Te187  1  0.66685076  0.83273032  0.33383491  1
  Te  Te188  1  0.66625394  0.82967891  0.67171244  1
  Te  Te189  1  0.00216302  -0.00088618  0.17177560  1
  Te  Te190  1  0.00026156  0.00201442  0.49031683  1
  Te  Te191  1  0.00587531  -0.00545565  0.83299008  1
  Te  Te192  1  -0.00441372  0.33525523  0.17321840  1
  Te  Te193  1  0.00041105  0.34092669  0.49487996  1
  Te  Te194  1  0.00511094  0.33500256  0.83294339  1
  Te  Te195  1  0.00375516  0.66608758  0.17086994  1
  Te  Te196  1  0.00118789  0.66258719  0.49658453  1
  Te  Te197  1  0.00090465  0.66774718  0.83479046  1
  Te  Te198  1  0.32570685  0.00073127  0.16652221  1
  Te  Te199  1  0.33342165  0.01123932  0.49936468  1
  Te  Te200  1  0.32282955  0.00016217  0.83415340  1
  Te  Te201  1  0.33338566  0.32910155  0.16975937  1
  Te  Te202  1  0.33627162  0.33271976  0.50221907  1
  Te  Te203  1  0.32842792  0.33515035  0.82788154  1
  Te  Te204  1  0.33220570  0.66854028  0.16609671  1
  Te  Te205  1  0.33391563  0.66658107  0.50361309  1
  Te  Te206  1  0.34252565  0.66574962  0.83196339  1
  Te  Te207  1  0.66752504  0.00353701  0.16479018  1
  Te  Te208  1  0.66665899  0.00112285  0.49130544  1
  Te  Te209  1  0.66699365  0.00050444  0.83892950  1
  Te  Te210  1  0.67010915  0.32833411  0.16787360  1
  Te  Te211  1  0.66077589  0.33906626  0.50525694  1
  Te  Te212  1  0.66682509  0.33008318  0.82757851  1
  Te  Te213  1  0.66455578  0.66673970  0.17157134  1
  Te  Te214  1  0.66340504  0.66314928  0.49896055  1
  Te  Te215  1  0.66573641  0.66900141  0.83231185  1
