# generated using pymatgen
data_AgSbTe2
_symmetry_space_group_name_H-M   'P 1'
_cell_length_a   18.32913235
_cell_length_b   18.33370947
_cell_length_c   18.33250106
_cell_angle_alpha   89.99765063
_cell_angle_beta   89.99697293
_cell_angle_gamma   89.99946341
_symmetry_Int_Tables_number   1
_chemical_formula_structural   AgSbTe2
_chemical_formula_sum   'Ag54 Sb54 Te108'
_cell_volume   6160.47174396
_cell_formula_units_Z   54
loop_
 _symmetry_equiv_pos_site_id
 _symmetry_equiv_pos_as_xyz
  1  'x, y, z'
loop_
 _atom_site_type_symbol
 _atom_site_label
 _atom_site_symmetry_multiplicity
 _atom_site_fract_x
 _atom_site_fract_y
 _atom_site_fract_z
 _atom_site_occupancy
  Ag  Ag0  1  0.67514914  0.66847386  0.00142872  1
  Ag  Ag1  1  0.66920940  0.00857569  0.00138791  1
  Ag  Ag2  1  0.67692579  0.32138541  0.00971493  1
  Ag  Ag3  1  0.83143736  0.33520660  0.49610885  1
  Ag  Ag4  1  0.83928815  0.49416650  0.00883534  1
  Ag  Ag5  1  0.16751940  -0.00065108  0.50084299  1
  Ag  Ag6  1  0.66397933  0.16274136  0.84807290  1
  Ag  Ag7  1  0.83785762  0.82725080  0.33116851  1
  Ag  Ag8  1  0.33638996  0.32495850  0.66014189  1
  Ag  Ag9  1  0.33229153  0.00391354  0.67217517  1
  Ag  Ag10  1  -0.00566929  0.66988877  0.32780904  1
  Ag  Ag11  1  0.49582068  0.00064447  0.50019584  1
  Ag  Ag12  1  -0.00146430  0.00482797  0.32654594  1
  Ag  Ag13  1  0.49591596  0.00469002  0.83629998  1
  Ag  Ag14  1  0.83597447  0.67197956  0.17017226  1
  Ag  Ag15  1  0.49892394  0.17135515  0.32709990  1
  Ag  Ag16  1  0.83352961  0.66430336  0.49034289  1
  Ag  Ag17  1  0.51161505  0.48942499  0.33200234  1
  Ag  Ag18  1  -0.00152837  0.16116387  0.48464620  1
  Ag  Ag19  1  -0.00328607  0.00135384  0.00844263  1
  Ag  Ag20  1  0.32995628  0.66774019  0.33199251  1
  Ag  Ag21  1  0.67015785  0.84215970  0.84729322  1
  Ag  Ag22  1  0.67065559  0.49698821  0.49652085  1
  Ag  Ag23  1  -0.00293448  0.49361909  0.16506842  1
  Ag  Ag24  1  0.15258495  0.50079242  -0.00032627  1
  Ag  Ag25  1  0.33898057  0.33254546  0.33298180  1
  Ag  Ag26  1  0.82859823  0.17053638  0.00216793  1
  Ag  Ag27  1  0.33891221  0.16200844  0.83471557  1
  Ag  Ag28  1  0.32587085  0.83836300  0.49245453  1
  Ag  Ag29  1  0.16090520  0.83899208  0.00261022  1
  Ag  Ag30  1  -0.00709472  0.65396229  0.01085695  1
  Ag  Ag31  1  0.33048845  0.00201738  -0.00312829  1
  Ag  Ag32  1  0.67516396  0.16715439  0.16077085  1
  Ag  Ag33  1  -0.00566558  0.16935465  0.16712166  1
  Ag  Ag34  1  0.83216281  0.16455311  0.66900007  1
  Ag  Ag35  1  0.51475694  0.16459260  0.00635092  1
  Ag  Ag36  1  0.83433354  0.50102307  0.32834032  1
  Ag  Ag37  1  0.67068217  0.33367508  0.32842739  1
  Ag  Ag38  1  0.83747464  -0.00323542  0.16552909  1
  Ag  Ag39  1  -0.00126242  0.84041488  0.48650822  1
  Ag  Ag40  1  0.67098291  0.66488806  0.66898177  1
  Ag  Ag41  1  -0.00393366  0.32856410  0.32788536  1
  Ag  Ag42  1  0.83263623  0.83796947  0.65859123  1
  Ag  Ag43  1  0.32805735  0.83485531  0.17113011  1
  Ag  Ag44  1  0.15836301  0.16781635  0.33266217  1
  Ag  Ag45  1  0.17126679  0.00122153  0.83914305  1
  Ag  Ag46  1  0.15641709  0.33234998  0.16826184  1
  Ag  Ag47  1  0.16500380  0.49791809  0.66959662  1
  Ag  Ag48  1  0.50148491  0.33002882  0.17185166  1
  Ag  Ag49  1  -0.00413524  0.83538417  0.16873309  1
  Ag  Ag50  1  -0.00596725  0.34218951  0.00984413  1
  Ag  Ag51  1  0.66778962  0.33267361  0.66390564  1
  Ag  Ag52  1  0.67758471  0.83872096  0.16316916  1
  Ag  Ag53  1  -0.00026522  0.49952801  0.84998768  1
  Sb  Sb54  1  0.15950103  0.00251214  0.16561343  1
  Sb  Sb55  1  0.33095791  0.67395045  0.00755699  1
  Sb  Sb56  1  0.32858511  0.00170610  0.33100882  1
  Sb  Sb57  1  -0.00551199  0.49928304  0.49391186  1
  Sb  Sb58  1  0.83540403  0.17000995  0.32908025  1
  Sb  Sb59  1  0.67228325  0.17004070  0.49613265  1
  Sb  Sb60  1  0.49982329  0.49694302  0.66093753  1
  Sb  Sb61  1  0.50469230  0.32769058  0.49274309  1
  Sb  Sb62  1  0.33254605  0.16368385  0.16464395  1
  Sb  Sb63  1  0.50682205  0.66206230  0.16877886  1
  Sb  Sb64  1  0.15563245  0.66516510  0.16741958  1
  Sb  Sb65  1  0.83248799  0.33242051  0.83391078  1
  Sb  Sb66  1  -0.00191068  0.33358642  0.66450909  1
  Sb  Sb67  1  0.32728798  0.50171155  0.16806575  1
  Sb  Sb68  1  0.33622824  0.50180521  0.49606910  1
  Sb  Sb69  1  -0.00548637  0.83139992  0.83983870  1
  Sb  Sb70  1  0.33059000  0.16200813  0.50076179  1
  Sb  Sb71  1  0.67668956  0.49578164  0.16925944  1
  Sb  Sb72  1  0.32789015  0.49203341  0.83337865  1
  Sb  Sb73  1  0.50257654  0.84183480  0.00202422  1
  Sb  Sb74  1  0.50407443  0.16587852  0.66714119  1
  Sb  Sb75  1  0.50614100  0.49178808  0.00717450  1
  Sb  Sb76  1  0.50583623  0.67060165  0.49634927  1
  Sb  Sb77  1  0.67050843  0.49729906  0.83282013  1
  Sb  Sb78  1  0.83581320  0.00072749  0.49450053  1
  Sb  Sb79  1  0.16350464  0.16808426  0.66368900  1
  Sb  Sb80  1  0.15957185  0.67042068  0.49809647  1
  Sb  Sb81  1  0.50521218  0.83648931  0.66543566  1
  Sb  Sb82  1  0.15931891  0.83840329  0.32850842  1
  Sb  Sb83  1  0.33610669  0.84174195  0.83466479  1
  Sb  Sb84  1  0.67174824  0.00503338  0.32713642  1
  Sb  Sb85  1  -0.00729274  0.66657557  0.66455331  1
  Sb  Sb86  1  0.66482271  0.00209880  0.67243856  1
  Sb  Sb87  1  0.83284072  0.66817268  0.83831259  1
  Sb  Sb88  1  0.50167000  0.32638227  0.83852250  1
  Sb  Sb89  1  0.16239224  0.32954197  0.49505995  1
  Sb  Sb90  1  0.50394764  0.00533787  0.16517326  1
  Sb  Sb91  1  0.83565061  0.33059897  0.16952567  1
  Sb  Sb92  1  0.16055041  0.49472564  0.33046483  1
  Sb  Sb93  1  0.50253942  0.83660966  0.33153897  1
  Sb  Sb94  1  0.50345104  0.67449738  0.83543929  1
  Sb  Sb95  1  0.83534335  0.49888367  0.66558555  1
  Sb  Sb96  1  -0.00293038  0.16850919  0.84032662  1
  Sb  Sb97  1  0.16574418  0.66998539  0.83596793  1
  Sb  Sb98  1  0.67286670  0.83121117  0.49551529  1
  Sb  Sb99  1  0.16600793  0.32797820  0.83795925  1
  Sb  Sb100  1  0.00211357  0.00029651  0.66607908  1
  Sb  Sb101  1  0.33184283  0.32771939  0.00410442  1
  Sb  Sb102  1  0.16158841  0.16516743  0.00512835  1
  Sb  Sb103  1  0.33653299  0.66892493  0.66038571  1
  Sb  Sb104  1  0.67332636  0.66222611  0.33075308  1
  Sb  Sb105  1  0.83269669  -0.00071183  0.84040104  1
  Sb  Sb106  1  0.83549632  0.83386486  0.00772742  1
  Sb  Sb107  1  0.16302173  0.83308960  0.66919279  1
  Te  Te108  1  0.16419667  0.17096096  0.17212348  1
  Te  Te109  1  0.15994228  0.16194207  0.49616340  1
  Te  Te110  1  0.16867076  0.16085435  0.83211851  1
  Te  Te111  1  0.16040886  0.49522991  0.16225556  1
  Te  Te112  1  0.16658982  0.50119605  0.50410717  1
  Te  Te113  1  0.16246780  0.49908999  0.83630600  1
  Te  Te114  1  0.16670422  0.83265384  0.16239354  1
  Te  Te115  1  0.16346532  0.83721557  0.50105419  1
  Te  Te116  1  0.16664232  0.83956933  0.83791558  1
  Te  Te117  1  0.49913162  0.16931140  0.16644720  1
  Te  Te118  1  0.49949412  0.16111619  0.49621362  1
  Te  Te119  1  0.50179572  0.16236905  0.83387749  1
  Te  Te120  1  0.49904842  0.49381854  0.17355552  1
  Te  Te121  1  0.50634107  0.50101253  0.49291981  1
  Te  Te122  1  0.49856502  0.50046944  0.83397838  1
  Te  Te123  1  0.49914058  0.83133962  0.16708468  1
  Te  Te124  1  0.49597677  0.83895452  0.49842280  1
  Te  Te125  1  0.50875173  0.84226295  0.83320205  1
  Te  Te126  1  0.83394885  0.16276238  0.16434674  1
  Te  Te127  1  0.83842545  0.16832408  0.50135629  1
  Te  Te128  1  0.82872088  0.16573137  0.83458111  1
  Te  Te129  1  0.83717979  0.50513926  0.16740258  1
  Te  Te130  1  0.83073355  0.49916174  0.49870274  1
  Te  Te131  1  0.83877285  0.50034387  0.83752015  1
  Te  Te132  1  0.83501847  0.83418862  0.16874773  1
  Te  Te133  1  0.83690120  0.83358061  0.49633455  1
  Te  Te134  1  0.82783711  0.83376355  0.82236329  1
  Te  Te135  1  0.16767340  -0.00039628  0.00037028  1
  Te  Te136  1  0.16117354  0.00476775  0.33749979  1
  Te  Te137  1  0.17127596  -0.00026475  0.66442559  1
  Te  Te138  1  0.16414588  0.33623291  0.00478740  1
  Te  Te139  1  0.16250181  0.32956164  0.33026071  1
  Te  Te140  1  0.16956477  0.33593138  0.66631106  1
  Te  Te141  1  0.16274296  0.66515964  0.00036101  1
  Te  Te142  1  0.16885032  0.66547427  0.33407199  1
  Te  Te143  1  0.16802540  0.66097696  0.66724415  1
  Te  Te144  1  0.50309735  0.00554671  -0.00144270  1
  Te  Te145  1  0.50061887  0.00507944  0.33578844  1
  Te  Te146  1  0.49429180  0.00081449  0.66654857  1
  Te  Te147  1  0.50175051  0.32640547  0.00610782  1
  Te  Te148  1  0.50049543  0.33208253  0.33285272  1
  Te  Te149  1  0.49875989  0.33344979  0.66553550  1
  Te  Te150  1  0.50488473  0.66409970  0.00070044  1
  Te  Te151  1  0.49426293  0.66434237  0.33358622  1
  Te  Te152  1  0.50935115  0.66586847  0.66594312  1
  Te  Te153  1  0.83205924  0.00136510  0.00358884  1
  Te  Te154  1  0.83834355  -0.00422179  0.32879587  1
  Te  Te155  1  0.83324074  0.00134608  0.66629853  1
  Te  Te156  1  0.83396411  0.33300829  -0.00066943  1
  Te  Te157  1  0.83331357  0.33526711  0.33518922  1
  Te  Te158  1  0.83030921  0.33097813  0.66223997  1
  Te  Te159  1  0.83514940  0.66720901  0.00305875  1
  Te  Te160  1  0.83451754  0.66549696  0.33199108  1
  Te  Te161  1  0.82928568  0.66647781  0.66485382  1
  Te  Te162  1  -0.00374485  0.16099729  0.00354067  1
  Te  Te163  1  -0.00284802  0.16732790  0.32877473  1
  Te  Te164  1  -0.00646756  0.16812128  0.67018813  1
  Te  Te165  1  -0.00284237  0.49843122  0.00552695  1
  Te  Te166  1  -0.00391283  0.49980576  0.32937751  1
  Te  Te167  1  0.00398941  0.50036209  0.66557883  1
  Te  Te168  1  0.00170057  0.84184672  0.00208114  1
  Te  Te169  1  -0.00036091  0.83130294  0.33045610  1
  Te  Te170  1  -0.00594684  0.83208367  0.66660175  1
  Te  Te171  1  0.33031684  0.16227771  -0.00408429  1
  Te  Te172  1  0.33516456  0.17050205  0.33295059  1
  Te  Te173  1  0.33234590  0.16553681  0.66872662  1
  Te  Te174  1  0.33302871  0.50167073  -0.00063469  1
  Te  Te175  1  0.33119874  0.49534325  0.33324893  1
  Te  Te176  1  0.32992714  0.49865718  0.66522643  1
  Te  Te177  1  0.33106386  0.83816685  0.00286934  1
  Te  Te178  1  0.33288973  0.83396347  0.33266918  1
  Te  Te179  1  0.33245163  0.83657360  0.66303269  1
  Te  Te180  1  0.66969790  0.16649392  0.00341388  1
  Te  Te181  1  0.66489073  0.17209342  0.32925213  1
  Te  Te182  1  0.67142340  0.17023681  0.66370499  1
  Te  Te183  1  0.67167958  0.50409653  -0.00056140  1
  Te  Te184  1  0.67023803  0.49617805  0.33462593  1
  Te  Te185  1  0.66734217  0.49679720  0.66487742  1
  Te  Te186  1  0.66751006  0.83025246  0.00299008  1
  Te  Te187  1  0.67128765  0.83358958  0.32657953  1
  Te  Te188  1  0.67208071  0.83213527  0.66314890  1
  Te  Te189  1  -0.00012940  -0.00102986  0.16828245  1
  Te  Te190  1  0.00183465  0.00039574  0.49994222  1
  Te  Te191  1  0.00527949  -0.00026284  0.83663005  1
  Te  Te192  1  -0.00193732  0.33076425  0.16683613  1
  Te  Te193  1  -0.00477678  0.33017424  0.49628699  1
  Te  Te194  1  0.00059734  0.33771845  0.83707934  1
  Te  Te195  1  -0.00325791  0.67107505  0.16718106  1
  Te  Te196  1  -0.00670196  0.67069542  0.49589123  1
  Te  Te197  1  0.00050765  0.66193905  0.83749420  1
  Te  Te198  1  0.33349898  -0.00461647  0.16221463  1
  Te  Te199  1  0.33104898  -0.00223120  0.49799655  1
  Te  Te200  1  0.33439852  0.00187098  0.83421494  1
  Te  Te201  1  0.33518412  0.33372521  0.17139847  1
  Te  Te202  1  0.33286036  0.33299169  0.49932862  1
  Te  Te203  1  0.33376755  0.32474828  0.82878102  1
  Te  Te204  1  0.33539000  0.67168501  0.17191109  1
  Te  Te205  1  0.33336958  0.67342351  0.49529289  1
  Te  Te206  1  0.33527519  0.66744430  0.83132901  1
  Te  Te207  1  0.67001453  0.00087558  0.16225488  1
  Te  Te208  1  0.66206437  0.00004142  0.50015513  1
  Te  Te209  1  0.66631741  0.00156491  0.83740994  1
  Te  Te210  1  0.66645647  0.33094907  0.16690537  1
  Te  Te211  1  0.66988102  0.33577303  0.49942255  1
  Te  Te212  1  0.66561224  0.32856512  0.83078241  1
  Te  Te213  1  0.67254806  0.66902222  0.16381259  1
  Te  Te214  1  0.67273572  0.66365184  0.50180935  1
  Te  Te215  1  0.66649733  0.66898115  0.83365188  1
