# generated using pymatgen
data_AgSbTe2
_symmetry_space_group_name_H-M   'P 1'
_cell_length_a   18.33203930
_cell_length_b   18.33475133
_cell_length_c   18.33445283
_cell_angle_alpha   90.00494172
_cell_angle_beta   90.00556189
_cell_angle_gamma   90.00053324
_symmetry_Int_Tables_number   1
_chemical_formula_structural   AgSbTe2
_chemical_formula_sum   'Ag54 Sb54 Te108'
_cell_volume   6162.45489421
_cell_formula_units_Z   54
loop_
 _symmetry_equiv_pos_site_id
 _symmetry_equiv_pos_as_xyz
  1  'x, y, z'
loop_
 _atom_site_type_symbol
 _atom_site_label
 _atom_site_symmetry_multiplicity
 _atom_site_fract_x
 _atom_site_fract_y
 _atom_site_fract_z
 _atom_site_occupancy
  Ag  Ag0  1  0.17347024  0.15974550  0.33489424  1
  Ag  Ag1  1  0.16545894  0.00214689  0.49266962  1
  Ag  Ag2  1  0.49564731  0.16067491  0.65673550  1
  Ag  Ag3  1  0.50744447  0.50223222  0.66333122  1
  Ag  Ag4  1  -0.00685169  0.50124041  0.84039503  1
  Ag  Ag5  1  0.33572877  0.00304574  0.33601900  1
  Ag  Ag6  1  0.82386227  0.82931396  0.66171030  1
  Ag  Ag7  1  0.15805619  0.50127534  0.00628209  1
  Ag  Ag8  1  0.66949043  0.83200888  0.50156115  1
  Ag  Ag9  1  0.00097036  0.49860289  0.16345636  1
  Ag  Ag10  1  0.16964255  0.84075518  0.66034608  1
  Ag  Ag11  1  0.48635236  0.15834816  0.33978368  1
  Ag  Ag12  1  0.83126081  -0.00501656  0.82644357  1
  Ag  Ag13  1  0.66899302  0.83282951  0.81965540  1
  Ag  Ag14  1  0.83015522  0.66592169  0.82510664  1
  Ag  Ag15  1  0.16522861  0.84144321  0.00367363  1
  Ag  Ag16  1  0.00637060  0.33338231  0.33375268  1
  Ag  Ag17  1  0.00884726  0.16756224  0.17434966  1
  Ag  Ag18  1  0.50514604  0.84045123  0.34169178  1
  Ag  Ag19  1  0.48928378  -0.00052621  0.17392423  1
  Ag  Ag20  1  0.16461080  0.49943119  0.33240463  1
  Ag  Ag21  1  0.66504351  0.50801643  0.50321236  1
  Ag  Ag22  1  0.66873732  0.66700352  0.66215444  1
  Ag  Ag23  1  0.01328886  0.16494219  0.49297554  1
  Ag  Ag24  1  -0.00058269  0.66110456  0.00299205  1
  Ag  Ag25  1  0.83988737  0.50305220  -0.01062274  1
  Ag  Ag26  1  0.33953007  0.49403127  0.50245236  1
  Ag  Ag27  1  0.67123493  0.67482592  0.34545598  1
  Ag  Ag28  1  0.65893485  0.16069434  0.49956013  1
  Ag  Ag29  1  0.83351407  0.34724695  0.82984574  1
  Ag  Ag30  1  0.82886974  0.67337896  0.50370038  1
  Ag  Ag31  1  0.33519060  0.16454186  0.49797307  1
  Ag  Ag32  1  0.17109284  0.00140973  0.17500374  1
  Ag  Ag33  1  0.16959606  0.84351012  0.33381377  1
  Ag  Ag34  1  0.50986900  0.66777392  0.82832545  1
  Ag  Ag35  1  0.16654705  0.15751084  0.01168068  1
  Ag  Ag36  1  0.50776407  0.83422393  0.66177338  1
  Ag  Ag37  1  0.33140080  0.16641862  0.82311792  1
  Ag  Ag38  1  0.82548544  0.50921065  0.66898958  1
  Ag  Ag39  1  0.33133336  0.84320630  0.17457787  1
  Ag  Ag40  1  0.32698369  0.31724867  0.33713865  1
  Ag  Ag41  1  0.32719487  0.15998024  0.18247552  1
  Ag  Ag42  1  0.67300269  -0.00133749  0.00445017  1
  Ag  Ag43  1  0.65840341  -0.00649545  0.33519064  1
  Ag  Ag44  1  0.66543497  0.34425068  0.66354100  1
  Ag  Ag45  1  -0.00350023  0.66448294  0.33029364  1
  Ag  Ag46  1  0.83303864  -0.00463327  0.50178968  1
  Ag  Ag47  1  0.00028454  -0.00200894  0.00098944  1
  Ag  Ag48  1  0.17690721  0.15895275  0.65373662  1
  Ag  Ag49  1  0.67129350  0.50081401  0.17358455  1
  Ag  Ag50  1  0.82313941  0.83289093  0.34246156  1
  Ag  Ag51  1  0.33032457  0.49679755  0.82529395  1
  Ag  Ag52  1  0.50054345  0.32728137  0.50140218  1
  Ag  Ag53  1  0.33228719  0.00411583  0.65761637  1
  Sb  Sb54  1  0.33844579  0.32673014  0.66038409  1
  Sb  Sb55  1  0.16447190  0.00088702  0.83356050  1
  Sb  Sb56  1  0.49793737  0.83535696  0.00058902  1
  Sb  Sb57  1  0.00536434  0.83466656  0.16795932  1
  Sb  Sb58  1  0.50149189  0.50212663  -0.00674165  1
  Sb  Sb59  1  0.33726126  0.83811743  0.49774807  1
  Sb  Sb60  1  -0.00418771  0.33302580  0.66214826  1
  Sb  Sb61  1  0.83534479  0.50542611  0.33705812  1
  Sb  Sb62  1  0.83678027  0.83099553  -0.00171045  1
  Sb  Sb63  1  0.33638443  0.83491669  0.83208191  1
  Sb  Sb64  1  0.66259341  0.83235101  0.17281198  1
  Sb  Sb65  1  0.32783077  0.49806327  0.17091653  1
  Sb  Sb66  1  0.00363880  0.16956021  0.83296352  1
  Sb  Sb67  1  0.66650439  0.33335941  0.34114405  1
  Sb  Sb68  1  0.33148474  0.33105408  0.00304946  1
  Sb  Sb69  1  0.66543782  0.16703459  0.17423161  1
  Sb  Sb70  1  0.83048383  0.16322468  0.66479589  1
  Sb  Sb71  1  0.66296809  -0.00390930  0.65915579  1
  Sb  Sb72  1  0.50657871  0.66558436  0.50412514  1
  Sb  Sb73  1  -0.00587535  0.83826099  0.49772687  1
  Sb  Sb74  1  0.49822924  0.50132921  0.33967350  1
  Sb  Sb75  1  0.16925740  0.50089550  0.66353251  1
  Sb  Sb76  1  0.49442694  0.16277813  0.00152714  1
  Sb  Sb77  1  0.17219614  0.32508131  0.49710697  1
  Sb  Sb78  1  0.16086557  0.67311043  0.49761427  1
  Sb  Sb79  1  0.50313559  -0.00289989  0.83317423  1
  Sb  Sb80  1  0.33371494  0.67156538  0.33556521  1
  Sb  Sb81  1  0.50090711  0.00532109  0.49386232  1
  Sb  Sb82  1  -0.00115072  0.49665667  0.49711559  1
  Sb  Sb83  1  0.50201540  0.66995858  0.16576041  1
  Sb  Sb84  1  0.83640748  0.16084689  0.33765989  1
  Sb  Sb85  1  0.83430695  0.66614384  0.16927526  1
  Sb  Sb86  1  -0.00488543  0.82972598  0.83365108  1
  Sb  Sb87  1  0.16549396  0.67190155  0.16785508  1
  Sb  Sb88  1  0.66309372  0.16059484  0.82672569  1
  Sb  Sb89  1  0.83893444  0.16722934  -0.00170269  1
  Sb  Sb90  1  0.16208770  0.66638035  0.83283295  1
  Sb  Sb91  1  0.00104168  0.33567532  0.00344596  1
  Sb  Sb92  1  0.82832632  0.33308535  0.50338993  1
  Sb  Sb93  1  0.49884892  0.32881621  0.17681938  1
  Sb  Sb94  1  0.00255768  0.00020312  0.66814585  1
  Sb  Sb95  1  0.00374023  -0.00000585  0.33116874  1
  Sb  Sb96  1  0.50331509  0.33656607  0.82346499  1
  Sb  Sb97  1  0.32868659  0.00090572  0.00413241  1
  Sb  Sb98  1  0.66994365  0.50665744  0.82731411  1
  Sb  Sb99  1  0.16551705  0.32439119  0.17083187  1
  Sb  Sb100  1  0.33932432  0.67055812  0.66548642  1
  Sb  Sb101  1  0.66922175  0.33091017  -0.00694562  1
  Sb  Sb102  1  0.83593004  -0.00077352  0.16995554  1
  Sb  Sb103  1  0.67331399  0.66949626  -0.00224566  1
  Sb  Sb104  1  0.32653009  0.66678037  -0.00254038  1
  Sb  Sb105  1  -0.00743389  0.66692423  0.66485857  1
  Sb  Sb106  1  0.16474767  0.33354103  0.83202653  1
  Sb  Sb107  1  0.83421021  0.33651817  0.16503200  1
  Te  Te108  1  0.16671270  0.16333650  0.16924051  1
  Te  Te109  1  0.17040289  0.16343793  0.49626997  1
  Te  Te110  1  0.17080352  0.16792858  0.83354251  1
  Te  Te111  1  0.16430314  0.50130159  0.16770765  1
  Te  Te112  1  0.16770218  0.50103473  0.49690551  1
  Te  Te113  1  0.16941671  0.50013105  0.83246526  1
  Te  Te114  1  0.16976840  0.83805992  0.16769982  1
  Te  Te115  1  0.16738940  0.83967683  0.49854844  1
  Te  Te116  1  0.16696441  0.83281201  0.83576523  1
  Te  Te117  1  0.49701990  0.16156976  0.17061240  1
  Te  Te118  1  0.49867874  0.16618936  0.49957346  1
  Te  Te119  1  0.49432547  0.16767171  0.83145902  1
  Te  Te120  1  0.50043115  0.49958029  0.16536270  1
  Te  Te121  1  0.50220119  0.49927149  0.50379369  1
  Te  Te122  1  0.49656964  0.50351600  0.82717948  1
  Te  Te123  1  0.49480058  0.83756380  0.16851839  1
  Te  Te124  1  0.50404287  0.83198084  0.50084823  1
  Te  Te125  1  0.50425004  0.82956993  0.83029455  1
  Te  Te126  1  0.83988275  0.16836273  0.16613297  1
  Te  Te127  1  0.82716105  0.16155123  0.50155513  1
  Te  Te128  1  0.83353560  0.15772234  0.83275054  1
  Te  Te129  1  0.83524527  0.49995292  0.16492055  1
  Te  Te130  1  0.82984330  0.50084215  0.50561012  1
  Te  Te131  1  0.83156004  0.50468264  0.82996107  1
  Te  Te132  1  0.83356254  0.83348873  0.17403922  1
  Te  Te133  1  0.83234857  0.83424283  0.50091516  1
  Te  Te134  1  0.82989692  0.83353278  0.83181398  1
  Te  Te135  1  0.16318903  -0.00009088  -0.00039594  1
  Te  Te136  1  0.16550521  0.00056660  0.33327036  1
  Te  Te137  1  0.16887414  0.00124980  0.66762626  1
  Te  Te138  1  0.16686127  0.33942989  0.00010444  1
  Te  Te139  1  0.16699210  0.33820978  0.33449674  1
  Te  Te140  1  0.16587703  0.32629216  0.66535489  1
  Te  Te141  1  0.15975060  0.66237037  -0.00010931  1
  Te  Te142  1  0.16256601  0.66263531  0.33377734  1
  Te  Te143  1  0.16632877  0.67425125  0.66490101  1
  Te  Te144  1  0.50669604  -0.00053509  0.00602216  1
  Te  Te145  1  0.49819886  -0.00068919  0.33233710  1
  Te  Te146  1  0.49474396  -0.00073715  0.66835934  1
  Te  Te147  1  0.50136909  0.33298667  0.00024152  1
  Te  Te148  1  0.49778625  0.33142362  0.34063967  1
  Te  Te149  1  0.50445903  0.33599644  0.66100601  1
  Te  Te150  1  0.50003858  0.66792669  -0.00851322  1
  Te  Te151  1  0.50606657  0.67217193  0.33186817  1
  Te  Te152  1  0.50488972  0.66889850  0.66968417  1
  Te  Te153  1  0.83542196  -0.00101398  0.00088140  1
  Te  Te154  1  0.83298251  -0.00637072  0.33762953  1
  Te  Te155  1  0.83371934  -0.00493366  0.66538267  1
  Te  Te156  1  0.83328123  0.33890519  -0.00799979  1
  Te  Te157  1  0.83781828  0.33334022  0.33359721  1
  Te  Te158  1  0.82852534  0.33317248  0.67036424  1
  Te  Te159  1  0.83971291  0.66382233  -0.00257310  1
  Te  Te160  1  0.83205022  0.67106024  0.33534597  1
  Te  Te161  1  0.83126773  0.66926931  0.66535936  1
  Te  Te162  1  0.00634068  0.16610633  0.00131857  1
  Te  Te163  1  0.00162014  0.16656281  0.33332684  1
  Te  Te164  1  0.00367848  0.16739477  0.66269688  1
  Te  Te165  1  -0.00009445  0.49871787  0.00107090  1
  Te  Te166  1  0.00139140  0.50109317  0.33216117  1
  Te  Te167  1  -0.00061088  0.49956575  0.67059053  1
  Te  Te168  1  0.00461354  0.83304555  0.00085947  1
  Te  Te169  1  0.00783395  0.82910932  0.33252844  1
  Te  Te170  1  0.00815719  0.83270354  0.66593017  1
  Te  Te171  1  0.32655733  0.16718771  -0.00504822  1
  Te  Te172  1  0.33146514  0.16267116  0.33735124  1
  Te  Te173  1  0.33515367  0.16540975  0.66351935  1
  Te  Te174  1  0.32987233  0.49921544  -0.00086163  1
  Te  Te175  1  0.32966087  0.50313171  0.33644931  1
  Te  Te176  1  0.33382289  0.49944911  0.66537160  1
  Te  Te177  1  0.32666371  0.83294590  0.00155765  1
  Te  Te178  1  0.33062198  0.83611162  0.33307164  1
  Te  Te179  1  0.33116119  0.83884164  0.66652321  1
  Te  Te180  1  0.66770855  0.16134236  0.00106430  1
  Te  Te181  1  0.66720921  0.16449830  0.33809177  1
  Te  Te182  1  0.66124001  0.16409176  0.66106817  1
  Te  Te183  1  0.67031648  0.49988447  0.00274396  1
  Te  Te184  1  0.66669520  0.50139673  0.33613146  1
  Te  Te185  1  0.66680413  0.50397104  0.66606306  1
  Te  Te186  1  0.66750601  0.83795023  0.00328639  1
  Te  Te187  1  0.66463580  0.83344945  0.33454726  1
  Te  Te188  1  0.66575796  0.83389292  0.66327376  1
  Te  Te189  1  0.00331056  0.00350125  0.16195705  1
  Te  Te190  1  -0.00018197  0.00575782  0.50035887  1
  Te  Te191  1  -0.00661582  0.00054270  0.83953577  1
  Te  Te192  1  -0.00060700  0.33442709  0.17327222  1
  Te  Te193  1  -0.00274035  0.32692243  0.49427707  1
  Te  Te194  1  -0.00576593  0.33828350  0.83191231  1
  Te  Te195  1  -0.00019607  0.66162211  0.16770782  1
  Te  Te196  1  -0.00724702  0.66532210  0.49355753  1
  Te  Te197  1  -0.00537784  0.66140502  0.83551709  1
  Te  Te198  1  0.33129099  0.00122880  0.16582710  1
  Te  Te199  1  0.32901020  0.00133253  0.49823743  1
  Te  Te200  1  0.33451606  0.00368677  0.83267500  1
  Te  Te201  1  0.33457704  0.32693770  0.17517518  1
  Te  Te202  1  0.33743523  0.33390900  0.49570259  1
  Te  Te203  1  0.33503315  0.33550749  0.83354580  1
  Te  Te204  1  0.33521191  0.67228335  0.16605794  1
  Te  Te205  1  0.33091905  0.65743360  0.50038780  1
  Te  Te206  1  0.33523910  0.66222886  0.83252481  1
  Te  Te207  1  0.66724411  0.00110206  0.17055390  1
  Te  Te208  1  0.66947995  -0.00165757  0.49563854  1
  Te  Te209  1  0.67024494  -0.00471122  0.83618202  1
  Te  Te210  1  0.66627858  0.33949143  0.16608123  1
  Te  Te211  1  0.66305464  0.33353242  0.50438363  1
  Te  Te212  1  0.67163582  0.32976566  0.82594361  1
  Te  Te213  1  0.66658704  0.65986868  0.16680470  1
  Te  Te214  1  0.66939099  0.66703395  0.50168047  1
  Te  Te215  1  0.66965852  0.67187176  0.83297124  1
