# generated using pymatgen
data_AgSbTe2
_symmetry_space_group_name_H-M   'P 1'
_cell_length_a   18.34223203
_cell_length_b   18.33357832
_cell_length_c   18.33482527
_cell_angle_alpha   90.00268107
_cell_angle_beta   89.99934073
_cell_angle_gamma   90.00141169
_symmetry_Int_Tables_number   1
_chemical_formula_structural   AgSbTe2
_chemical_formula_sum   'Ag54 Sb54 Te108'
_cell_volume   6165.61206805
_cell_formula_units_Z   54
loop_
 _symmetry_equiv_pos_site_id
 _symmetry_equiv_pos_as_xyz
  1  'x, y, z'
loop_
 _atom_site_type_symbol
 _atom_site_label
 _atom_site_symmetry_multiplicity
 _atom_site_fract_x
 _atom_site_fract_y
 _atom_site_fract_z
 _atom_site_occupancy
  Ag  Ag0  1  0.16414712  0.67056826  0.82304728  1
  Ag  Ag1  1  0.83096346  0.33485276  0.49985962  1
  Ag  Ag2  1  0.67018542  0.82301546  0.82827087  1
  Ag  Ag3  1  0.50704782  0.66399075  0.16998870  1
  Ag  Ag4  1  0.50502716  0.34051056  0.82592253  1
  Ag  Ag5  1  -0.00473907  0.16518517  0.17125808  1
  Ag  Ag6  1  0.82676606  0.49579467  0.66282342  1
  Ag  Ag7  1  0.32042513  0.83249413  0.82529422  1
  Ag  Ag8  1  0.66918803  0.33438865  0.34144865  1
  Ag  Ag9  1  0.33700546  0.16653487  0.17655589  1
  Ag  Ag10  1  0.51188660  0.49862998  0.66204387  1
  Ag  Ag11  1  0.00226378  0.66103858  0.66791717  1
  Ag  Ag12  1  0.83730761  0.83506895  -0.00432134  1
  Ag  Ag13  1  0.50178163  0.17548277  0.33887994  1
  Ag  Ag14  1  0.16480646  0.82930537  0.66868523  1
  Ag  Ag15  1  0.67124356  0.49396989  0.50465843  1
  Ag  Ag16  1  0.32987116  0.83834001  0.50632046  1
  Ag  Ag17  1  0.66917520  0.17371847  0.17343953  1
  Ag  Ag18  1  0.16084164  0.66239146  0.16751381  1
  Ag  Ag19  1  0.83337363  0.66425433  0.16284606  1
  Ag  Ag20  1  0.00093718  0.83425455  0.16058149  1
  Ag  Ag21  1  0.82734652  0.49427472  0.34470747  1
  Ag  Ag22  1  0.50162705  0.00990721  0.16877107  1
  Ag  Ag23  1  0.66413951  0.17582875  0.50434355  1
  Ag  Ag24  1  0.66753501  0.49748701  0.17280553  1
  Ag  Ag25  1  0.16316956  -0.00841139  0.82381768  1
  Ag  Ag26  1  0.33898249  0.16472426  0.49590923  1
  Ag  Ag27  1  0.32552329  -0.00083801  0.66439733  1
  Ag  Ag28  1  0.16404278  0.50280914  -0.00810402  1
  Ag  Ag29  1  0.49791964  0.66278292  0.50763909  1
  Ag  Ag30  1  0.82801078  0.17549996  0.33440491  1
  Ag  Ag31  1  0.66751530  0.16955900  0.81779728  1
  Ag  Ag32  1  0.33895921  0.32867157  0.33462175  1
  Ag  Ag33  1  0.00605476  0.00004836  0.66952318  1
  Ag  Ag34  1  0.16533842  0.33467063  0.17228862  1
  Ag  Ag35  1  0.67093982  0.33480586  0.66187182  1
  Ag  Ag36  1  0.66685019  0.02126259  0.66820919  1
  Ag  Ag37  1  0.50894886  0.49332471  0.34294230  1
  Ag  Ag38  1  0.00112305  0.83252794  0.83149502  1
  Ag  Ag39  1  0.51231193  0.17099194  0.65873427  1
  Ag  Ag40  1  0.67028896  0.64859924  0.66941484  1
  Ag  Ag41  1  -0.00066137  -0.00290213  -0.00566732  1
  Ag  Ag42  1  -0.00801081  0.49789498  0.50462570  1
  Ag  Ag43  1  0.16855867  -0.00147431  0.50767431  1
  Ag  Ag44  1  0.51100365  0.66442066  0.82250306  1
  Ag  Ag45  1  0.66483550  0.50094355  0.81919086  1
  Ag  Ag46  1  -0.00649647  0.33166856  0.33951207  1
  Ag  Ag47  1  0.82799715  0.66802794  0.83071808  1
  Ag  Ag48  1  0.16913347  0.66717585  0.50813459  1
  Ag  Ag49  1  0.17203635  0.17075727  0.33261411  1
  Ag  Ag50  1  -0.00789846  0.33965609  0.66257403  1
  Ag  Ag51  1  0.15987937  0.51048046  0.66605681  1
  Ag  Ag52  1  0.83304169  0.16423534  0.00122099  1
  Ag  Ag53  1  0.82655877  0.17432017  0.66492959  1
  Sb  Sb54  1  0.33348430  0.00844917  0.33932515  1
  Sb  Sb55  1  0.32886719  0.83620976  0.16747082  1
  Sb  Sb56  1  0.83005742  0.00247518  0.16632149  1
  Sb  Sb57  1  0.16074938  0.82894852  -0.00845533  1
  Sb  Sb58  1  0.50555342  0.83248753  -0.00232532  1
  Sb  Sb59  1  0.83469081  0.33449873  0.17482163  1
  Sb  Sb60  1  0.33890688  0.16246792  0.82782399  1
  Sb  Sb61  1  0.49996931  -0.00316970  0.83226938  1
  Sb  Sb62  1  -0.00211999  0.17203707  0.49791416  1
  Sb  Sb63  1  0.66679799  0.65695859  0.33876122  1
  Sb  Sb64  1  0.66839292  0.33224824  -0.00226779  1
  Sb  Sb65  1  0.83596388  0.49966011  -0.00302112  1
  Sb  Sb66  1  0.82857736  0.33618469  0.82409994  1
  Sb  Sb67  1  0.67215974  0.00175719  -0.00498587  1
  Sb  Sb68  1  0.16218126  0.33334092  0.49740857  1
  Sb  Sb69  1  0.33281802  0.33115758  0.00482074  1
  Sb  Sb70  1  0.16721233  0.00240775  0.16776518  1
  Sb  Sb71  1  -0.00459450  0.50613328  0.82384661  1
  Sb  Sb72  1  0.50790461  0.33689908  0.50198404  1
  Sb  Sb73  1  0.66526927  0.01328291  0.33911502  1
  Sb  Sb74  1  0.83622275  0.83005048  0.67079469  1
  Sb  Sb75  1  0.83649310  -0.00463569  0.83171769  1
  Sb  Sb76  1  0.67059613  0.82999551  0.16171450  1
  Sb  Sb77  1  0.66827856  0.66579254  -0.00780029  1
  Sb  Sb78  1  0.83661568  0.00842169  0.50460599  1
  Sb  Sb79  1  0.33575846  0.49717689  0.50145943  1
  Sb  Sb80  1  0.16962387  0.33628153  0.83241458  1
  Sb  Sb81  1  0.50636319  0.16616198  0.00071787  1
  Sb  Sb82  1  0.83433458  0.82915534  0.32711512  1
  Sb  Sb83  1  -0.00107001  0.32937575  0.00115423  1
  Sb  Sb84  1  -0.00045586  0.67027501  -0.00500553  1
  Sb  Sb85  1  0.16051180  0.16843638  0.00622234  1
  Sb  Sb86  1  0.83291356  0.65914390  0.50585772  1
  Sb  Sb87  1  0.16563673  0.83594834  0.33870902  1
  Sb  Sb88  1  0.33681882  0.50637013  0.82952008  1
  Sb  Sb89  1  0.33597058  0.32751291  0.66037444  1
  Sb  Sb90  1  0.00431532  0.82947436  0.50538308  1
  Sb  Sb91  1  0.33166781  0.66757957  -0.00084428  1
  Sb  Sb92  1  0.49942307  0.50093769  -0.00223821  1
  Sb  Sb93  1  -0.00577140  0.16246229  0.83289061  1
  Sb  Sb94  1  0.16482211  0.49433465  0.33770432  1
  Sb  Sb95  1  0.16392024  0.16417840  0.66179901  1
  Sb  Sb96  1  -0.00252386  0.49930896  0.17160249  1
  Sb  Sb97  1  0.50042113  0.83093904  0.33404812  1
  Sb  Sb98  1  0.33464080  0.49642607  0.16898834  1
  Sb  Sb99  1  0.49993649  0.33305972  0.16869815  1
  Sb  Sb100  1  0.33400343  0.66001590  0.33521730  1
  Sb  Sb101  1  0.66294625  0.83099078  0.50845697  1
  Sb  Sb102  1  0.32652993  0.00053386  -0.00486377  1
  Sb  Sb103  1  0.49682275  0.00186668  0.50006239  1
  Sb  Sb104  1  0.00042518  0.00803898  0.33547151  1
  Sb  Sb105  1  -0.00053176  0.66075039  0.33727312  1
  Sb  Sb106  1  0.49666464  0.83123464  0.66762890  1
  Sb  Sb107  1  0.33181383  0.67169435  0.66596228  1
  Te  Te108  1  0.16392142  0.16732346  0.17093938  1
  Te  Te109  1  0.16726534  0.16418310  0.49454958  1
  Te  Te110  1  0.16857582  0.16556554  0.83630186  1
  Te  Te111  1  0.16637734  0.49960454  0.17031659  1
  Te  Te112  1  0.16777405  0.50439917  0.50411162  1
  Te  Te113  1  0.16768766  0.50432859  0.83015539  1
  Te  Te114  1  0.16300086  0.83192361  0.16708469  1
  Te  Te115  1  0.16982741  0.83117345  0.50392855  1
  Te  Te116  1  0.16273561  0.83235324  0.83047489  1
  Te  Te117  1  0.50175304  0.16900016  0.16754092  1
  Te  Te118  1  0.50161829  0.16510077  0.49954284  1
  Te  Te119  1  0.50534294  0.16536855  0.83228415  1
  Te  Te120  1  0.50244720  0.50227304  0.16542586  1
  Te  Te121  1  0.50124732  0.50324873  0.50182617  1
  Te  Te122  1  0.50316107  0.50446453  0.83161019  1
  Te  Te123  1  0.49858223  0.82674917  0.16610144  1
  Te  Te124  1  0.49376382  0.82639999  0.49933337  1
  Te  Te125  1  0.50834151  0.82697003  0.83434868  1
  Te  Te126  1  0.83348730  0.16777499  0.17043330  1
  Te  Te127  1  0.83074889  0.17188359  0.50063957  1
  Te  Te128  1  0.82784788  0.16684302  0.83031669  1
  Te  Te129  1  0.83082635  0.50344536  0.16338576  1
  Te  Te130  1  0.83189042  0.49848833  0.50210433  1
  Te  Te131  1  0.82731282  0.50581271  0.83076850  1
  Te  Te132  1  0.83810013  0.82961359  0.16108752  1
  Te  Te133  1  0.83387435  0.83282543  0.49630108  1
  Te  Te134  1  0.83517340  0.82899947  0.83514393  1
  Te  Te135  1  0.15937681  -0.00026125  -0.00334264  1
  Te  Te136  1  0.16677204  0.00666094  0.33820709  1
  Te  Te137  1  0.16530476  0.00235908  0.66640704  1
  Te  Te138  1  0.16622650  0.33897796  0.00512500  1
  Te  Te139  1  0.16236369  0.33046237  0.33129514  1
  Te  Te140  1  0.16471586  0.33560214  0.66627409  1
  Te  Te141  1  0.16529941  0.66279356  0.00804825  1
  Te  Te142  1  0.16635689  0.66596410  0.32911560  1
  Te  Te143  1  0.16762069  0.66871456  0.66576905  1
  Te  Te144  1  0.49918575  -0.00034095  0.00708721  1
  Te  Te145  1  0.49991481  0.00220610  0.32877798  1
  Te  Te146  1  0.50527646  0.00343662  0.66725672  1
  Te  Te147  1  0.49965765  0.33389403  -0.01135067  1
  Te  Te148  1  0.50289599  0.33364606  0.33254672  1
  Te  Te149  1  0.49935434  0.33312606  0.66731344  1
  Te  Te150  1  0.49964477  0.66603512  0.00652546  1
  Te  Te151  1  0.50036900  0.66291530  0.33006530  1
  Te  Te152  1  0.49881501  0.66516635  0.66706555  1
  Te  Te153  1  0.83913006  0.00056852  0.00027038  1
  Te  Te154  1  0.83279560  0.00582242  0.33519264  1
  Te  Te155  1  0.83056889  0.00260557  0.66710856  1
  Te  Te156  1  0.83488405  0.32608782  -0.00154754  1
  Te  Te157  1  0.83234760  0.33451369  0.33566444  1
  Te  Te158  1  0.83352471  0.33473735  0.66428282  1
  Te  Te159  1  0.83419737  0.66799448  -0.00087520  1
  Te  Te160  1  0.83373949  0.66109560  0.32697400  1
  Te  Te161  1  0.83383809  0.66376998  0.66942792  1
  Te  Te162  1  -0.00573828  0.16202093  0.00369830  1
  Te  Te163  1  -0.00368805  0.17163663  0.33123730  1
  Te  Te164  1  -0.00432595  0.16473440  0.66606638  1
  Te  Te165  1  0.00431227  0.49806236  -0.00069792  1
  Te  Te166  1  -0.00377408  0.49345439  0.33938102  1
  Te  Te167  1  0.00063142  0.50074025  0.66460163  1
  Te  Te168  1  -0.00304109  0.83606746  -0.00105170  1
  Te  Te169  1  -0.00033136  0.83385260  0.32643049  1
  Te  Te170  1  0.00252394  0.83535641  0.66918971  1
  Te  Te171  1  0.33304997  0.16568711  0.00631954  1
  Te  Te172  1  0.33605119  0.16959899  0.33397062  1
  Te  Te173  1  0.33478360  0.16045245  0.66205942  1
  Te  Te174  1  0.32411121  0.49913904  0.00017288  1
  Te  Te175  1  0.34168061  0.49111028  0.33378688  1
  Te  Te176  1  0.33054480  0.49614902  0.66600577  1
  Te  Te177  1  0.33418324  0.83526556  -0.00714312  1
  Te  Te178  1  0.33267147  0.83404043  0.33870983  1
  Te  Te179  1  0.33091595  0.83861822  0.66652461  1
  Te  Te180  1  0.67330064  0.16551981  0.01252706  1
  Te  Te181  1  0.66549347  0.17195993  0.33345726  1
  Te  Te182  1  0.66788197  0.17661869  0.66226540  1
  Te  Te183  1  0.66747063  0.49944258  0.01164799  1
  Te  Te184  1  0.66684999  0.49684051  0.33313548  1
  Te  Te185  1  0.66670731  0.49372301  0.66423930  1
  Te  Te186  1  0.67568416  0.83436438  -0.00874509  1
  Te  Te187  1  0.66760607  0.83713849  0.33391396  1
  Te  Te188  1  0.66760510  0.82968423  0.67123525  1
  Te  Te189  1  -0.00062816  0.00078901  0.16688680  1
  Te  Te190  1  0.00613167  -0.00189958  0.50497322  1
  Te  Te191  1  0.00251427  -0.00283514  0.83112913  1
  Te  Te192  1  0.00392780  0.33018683  0.16864885  1
  Te  Te193  1  -0.00414096  0.33689977  0.50196025  1
  Te  Te194  1  0.00130839  0.33267523  0.82719237  1
  Te  Te195  1  -0.00111739  0.66708254  0.16717537  1
  Te  Te196  1  0.00348396  0.66201025  0.50482980  1
  Te  Te197  1  0.00407188  0.67069684  0.82909941  1
  Te  Te198  1  0.33641231  0.00392630  0.16496598  1
  Te  Te199  1  0.33068446  0.00073219  0.50430918  1
  Te  Te200  1  0.32996145  -0.00506855  0.82808656  1
  Te  Te201  1  0.32975683  0.32763851  0.17158552  1
  Te  Te202  1  0.33057920  0.32596384  0.49338512  1
  Te  Te203  1  0.33948196  0.33228161  0.83374634  1
  Te  Te204  1  0.33130675  0.66839332  0.16706474  1
  Te  Te205  1  0.33273546  0.66864300  0.49892096  1
  Te  Te206  1  0.32732223  0.67338421  0.83428875  1
  Te  Te207  1  0.66193598  -0.00079178  0.16617381  1
  Te  Te208  1  0.66610089  -0.00000953  0.50763155  1
  Te  Te209  1  0.66640247  0.00738508  0.82873337  1
  Te  Te210  1  0.66702567  0.33376919  0.16767740  1
  Te  Te211  1  0.66879603  0.33408343  0.49957982  1
  Te  Te212  1  0.66417662  0.33378748  0.83161629  1
  Te  Te213  1  0.66841108  0.66644297  0.16762175  1
  Te  Te214  1  0.66295671  0.66363087  0.50680885  1
  Te  Te215  1  0.66729234  0.66301018  0.83001376  1
