# generated using pymatgen
data_AgSbTe2
_symmetry_space_group_name_H-M   'P 1'
_cell_length_a   18.34813231
_cell_length_b   18.34731026
_cell_length_c   18.34755903
_cell_angle_alpha   90.00330326
_cell_angle_beta   89.99748483
_cell_angle_gamma   89.99780740
_symmetry_Int_Tables_number   1
_chemical_formula_structural   AgSbTe2
_chemical_formula_sum   'Ag54 Sb54 Te108'
_cell_volume   6176.50163087
_cell_formula_units_Z   54
loop_
 _symmetry_equiv_pos_site_id
 _symmetry_equiv_pos_as_xyz
  1  'x, y, z'
loop_
 _atom_site_type_symbol
 _atom_site_label
 _atom_site_symmetry_multiplicity
 _atom_site_fract_x
 _atom_site_fract_y
 _atom_site_fract_z
 _atom_site_occupancy
  Ag  Ag0  1  0.15402300  -0.01235646  0.83335962  1
  Ag  Ag1  1  0.83618443  0.66250593  0.50429215  1
  Ag  Ag2  1  0.32501722  -0.00898009  0.68003032  1
  Ag  Ag3  1  0.16752567  0.83317106  -0.00564787  1
  Ag  Ag4  1  0.49935876  0.67022870  0.15437644  1
  Ag  Ag5  1  0.33943881  0.16130278  0.16287738  1
  Ag  Ag6  1  -0.00862077  -0.00896437  -0.00642165  1
  Ag  Ag7  1  0.83449483  0.18179139  -0.00162526  1
  Ag  Ag8  1  0.17309900  0.83016795  0.32858588  1
  Ag  Ag9  1  0.66841389  0.50692847  0.84096409  1
  Ag  Ag10  1  0.49776645  0.83148796  0.67471160  1
  Ag  Ag11  1  0.16725020  0.50439560  0.33633779  1
  Ag  Ag12  1  0.51186031  0.50105693  -0.00183658  1
  Ag  Ag13  1  0.82975846  0.49688700  -0.00338596  1
  Ag  Ag14  1  0.49889492  0.66887144  0.83783897  1
  Ag  Ag15  1  0.83384438  0.34294568  0.50071460  1
  Ag  Ag16  1  0.50828888  0.34015545  0.84114663  1
  Ag  Ag17  1  0.67257184  0.34096024  0.00025873  1
  Ag  Ag18  1  -0.00103656  0.17140459  0.50665615  1
  Ag  Ag19  1  0.66572455  -0.00241519  0.32124663  1
  Ag  Ag20  1  0.16435856  -0.00380757  0.51102017  1
  Ag  Ag21  1  0.00152967  0.67098537  0.67840611  1
  Ag  Ag22  1  0.16132951  0.67129402  0.83485700  1
  Ag  Ag23  1  0.83499353  0.83014988  0.68146161  1
  Ag  Ag24  1  0.67211349  0.00165544  0.00120880  1
  Ag  Ag25  1  0.68093518  0.82634814  0.83605420  1
  Ag  Ag26  1  0.33698621  0.83246595  0.15561389  1
  Ag  Ag27  1  -0.01376423  0.33459412  -0.00116830  1
  Ag  Ag28  1  0.83268282  0.33632556  0.84301206  1
  Ag  Ag29  1  0.32845310  0.67352641  0.68144333  1
  Ag  Ag30  1  -0.00004736  0.33538247  0.33171883  1
  Ag  Ag31  1  0.50013044  -0.00874724  0.16316732  1
  Ag  Ag32  1  -0.00459578  0.83633518  0.83558241  1
  Ag  Ag33  1  0.84414579  -0.01482298  0.83692266  1
  Ag  Ag34  1  0.66422310  0.16850636  0.16131112  1
  Ag  Ag35  1  0.33256051  0.66997548  0.32882824  1
  Ag  Ag36  1  0.82892937  0.66246857  0.15129508  1
  Ag  Ag37  1  0.84181332  0.67364542  0.83526506  1
  Ag  Ag38  1  0.33038254  0.33817139  0.32558014  1
  Ag  Ag39  1  0.67493122  0.49829457  0.49958735  1
  Ag  Ag40  1  0.83028341  0.33937196  0.15427907  1
  Ag  Ag41  1  0.33316843  -0.01178499  -0.00223700  1
  Ag  Ag42  1  0.16438055  0.50531079  0.66617194  1
  Ag  Ag43  1  -0.00411322  0.49789209  0.50092706  1
  Ag  Ag44  1  0.50519258  0.33581596  0.50155479  1
  Ag  Ag45  1  0.83746795  0.82904983  -0.00487984  1
  Ag  Ag46  1  -0.01059308  0.67193930  -0.00500410  1
  Ag  Ag47  1  0.33249169  0.67179658  -0.00193258  1
  Ag  Ag48  1  0.00536704  -0.00797659  0.68325138  1
  Ag  Ag49  1  -0.00315104  0.15111204  0.83498772  1
  Ag  Ag50  1  0.33593990  0.33446859  0.00232093  1
  Ag  Ag51  1  0.49335899  0.83179534  0.32959754  1
  Ag  Ag52  1  0.66846865  0.49800271  0.15624077  1
  Ag  Ag53  1  0.33010489  0.83058966  0.83955705  1
  Sb  Sb54  1  0.50385877  0.16969431  0.00036394  1
  Sb  Sb55  1  0.83435351  0.16839810  0.32628487  1
  Sb  Sb56  1  0.66784869  0.33500091  0.67547315  1
  Sb  Sb57  1  0.33209263  0.49987287  0.49915010  1
  Sb  Sb58  1  0.16371859  0.66986884  0.50504467  1
  Sb  Sb59  1  0.16456344  0.16564157  0.66790172  1
  Sb  Sb60  1  0.67003472  0.66626153  0.67088903  1
  Sb  Sb61  1  0.67418106  0.17212012  0.49190279  1
  Sb  Sb62  1  0.17275172  -0.00271403  0.16044919  1
  Sb  Sb63  1  0.16212439  0.16006864  -0.00153468  1
  Sb  Sb64  1  0.66212572  0.83157862  0.15770707  1
  Sb  Sb65  1  0.49713169  0.50602406  0.67203699  1
  Sb  Sb66  1  0.82700960  -0.00062595  0.15403262  1
  Sb  Sb67  1  0.00116814  0.83148782  0.50733685  1
  Sb  Sb68  1  0.66271520  0.66935293  0.33110114  1
  Sb  Sb69  1  0.16283706  0.33330226  0.49799426  1
  Sb  Sb70  1  0.49660863  0.00110708  0.49712120  1
  Sb  Sb71  1  -0.00176544  0.33641831  0.66939462  1
  Sb  Sb72  1  0.83615818  0.16268917  0.67551620  1
  Sb  Sb73  1  0.16609419  0.16453551  0.33249957  1
  Sb  Sb74  1  0.33833025  0.50938926  0.83703306  1
  Sb  Sb75  1  0.49986226  0.82628747  -0.00230441  1
  Sb  Sb76  1  0.33496146  0.33542994  0.67037539  1
  Sb  Sb77  1  0.83570530  0.49964619  0.33194250  1
  Sb  Sb78  1  0.66973690  0.66452116  -0.00243292  1
  Sb  Sb79  1  0.00258564  0.83267669  0.15660913  1
  Sb  Sb80  1  0.49907437  0.16516123  0.33079438  1
  Sb  Sb81  1  0.67318894  0.16671254  0.84221322  1
  Sb  Sb82  1  0.16678487  0.83147000  0.67496599  1
  Sb  Sb83  1  0.50252778  0.66382222  0.50331683  1
  Sb  Sb84  1  0.66896849  -0.00394575  0.67423585  1
  Sb  Sb85  1  0.32968415  0.16115299  0.84095390  1
  Sb  Sb86  1  0.32864119  0.16711037  0.49523678  1
  Sb  Sb87  1  0.50278918  0.33605097  0.16362901  1
  Sb  Sb88  1  0.16471013  0.33445806  0.16581923  1
  Sb  Sb89  1  -0.00329814  0.16836015  0.16057184  1
  Sb  Sb90  1  -0.00186039  0.00276491  0.33198498  1
  Sb  Sb91  1  0.33525984  -0.00467118  0.32848779  1
  Sb  Sb92  1  0.83820019  -0.00164877  0.50719060  1
  Sb  Sb93  1  0.83396605  0.83213724  0.32864083  1
  Sb  Sb94  1  0.50070712  -0.00540615  0.84021081  1
  Sb  Sb95  1  0.16288499  0.50640690  -0.00136067  1
  Sb  Sb96  1  0.33822379  0.50397222  0.16465397  1
  Sb  Sb97  1  0.66766883  0.33255721  0.32736523  1
  Sb  Sb98  1  0.49743427  0.50352910  0.32968412  1
  Sb  Sb99  1  0.33145751  0.83315568  0.50244516  1
  Sb  Sb100  1  0.66795605  0.83091327  0.50388756  1
  Sb  Sb101  1  0.00409072  0.66339114  0.33134350  1
  Sb  Sb102  1  0.83675391  0.50648204  0.67019642  1
  Sb  Sb103  1  0.49785082  0.16137229  0.66920289  1
  Sb  Sb104  1  0.16382387  0.33710052  0.83645554  1
  Sb  Sb105  1  -0.00636557  0.50627774  0.83252433  1
  Sb  Sb106  1  0.16923874  0.66778503  0.16195278  1
  Sb  Sb107  1  -0.00650091  0.49998353  0.16804207  1
  Te  Te108  1  0.17597248  0.16643968  0.16609794  1
  Te  Te109  1  0.15904342  0.16058043  0.50019787  1
  Te  Te110  1  0.15851198  0.16472738  0.83293147  1
  Te  Te111  1  0.16609222  0.50037221  0.17479452  1
  Te  Te112  1  0.16322289  0.50091464  0.49896563  1
  Te  Te113  1  0.16684371  0.50574606  0.83052872  1
  Te  Te114  1  0.17334196  0.83266913  0.16659714  1
  Te  Te115  1  0.16525190  0.83764565  0.49058826  1
  Te  Te116  1  0.16998710  0.83169894  0.83543959  1
  Te  Te117  1  0.50102657  0.16354856  0.16635452  1
  Te  Te118  1  0.50087457  0.17349950  0.50042984  1
  Te  Te119  1  0.49995472  0.17659172  0.83262201  1
  Te  Te120  1  0.50616257  0.50502056  0.16249008  1
  Te  Te121  1  0.50210895  0.49563438  0.50073745  1
  Te  Te122  1  0.50455483  0.49991899  0.83629675  1
  Te  Te123  1  0.49843521  0.83015166  0.16782994  1
  Te  Te124  1  0.50158770  0.83337238  0.49671968  1
  Te  Te125  1  0.49017078  0.83113495  0.83170808  1
  Te  Te126  1  0.82913263  0.16953407  0.15952558  1
  Te  Te127  1  0.83960570  0.16675057  0.49943657  1
  Te  Te128  1  0.83789992  0.17673944  0.83883983  1
  Te  Te129  1  0.82848241  0.50111601  0.16593820  1
  Te  Te130  1  0.83499858  0.50187400  0.50078967  1
  Te  Te131  1  0.82822250  0.49655285  0.83377107  1
  Te  Te132  1  0.83274113  0.82649690  0.16135155  1
  Te  Te133  1  0.83342400  0.82894618  0.50048991  1
  Te  Te134  1  0.83579386  0.82952797  0.83600878  1
  Te  Te135  1  0.17173738  -0.00469346  -0.00489175  1
  Te  Te136  1  0.16607880  -0.00418684  0.33252630  1
  Te  Te137  1  0.16548652  -0.00026487  0.67061345  1
  Te  Te138  1  0.17426397  0.33531748  0.00081136  1
  Te  Te139  1  0.16638529  0.33577439  0.33280966  1
  Te  Te140  1  0.16772339  0.34180957  0.66674481  1
  Te  Te141  1  0.17085274  0.67001023  -0.00374248  1
  Te  Te142  1  0.17051217  0.66718594  0.33250985  1
  Te  Te143  1  0.16669110  0.66578218  0.66955246  1
  Te  Te144  1  0.49588609  0.00289444  0.00378628  1
  Te  Te145  1  0.50328012  -0.00475894  0.32994457  1
  Te  Te146  1  0.49613537  -0.00658499  0.66617103  1
  Te  Te147  1  0.49873440  0.33724277  -0.00020570  1
  Te  Te148  1  0.49711112  0.33477055  0.33513038  1
  Te  Te149  1  0.49966876  0.33343934  0.66570140  1
  Te  Te150  1  0.49726568  0.66199672  -0.00177984  1
  Te  Te151  1  0.49484778  0.67093736  0.33534497  1
  Te  Te152  1  0.49364309  0.67169850  0.66939691  1
  Te  Te153  1  0.83280656  -0.00930913  -0.00281979  1
  Te  Te154  1  0.82830745  -0.00035159  0.33326697  1
  Te  Te155  1  0.83767709  -0.00556228  0.67438447  1
  Te  Te156  1  0.83066815  0.33740243  -0.00036580  1
  Te  Te157  1  0.83727065  0.33304632  0.34155921  1
  Te  Te158  1  0.83331521  0.33251493  0.65920867  1
  Te  Te159  1  0.83201009  0.66741314  -0.00511904  1
  Te  Te160  1  0.83468728  0.66750424  0.33969572  1
  Te  Te161  1  0.83650042  0.67006000  0.67043132  1
  Te  Te162  1  -0.00351276  0.17191413  -0.00263942  1
  Te  Te163  1  0.00062014  0.17349210  0.33374127  1
  Te  Te164  1  -0.00047628  0.16157736  0.66909405  1
  Te  Te165  1  -0.00363067  0.49817792  0.00059662  1
  Te  Te166  1  0.00412088  0.49555594  0.33740315  1
  Te  Te167  1  0.00325642  0.50426602  0.66187870  1
  Te  Te168  1  0.00297796  0.83144890  -0.00330817  1
  Te  Te169  1  0.00405208  0.83389197  0.33119403  1
  Te  Te170  1  -0.00157820  0.83209631  0.67041404  1
  Te  Te171  1  0.33253585  0.17129523  0.00444512  1
  Te  Te172  1  0.33233367  0.17215854  0.32691834  1
  Te  Te173  1  0.33208093  0.15882949  0.66586137  1
  Te  Te174  1  0.33104306  0.49670662  0.00089108  1
  Te  Te175  1  0.32943123  0.49898972  0.33186609  1
  Te  Te176  1  0.32773054  0.50606872  0.66678323  1
  Te  Te177  1  0.33592717  0.83180958  -0.00013226  1
  Te  Te178  1  0.33384478  0.83193074  0.33496334  1
  Te  Te179  1  0.33362436  0.83247687  0.66691845  1
  Te  Te180  1  0.67037070  0.16351342  0.00428779  1
  Te  Te181  1  0.66670196  0.16057801  0.32374045  1
  Te  Te182  1  0.66668350  0.16571652  0.66361289  1
  Te  Te183  1  0.66850764  0.50022093  -0.00133863  1
  Te  Te184  1  0.66562647  0.50020218  0.33940688  1
  Te  Te185  1  0.66572563  0.49934099  0.66003925  1
  Te  Te186  1  0.66796825  0.83888354  -0.00541492  1
  Te  Te187  1  0.66464503  0.83776927  0.33421777  1
  Te  Te188  1  0.66527062  0.83291331  0.67340549  1
  Te  Te189  1  -0.00011079  0.00170709  0.15984909  1
  Te  Te190  1  0.00361730  0.00327565  0.49818862  1
  Te  Te191  1  -0.00071973  -0.00367323  0.83833491  1
  Te  Te192  1  -0.00631439  0.33296050  0.16553990  1
  Te  Te193  1  -0.00107122  0.33368524  0.50207385  1
  Te  Te194  1  -0.00297711  0.33740726  0.83703602  1
  Te  Te195  1  -0.00669898  0.66582450  0.16106841  1
  Te  Te196  1  -0.00317198  0.66330526  0.49937370  1
  Te  Te197  1  0.00027687  0.66658088  0.83491256  1
  Te  Te198  1  0.33878696  -0.00292741  0.16361037  1
  Te  Te199  1  0.32726306  0.00244141  0.50065646  1
  Te  Te200  1  0.33506613  -0.00258862  0.83663153  1
  Te  Te201  1  0.33481114  0.33366173  0.16720526  1
  Te  Te202  1  0.33608316  0.33166880  0.49884519  1
  Te  Te203  1  0.33330548  0.33093701  0.83633369  1
  Te  Te204  1  0.33590695  0.67014398  0.16588019  1
  Te  Te205  1  0.33361001  0.66581075  0.49217225  1
  Te  Te206  1  0.33585048  0.66852745  0.83709059  1
  Te  Te207  1  0.66291008  -0.00100826  0.16195568  1
  Te  Te208  1  0.66729885  0.00199410  0.49967234  1
  Te  Te209  1  0.66861326  -0.00153965  0.83948091  1
  Te  Te210  1  0.66946132  0.33504900  0.16310670  1
  Te  Te211  1  0.66821606  0.33532781  0.49758244  1
  Te  Te212  1  0.66739624  0.33367139  0.83898518  1
  Te  Te213  1  0.66567649  0.66229878  0.16823122  1
  Te  Te214  1  0.67181002  0.66223314  0.50049143  1
  Te  Te215  1  0.66126335  0.66694413  0.83168497  1
