# generated using pymatgen
data_AgSbTe2
_symmetry_space_group_name_H-M   'P 1'
_cell_length_a   18.33186550
_cell_length_b   18.33047727
_cell_length_c   18.33387062
_cell_angle_alpha   89.99676226
_cell_angle_beta   90.00058048
_cell_angle_gamma   90.00206381
_symmetry_Int_Tables_number   1
_chemical_formula_structural   AgSbTe2
_chemical_formula_sum   'Ag54 Sb54 Te108'
_cell_volume   6160.76433801
_cell_formula_units_Z   54
loop_
 _symmetry_equiv_pos_site_id
 _symmetry_equiv_pos_as_xyz
  1  'x, y, z'
loop_
 _atom_site_type_symbol
 _atom_site_label
 _atom_site_symmetry_multiplicity
 _atom_site_fract_x
 _atom_site_fract_y
 _atom_site_fract_z
 _atom_site_occupancy
  Ag  Ag0  1  0.49805939  0.33925537  0.82092270  1
  Ag  Ag1  1  0.33812790  0.33241828  0.66476627  1
  Ag  Ag2  1  0.16999695  0.17018018  0.66291599  1
  Ag  Ag3  1  0.83519836  0.00088686  0.16672334  1
  Ag  Ag4  1  0.33298956  0.66917579  0.00727301  1
  Ag  Ag5  1  0.33302195  -0.01375820  0.00232172  1
  Ag  Ag6  1  0.66715789  0.83178801  0.82056295  1
  Ag  Ag7  1  0.33461993  -0.01373555  0.33514104  1
  Ag  Ag8  1  0.83338481  -0.00666701  0.82684878  1
  Ag  Ag9  1  -0.00292750  0.83079104  0.82936136  1
  Ag  Ag10  1  0.00635866  0.49790425  0.16667370  1
  Ag  Ag11  1  0.33467802  0.83180882  0.82878761  1
  Ag  Ag12  1  0.49772665  0.67328978  0.49923837  1
  Ag  Ag13  1  0.65182970  0.82975526  0.50358166  1
  Ag  Ag14  1  0.33844052  0.50519072  0.49564876  1
  Ag  Ag15  1  0.49339585  0.66449396  0.18005418  1
  Ag  Ag16  1  0.49146923  0.50420838  0.33801560  1
  Ag  Ag17  1  0.49496954  0.33514882  0.50231987  1
  Ag  Ag18  1  0.17626676  -0.00235871  0.50053547  1
  Ag  Ag19  1  0.49182072  0.66945063  0.82709594  1
  Ag  Ag20  1  0.83468888  0.83139832  -0.01136559  1
  Ag  Ag21  1  0.84315974  0.33595548  0.16573532  1
  Ag  Ag22  1  0.83456047  0.16520763  0.66483342  1
  Ag  Ag23  1  0.33888104  0.82958156  0.49572738  1
  Ag  Ag24  1  0.00059171  0.33652934  0.00597251  1
  Ag  Ag25  1  0.00330450  0.66830082  0.66330741  1
  Ag  Ag26  1  0.65538796  0.49870405  0.49664463  1
  Ag  Ag27  1  0.33351190  0.16067552  0.82837517  1
  Ag  Ag28  1  0.66237690  0.33765774  0.34227193  1
  Ag  Ag29  1  0.65543444  0.33684458  0.66086076  1
  Ag  Ag30  1  0.66695975  0.49874437  0.17594828  1
  Ag  Ag31  1  0.16361519  0.33922823  0.17322236  1
  Ag  Ag32  1  0.83171146  0.83474643  0.66971895  1
  Ag  Ag33  1  0.00378990  0.16695043  0.49955054  1
  Ag  Ag34  1  0.83947933  0.50253130  0.00286832  1
  Ag  Ag35  1  0.01106980  0.66533530  0.33840282  1
  Ag  Ag36  1  0.83251907  -0.00168895  0.50459865  1
  Ag  Ag37  1  0.49356259  0.83369963  0.65960146  1
  Ag  Ag38  1  0.17827542  0.82444760  0.34287307  1
  Ag  Ag39  1  0.33311606  0.82322173  0.18141404  1
  Ag  Ag40  1  0.32980927  0.50493038  0.17711699  1
  Ag  Ag41  1  0.00000321  0.18000742  0.17289888  1
  Ag  Ag42  1  0.49330994  -0.01209041  0.49842757  1
  Ag  Ag43  1  0.17234270  0.66855715  0.82868846  1
  Ag  Ag44  1  0.16656036  0.50196686  0.66171363  1
  Ag  Ag45  1  0.17422682  0.82875276  0.66201754  1
  Ag  Ag46  1  0.16491791  0.50031370  0.01336600  1
  Ag  Ag47  1  0.17431059  0.50375472  0.33259398  1
  Ag  Ag48  1  0.49430757  0.17408710  0.66187615  1
  Ag  Ag49  1  0.17324908  0.33578623  0.50152700  1
  Ag  Ag50  1  0.49714149  0.17100971  0.34463991  1
  Ag  Ag51  1  0.83632795  0.49981185  0.66605790  1
  Ag  Ag52  1  0.33310755  0.67086007  0.33055629  1
  Ag  Ag53  1  0.48898518  0.82409129  0.34740721  1
  Sb  Sb54  1  0.66913442  0.33766123  -0.00068104  1
  Sb  Sb55  1  0.49665782  0.50203388  0.00564133  1
  Sb  Sb56  1  0.33046307  0.66654067  0.66341641  1
  Sb  Sb57  1  0.00244273  0.33669420  0.66837231  1
  Sb  Sb58  1  0.16699798  -0.00629154  0.82723160  1
  Sb  Sb59  1  0.83311630  0.49948361  0.33367064  1
  Sb  Sb60  1  0.49611294  0.16735990  -0.00504847  1
  Sb  Sb61  1  0.49679699  0.50066073  0.65790371  1
  Sb  Sb62  1  0.67112651  0.17336610  0.17058453  1
  Sb  Sb63  1  0.00493033  0.83457387  0.50558073  1
  Sb  Sb64  1  0.00414397  0.82900226  0.16460180  1
  Sb  Sb65  1  0.83093483  0.66297456  0.16620338  1
  Sb  Sb66  1  0.49687408  0.33891264  0.17312002  1
  Sb  Sb67  1  0.17108004  0.33791295  0.82851190  1
  Sb  Sb68  1  0.00142925  0.50442509  0.83543640  1
  Sb  Sb69  1  0.83194686  0.16669590  0.33732661  1
  Sb  Sb70  1  0.17312637  0.66598136  0.50141846  1
  Sb  Sb71  1  0.33344175  0.00018336  0.66271662  1
  Sb  Sb72  1  0.17330074  0.66009716  0.16758880  1
  Sb  Sb73  1  0.33332552  0.16551687  0.50384615  1
  Sb  Sb74  1  0.00336564  0.00117382  0.00110842  1
  Sb  Sb75  1  0.16636787  0.17240775  -0.00403753  1
  Sb  Sb76  1  0.83469688  0.67215170  0.83206612  1
  Sb  Sb77  1  0.49949566  -0.00416947  0.82523973  1
  Sb  Sb78  1  0.32963473  0.33927697  -0.00352066  1
  Sb  Sb79  1  0.83266512  0.83425050  0.33737729  1
  Sb  Sb80  1  0.83001595  0.33069346  0.83367407  1
  Sb  Sb81  1  0.16517992  0.00394613  0.17203141  1
  Sb  Sb82  1  0.66233279  0.82835412  0.17015351  1
  Sb  Sb83  1  0.83620694  0.16554879  -0.00297735  1
  Sb  Sb84  1  0.66180306  0.66633670  -0.00107154  1
  Sb  Sb85  1  0.00367355  0.16265656  0.82819163  1
  Sb  Sb86  1  0.16798553  0.82746808  -0.00178823  1
  Sb  Sb87  1  0.00581152  0.66263018  -0.00064831  1
  Sb  Sb88  1  0.66772892  -0.00216658  0.66397421  1
  Sb  Sb89  1  0.83273431  0.33130714  0.49914052  1
  Sb  Sb90  1  0.66495746  0.16801977  0.50245266  1
  Sb  Sb91  1  0.82850790  0.66982454  0.50148342  1
  Sb  Sb92  1  0.65884935  0.66170483  0.33422767  1
  Sb  Sb93  1  0.66066543  0.00189268  0.33629187  1
  Sb  Sb94  1  -0.00046074  0.33748619  0.32967644  1
  Sb  Sb95  1  0.32998850  0.16877470  0.16634405  1
  Sb  Sb96  1  0.66496349  -0.00311127  -0.00045756  1
  Sb  Sb97  1  0.50043667  -0.00431650  0.17462326  1
  Sb  Sb98  1  0.66501763  0.50457168  0.82970832  1
  Sb  Sb99  1  0.00400388  0.49740489  0.49719396  1
  Sb  Sb100  1  0.49829818  0.83172377  -0.00304531  1
  Sb  Sb101  1  0.66706750  0.66510551  0.66609456  1
  Sb  Sb102  1  0.66247882  0.16330558  0.82740955  1
  Sb  Sb103  1  0.17097481  0.16944326  0.34015346  1
  Sb  Sb104  1  0.00530940  -0.00450106  0.33597453  1
  Sb  Sb105  1  0.33645042  0.33790675  0.34104319  1
  Sb  Sb106  1  0.33299325  0.50448551  0.82990873  1
  Sb  Sb107  1  -0.00118431  -0.00561634  0.66454472  1
  Te  Te108  1  0.16075761  0.17361722  0.16667723  1
  Te  Te109  1  0.16544182  0.16762276  0.50318614  1
  Te  Te110  1  0.17155010  0.16566904  0.82582641  1
  Te  Te111  1  0.16807254  0.49897839  0.17009893  1
  Te  Te112  1  0.16815953  0.49815981  0.50047281  1
  Te  Te113  1  0.16672718  0.50498252  0.82235974  1
  Te  Te114  1  0.17270477  0.83550005  0.16831221  1
  Te  Te115  1  0.16851175  0.83476525  0.50135777  1
  Te  Te116  1  0.16945582  0.83035658  0.83074963  1
  Te  Te117  1  0.50078460  0.16673178  0.16859301  1
  Te  Te118  1  0.50069457  0.17622609  0.50229812  1
  Te  Te119  1  0.49501170  0.16572805  0.82664428  1
  Te  Te120  1  0.49769686  0.50327093  0.17141863  1
  Te  Te121  1  0.49877778  0.49433351  0.49833864  1
  Te  Te122  1  0.50072045  0.50133448  0.83561594  1
  Te  Te123  1  0.49513406  0.82832805  0.16582976  1
  Te  Te124  1  0.49667550  0.83254760  0.50235311  1
  Te  Te125  1  0.49886611  0.83214249  0.83086290  1
  Te  Te126  1  0.83855441  0.16844845  0.16628765  1
  Te  Te127  1  0.83500074  0.16305903  0.50457963  1
  Te  Te128  1  0.83399229  0.16017807  0.82699018  1
  Te  Te129  1  0.83202307  0.49818282  0.16626209  1
  Te  Te130  1  0.83223377  0.50005878  0.50519971  1
  Te  Te131  1  0.83293165  0.50055715  0.83114583  1
  Te  Te132  1  0.83273513  0.83468239  0.16759098  1
  Te  Te133  1  0.83686463  0.83768938  0.50566348  1
  Te  Te134  1  0.83174690  0.83346052  0.83023920  1
  Te  Te135  1  0.17180670  0.00099844  0.00066390  1
  Te  Te136  1  0.17277272  -0.00138010  0.33924231  1
  Te  Te137  1  0.16562671  0.00016081  0.66058859  1
  Te  Te138  1  0.16288742  0.33980618  -0.00123556  1
  Te  Te139  1  0.16662704  0.33719341  0.33592460  1
  Te  Te140  1  0.16756878  0.33374568  0.66357811  1
  Te  Te141  1  0.17168815  0.66076064  -0.00638012  1
  Te  Te142  1  0.17053473  0.66584307  0.33375389  1
  Te  Te143  1  0.16414642  0.66824640  0.66706659  1
  Te  Te144  1  0.49351901  0.00042497  0.00189833  1
  Te  Te145  1  0.49546488  0.00024957  0.33852544  1
  Te  Te146  1  0.50129520  -0.00086670  0.65922276  1
  Te  Te147  1  0.49949137  0.33366990  -0.00656073  1
  Te  Te148  1  0.50212779  0.33555945  0.33677812  1
  Te  Te149  1  0.49877307  0.33679295  0.66436668  1
  Te  Te150  1  0.49322731  0.66680488  -0.00561240  1
  Te  Te151  1  0.49692466  0.66539570  0.33733894  1
  Te  Te152  1  0.50029591  0.67052366  0.66523275  1
  Te  Te153  1  0.83403556  -0.00339183  0.00128116  1
  Te  Te154  1  0.83303258  0.00062481  0.33366582  1
  Te  Te155  1  0.83302852  -0.00083943  0.66602033  1
  Te  Te156  1  0.83666756  0.33683354  0.00300853  1
  Te  Te157  1  0.82713797  0.33232330  0.32689347  1
  Te  Te158  1  0.83460841  0.33391963  0.66780936  1
  Te  Te159  1  0.83386909  0.66514036  -0.00042008  1
  Te  Te160  1  0.84162570  0.66749979  0.33321283  1
  Te  Te161  1  0.83846648  0.66689493  0.66760745  1
  Te  Te162  1  0.00083557  0.17175564  0.00343103  1
  Te  Te163  1  0.00057306  0.16592641  0.33373926  1
  Te  Te164  1  0.00111309  0.16761066  0.66446742  1
  Te  Te165  1  0.00087252  0.49829915  0.00266344  1
  Te  Te166  1  0.00228188  0.50432599  0.32956369  1
  Te  Te167  1  0.00000126  0.50402322  0.66669449  1
  Te  Te168  1  -0.00365235  0.83253117  -0.00361099  1
  Te  Te169  1  0.00407729  0.82722897  0.33264034  1
  Te  Te170  1  0.00082184  0.82901872  0.67015765  1
  Te  Te171  1  0.33186185  0.16677526  -0.00604898  1
  Te  Te172  1  0.33875904  0.16440734  0.33120463  1
  Te  Te173  1  0.33389286  0.16766500  0.66897207  1
  Te  Te174  1  0.32856283  0.50558402  0.00118123  1
  Te  Te175  1  0.33264515  0.49895086  0.33565070  1
  Te  Te176  1  0.32910697  0.49541921  0.66240002  1
  Te  Te177  1  0.33227527  0.82942195  -0.00913485  1
  Te  Te178  1  0.33406939  0.83092422  0.33612382  1
  Te  Te179  1  0.33332478  0.83412504  0.66692877  1
  Te  Te180  1  0.66595896  0.16663279  -0.00028123  1
  Te  Te181  1  0.65926743  0.17353688  0.33447475  1
  Te  Te182  1  0.66722024  0.17411459  0.66683066  1
  Te  Te183  1  0.67394851  0.50116074  0.00228367  1
  Te  Te184  1  0.66699647  0.49752222  0.33596899  1
  Te  Te185  1  0.67107843  0.49772816  0.66348273  1
  Te  Te186  1  0.67492832  0.83305392  0.00135832  1
  Te  Te187  1  0.66293799  0.83261293  0.33959031  1
  Te  Te188  1  0.66790505  0.83173449  0.66332910  1
  Te  Te189  1  -0.00464318  -0.00004675  0.16762679  1
  Te  Te190  1  -0.00403775  0.00610591  0.49895426  1
  Te  Te191  1  -0.00443925  -0.00592855  0.83495435  1
  Te  Te192  1  0.00166719  0.33688273  0.16788364  1
  Te  Te193  1  0.00326810  0.32805044  0.49892980  1
  Te  Te194  1  -0.00011752  0.33127978  0.84121466  1
  Te  Te195  1  -0.00054625  0.66034314  0.16927890  1
  Te  Te196  1  -0.00264465  0.66611542  0.50006054  1
  Te  Te197  1  0.00434152  0.67166125  0.83071789  1
  Te  Te198  1  0.33296404  0.00015655  0.16552644  1
  Te  Te199  1  0.33435652  -0.00227124  0.49742543  1
  Te  Te200  1  0.33342736  -0.00219227  0.83741670  1
  Te  Te201  1  0.32802697  0.33777965  0.16475721  1
  Te  Te202  1  0.33184922  0.33346398  0.50430856  1
  Te  Te203  1  0.33737157  0.33268466  0.82885403  1
  Te  Te204  1  0.33431218  0.66594323  0.16805744  1
  Te  Te205  1  0.33794820  0.66677434  0.49661342  1
  Te  Te206  1  0.33327335  0.66854025  0.83013997  1
  Te  Te207  1  0.67400013  0.00024010  0.16765449  1
  Te  Te208  1  0.66869607  -0.00493602  0.49917701  1
  Te  Te209  1  0.67098857  -0.00762424  0.83373184  1
  Te  Te210  1  0.66606531  0.33991953  0.16692524  1
  Te  Te211  1  0.66811733  0.33537738  0.50138015  1
  Te  Te212  1  0.66082093  0.33330861  0.82804616  1
  Te  Te213  1  0.65817320  0.65954031  0.16659454  1
  Te  Te214  1  0.66047153  0.66488023  0.49984984  1
  Te  Te215  1  0.65797130  0.67342497  0.83321456  1
