# generated using pymatgen
data_AgSbTe2
_symmetry_space_group_name_H-M   'P 1'
_cell_length_a   18.34369554
_cell_length_b   18.34645726
_cell_length_c   18.34903593
_cell_angle_alpha   89.99688569
_cell_angle_beta   90.00137071
_cell_angle_gamma   90.00045750
_symmetry_Int_Tables_number   1
_chemical_formula_structural   AgSbTe2
_chemical_formula_sum   'Ag54 Sb54 Te108'
_cell_volume   6175.21804698
_cell_formula_units_Z   54
loop_
 _symmetry_equiv_pos_site_id
 _symmetry_equiv_pos_as_xyz
  1  'x, y, z'
loop_
 _atom_site_type_symbol
 _atom_site_label
 _atom_site_symmetry_multiplicity
 _atom_site_fract_x
 _atom_site_fract_y
 _atom_site_fract_z
 _atom_site_occupancy
  Ag  Ag0  1  0.34897812  0.16602749  0.49695970  1
  Ag  Ag1  1  0.83616528  0.50133185  0.67085919  1
  Ag  Ag2  1  0.49826491  0.49408386  0.33020029  1
  Ag  Ag3  1  0.83523506  0.33007583  0.17053724  1
  Ag  Ag4  1  0.82960734  0.33392664  0.48892155  1
  Ag  Ag5  1  0.16372696  0.66811723  0.84485583  1
  Ag  Ag6  1  0.83393307  0.82623969  0.33250893  1
  Ag  Ag7  1  0.33514174  0.66662983  0.32205581  1
  Ag  Ag8  1  0.84338649  0.66342164  0.17023279  1
  Ag  Ag9  1  0.66974724  0.84304134  0.49846221  1
  Ag  Ag10  1  0.51411341  0.17491778  0.33606488  1
  Ag  Ag11  1  0.83857548  0.49923325  0.00026277  1
  Ag  Ag12  1  -0.00730609  0.66294854  0.32088835  1
  Ag  Ag13  1  0.66807759  0.00044807  0.67375450  1
  Ag  Ag14  1  0.16260987  0.82742356  -0.00083945  1
  Ag  Ag15  1  0.67302691  0.17192760  0.17298298  1
  Ag  Ag16  1  0.50537807  0.00715211  0.50166352  1
  Ag  Ag17  1  -0.01201927  0.33085455  0.32107666  1
  Ag  Ag18  1  0.67115424  0.32821791  0.32797895  1
  Ag  Ag19  1  0.83547787  0.01132670  0.16970573  1
  Ag  Ag20  1  0.15920502  0.66348882  0.16330604  1
  Ag  Ag21  1  -0.00519894  0.01002607  0.32574374  1
  Ag  Ag22  1  0.66536156  0.84060865  0.83347972  1
  Ag  Ag23  1  -0.00481733  -0.00006243  0.67362991  1
  Ag  Ag24  1  0.66683747  0.16461470  0.48873966  1
  Ag  Ag25  1  0.50653569  0.33723439  0.17148141  1
  Ag  Ag26  1  -0.00945515  0.16602522  0.48651508  1
  Ag  Ag27  1  0.50908889  -0.00032126  0.82946483  1
  Ag  Ag28  1  0.83408703  0.66277529  0.48715695  1
  Ag  Ag29  1  -0.00883191  0.17991519  0.17011113  1
  Ag  Ag30  1  0.67331920  0.32664676  0.01215401  1
  Ag  Ag31  1  -0.00683763  0.34284678  0.00898627  1
  Ag  Ag32  1  -0.00159994  0.82887728  0.83601737  1
  Ag  Ag33  1  0.32296401  0.66821694  0.00572961  1
  Ag  Ag34  1  0.83124313  0.17105008  0.33170074  1
  Ag  Ag35  1  -0.00652885  0.16440037  0.83827702  1
  Ag  Ag36  1  0.34615579  -0.00037726  0.66756398  1
  Ag  Ag37  1  0.33175687  0.51320175  0.83406425  1
  Ag  Ag38  1  0.67501328  0.66323209  0.32960510  1
  Ag  Ag39  1  0.33373604  0.82645520  0.16090960  1
  Ag  Ag40  1  0.00132710  0.50909128  0.84472238  1
  Ag  Ag41  1  0.50995826  0.32546129  0.48712103  1
  Ag  Ag42  1  -0.00656999  0.00107975  0.00027144  1
  Ag  Ag43  1  0.14965863  0.34264849  0.16749533  1
  Ag  Ag44  1  0.67239739  0.00666460  -0.00507903  1
  Ag  Ag45  1  -0.00311460  0.66822446  0.67867396  1
  Ag  Ag46  1  0.00313436  0.66416036  0.00263214  1
  Ag  Ag47  1  0.49327001  0.66804185  0.84018642  1
  Ag  Ag48  1  0.50345328  0.33274443  0.83757048  1
  Ag  Ag49  1  0.66924239  0.16022196  0.83574627  1
  Ag  Ag50  1  -0.00144053  0.49397483  0.16441662  1
  Ag  Ag51  1  0.16348117  0.50213767  0.32885229  1
  Ag  Ag52  1  0.33507469  0.82969483  0.83893116  1
  Ag  Ag53  1  0.49789335  0.66120834  0.16858627  1
  Sb  Sb54  1  0.33787379  0.16174831  0.82983091  1
  Sb  Sb55  1  0.16478075  0.34069753  0.84185088  1
  Sb  Sb56  1  0.83495218  0.49814642  0.32851973  1
  Sb  Sb57  1  0.15926426  0.82621491  0.32503251  1
  Sb  Sb58  1  0.16433304  -0.00587130  0.83500374  1
  Sb  Sb59  1  0.15962157  0.50689272  0.00579101  1
  Sb  Sb60  1  0.16472710  0.83283180  0.67411744  1
  Sb  Sb61  1  0.33688915  0.33741305  0.33187414  1
  Sb  Sb62  1  0.15865009  0.66687914  0.49441534  1
  Sb  Sb63  1  0.32896974  0.67110557  0.67192267  1
  Sb  Sb64  1  0.83077575  0.33260284  0.83853615  1
  Sb  Sb65  1  0.16037694  0.50308179  0.66540761  1
  Sb  Sb66  1  0.67185627  0.67193309  0.66479900  1
  Sb  Sb67  1  0.83762300  0.83062444  0.00458761  1
  Sb  Sb68  1  0.83356762  0.83214511  0.66284010  1
  Sb  Sb69  1  0.50608035  0.83267883  0.33254198  1
  Sb  Sb70  1  0.16686515  0.00110101  0.50020524  1
  Sb  Sb71  1  0.50496069  0.50009033  0.66607339  1
  Sb  Sb72  1  0.50595945  0.00148644  0.16654038  1
  Sb  Sb73  1  -0.00330310  0.33319184  0.66829703  1
  Sb  Sb74  1  0.15999020  0.17172555  0.33149347  1
  Sb  Sb75  1  0.67187057  0.00347331  0.33168292  1
  Sb  Sb76  1  -0.00397195  0.49653993  0.49502552  1
  Sb  Sb77  1  0.66945238  0.66692105  0.00458632  1
  Sb  Sb78  1  0.32979320  0.50674816  0.16399064  1
  Sb  Sb79  1  0.83139104  0.00098607  0.83942229  1
  Sb  Sb80  1  0.67026919  0.49457687  0.49541873  1
  Sb  Sb81  1  0.83004121  0.00265959  0.49411887  1
  Sb  Sb82  1  0.33286191  0.34094906  0.00217584  1
  Sb  Sb83  1  0.50302023  0.16437715  0.65967233  1
  Sb  Sb84  1  0.49831802  0.83223864  -0.00139982  1
  Sb  Sb85  1  0.33639377  0.32872549  0.66687706  1
  Sb  Sb86  1  0.33523288  0.16367029  0.17224097  1
  Sb  Sb87  1  0.33646695  0.49652201  0.50121705  1
  Sb  Sb88  1  0.33060034  -0.00455695  0.33595804  1
  Sb  Sb89  1  0.50707414  0.66580221  0.49479266  1
  Sb  Sb90  1  -0.00552792  0.83644077  0.50100048  1
  Sb  Sb91  1  0.15866922  0.16344335  0.00122744  1
  Sb  Sb92  1  0.83613699  0.66627757  0.83703571  1
  Sb  Sb93  1  0.66844716  0.32695606  0.66431142  1
  Sb  Sb94  1  0.00053443  0.82985760  0.16172015  1
  Sb  Sb95  1  0.15873066  -0.00216572  0.16585902  1
  Sb  Sb96  1  0.67337365  0.49360225  0.16809057  1
  Sb  Sb97  1  0.34169782  0.83602664  0.50077137  1
  Sb  Sb98  1  0.16300265  0.33234602  0.49067399  1
  Sb  Sb99  1  0.50367460  0.16810240  0.00321346  1
  Sb  Sb100  1  0.33426010  -0.00642569  -0.00449065  1
  Sb  Sb101  1  0.83292474  0.16816647  0.65994494  1
  Sb  Sb102  1  0.50402550  0.50042664  0.00452312  1
  Sb  Sb103  1  0.66650115  0.83567302  0.16572484  1
  Sb  Sb104  1  0.50133989  0.83462933  0.67070306  1
  Sb  Sb105  1  0.16372383  0.16628981  0.66730784  1
  Sb  Sb106  1  0.83263826  0.17048296  0.00853421  1
  Sb  Sb107  1  0.66704674  0.50109007  0.83506568  1
  Te  Te108  1  0.16565486  0.16986620  0.16653228  1
  Te  Te109  1  0.16154062  0.16726143  0.49961898  1
  Te  Te110  1  0.16344962  0.16948791  0.83403714  1
  Te  Te111  1  0.16431939  0.50154931  0.17052712  1
  Te  Te112  1  0.16803368  0.49897219  0.49188689  1
  Te  Te113  1  0.16484667  0.50587825  0.83230176  1
  Te  Te114  1  0.17324710  0.82879565  0.16099199  1
  Te  Te115  1  0.17003635  0.83349586  0.49953917  1
  Te  Te116  1  0.16397039  0.82787841  0.83861322  1
  Te  Te117  1  0.50262512  0.16878156  0.17282847  1
  Te  Te118  1  0.50570799  0.16763978  0.49755987  1
  Te  Te119  1  0.50213240  0.16492771  0.83367778  1
  Te  Te120  1  0.49827073  0.50039510  0.16989027  1
  Te  Te121  1  0.50076988  0.49316340  0.49700074  1
  Te  Te122  1  0.49888416  0.50132634  0.83345359  1
  Te  Te123  1  0.49560879  0.83073624  0.16641589  1
  Te  Te124  1  0.50940072  0.83767707  0.50058237  1
  Te  Te125  1  0.50136827  0.83370803  0.83409732  1
  Te  Te126  1  0.83383491  0.16908834  0.17037373  1
  Te  Te127  1  0.83101037  0.16904651  0.49482065  1
  Te  Te128  1  0.83299653  0.16754446  0.82999620  1
  Te  Te129  1  0.83833616  0.50228528  0.16320157  1
  Te  Te130  1  0.83366547  0.50051647  0.50552490  1
  Te  Te131  1  0.83866256  0.49909165  0.83516291  1
  Te  Te132  1  0.83146739  0.82465934  0.17246738  1
  Te  Te133  1  0.82827180  0.82891478  0.49474962  1
  Te  Te134  1  0.83366721  0.83366129  0.83327924  1
  Te  Te135  1  0.16217307  -0.00855470  0.00070937  1
  Te  Te136  1  0.15665876  -0.00254739  0.33315308  1
  Te  Te137  1  0.15520602  -0.00049528  0.66708460  1
  Te  Te138  1  0.16337399  0.33195026  0.00837474  1
  Te  Te139  1  0.16559977  0.33927151  0.32610902  1
  Te  Te140  1  0.16725856  0.33505756  0.66595640  1
  Te  Te141  1  0.16580986  0.66735810  0.00146416  1
  Te  Te142  1  0.16685967  0.66293706  0.32942908  1
  Te  Te143  1  0.15779969  0.66694314  0.66708468  1
  Te  Te144  1  0.50396207  0.00060387  -0.00496528  1
  Te  Te145  1  0.49856689  0.00319400  0.33622008  1
  Te  Te146  1  0.50454366  -0.00004542  0.66764308  1
  Te  Te147  1  0.50290138  0.33414088  -0.00221314  1
  Te  Te148  1  0.49945959  0.33287279  0.33185631  1
  Te  Te149  1  0.50089432  0.33393922  0.67528238  1
  Te  Te150  1  0.50125713  0.66577475  0.00013394  1
  Te  Te151  1  0.49719639  0.66713405  0.33234643  1
  Te  Te152  1  0.49932731  0.66539215  0.67059056  1
  Te  Te153  1  0.83328710  -0.00265002  0.00794874  1
  Te  Te154  1  0.83693039  0.00328949  0.32900266  1
  Te  Te155  1  0.83413717  0.00002056  0.66457460  1
  Te  Te156  1  0.83338223  0.33644617  0.00371196  1
  Te  Te157  1  0.83155221  0.33569765  0.33185836  1
  Te  Te158  1  0.83320528  0.33922927  0.66089747  1
  Te  Te159  1  0.83661759  0.66292930  0.00643076  1
  Te  Te160  1  0.83296124  0.66153841  0.33054346  1
  Te  Te161  1  0.83748280  0.66435527  0.66756611  1
  Te  Te162  1  -0.00221968  0.16072835  -0.00042701  1
  Te  Te163  1  -0.00243100  0.16977639  0.32972327  1
  Te  Te164  1  -0.00141567  0.16292497  0.67432875  1
  Te  Te165  1  -0.00073790  0.50041267  0.00213419  1
  Te  Te166  1  0.00108220  0.50152499  0.33017171  1
  Te  Te167  1  -0.00313236  0.50317670  0.66744459  1
  Te  Te168  1  0.00125498  0.83211941  -0.00424640  1
  Te  Te169  1  -0.00580317  0.82703865  0.33497398  1
  Te  Te170  1  -0.00109225  0.83376035  0.67074064  1
  Te  Te171  1  0.33142197  0.16432244  0.00056160  1
  Te  Te172  1  0.33091398  0.16420070  0.33852149  1
  Te  Te173  1  0.33143914  0.15880098  0.66030250  1
  Te  Te174  1  0.33519147  0.50739301  -0.00673184  1
  Te  Te175  1  0.33572270  0.50565774  0.33420714  1
  Te  Te176  1  0.33278010  0.49895680  0.67284157  1
  Te  Te177  1  0.33109414  0.82879819  -0.00203184  1
  Te  Te178  1  0.33218830  0.82757610  0.33295401  1
  Te  Te179  1  0.33169765  0.84032339  0.67092105  1
  Te  Te180  1  0.66729482  0.16793597  -0.00458477  1
  Te  Te181  1  0.66963480  0.16710543  0.33165072  1
  Te  Te182  1  0.66800353  0.16014382  0.67587347  1
  Te  Te183  1  0.67452602  0.49328900  -0.00008726  1
  Te  Te184  1  0.65823809  0.50267384  0.33288176  1
  Te  Te185  1  0.67393808  0.50193714  0.66644410  1
  Te  Te186  1  0.66897587  0.83695393  -0.00469312  1
  Te  Te187  1  0.67201726  0.83131107  0.33375302  1
  Te  Te188  1  0.66758240  0.83959747  0.66856140  1
  Te  Te189  1  -0.00424402  -0.00448211  0.16637678  1
  Te  Te190  1  -0.00073857  0.00484304  0.49977947  1
  Te  Te191  1  -0.00070585  0.00069620  0.83645055  1
  Te  Te192  1  -0.00523905  0.33468882  0.16547874  1
  Te  Te193  1  -0.00385729  0.32734342  0.49905850  1
  Te  Te194  1  -0.00030149  0.33054013  0.83751277  1
  Te  Te195  1  0.00194178  0.66936508  0.16435229  1
  Te  Te196  1  -0.00558451  0.66722851  0.49871013  1
  Te  Te197  1  -0.00157759  0.66690733  0.83713414  1
  Te  Te198  1  0.33273773  -0.00617988  0.16581449  1
  Te  Te199  1  0.33786035  0.00276509  0.50411832  1
  Te  Te200  1  0.33519605  -0.00497604  0.82893546  1
  Te  Te201  1  0.34530106  0.33266145  0.16493933  1
  Te  Te202  1  0.33617476  0.32734997  0.50075638  1
  Te  Te203  1  0.33678207  0.33143662  0.83479612  1
  Te  Te204  1  0.33669781  0.66728482  0.16468800  1
  Te  Te205  1  0.33401722  0.66666876  0.50137857  1
  Te  Te206  1  0.33381377  0.67077550  0.83203387  1
  Te  Te207  1  0.67025812  0.00439871  0.16178323  1
  Te  Te208  1  0.66540080  0.00263120  0.49769346  1
  Te  Te209  1  0.66811473  -0.00026122  0.83410381  1
  Te  Te210  1  0.66597479  0.33174380  0.16843053  1
  Te  Te211  1  0.66771024  0.32826887  0.49841115  1
  Te  Te212  1  0.66370030  0.33293837  0.83212992  1
  Te  Te213  1  0.65984110  0.66750367  0.16948723  1
  Te  Te214  1  0.67154373  0.66881480  0.49651945  1
  Te  Te215  1  0.66293184  0.66934828  0.83444187  1
