# generated using pymatgen
data_AgSbTe2
_symmetry_space_group_name_H-M   'P 1'
_cell_length_a   18.33570333
_cell_length_b   18.33793693
_cell_length_c   18.33118190
_cell_angle_alpha   89.99870188
_cell_angle_beta   90.00257534
_cell_angle_gamma   89.99858264
_symmetry_Int_Tables_number   1
_chemical_formula_structural   AgSbTe2
_chemical_formula_sum   'Ag54 Sb54 Te108'
_cell_volume   6163.65773449
_cell_formula_units_Z   54
loop_
 _symmetry_equiv_pos_site_id
 _symmetry_equiv_pos_as_xyz
  1  'x, y, z'
loop_
 _atom_site_type_symbol
 _atom_site_label
 _atom_site_symmetry_multiplicity
 _atom_site_fract_x
 _atom_site_fract_y
 _atom_site_fract_z
 _atom_site_occupancy
  Ag  Ag0  1  0.15770410  0.16530321  -0.00070530  1
  Ag  Ag1  1  0.82455007  0.49324550  0.00145111  1
  Ag  Ag2  1  0.00200442  -0.00015766  0.67901689  1
  Ag  Ag3  1  0.83303391  0.83856501  0.66443893  1
  Ag  Ag4  1  0.50273378  0.66657233  0.83267523  1
  Ag  Ag5  1  -0.00859478  0.67374896  0.33405614  1
  Ag  Ag6  1  0.84404972  0.17033102  -0.00264722  1
  Ag  Ag7  1  0.51207771  0.49833458  -0.00340537  1
  Ag  Ag8  1  0.32954283  0.83784758  0.16739971  1
  Ag  Ag9  1  0.66709993  0.50189632  0.84461901  1
  Ag  Ag10  1  0.83531867  -0.00293216  0.51354745  1
  Ag  Ag11  1  0.32382203  -0.00470645  0.66762251  1
  Ag  Ag12  1  0.66871421  0.50652641  0.49774922  1
  Ag  Ag13  1  0.66924627  0.34482244  0.32542617  1
  Ag  Ag14  1  0.82806608  0.66736192  0.50028020  1
  Ag  Ag15  1  0.16808779  0.32311818  0.15968132  1
  Ag  Ag16  1  0.00147720  0.32232053  -0.00149511  1
  Ag  Ag17  1  0.16817894  0.83508131  0.33211583  1
  Ag  Ag18  1  0.84476845  0.00219448  0.83049215  1
  Ag  Ag19  1  0.16650306  0.84240033  -0.00130484  1
  Ag  Ag20  1  -0.00109059  0.15572802  0.84418487  1
  Ag  Ag21  1  0.16517560  0.48918531  0.00026742  1
  Ag  Ag22  1  0.67059870  0.66246706  0.34276482  1
  Ag  Ag23  1  -0.00117174  -0.00398129  0.32772325  1
  Ag  Ag24  1  0.33693107  0.83047792  0.50871574  1
  Ag  Ag25  1  0.15686223  -0.00039864  0.83577808  1
  Ag  Ag26  1  0.84519549  0.00330414  0.16362365  1
  Ag  Ag27  1  0.33824062  0.50807784  0.50323986  1
  Ag  Ag28  1  0.00216045  0.01042410  -0.00697765  1
  Ag  Ag29  1  0.00015957  0.16170941  0.15643633  1
  Ag  Ag30  1  0.66844847  0.49628830  0.15634454  1
  Ag  Ag31  1  0.83536662  0.15706598  0.67305590  1
  Ag  Ag32  1  0.66374446  0.65668603  -0.00331202  1
  Ag  Ag33  1  0.66740686  0.82536598  0.50330091  1
  Ag  Ag34  1  0.67003513  0.34331606  0.00283506  1
  Ag  Ag35  1  -0.00519884  0.50000754  0.83827893  1
  Ag  Ag36  1  0.16262018  0.00347299  0.15544671  1
  Ag  Ag37  1  0.33883395  0.67739233  0.66959829  1
  Ag  Ag38  1  0.00090836  0.84480874  0.83242675  1
  Ag  Ag39  1  0.83098413  0.33898660  0.50115578  1
  Ag  Ag40  1  0.49423339  0.83568430  0.66623842  1
  Ag  Ag41  1  0.50063401  0.33505836  0.83518128  1
  Ag  Ag42  1  0.67206666  0.17195360  0.16350443  1
  Ag  Ag43  1  0.17152847  0.83902062  0.66874960  1
  Ag  Ag44  1  0.16683942  0.15609315  0.67603376  1
  Ag  Ag45  1  0.50031041  -0.00015732  0.82964743  1
  Ag  Ag46  1  0.66399996  0.66845271  0.66501152  1
  Ag  Ag47  1  0.32798150  0.33743179  -0.00257128  1
  Ag  Ag48  1  0.33432628  0.32903909  0.67295334  1
  Ag  Ag49  1  0.33513630  0.66084375  -0.00495445  1
  Ag  Ag50  1  0.32325555  0.16268290  0.16161238  1
  Ag  Ag51  1  0.49703332  0.83221162  0.34306786  1
  Ag  Ag52  1  0.49688585  0.15838592  0.67089513  1
  Ag  Ag53  1  0.82822886  0.50202098  0.33181813  1
  Sb  Sb54  1  0.50081341  0.66731575  0.16031478  1
  Sb  Sb55  1  0.49985121  0.50318040  0.67405104  1
  Sb  Sb56  1  0.67403287  0.00118789  -0.00080554  1
  Sb  Sb57  1  -0.00504489  0.33212737  0.32616925  1
  Sb  Sb58  1  0.16861742  0.32788594  0.84036142  1
  Sb  Sb59  1  0.33732064  0.66984000  0.33570279  1
  Sb  Sb60  1  -0.00161287  0.83538246  0.50349822  1
  Sb  Sb61  1  0.83122858  0.33027859  0.83358157  1
  Sb  Sb62  1  0.83297068  0.32869446  0.16396393  1
  Sb  Sb63  1  0.00029781  0.66633528  0.00248311  1
  Sb  Sb64  1  0.50679478  0.66754436  0.50689367  1
  Sb  Sb65  1  -0.00260117  0.16424342  0.50303698  1
  Sb  Sb66  1  0.16961812  0.50066711  0.67345567  1
  Sb  Sb67  1  0.33554719  0.49977112  0.83462296  1
  Sb  Sb68  1  0.33815849  0.33474821  0.33159802  1
  Sb  Sb69  1  0.32600788  0.00049047  -0.00492994  1
  Sb  Sb70  1  0.67019742  0.16718219  0.49943786  1
  Sb  Sb71  1  0.83537158  0.83097693  0.33876657  1
  Sb  Sb72  1  0.32796486  0.16625738  0.83530326  1
  Sb  Sb73  1  0.83775453  0.83542999  -0.00453307  1
  Sb  Sb74  1  0.33562679  0.49988898  0.16496894  1
  Sb  Sb75  1  0.83200155  0.66884051  0.16902940  1
  Sb  Sb76  1  0.50186625  0.16208336  0.33555390  1
  Sb  Sb77  1  0.50405871  0.33566594  0.50601910  1
  Sb  Sb78  1  0.83339974  0.16816652  0.32988256  1
  Sb  Sb79  1  0.67041713  0.17030029  0.83677127  1
  Sb  Sb80  1  0.82934688  0.66917533  0.83030884  1
  Sb  Sb81  1  -0.00102822  0.67370403  0.66542332  1
  Sb  Sb82  1  0.50415555  -0.00412651  0.50620569  1
  Sb  Sb83  1  0.66888291  0.82856691  0.82799528  1
  Sb  Sb84  1  0.00548900  0.84154501  0.16313592  1
  Sb  Sb85  1  -0.00525427  0.49488564  0.16024083  1
  Sb  Sb86  1  0.49894800  0.17099380  -0.00603738  1
  Sb  Sb87  1  0.16177480  0.50485236  0.32775774  1
  Sb  Sb88  1  0.67075516  -0.00494094  0.66757222  1
  Sb  Sb89  1  0.16540055  0.66945821  0.50094062  1
  Sb  Sb90  1  0.32823004  -0.00376823  0.33622352  1
  Sb  Sb91  1  -0.00412802  0.50166645  0.50314879  1
  Sb  Sb92  1  0.50890115  0.50594374  0.32937946  1
  Sb  Sb93  1  0.50040853  0.33247064  0.15938115  1
  Sb  Sb94  1  0.49583896  0.00007847  0.16039249  1
  Sb  Sb95  1  0.33301994  0.16344046  0.50393984  1
  Sb  Sb96  1  0.00345779  0.32497277  0.67443617  1
  Sb  Sb97  1  0.83120795  0.50152431  0.66870512  1
  Sb  Sb98  1  0.16463104  0.15982350  0.32615493  1
  Sb  Sb99  1  0.32836626  0.83471920  0.83086142  1
  Sb  Sb100  1  0.16901818  0.67217821  0.83532058  1
  Sb  Sb101  1  0.16744538  0.67146085  0.16452347  1
  Sb  Sb102  1  0.16376453  0.33355135  0.49826684  1
  Sb  Sb103  1  0.49435316  0.82880601  -0.00563128  1
  Sb  Sb104  1  0.16144549  -0.00181402  0.50531080  1
  Sb  Sb105  1  0.66309897  0.83133793  0.17104503  1
  Sb  Sb106  1  0.66446336  0.33778373  0.66955749  1
  Sb  Sb107  1  0.67262530  -0.00280227  0.33355443  1
  Te  Te108  1  0.16515387  0.16388798  0.16521670  1
  Te  Te109  1  0.16660782  0.16772477  0.50606068  1
  Te  Te110  1  0.16213893  0.16295899  0.83461051  1
  Te  Te111  1  0.16637991  0.49749192  0.16164864  1
  Te  Te112  1  0.17080950  0.50020479  0.49820637  1
  Te  Te113  1  0.16455511  0.49982512  0.83941428  1
  Te  Te114  1  0.16951269  0.83759302  0.16532823  1
  Te  Te115  1  0.17094478  0.83335230  0.50113881  1
  Te  Te116  1  0.16285252  0.83809976  0.83296045  1
  Te  Te117  1  0.50152497  0.16514111  0.16740508  1
  Te  Te118  1  0.50100822  0.16599851  0.50947455  1
  Te  Te119  1  0.50139742  0.16715866  0.82850749  1
  Te  Te120  1  0.50556357  0.49989915  0.16000858  1
  Te  Te121  1  0.49837619  0.49997425  0.49761777  1
  Te  Te122  1  0.50169320  0.50050856  0.83780741  1
  Te  Te123  1  0.49326561  0.83491223  0.16773934  1
  Te  Te124  1  0.49982543  0.83297867  0.50309555  1
  Te  Te125  1  0.50124458  0.83171718  0.82754112  1
  Te  Te126  1  0.83349625  0.16379375  0.16317760  1
  Te  Te127  1  0.83270340  0.16145008  0.50329501  1
  Te  Te128  1  0.83646221  0.16453808  0.83535803  1
  Te  Te129  1  0.82843401  0.49989760  0.16649942  1
  Te  Te130  1  0.83159287  0.50100853  0.50012253  1
  Te  Te131  1  0.82989533  0.49922209  0.83663106  1
  Te  Te132  1  0.83234019  0.84176221  0.16570609  1
  Te  Te133  1  0.83191826  0.83346064  0.50330773  1
  Te  Te134  1  0.83763699  0.83820462  0.82821712  1
  Te  Te135  1  0.16533360  0.00227240  -0.00319719  1
  Te  Te136  1  0.16161806  -0.00555917  0.33388973  1
  Te  Te137  1  0.16456796  -0.00069278  0.66694612  1
  Te  Te138  1  0.16791347  0.32872020  0.00051166  1
  Te  Te139  1  0.16606310  0.33428239  0.32704772  1
  Te  Te140  1  0.17286156  0.33112314  0.66645054  1
  Te  Te141  1  0.17066936  0.66954316  0.00020094  1
  Te  Te142  1  0.16428930  0.67274884  0.33266019  1
  Te  Te143  1  0.17153235  0.67156035  0.66737429  1
  Te  Te144  1  0.49973509  -0.00083574  -0.00763427  1
  Te  Te145  1  0.50101250  -0.00697784  0.33317403  1
  Te  Te146  1  0.50264694  -0.00171658  0.66894816  1
  Te  Te147  1  0.49949392  0.33696345  -0.00444772  1
  Te  Te148  1  0.50755233  0.33270798  0.33421743  1
  Te  Te149  1  0.49614632  0.33334744  0.67247687  1
  Te  Te150  1  0.49800700  0.66321012  -0.00554262  1
  Te  Te151  1  0.50562692  0.67278159  0.33155520  1
  Te  Te152  1  0.49858416  0.66881017  0.67173251  1
  Te  Te153  1  0.83840470  0.00154826  -0.00208256  1
  Te  Te154  1  0.83760252  0.00002921  0.32599366  1
  Te  Te155  1  0.83414704  -0.00071952  0.66966677  1
  Te  Te156  1  0.83268351  0.33318164  -0.00043953  1
  Te  Te157  1  0.82934617  0.33690066  0.33620052  1
  Te  Te158  1  0.83390764  0.32972925  0.66273235  1
  Te  Te159  1  0.83026742  0.66391646  -0.00001359  1
  Te  Te160  1  0.83064016  0.66483438  0.33538929  1
  Te  Te161  1  0.83135272  0.67103699  0.66242048  1
  Te  Te162  1  -0.00005284  0.16632206  0.00078426  1
  Te  Te163  1  -0.00002915  0.16261259  0.32968343  1
  Te  Te164  1  -0.00063068  0.16150464  0.66926047  1
  Te  Te165  1  0.00361154  0.50130423  -0.00232857  1
  Te  Te166  1  -0.00716476  0.50162640  0.33297832  1
  Te  Te167  1  0.00129927  0.49921785  0.67268181  1
  Te  Te168  1  0.00476753  0.83292311  -0.00570655  1
  Te  Te169  1  0.00314472  0.83339529  0.33318730  1
  Te  Te170  1  0.00116882  0.83706095  0.66978087  1
  Te  Te171  1  0.33236305  0.17011383  0.00294783  1
  Te  Te172  1  0.33434221  0.16631755  0.32747486  1
  Te  Te173  1  0.33251457  0.16619674  0.66734035  1
  Te  Te174  1  0.32655168  0.49931451  0.00127708  1
  Te  Te175  1  0.33358117  0.50159170  0.33844109  1
  Te  Te176  1  0.33293494  0.49722065  0.66336074  1
  Te  Te177  1  0.32842890  0.83208906  0.00241740  1
  Te  Te178  1  0.33206355  0.83236837  0.33244127  1
  Te  Te179  1  0.33287344  0.83462025  0.66767026  1
  Te  Te180  1  0.66708069  0.16917628  0.00408701  1
  Te  Te181  1  0.66517883  0.17003322  0.32735785  1
  Te  Te182  1  0.66941037  0.16861035  0.66767743  1
  Te  Te183  1  0.66810494  0.50015399  0.00030556  1
  Te  Te184  1  0.66856825  0.50188339  0.33924313  1
  Te  Te185  1  0.66597586  0.50604580  0.65773933  1
  Te  Te186  1  0.66505295  0.82778829  0.00121536  1
  Te  Te187  1  0.66367906  0.82878893  0.33725434  1
  Te  Te188  1  0.66783475  0.82877281  0.66336445  1
  Te  Te189  1  0.00307751  0.00119466  0.16521387  1
  Te  Te190  1  -0.00668836  -0.00054304  0.49123769  1
  Te  Te191  1  0.00099864  0.00095991  0.83356111  1
  Te  Te192  1  0.00385089  0.32758311  0.16043405  1
  Te  Te193  1  -0.00692712  0.33403596  0.49955239  1
  Te  Te194  1  -0.00046369  0.33907726  0.83922190  1
  Te  Te195  1  -0.00072065  0.66632338  0.17431247  1
  Te  Te196  1  -0.00731030  0.66654861  0.49513478  1
  Te  Te197  1  -0.00070713  0.66033167  0.83328991  1
  Te  Te198  1  0.32870429  0.00034608  0.16744305  1
  Te  Te199  1  0.33397949  -0.00544576  0.50584860  1
  Te  Te200  1  0.33928316  0.00076864  0.82666010  1
  Te  Te201  1  0.33026244  0.33136365  0.16360097  1
  Te  Te202  1  0.33335953  0.33378398  0.50154237  1
  Te  Te203  1  0.33780139  0.33315493  0.83441714  1
  Te  Te204  1  0.33384036  0.67053474  0.16247641  1
  Te  Te205  1  0.33320782  0.66908388  0.50357779  1
  Te  Te206  1  0.33728535  0.66646379  0.83298303  1
  Te  Te207  1  0.66625266  0.00331642  0.16635822  1
  Te  Te208  1  0.67521589  -0.00385451  0.49847814  1
  Te  Te209  1  0.66130675  -0.00014836  0.83477494  1
  Te  Te210  1  0.66635165  0.33380486  0.16477473  1
  Te  Te211  1  0.67097828  0.33545974  0.49983330  1
  Te  Te212  1  0.66314507  0.33917398  0.83729625  1
  Te  Te213  1  0.66675042  0.66320590  0.16231108  1
  Te  Te214  1  0.66841315  0.66762783  0.50216483  1
  Te  Te215  1  0.66442705  0.66233324  0.83283715  1
