# generated using pymatgen
data_AgSbTe2
_symmetry_space_group_name_H-M   'P 1'
_cell_length_a   18.34743289
_cell_length_b   18.34226840
_cell_length_c   18.34453676
_cell_angle_alpha   89.99923260
_cell_angle_beta   89.99850318
_cell_angle_gamma   89.99694819
_symmetry_Int_Tables_number   1
_chemical_formula_structural   AgSbTe2
_chemical_formula_sum   'Ag54 Sb54 Te108'
_cell_volume   6173.55185513
_cell_formula_units_Z   54
loop_
 _symmetry_equiv_pos_site_id
 _symmetry_equiv_pos_as_xyz
  1  'x, y, z'
loop_
 _atom_site_type_symbol
 _atom_site_label
 _atom_site_symmetry_multiplicity
 _atom_site_fract_x
 _atom_site_fract_y
 _atom_site_fract_z
 _atom_site_occupancy
  Ag  Ag0  1  0.15392264  0.66609155  0.15462817  1
  Ag  Ag1  1  -0.00121096  0.50404863  0.16378330  1
  Ag  Ag2  1  0.83411767  0.67780089  0.82865633  1
  Ag  Ag3  1  0.83287707  0.33873661  0.16900272  1
  Ag  Ag4  1  0.50133838  0.83215161  0.32926356  1
  Ag  Ag5  1  0.00212732  0.00699395  0.66997381  1
  Ag  Ag6  1  0.83576111  0.00519567  0.50432052  1
  Ag  Ag7  1  -0.00229431  0.67353089  -0.00151925  1
  Ag  Ag8  1  0.33092169  0.00050129  -0.01201864  1
  Ag  Ag9  1  0.15908429  0.66801392  0.83139640  1
  Ag  Ag10  1  0.83019531  0.66017836  0.51102839  1
  Ag  Ag11  1  -0.01094037  0.33323257  0.34419575  1
  Ag  Ag12  1  0.83516213  0.66276729  0.16073634  1
  Ag  Ag13  1  0.33457225  -0.00245198  0.34362530  1
  Ag  Ag14  1  0.83317618  0.49839677  0.34611343  1
  Ag  Ag15  1  0.49611600  -0.00716363  0.83433303  1
  Ag  Ag16  1  -0.00160219  0.82300713  0.15325890  1
  Ag  Ag17  1  0.67488153  0.66184026  0.66622882  1
  Ag  Ag18  1  -0.00345879  0.16728110  0.51253872  1
  Ag  Ag19  1  0.33447443  0.32765149  -0.01362692  1
  Ag  Ag20  1  0.67180613  0.83747833  0.83385918  1
  Ag  Ag21  1  0.66858895  0.50022348  0.50262691  1
  Ag  Ag22  1  0.66923183  0.66123004  0.34652022  1
  Ag  Ag23  1  0.50869785  0.33449163  0.17320154  1
  Ag  Ag24  1  0.50111425  0.67356355  0.82743014  1
  Ag  Ag25  1  0.33146569  0.15760095  0.83098338  1
  Ag  Ag26  1  0.16022251  0.50052174  0.66822968  1
  Ag  Ag27  1  0.16566074  0.50390439  -0.01056980  1
  Ag  Ag28  1  0.67765181  0.15766382  0.83265445  1
  Ag  Ag29  1  0.15662917  0.15774782  0.66966795  1
  Ag  Ag30  1  0.33534253  0.66659631  0.66813623  1
  Ag  Ag31  1  0.33788311  0.83801686  0.83226778  1
  Ag  Ag32  1  0.83572892  0.15853776  -0.00936531  1
  Ag  Ag33  1  0.15996624  -0.00004586  0.50801917  1
  Ag  Ag34  1  0.50571731  0.83472872  -0.00691127  1
  Ag  Ag35  1  0.67853365  -0.00334900  -0.00847361  1
  Ag  Ag36  1  0.83846273  0.49485993  0.66548873  1
  Ag  Ag37  1  0.83048785  0.33926333  0.50867153  1
  Ag  Ag38  1  0.67195850  0.33718284  0.34594958  1
  Ag  Ag39  1  0.33925261  0.49866942  0.50446979  1
  Ag  Ag40  1  -0.00517305  -0.00801080  -0.01011262  1
  Ag  Ag41  1  -0.01060342  0.32113693  0.66504013  1
  Ag  Ag42  1  0.83267488  0.32174682  0.82436859  1
  Ag  Ag43  1  0.83807501  0.83114555  0.67244606  1
  Ag  Ag44  1  0.33296674  0.33296203  0.66821860  1
  Ag  Ag45  1  0.15950412  0.83801923  0.67019078  1
  Ag  Ag46  1  0.51060797  0.66254862  0.50983378  1
  Ag  Ag47  1  0.67558328  0.34085158  0.66454227  1
  Ag  Ag48  1  0.32399581  0.00013755  0.66797929  1
  Ag  Ag49  1  0.51125511  0.34017893  0.50148097  1
  Ag  Ag50  1  0.83674999  0.83745408  -0.00734521  1
  Ag  Ag51  1  -0.00386998  0.15782164  0.82824223  1
  Ag  Ag52  1  -0.00787511  0.83658888  0.83393146  1
  Ag  Ag53  1  0.84389616  0.18155074  0.67259456  1
  Sb  Sb54  1  0.32833293  0.66819374  -0.00990608  1
  Sb  Sb55  1  0.16835037  0.83280882  0.33781778  1
  Sb  Sb56  1  0.16622040  0.16671059  0.34158187  1
  Sb  Sb57  1  0.33031202  0.16857727  0.50910549  1
  Sb  Sb58  1  0.50053559  0.50148702  0.66470944  1
  Sb  Sb59  1  0.83496487  -0.00154819  0.16544785  1
  Sb  Sb60  1  0.50103426  0.83139311  0.67390440  1
  Sb  Sb61  1  0.16485157  0.66887947  0.50702006  1
  Sb  Sb62  1  0.16040797  0.50007581  0.33728168  1
  Sb  Sb63  1  0.16266641  0.16772514  -0.00960491  1
  Sb  Sb64  1  0.49336288  0.50228235  -0.00072901  1
  Sb  Sb65  1  0.33899198  0.67049557  0.34060989  1
  Sb  Sb66  1  0.67242663  -0.00101440  0.67223153  1
  Sb  Sb67  1  0.32822621  0.50046247  0.16948074  1
  Sb  Sb68  1  -0.00720433  0.66286645  0.32667974  1
  Sb  Sb69  1  0.49829888  0.00201734  0.16060054  1
  Sb  Sb70  1  -0.00499897  0.49749634  0.50102351  1
  Sb  Sb71  1  0.16109084  0.33745955  0.82857926  1
  Sb  Sb72  1  -0.00377504  0.66609438  0.67156188  1
  Sb  Sb73  1  0.50421525  0.66443919  0.16580146  1
  Sb  Sb74  1  0.50483546  0.50209626  0.33582148  1
  Sb  Sb75  1  0.33312961  0.16745655  0.15855533  1
  Sb  Sb76  1  0.50244081  0.16663797  0.66843762  1
  Sb  Sb77  1  0.67215168  0.67106773  -0.00813012  1
  Sb  Sb78  1  0.00111398  0.00297080  0.33777513  1
  Sb  Sb79  1  0.83427026  0.17562996  0.33918979  1
  Sb  Sb80  1  0.16906966  -0.00726229  0.82674272  1
  Sb  Sb81  1  0.83788508  0.50213166  -0.00432101  1
  Sb  Sb82  1  -0.00364125  0.83686416  0.50703279  1
  Sb  Sb83  1  0.67287438  0.17336164  0.50842036  1
  Sb  Sb84  1  0.49991219  0.16540912  0.33363883  1
  Sb  Sb85  1  0.83044830  0.82670477  0.33365537  1
  Sb  Sb86  1  0.66895675  0.16853796  0.16092790  1
  Sb  Sb87  1  -0.00086546  0.33307911  -0.00565625  1
  Sb  Sb88  1  0.50368120  0.16250226  -0.00407470  1
  Sb  Sb89  1  0.50084708  -0.00300604  0.50594430  1
  Sb  Sb90  1  -0.00176848  0.50327104  0.83418629  1
  Sb  Sb91  1  0.67044140  0.83118666  0.16083453  1
  Sb  Sb92  1  0.66653537  0.33047375  -0.00500592  1
  Sb  Sb93  1  0.16228270  0.83027727  -0.00931424  1
  Sb  Sb94  1  0.33463730  0.83173476  0.50926631  1
  Sb  Sb95  1  0.32966107  0.83186358  0.16022135  1
  Sb  Sb96  1  -0.00238844  0.16839653  0.16142315  1
  Sb  Sb97  1  0.16241995  0.33821821  0.16315463  1
  Sb  Sb98  1  0.16541131  -0.00616863  0.16801310  1
  Sb  Sb99  1  0.33618277  0.33045621  0.33914442  1
  Sb  Sb100  1  0.67590755  0.49996159  0.17294198  1
  Sb  Sb101  1  0.66992069  0.50279372  0.82681592  1
  Sb  Sb102  1  0.83408264  -0.00041291  0.82729172  1
  Sb  Sb103  1  0.66747489  0.82756390  0.50714812  1
  Sb  Sb104  1  0.33207714  0.50222509  0.82543984  1
  Sb  Sb105  1  0.16150404  0.33240342  0.50622086  1
  Sb  Sb106  1  0.50349199  0.33287387  0.82924158  1
  Sb  Sb107  1  0.66517007  -0.00145343  0.33223990  1
  Te  Te108  1  0.16657565  0.16644416  0.16740571  1
  Te  Te109  1  0.16207375  0.16222752  0.50828294  1
  Te  Te110  1  0.16997984  0.17211390  0.82706500  1
  Te  Te111  1  0.16050473  0.50615377  0.17032309  1
  Te  Te112  1  0.16938993  0.50158968  0.50673204  1
  Te  Te113  1  0.16609328  0.50571076  0.83151050  1
  Te  Te114  1  0.16176146  0.82578315  0.16918250  1
  Te  Te115  1  0.16651555  0.83862284  0.50712944  1
  Te  Te116  1  0.16903602  0.82637765  0.82833439  1
  Te  Te117  1  0.50005402  0.17514656  0.16583142  1
  Te  Te118  1  0.50051955  0.17135743  0.49898590  1
  Te  Te119  1  0.49246829  0.16539922  0.83482034  1
  Te  Te120  1  0.49848472  0.49392187  0.16718315  1
  Te  Te121  1  0.50141091  0.50141632  0.49866835  1
  Te  Te122  1  0.50149504  0.51116919  0.83511271  1
  Te  Te123  1  0.49911867  0.83363269  0.16478353  1
  Te  Te124  1  0.50063317  0.82858396  0.49444205  1
  Te  Te125  1  0.49865599  0.83292626  0.83391911  1
  Te  Te126  1  0.83355402  0.16978491  0.16364093  1
  Te  Te127  1  0.83665858  0.16786864  0.50491313  1
  Te  Te128  1  0.83480034  0.16361606  0.83271048  1
  Te  Te129  1  0.83896488  0.50081160  0.16136428  1
  Te  Te130  1  0.83347727  0.49960859  0.50260548  1
  Te  Te131  1  0.83332751  0.49907764  0.82756576  1
  Te  Te132  1  0.83854860  0.83001750  0.16701129  1
  Te  Te133  1  0.83153717  0.83025748  0.50110790  1
  Te  Te134  1  0.83259606  0.83568737  0.83477871  1
  Te  Te135  1  0.16961277  0.00126904  0.00366621  1
  Te  Te136  1  0.17155173  -0.00018148  0.34047049  1
  Te  Te137  1  0.16394124  -0.00067692  0.66579332  1
  Te  Te138  1  0.17316658  0.33717927  -0.00139404  1
  Te  Te139  1  0.16265436  0.33318488  0.33342908  1
  Te  Te140  1  0.17413220  0.34128421  0.66619608  1
  Te  Te141  1  0.16309832  0.66462163  -0.00241804  1
  Te  Te142  1  0.16821663  0.66646435  0.33420383  1
  Te  Te143  1  0.16580449  0.66443997  0.67005146  1
  Te  Te144  1  0.49265863  -0.00379046  -0.00314166  1
  Te  Te145  1  0.49646922  -0.00510145  0.33325364  1
  Te  Te146  1  0.49414858  -0.00050400  0.67149292  1
  Te  Te147  1  0.49482174  0.33415102  -0.00083967  1
  Te  Te148  1  0.50550384  0.33291571  0.33595951  1
  Te  Te149  1  0.49464384  0.33381498  0.66219054  1
  Te  Te150  1  0.50056578  0.67265386  -0.00203917  1
  Te  Te151  1  0.50614000  0.67073129  0.33352851  1
  Te  Te152  1  0.49892581  0.66710645  0.66686329  1
  Te  Te153  1  0.83555941  -0.00136235  0.00369766  1
  Te  Te154  1  0.83277545  0.00167482  0.33967922  1
  Te  Te155  1  0.83644389  -0.00823452  0.66233128  1
  Te  Te156  1  0.83201976  0.33274884  0.00108094  1
  Te  Te157  1  0.83208301  0.33552342  0.32859223  1
  Te  Te158  1  0.83218131  0.33622435  0.66820773  1
  Te  Te159  1  0.83691029  0.66873492  -0.00189768  1
  Te  Te160  1  0.82745702  0.66210980  0.33286944  1
  Te  Te161  1  0.83393980  0.67091748  0.66909906  1
  Te  Te162  1  -0.00440983  0.16370819  -0.00629833  1
  Te  Te163  1  0.00122819  0.17190095  0.33228058  1
  Te  Te164  1  -0.00001179  0.16502865  0.66800765  1
  Te  Te165  1  0.00509707  0.50113676  0.00155955  1
  Te  Te166  1  -0.00527771  0.49441448  0.33091310  1
  Te  Te167  1  -0.00030220  0.49734539  0.66730136  1
  Te  Te168  1  -0.00063096  0.83392453  -0.00296084  1
  Te  Te169  1  -0.00009985  0.83516838  0.33160262  1
  Te  Te170  1  0.00023681  0.83379094  0.67053205  1
  Te  Te171  1  0.33180958  0.16696772  -0.00656410  1
  Te  Te172  1  0.33299443  0.15898888  0.33264272  1
  Te  Te173  1  0.33579801  0.16656831  0.67069147  1
  Te  Te174  1  0.32539777  0.49887096  0.00374437  1
  Te  Te175  1  0.33252795  0.50015142  0.34234704  1
  Te  Te176  1  0.33433428  0.50122835  0.66333156  1
  Te  Te177  1  0.33316314  0.83602643  -0.00551808  1
  Te  Te178  1  0.33546935  0.83737424  0.33099485  1
  Te  Te179  1  0.33328166  0.83201952  0.67146050  1
  Te  Te180  1  0.67204324  0.16248115  -0.00640690  1
  Te  Te181  1  0.66610893  0.16932532  0.33209706  1
  Te  Te182  1  0.66921412  0.16789282  0.67450749  1
  Te  Te183  1  0.66218883  0.50060812  0.00255544  1
  Te  Te184  1  0.67133130  0.49913301  0.33829350  1
  Te  Te185  1  0.66999973  0.50042169  0.66242698  1
  Te  Te186  1  0.66813370  0.83634724  -0.00441408  1
  Te  Te187  1  0.66212385  0.83295696  0.33136455  1
  Te  Te188  1  0.67084999  0.83080848  0.67330398  1
  Te  Te189  1  0.00097017  -0.00185708  0.16569835  1
  Te  Te190  1  -0.00184062  0.00270692  0.50244043  1
  Te  Te191  1  0.00230916  -0.00153380  0.83218522  1
  Te  Te192  1  -0.00467522  0.33586068  0.16318552  1
  Te  Te193  1  -0.00428326  0.33188232  0.50254925  1
  Te  Te194  1  -0.00573665  0.33077664  0.82727160  1
  Te  Te195  1  -0.00258134  0.66619038  0.16573766  1
  Te  Te196  1  -0.00709522  0.66866209  0.49592221  1
  Te  Te197  1  -0.00357225  0.66911876  0.83814906  1
  Te  Te198  1  0.33229585  0.00024656  0.16681648  1
  Te  Te199  1  0.33422070  0.00020247  0.50362956  1
  Te  Te200  1  0.33221469  -0.00154914  0.83045277  1
  Te  Te201  1  0.33441197  0.33399281  0.16954999  1
  Te  Te202  1  0.33337317  0.33560552  0.50319485  1
  Te  Te203  1  0.33534056  0.33585321  0.83123571  1
  Te  Te204  1  0.33407016  0.66611216  0.16788863  1
  Te  Te205  1  0.33261316  0.66338467  0.50675324  1
  Te  Te206  1  0.33611894  0.66659955  0.82728650  1
  Te  Te207  1  0.66557537  0.00032524  0.15814233  1
  Te  Te208  1  0.67098070  0.00109064  0.49960447  1
  Te  Te209  1  0.66084323  -0.00070924  0.83499764  1
  Te  Te210  1  0.66685995  0.33356197  0.16423986  1
  Te  Te211  1  0.66833288  0.33480761  0.50320140  1
  Te  Te212  1  0.67053251  0.33227678  0.82746753  1
  Te  Te213  1  0.67268928  0.66596391  0.16847665  1
  Te  Te214  1  0.66862448  0.66550036  0.50326502  1
  Te  Te215  1  0.67127164  0.66956280  0.82791964  1
