# generated using pymatgen
data_AgSbTe2
_symmetry_space_group_name_H-M   'P 1'
_cell_length_a   18.32916936
_cell_length_b   18.33044624
_cell_length_c   18.32298784
_cell_angle_alpha   89.99958764
_cell_angle_beta   89.99914441
_cell_angle_gamma   90.00363890
_symmetry_Int_Tables_number   1
_chemical_formula_structural   AgSbTe2
_chemical_formula_sum   'Ag54 Sb54 Te108'
_cell_volume   6156.19140491
_cell_formula_units_Z   54
loop_
 _symmetry_equiv_pos_site_id
 _symmetry_equiv_pos_as_xyz
  1  'x, y, z'
loop_
 _atom_site_type_symbol
 _atom_site_label
 _atom_site_symmetry_multiplicity
 _atom_site_fract_x
 _atom_site_fract_y
 _atom_site_fract_z
 _atom_site_occupancy
  Ag  Ag0  1  0.34272601  0.66146038  0.33436488  1
  Ag  Ag1  1  0.17613257  0.49913674  0.33818903  1
  Ag  Ag2  1  -0.00394321  -0.00049174  0.34436198  1
  Ag  Ag3  1  0.83032556  0.16926088  0.66346337  1
  Ag  Ag4  1  0.50458109  0.16500318  0.33353106  1
  Ag  Ag5  1  0.66881363  0.00235789  0.66005203  1
  Ag  Ag6  1  0.32557251  0.83251784  0.82822518  1
  Ag  Ag7  1  0.66205995  0.67416920  0.34228730  1
  Ag  Ag8  1  -0.00141790  0.84155188  0.50404024  1
  Ag  Ag9  1  0.66114660  0.50025926  0.50379868  1
  Ag  Ag10  1  0.66836275  -0.00181399  0.34106113  1
  Ag  Ag11  1  -0.00212296  0.15827925  0.50103671  1
  Ag  Ag12  1  0.49960279  0.16963810  0.00253564  1
  Ag  Ag13  1  0.00607064  0.83530862  0.82144126  1
  Ag  Ag14  1  -0.00263535  0.33326103  0.66351404  1
  Ag  Ag15  1  0.16380383  0.67367184  0.82907992  1
  Ag  Ag16  1  0.16293017  0.83947885  0.66766344  1
  Ag  Ag17  1  0.16428964  0.33062506  0.82122644  1
  Ag  Ag18  1  0.49798159  0.49456158  0.00326764  1
  Ag  Ag19  1  -0.00465315  0.67174551  0.66216584  1
  Ag  Ag20  1  0.16507800  0.32945297  0.50428747  1
  Ag  Ag21  1  0.33315348  0.50195115  0.82209023  1
  Ag  Ag22  1  0.16364830  0.16351588  0.33753410  1
  Ag  Ag23  1  0.83736429  0.66603164  0.82650988  1
  Ag  Ag24  1  0.66889658  0.16279162  0.82207478  1
  Ag  Ag25  1  0.49579936  0.50585786  0.33603428  1
  Ag  Ag26  1  0.50103651  0.65781255  0.17407069  1
  Ag  Ag27  1  0.00356989  -0.00505024  0.66241351  1
  Ag  Ag28  1  0.67072858  0.15928636  0.50303582  1
  Ag  Ag29  1  0.66787823  0.84167900  0.49928821  1
  Ag  Ag30  1  0.83596192  0.32971175  0.82368938  1
  Ag  Ag31  1  0.50972340  0.00231751  0.50348927  1
  Ag  Ag32  1  0.50055346  0.00169044  0.82128511  1
  Ag  Ag33  1  -0.00191826  0.67181024  0.34501943  1
  Ag  Ag34  1  0.00255382  0.50038817  0.50345454  1
  Ag  Ag35  1  0.50395793  0.49938765  0.65940675  1
  Ag  Ag36  1  0.83081331  0.16327453  0.34235053  1
  Ag  Ag37  1  0.16956117  0.16536099  -0.00495388  1
  Ag  Ag38  1  0.82839199  0.49310196  0.66629603  1
  Ag  Ag39  1  0.67396136  0.66373166  0.66060581  1
  Ag  Ag40  1  0.32658402  0.00336259  0.66644921  1
  Ag  Ag41  1  0.67433408  0.33070404  0.66485610  1
  Ag  Ag42  1  0.16348400  0.00138146  0.17690043  1
  Ag  Ag43  1  0.16529240  -0.00045490  0.82038859  1
  Ag  Ag44  1  0.83475727  0.00575994  0.17123163  1
  Ag  Ag45  1  0.33600498  0.49968792  0.50020352  1
  Ag  Ag46  1  0.15845844  0.00434629  0.50265377  1
  Ag  Ag47  1  0.33108870  0.33403965  0.66642327  1
  Ag  Ag48  1  0.83400432  0.00357543  0.82749187  1
  Ag  Ag49  1  0.50265909  0.33944534  0.16979186  1
  Ag  Ag50  1  0.82870168  0.33001034  0.16557423  1
  Ag  Ag51  1  0.50448546  0.82745339  0.33557778  1
  Ag  Ag52  1  0.33922692  0.49988933  0.17946530  1
  Ag  Ag53  1  0.66456000  0.83528184  0.18087014  1
  Sb  Sb54  1  -0.00259027  0.16162743  0.82342695  1
  Sb  Sb55  1  0.66469270  0.33167837  -0.00596305  1
  Sb  Sb56  1  0.49973101  0.66847818  0.83329341  1
  Sb  Sb57  1  0.15878536  0.16415632  0.66280546  1
  Sb  Sb58  1  -0.00034463  0.16534563  0.17560795  1
  Sb  Sb59  1  0.82796939  0.66603552  0.16881309  1
  Sb  Sb60  1  0.16707288  0.84027139  -0.00952437  1
  Sb  Sb61  1  0.66002319  0.50142918  0.17638953  1
  Sb  Sb62  1  0.83797390  0.33065300  0.50527687  1
  Sb  Sb63  1  0.66616238  0.33069109  0.34154906  1
  Sb  Sb64  1  0.33320969  0.83162772  0.50356908  1
  Sb  Sb65  1  0.00196576  0.00167616  -0.00448464  1
  Sb  Sb66  1  0.50051432  0.00164180  0.17266101  1
  Sb  Sb67  1  0.33262238  0.00133300  -0.00807944  1
  Sb  Sb68  1  0.83130185  0.49557609  0.33994056  1
  Sb  Sb69  1  0.00127949  0.66596278  -0.00728674  1
  Sb  Sb70  1  0.50867387  0.16666365  0.66401335  1
  Sb  Sb71  1  0.17198602  0.49474187  -0.00072303  1
  Sb  Sb72  1  0.50275804  0.66655348  0.49547821  1
  Sb  Sb73  1  0.50057451  0.83586754  0.00323816  1
  Sb  Sb74  1  0.16300524  0.66592316  0.50395079  1
  Sb  Sb75  1  0.16837945  0.83463125  0.33990253  1
  Sb  Sb76  1  0.82606341  0.84139585  0.33514229  1
  Sb  Sb77  1  0.16960273  0.67033374  0.16794824  1
  Sb  Sb78  1  0.33449099  0.66375376  0.00134390  1
  Sb  Sb79  1  0.66563472  0.00159672  -0.00121613  1
  Sb  Sb80  1  0.83266699  0.83446262  -0.00225675  1
  Sb  Sb81  1  0.00442754  0.50330487  0.82401619  1
  Sb  Sb82  1  0.49983509  0.33011366  0.83124424  1
  Sb  Sb83  1  0.33436613  -0.00296171  0.34080749  1
  Sb  Sb84  1  0.33399082  0.17095560  0.16894025  1
  Sb  Sb85  1  0.16816917  0.32977943  0.17042161  1
  Sb  Sb86  1  0.49870235  0.83344458  0.66120262  1
  Sb  Sb87  1  0.33629338  0.83098971  0.16702291  1
  Sb  Sb88  1  0.82701367  0.49812061  -0.00815953  1
  Sb  Sb89  1  0.33438272  0.16588335  0.82959947  1
  Sb  Sb90  1  0.33395668  0.33953558  0.33927008  1
  Sb  Sb91  1  0.00345381  0.49927578  0.17962358  1
  Sb  Sb92  1  0.16706258  0.49851169  0.66070862  1
  Sb  Sb93  1  0.83349764  0.00284162  0.50422431  1
  Sb  Sb94  1  0.66448743  0.66515654  -0.00138672  1
  Sb  Sb95  1  0.33234054  0.16882139  0.50152958  1
  Sb  Sb96  1  0.66741208  0.83832386  0.82505027  1
  Sb  Sb97  1  0.83972668  0.83631218  0.66631269  1
  Sb  Sb98  1  0.83236949  0.16625296  -0.00396948  1
  Sb  Sb99  1  0.00004007  0.32899020  0.34319939  1
  Sb  Sb100  1  0.66203078  0.49665755  0.82266176  1
  Sb  Sb101  1  0.00059576  0.33160558  -0.00994090  1
  Sb  Sb102  1  -0.00367084  0.83650300  0.17422527  1
  Sb  Sb103  1  0.83266871  0.66449715  0.50603351  1
  Sb  Sb104  1  0.33405883  0.33420422  -0.00625130  1
  Sb  Sb105  1  0.33221683  0.66444067  0.66378112  1
  Sb  Sb106  1  0.66739766  0.16434696  0.17284204  1
  Sb  Sb107  1  0.49725231  0.33208015  0.49908353  1
  Te  Te108  1  0.16689804  0.16205513  0.17417781  1
  Te  Te109  1  0.16539143  0.16611426  0.49763532  1
  Te  Te110  1  0.16580215  0.16622795  0.83376674  1
  Te  Te111  1  0.17297074  0.49970255  0.17224856  1
  Te  Te112  1  0.16590445  0.50035343  0.49656341  1
  Te  Te113  1  0.17177423  0.49367472  0.83549918  1
  Te  Te114  1  0.16635975  0.84002665  0.16399413  1
  Te  Te115  1  0.16428417  0.83779506  0.50544328  1
  Te  Te116  1  0.16587024  0.83675369  0.82949536  1
  Te  Te117  1  0.50069536  0.17047228  0.16736261  1
  Te  Te118  1  0.50270225  0.16401234  0.49553093  1
  Te  Te119  1  0.50252381  0.16223357  0.83486724  1
  Te  Te120  1  0.49894329  0.49909092  0.17276015  1
  Te  Te121  1  0.49934560  0.49853478  0.49935313  1
  Te  Te122  1  0.49467408  0.49992582  0.83287685  1
  Te  Te123  1  0.50315190  0.83233974  0.17088771  1
  Te  Te124  1  0.50111783  0.83970423  0.49509410  1
  Te  Te125  1  0.49821933  0.83931865  0.83391612  1
  Te  Te126  1  0.83337194  0.16609395  0.16515497  1
  Te  Te127  1  0.83225395  0.16832575  0.49957998  1
  Te  Te128  1  0.83130630  0.16675350  0.83133662  1
  Te  Te129  1  0.83352031  0.49500156  0.16467816  1
  Te  Te130  1  0.83392821  0.49752365  0.50623826  1
  Te  Te131  1  0.83348300  0.49674859  0.82724803  1
  Te  Te132  1  0.82785873  0.83692788  0.16515113  1
  Te  Te133  1  0.83410241  0.83144231  0.49901717  1
  Te  Te134  1  0.83558153  0.83750511  0.83397300  1
  Te  Te135  1  0.16708506  0.00709512  0.00091474  1
  Te  Te136  1  0.16698051  -0.00028821  0.33753012  1
  Te  Te137  1  0.16435599  0.00180264  0.66405824  1
  Te  Te138  1  0.16654920  0.32557584  -0.00120175  1
  Te  Te139  1  0.16688803  0.33239294  0.33705133  1
  Te  Te140  1  0.16596815  0.33192510  0.66478850  1
  Te  Te141  1  0.16664123  0.66603451  -0.00791843  1
  Te  Te142  1  0.16029852  0.66543886  0.33183443  1
  Te  Te143  1  0.16395517  0.66874492  0.67094668  1
  Te  Te144  1  0.49882708  0.00557672  -0.00182468  1
  Te  Te145  1  0.50122721  0.00392410  0.33667878  1
  Te  Te146  1  0.50481726  -0.00051277  0.66437360  1
  Te  Te147  1  0.49960886  0.33225248  0.00354741  1
  Te  Te148  1  0.49983955  0.32985308  0.33027582  1
  Te  Te149  1  0.49721432  0.33859722  0.66650899  1
  Te  Te150  1  0.50072419  0.66248303  0.00682403  1
  Te  Te151  1  0.50304981  0.66580697  0.33369470  1
  Te  Te152  1  0.50376983  0.66166454  0.66711786  1
  Te  Te153  1  0.83411335  0.00145810  0.00229119  1
  Te  Te154  1  0.83335681  0.00429357  0.33009953  1
  Te  Te155  1  0.83220205  0.00279424  0.66985283  1
  Te  Te156  1  0.83341986  0.33299877  0.00146575  1
  Te  Te157  1  0.83359098  0.32723852  0.32610539  1
  Te  Te158  1  0.83318204  0.33264910  0.66703391  1
  Te  Te159  1  0.83290175  0.66537311  -0.01034908  1
  Te  Te160  1  0.83628214  0.66423395  0.33082895  1
  Te  Te161  1  0.83445171  0.66631129  0.67014251  1
  Te  Te162  1  0.00665103  0.16724935  0.00206377  1
  Te  Te163  1  0.00103897  0.16227494  0.34074079  1
  Te  Te164  1  -0.00722729  0.16715814  0.66095523  1
  Te  Te165  1  -0.00034311  0.49940039  0.00327353  1
  Te  Te166  1  -0.00048985  0.50242227  0.34252214  1
  Te  Te167  1  -0.00041107  0.50035786  0.66305829  1
  Te  Te168  1  0.00019752  0.83293529  -0.00544349  1
  Te  Te169  1  0.00060230  0.83409066  0.33933672  1
  Te  Te170  1  0.00176194  0.83378274  0.66478440  1
  Te  Te171  1  0.33491168  0.16732887  0.00054871  1
  Te  Te172  1  0.33418444  0.16652258  0.33425111  1
  Te  Te173  1  0.33756641  0.16607960  0.66589804  1
  Te  Te174  1  0.33967006  0.49942850  -0.00128692  1
  Te  Te175  1  0.33405402  0.50135246  0.33690030  1
  Te  Te176  1  0.33354215  0.49910913  0.66375652  1
  Te  Te177  1  0.33465500  0.83232636  -0.00895362  1
  Te  Te178  1  0.33923722  0.82588709  0.33304029  1
  Te  Te179  1  0.32998697  0.83536731  0.66972963  1
  Te  Te180  1  0.66153105  0.16688369  -0.00555899  1
  Te  Te181  1  0.66745912  0.16389637  0.33799005  1
  Te  Te182  1  0.66890601  0.16474756  0.66407008  1
  Te  Te183  1  0.65790648  0.49955107  -0.00022293  1
  Te  Te184  1  0.66413058  0.50132494  0.34217131  1
  Te  Te185  1  0.66687159  0.50140366  0.66404487  1
  Te  Te186  1  0.66534152  0.83275906  0.00756569  1
  Te  Te187  1  0.66469246  0.83463778  0.33814699  1
  Te  Te188  1  0.66599781  0.83411808  0.65996608  1
  Te  Te189  1  -0.00049688  -0.00122674  0.16981778  1
  Te  Te190  1  -0.00112606  0.00007354  0.50077367  1
  Te  Te191  1  0.00051340  -0.00312304  0.82941111  1
  Te  Te192  1  -0.00310807  0.33334384  0.16497097  1
  Te  Te193  1  0.00507635  0.33656374  0.50542975  1
  Te  Te194  1  0.00040764  0.33376039  0.82458702  1
  Te  Te195  1  -0.00115517  0.66788288  0.16901426  1
  Te  Te196  1  -0.00018842  0.66489153  0.50205222  1
  Te  Te197  1  0.00104716  0.66994123  0.82820310  1
  Te  Te198  1  0.32754519  -0.00073002  0.16675614  1
  Te  Te199  1  0.33233118  -0.00043457  0.50690429  1
  Te  Te200  1  0.33106864  -0.00120950  0.82683650  1
  Te  Te201  1  0.33650610  0.33966135  0.16598433  1
  Te  Te202  1  0.32763557  0.33785831  0.50580401  1
  Te  Te203  1  0.32973144  0.33660831  0.82710824  1
  Te  Te204  1  0.33728738  0.66312027  0.17151059  1
  Te  Te205  1  0.33187302  0.66161361  0.49493998  1
  Te  Te206  1  0.33026596  0.66607683  0.83261557  1
  Te  Te207  1  0.66875615  -0.00259275  0.16980576  1
  Te  Te208  1  0.66829129  0.00079283  0.49897489  1
  Te  Te209  1  0.66813959  0.00173068  0.83198738  1
  Te  Te210  1  0.66632373  0.33316707  0.16630019  1
  Te  Te211  1  0.66488102  0.33620910  0.50672139  1
  Te  Te212  1  0.66968879  0.32877546  0.82658774  1
  Te  Te213  1  0.66329025  0.67021163  0.17008495  1
  Te  Te214  1  0.66684623  0.66451911  0.50066984  1
  Te  Te215  1  0.67054311  0.66908106  0.82820413  1
