# generated using pymatgen
data_AgSbTe2
_symmetry_space_group_name_H-M   'P 1'
_cell_length_a   18.30918489
_cell_length_b   18.31154766
_cell_length_c   18.31439094
_cell_angle_alpha   89.99932801
_cell_angle_beta   90.00042401
_cell_angle_gamma   90.00024347
_symmetry_Int_Tables_number   1
_chemical_formula_structural   AgSbTe2
_chemical_formula_sum   'Ag54 Sb54 Te108'
_cell_volume   6140.25690707
_cell_formula_units_Z   54
loop_
 _symmetry_equiv_pos_site_id
 _symmetry_equiv_pos_as_xyz
  1  'x, y, z'
loop_
 _atom_site_type_symbol
 _atom_site_label
 _atom_site_symmetry_multiplicity
 _atom_site_fract_x
 _atom_site_fract_y
 _atom_site_fract_z
 _atom_site_occupancy
  Ag  Ag0  1  0.66628293  0.82816124  0.83294405  1
  Ag  Ag1  1  0.49485255  0.66558703  0.16074651  1
  Ag  Ag2  1  0.16306865  0.00214118  0.84058574  1
  Ag  Ag3  1  0.50354554  0.66302224  0.83581142  1
  Ag  Ag4  1  -0.00365911  0.50060217  0.83412580  1
  Ag  Ag5  1  0.83628616  0.50699239  0.67335906  1
  Ag  Ag6  1  0.50475487  0.00109614  0.49966061  1
  Ag  Ag7  1  0.83871468  0.16123017  -0.00167811  1
  Ag  Ag8  1  0.17288527  0.33123987  0.83437788  1
  Ag  Ag9  1  0.83377095  0.16600198  0.67216101  1
  Ag  Ag10  1  0.32957979  0.33574938  0.67213755  1
  Ag  Ag11  1  0.66676959  0.00573045  0.32787609  1
  Ag  Ag12  1  0.33184633  0.83386680  0.83466774  1
  Ag  Ag13  1  0.67399234  0.66614434  0.67113820  1
  Ag  Ag14  1  0.16658690  0.50277669  0.66227332  1
  Ag  Ag15  1  0.49765111  0.50051813  0.66827774  1
  Ag  Ag16  1  0.00592423  0.16807241  0.49450683  1
  Ag  Ag17  1  0.16060465  0.00583527  0.15815138  1
  Ag  Ag18  1  0.00233178  0.49735682  0.16529081  1
  Ag  Ag19  1  0.49222805  0.34153799  0.83345464  1
  Ag  Ag20  1  0.32962098  0.33621907  -0.00963375  1
  Ag  Ag21  1  0.66522079  0.83790316  0.50403366  1
  Ag  Ag22  1  0.83280070  0.00254568  0.15701611  1
  Ag  Ag23  1  0.16479842  0.33207881  0.17189555  1
  Ag  Ag24  1  0.83550910  -0.00185615  0.83879384  1
  Ag  Ag25  1  0.16269703  0.16178138  0.00429863  1
  Ag  Ag26  1  -0.00222500  0.00252558  0.00090711  1
  Ag  Ag27  1  0.83277641  0.82682533  0.67197925  1
  Ag  Ag28  1  0.32847271  0.49635057  0.50084305  1
  Ag  Ag29  1  0.66708046  0.83934493  0.15833312  1
  Ag  Ag30  1  0.32614079  0.66264466  0.32976769  1
  Ag  Ag31  1  0.49109039  0.50102184  0.33750596  1
  Ag  Ag32  1  0.00833703  0.33629017  0.33099071  1
  Ag  Ag33  1  0.82753966  0.66593438  0.83056359  1
  Ag  Ag34  1  0.16861255  0.33859469  0.49739169  1
  Ag  Ag35  1  0.66716245  0.16274023  0.49482421  1
  Ag  Ag36  1  0.00336132  0.16882534  0.16731700  1
  Ag  Ag37  1  0.16360194  0.82466455  0.67353324  1
  Ag  Ag38  1  0.00931479  0.65796927  0.33485665  1
  Ag  Ag39  1  0.16349749  0.17552373  0.32705088  1
  Ag  Ag40  1  0.16838718  0.66470930  0.17090479  1
  Ag  Ag41  1  0.49681741  0.83158341  -0.00311081  1
  Ag  Ag42  1  0.67384966  -0.00086570  0.00418509  1
  Ag  Ag43  1  -0.00043474  0.66265750  0.66632959  1
  Ag  Ag44  1  0.32639236  0.17438555  0.50360055  1
  Ag  Ag45  1  0.32873403  0.17309693  0.83227916  1
  Ag  Ag46  1  0.67234868  0.50783722  0.83079848  1
  Ag  Ag47  1  0.83531173  0.49792903  -0.00986152  1
  Ag  Ag48  1  0.17158873  0.83881857  -0.00497476  1
  Ag  Ag49  1  0.67368247  0.15788251  0.17006987  1
  Ag  Ag50  1  0.16691815  0.65788635  0.49567347  1
  Ag  Ag51  1  0.16735019  0.49766872  0.33787385  1
  Ag  Ag52  1  0.33273790  0.66435241  0.00019187  1
  Ag  Ag53  1  0.66874993  0.32820706  0.33338620  1
  Sb  Sb54  1  0.66838811  -0.00511990  0.66772992  1
  Sb  Sb55  1  0.83507185  0.67015898  0.15973907  1
  Sb  Sb56  1  0.83110866  0.83364030  0.33626503  1
  Sb  Sb57  1  0.50162070  0.82625734  0.67269296  1
  Sb  Sb58  1  0.32857856  0.33751799  0.33514441  1
  Sb  Sb59  1  0.82914093  0.00196435  0.50257770  1
  Sb  Sb60  1  -0.00183204  0.83605669  0.50258620  1
  Sb  Sb61  1  0.00716383  0.49739781  0.50007862  1
  Sb  Sb62  1  0.83904519  0.66641233  0.50888764  1
  Sb  Sb63  1  -0.00019636  0.82954405  0.83326099  1
  Sb  Sb64  1  0.33541448  -0.00188241  0.33408184  1
  Sb  Sb65  1  0.32856872  -0.00100906  -0.00135361  1
  Sb  Sb66  1  0.33564974  0.83193167  0.50686448  1
  Sb  Sb67  1  0.33440677  0.83010544  0.15919406  1
  Sb  Sb68  1  0.00672146  0.33010063  0.00364616  1
  Sb  Sb69  1  0.83838435  0.50057090  0.33457390  1
  Sb  Sb70  1  0.16342678  0.17028774  0.66831997  1
  Sb  Sb71  1  0.50247570  0.50505042  -0.00390926  1
  Sb  Sb72  1  0.00374716  0.17096941  0.83567387  1
  Sb  Sb73  1  0.66325130  0.32912159  0.00191301  1
  Sb  Sb74  1  0.32641183  0.16823566  0.16511271  1
  Sb  Sb75  1  0.66262226  0.67286565  -0.00704094  1
  Sb  Sb76  1  0.83514616  0.33633536  0.83338345  1
  Sb  Sb77  1  0.66628081  0.16558785  0.83360505  1
  Sb  Sb78  1  0.50217851  0.17184114  0.66654033  1
  Sb  Sb79  1  0.33113494  0.00481965  0.66787979  1
  Sb  Sb80  1  -0.00119311  0.83488100  0.16461788  1
  Sb  Sb81  1  0.50143691  0.82742715  0.32938128  1
  Sb  Sb82  1  0.83875757  0.33136021  0.50073738  1
  Sb  Sb83  1  -0.00043779  -0.00106285  0.67204667  1
  Sb  Sb84  1  0.83563913  0.16598751  0.33018959  1
  Sb  Sb85  1  0.50441052  -0.00486431  0.16813113  1
  Sb  Sb86  1  0.66236445  0.49944768  0.50443149  1
  Sb  Sb87  1  0.00581933  0.33835401  0.66459239  1
  Sb  Sb88  1  0.66439145  0.33776883  0.66434504  1
  Sb  Sb89  1  0.49503867  0.33836523  0.16385709  1
  Sb  Sb90  1  0.33048999  0.66104090  0.66938795  1
  Sb  Sb91  1  0.49419843  0.33182679  0.50311780  1
  Sb  Sb92  1  0.00484878  0.66788960  -0.00165293  1
  Sb  Sb93  1  0.16728090  0.82904260  0.33106171  1
  Sb  Sb94  1  0.32539349  0.50219486  0.17132200  1
  Sb  Sb95  1  0.83243118  0.83738000  -0.00603190  1
  Sb  Sb96  1  0.83879843  0.32847871  0.16544684  1
  Sb  Sb97  1  0.49894518  0.17191017  0.33398910  1
  Sb  Sb98  1  -0.00216482  0.00376587  0.32707996  1
  Sb  Sb99  1  0.50015204  -0.00316919  0.83173675  1
  Sb  Sb100  1  0.66587176  0.66625889  0.33638540  1
  Sb  Sb101  1  0.49586146  0.66783075  0.50199243  1
  Sb  Sb102  1  0.16800752  0.66590985  0.83345971  1
  Sb  Sb103  1  0.16914915  0.00301437  0.50090368  1
  Sb  Sb104  1  0.33251041  0.49792999  0.82906161  1
  Sb  Sb105  1  0.67106596  0.50095957  0.16345055  1
  Sb  Sb106  1  0.16438795  0.49845582  0.00014550  1
  Sb  Sb107  1  0.49708262  0.16201936  -0.00065950  1
  Te  Te108  1  0.16515775  0.16769154  0.16618250  1
  Te  Te109  1  0.16715716  0.16629103  0.50042875  1
  Te  Te110  1  0.16901973  0.16669858  0.83370902  1
  Te  Te111  1  0.16120026  0.50164061  0.16739619  1
  Te  Te112  1  0.16703814  0.49953529  0.49954509  1
  Te  Te113  1  0.16350379  0.49697708  0.83096670  1
  Te  Te114  1  0.16665853  0.83084450  0.16285154  1
  Te  Te115  1  0.16743106  0.83323749  0.50565871  1
  Te  Te116  1  0.16679752  0.83334535  0.83332613  1
  Te  Te117  1  0.50618493  0.16851974  0.16653964  1
  Te  Te118  1  0.50206372  0.16377927  0.49982297  1
  Te  Te119  1  0.49310699  0.16857156  0.83333130  1
  Te  Te120  1  0.50211378  0.50609721  0.16846947  1
  Te  Te121  1  0.49380307  0.50002848  0.50103010  1
  Te  Te122  1  0.50057410  0.50176934  0.83165730  1
  Te  Te123  1  0.50451722  0.82763318  0.16189170  1
  Te  Te124  1  0.50404956  0.83669617  0.50122378  1
  Te  Te125  1  0.50153375  0.83113314  0.83654377  1
  Te  Te126  1  0.83341262  0.16291336  0.16344887  1
  Te  Te127  1  0.83074422  0.16630740  0.50321195  1
  Te  Te128  1  0.83384661  0.16518673  0.83559605  1
  Te  Te129  1  0.84052393  0.50068865  0.16390936  1
  Te  Te130  1  0.83281556  0.49937899  0.50902033  1
  Te  Te131  1  0.83299625  0.49835064  0.83188228  1
  Te  Te132  1  0.82769000  0.83855428  0.16640011  1
  Te  Te133  1  0.82680093  0.83425570  0.50828211  1
  Te  Te134  1  0.83262392  0.83374517  0.82985271  1
  Te  Te135  1  0.16764605  0.00107273  -0.00105867  1
  Te  Te136  1  0.16621709  0.00160399  0.33020309  1
  Te  Te137  1  0.16466782  -0.00644756  0.67174116  1
  Te  Te138  1  0.16997770  0.33113878  -0.00234434  1
  Te  Te139  1  0.16722256  0.33421197  0.33316320  1
  Te  Te140  1  0.16945504  0.33618154  0.66603878  1
  Te  Te141  1  0.17081764  0.66925593  0.00381873  1
  Te  Te142  1  0.16641567  0.66722660  0.33210448  1
  Te  Te143  1  0.16455384  0.66459834  0.66638315  1
  Te  Te144  1  0.50473115  -0.00654998  0.00006978  1
  Te  Te145  1  0.50476112  -0.00028609  0.33625688  1
  Te  Te146  1  0.50002503  -0.00022551  0.66137924  1
  Te  Te147  1  0.49377289  0.33221463  -0.00467771  1
  Te  Te148  1  0.50157253  0.34167645  0.33210427  1
  Te  Te149  1  0.49540914  0.33944268  0.67156432  1
  Te  Te150  1  0.49681689  0.67041391  -0.00074760  1
  Te  Te151  1  0.49853788  0.65969633  0.33182681  1
  Te  Te152  1  0.50120713  0.66001158  0.67009461  1
  Te  Te153  1  0.83378311  -0.00017541  -0.00213874  1
  Te  Te154  1  0.82777066  -0.00066568  0.32741410  1
  Te  Te155  1  0.83470175  0.00041200  0.67330436  1
  Te  Te156  1  0.83272580  0.33097055  -0.00009449  1
  Te  Te157  1  0.83087539  0.33405876  0.33329262  1
  Te  Te158  1  0.83398439  0.33146074  0.66742346  1
  Te  Te159  1  0.83501563  0.66390816  -0.00780642  1
  Te  Te160  1  0.83965825  0.66636653  0.33278985  1
  Te  Te161  1  0.83500074  0.66615113  0.67027095  1
  Te  Te162  1  0.00078520  0.16449856  0.00247063  1
  Te  Te163  1  0.00252671  0.16922135  0.33084546  1
  Te  Te164  1  -0.00578686  0.16723499  0.66367394  1
  Te  Te165  1  -0.00403848  0.49960096  -0.00017115  1
  Te  Te166  1  0.00367636  0.49816214  0.33217473  1
  Te  Te167  1  0.00171729  0.50271891  0.66616106  1
  Te  Te168  1  0.00821252  0.83993621  -0.00010078  1
  Te  Te169  1  -0.00100697  0.82564928  0.33412090  1
  Te  Te170  1  -0.00020573  0.82839438  0.66616222  1
  Te  Te171  1  0.32932230  0.16944783  -0.00254665  1
  Te  Te172  1  0.32824028  0.16598264  0.33689257  1
  Te  Te173  1  0.33409960  0.17257525  0.66622420  1
  Te  Te174  1  0.33402766  0.50244153  0.00065462  1
  Te  Te175  1  0.32998823  0.50332007  0.33697700  1
  Te  Te176  1  0.32982128  0.49651551  0.66279489  1
  Te  Te177  1  0.33214673  0.83169841  -0.00512173  1
  Te  Te178  1  0.33491082  0.82508674  0.33609005  1
  Te  Te179  1  0.32982829  0.83318516  0.67402446  1
  Te  Te180  1  0.66873707  0.16212949  0.00276768  1
  Te  Te181  1  0.66630462  0.16681389  0.33326462  1
  Te  Te182  1  0.67162034  0.16727781  0.66355762  1
  Te  Te183  1  0.67281489  0.49805799  -0.00504071  1
  Te  Te184  1  0.66867537  0.49655506  0.33377677  1
  Te  Te185  1  0.66631902  0.50335991  0.67039667  1
  Te  Te186  1  0.66684638  0.83735342  -0.00247917  1
  Te  Te187  1  0.66629003  0.83587730  0.33745447  1
  Te  Te188  1  0.66781451  0.82849585  0.67059296  1
  Te  Te189  1  0.00042774  0.00280132  0.16299173  1
  Te  Te190  1  -0.00094480  0.00791699  0.49757975  1
  Te  Te191  1  0.00121018  0.00151220  0.83896465  1
  Te  Te192  1  0.00455287  0.33218464  0.16998210  1
  Te  Te193  1  0.00556793  0.32729072  0.49466399  1
  Te  Te194  1  0.00648046  0.34014298  0.83382140  1
  Te  Te195  1  0.00180781  0.66444691  0.16787813  1
  Te  Te196  1  0.00631132  0.66848249  0.50064155  1
  Te  Te197  1  -0.00343188  0.66103200  0.83041590  1
  Te  Te198  1  0.32709568  -0.00100350  0.16783816  1
  Te  Te199  1  0.33931256  0.00466006  0.50002257  1
  Te  Te200  1  0.33048604  -0.00079024  0.83295799  1
  Te  Te201  1  0.32681168  0.33462321  0.16030647  1
  Te  Te202  1  0.32912158  0.33286486  0.50149465  1
  Te  Te203  1  0.33263783  0.33433458  0.83251166  1
  Te  Te204  1  0.33310049  0.66708992  0.16532651  1
  Te  Te205  1  0.32820252  0.66446721  0.49790456  1
  Te  Te206  1  0.33755836  0.66911720  0.83664665  1
  Te  Te207  1  0.66609778  -0.00064649  0.16697842  1
  Te  Te208  1  0.66567903  0.00106161  0.49977065  1
  Te  Te209  1  0.66895858  -0.00193051  0.83624530  1
  Te  Te210  1  0.66492667  0.33169424  0.17076591  1
  Te  Te211  1  0.66562248  0.33009129  0.49544680  1
  Te  Te212  1  0.66043431  0.33506905  0.83350478  1
  Te  Te213  1  0.66511872  0.67052449  0.16729003  1
  Te  Te214  1  0.66614848  0.66975731  0.50589427  1
  Te  Te215  1  0.66602127  0.66711760  0.83252758  1
