# generated using pymatgen
data_AgSbTe2
_symmetry_space_group_name_H-M   'P 1'
_cell_length_a   18.35141476
_cell_length_b   18.34499435
_cell_length_c   18.33917200
_cell_angle_alpha   89.99626724
_cell_angle_beta   89.99905048
_cell_angle_gamma   89.99599709
_symmetry_Int_Tables_number   1
_chemical_formula_structural   AgSbTe2
_chemical_formula_sum   'Ag54 Sb54 Te108'
_cell_volume   6174.00326799
_cell_formula_units_Z   54
loop_
 _symmetry_equiv_pos_site_id
 _symmetry_equiv_pos_as_xyz
  1  'x, y, z'
loop_
 _atom_site_type_symbol
 _atom_site_label
 _atom_site_symmetry_multiplicity
 _atom_site_fract_x
 _atom_site_fract_y
 _atom_site_fract_z
 _atom_site_occupancy
  Ag  Ag0  1  0.50489716  0.67192858  0.49751338  1
  Ag  Ag1  1  0.16906943  0.67103361  0.82965544  1
  Ag  Ag2  1  0.66605733  0.82675991  0.17291380  1
  Ag  Ag3  1  0.66202393  0.82721942  0.50209273  1
  Ag  Ag4  1  0.33231048  0.66538790  0.00375886  1
  Ag  Ag5  1  0.17218216  0.34299548  0.49603334  1
  Ag  Ag6  1  0.67005670  0.51436244  0.83115829  1
  Ag  Ag7  1  -0.00821357  0.66293191  0.33197915  1
  Ag  Ag8  1  0.49568630  0.83784942  0.67331143  1
  Ag  Ag9  1  0.33114669  0.50222460  0.49785456  1
  Ag  Ag10  1  0.49814759  -0.01321658  0.82567377  1
  Ag  Ag11  1  0.00299780  0.50550696  0.17676890  1
  Ag  Ag12  1  0.82984898  0.16864248  0.33308248  1
  Ag  Ag13  1  0.33135621  0.33987670  0.01300694  1
  Ag  Ag14  1  0.49600882  0.15702967  0.66524633  1
  Ag  Ag15  1  0.82163340  0.67021524  0.83245499  1
  Ag  Ag16  1  0.82978950  -0.00925998  0.82959719  1
  Ag  Ag17  1  0.34127571  0.83082902  0.83206724  1
  Ag  Ag18  1  0.17235248  0.82592510  -0.01257663  1
  Ag  Ag19  1  0.33087151  0.66331595  0.33438060  1
  Ag  Ag20  1  0.49500954  0.82928798  -0.01399110  1
  Ag  Ag21  1  0.49980295  0.17060367  0.33757311  1
  Ag  Ag22  1  0.17254366  0.83775170  0.67202643  1
  Ag  Ag23  1  0.00296085  0.82400175  0.17160467  1
  Ag  Ag24  1  0.32984402  0.33944651  0.33249694  1
  Ag  Ag25  1  0.17682977  0.15253827  0.66741812  1
  Ag  Ag26  1  0.66382407  0.34106264  0.33677401  1
  Ag  Ag27  1  0.01320205  0.34514027  0.33264296  1
  Ag  Ag28  1  0.66695177  0.16357919  0.82880176  1
  Ag  Ag29  1  -0.00097425  0.16500374  0.83018128  1
  Ag  Ag30  1  0.66272466  0.66854093  0.66691680  1
  Ag  Ag31  1  0.84130360  0.51270744  0.33254917  1
  Ag  Ag32  1  0.33511180  0.32780880  0.66397134  1
  Ag  Ag33  1  0.49220248  0.33812201  0.17237071  1
  Ag  Ag34  1  0.33430218  0.17530467  0.16960723  1
  Ag  Ag35  1  0.00011952  0.50369413  0.83571557  1
  Ag  Ag36  1  0.16432609  0.82078222  0.33606661  1
  Ag  Ag37  1  0.50387131  0.67447817  0.82950205  1
  Ag  Ag38  1  0.16948364  0.66959452  0.49240581  1
  Ag  Ag39  1  0.50302598  0.66685735  0.17550684  1
  Ag  Ag40  1  0.17464392  0.33623952  0.17810285  1
  Ag  Ag41  1  0.01539276  -0.00149881  0.66965945  1
  Ag  Ag42  1  0.16799985  0.50755512  0.00364462  1
  Ag  Ag43  1  0.66002456  0.33609143  0.66399198  1
  Ag  Ag44  1  0.16355246  0.50488223  0.33211317  1
  Ag  Ag45  1  0.82279839  0.66885963  0.48722688  1
  Ag  Ag46  1  0.49431382  -0.00853411  0.50880172  1
  Ag  Ag47  1  0.16812896  -0.01166564  0.82145824  1
  Ag  Ag48  1  0.65452226  0.83113108  0.83022426  1
  Ag  Ag49  1  0.67908375  0.66625547  0.34097641  1
  Ag  Ag50  1  0.33040883  0.00106128  0.66788131  1
  Ag  Ag51  1  0.17335660  -0.00731681  0.50978785  1
  Ag  Ag52  1  0.83014694  0.66935176  0.17692015  1
  Ag  Ag53  1  0.83489518  0.82435976  0.33241247  1
  Sb  Sb54  1  0.65884573  0.66739096  -0.00192629  1
  Sb  Sb55  1  0.66473529  -0.00396130  -0.00539182  1
  Sb  Sb56  1  0.00136878  -0.00335163  0.33890160  1
  Sb  Sb57  1  0.83978349  0.50372599  0.00258481  1
  Sb  Sb58  1  0.00273186  0.83093718  0.49715368  1
  Sb  Sb59  1  0.49225582  0.50725878  0.00029259  1
  Sb  Sb60  1  0.33341935  -0.00143681  0.34024342  1
  Sb  Sb61  1  0.66252650  0.50550948  0.50019576  1
  Sb  Sb62  1  0.66503397  -0.00552650  0.33510503  1
  Sb  Sb63  1  0.33703542  0.66996629  0.66450972  1
  Sb  Sb64  1  0.83252578  0.50290948  0.66243495  1
  Sb  Sb65  1  0.16780502  0.33552233  0.82955553  1
  Sb  Sb66  1  0.49868018  0.33455149  0.83353598  1
  Sb  Sb67  1  0.66344217  0.16321511  0.50188217  1
  Sb  Sb68  1  0.32728891  0.49813908  0.17169227  1
  Sb  Sb69  1  0.49670705  0.16284538  -0.00278292  1
  Sb  Sb70  1  0.83420025  -0.00786937  0.16553964  1
  Sb  Sb71  1  0.82986527  0.16483948  0.66494065  1
  Sb  Sb72  1  0.49849348  -0.00354058  0.16744349  1
  Sb  Sb73  1  -0.00099132  0.67053704  0.66491046  1
  Sb  Sb74  1  0.16791087  -0.00006440  0.16801663  1
  Sb  Sb75  1  0.00368991  0.33038335  0.66326115  1
  Sb  Sb76  1  0.65736206  0.33581023  0.00019895  1
  Sb  Sb77  1  0.66058055  -0.00469501  0.66856562  1
  Sb  Sb78  1  0.00185032  0.16631719  0.50293647  1
  Sb  Sb79  1  0.83058611  0.83231356  0.66504057  1
  Sb  Sb80  1  0.66196079  0.16515506  0.16732256  1
  Sb  Sb81  1  0.49951527  0.50374732  0.66675363  1
  Sb  Sb82  1  0.00897407  0.33684372  0.00513126  1
  Sb  Sb83  1  0.83285407  -0.00708799  0.50417388  1
  Sb  Sb84  1  0.83155096  0.33617169  0.83204326  1
  Sb  Sb85  1  0.83350922  0.82939570  0.00207837  1
  Sb  Sb86  1  0.83334837  0.33980731  0.17274358  1
  Sb  Sb87  1  0.83495084  0.33959363  0.49520068  1
  Sb  Sb88  1  0.83319515  0.16597994  0.00154653  1
  Sb  Sb89  1  0.16971192  0.16632719  -0.00567435  1
  Sb  Sb90  1  0.16902630  0.16998115  0.33988350  1
  Sb  Sb91  1  0.33262951  -0.00524484  -0.00684819  1
  Sb  Sb92  1  0.16839579  0.50428898  0.66369735  1
  Sb  Sb93  1  0.33311813  0.17088285  0.49968080  1
  Sb  Sb94  1  0.00169950  0.83132829  0.83470448  1
  Sb  Sb95  1  0.00840737  0.66713539  0.00436410  1
  Sb  Sb96  1  0.33482643  0.82814564  0.50474797  1
  Sb  Sb97  1  0.00416531  0.16958277  0.16698190  1
  Sb  Sb98  1  0.67075047  0.50577399  0.16634796  1
  Sb  Sb99  1  0.33386759  0.16220849  0.83183354  1
  Sb  Sb100  1  0.49742603  0.49964576  0.33263778  1
  Sb  Sb101  1  0.00303520  -0.00303555  -0.00833472  1
  Sb  Sb102  1  0.16700397  0.66272381  0.17111426  1
  Sb  Sb103  1  0.33276577  0.83104060  0.16336769  1
  Sb  Sb104  1  0.49579868  0.33507160  0.49736287  1
  Sb  Sb105  1  0.33285811  0.50670711  0.82994915  1
  Sb  Sb106  1  0.00509332  0.50272663  0.49736592  1
  Sb  Sb107  1  0.49988472  0.83013264  0.33630404  1
  Te  Te108  1  0.16997570  0.17246215  0.16535187  1
  Te  Te109  1  0.16642256  0.15950534  0.50726986  1
  Te  Te110  1  0.16522174  0.16700966  0.82756689  1
  Te  Te111  1  0.16239676  0.49581960  0.16827518  1
  Te  Te112  1  0.16957228  0.50223542  0.49696277  1
  Te  Te113  1  0.16522460  0.50348222  0.83476322  1
  Te  Te114  1  0.16536894  0.83517185  0.17381799  1
  Te  Te115  1  0.16799992  0.83182098  0.49711518  1
  Te  Te116  1  0.16255048  0.83215302  0.83239691  1
  Te  Te117  1  0.49759363  0.16739881  0.16819707  1
  Te  Te118  1  0.49982046  0.16440752  0.50188773  1
  Te  Te119  1  0.50201612  0.16612165  0.82972767  1
  Te  Te120  1  0.50274461  0.50223568  0.16510741  1
  Te  Te121  1  0.49422163  0.50895372  0.49966106  1
  Te  Te122  1  0.50561077  0.50535300  0.83447050  1
  Te  Te123  1  0.50180721  0.82954561  0.16821858  1
  Te  Te124  1  0.50114127  0.83203466  0.50116114  1
  Te  Te125  1  0.49884536  0.83135044  0.82989190  1
  Te  Te126  1  0.83282134  0.16441711  0.17005360  1
  Te  Te127  1  0.83243704  0.16527149  0.49379760  1
  Te  Te128  1  0.83260567  0.16609466  0.83338511  1
  Te  Te129  1  0.83936744  0.50711692  0.17021479  1
  Te  Te130  1  0.83322803  0.50749322  0.49337076  1
  Te  Te131  1  0.83319431  0.50388030  0.83398510  1
  Te  Te132  1  0.83143667  0.82884753  0.16901499  1
  Te  Te133  1  0.82869884  0.82868107  0.49607386  1
  Te  Te134  1  0.83495076  0.83256328  0.83387047  1
  Te  Te135  1  0.16827958  -0.00575435  -0.00350181  1
  Te  Te136  1  0.16680237  -0.00034491  0.33828131  1
  Te  Te137  1  0.17108304  -0.00232805  0.66619103  1
  Te  Te138  1  0.17331480  0.33440337  0.00022516  1
  Te  Te139  1  0.16905330  0.33110818  0.33632570  1
  Te  Te140  1  0.16863676  0.33415087  0.66024646  1
  Te  Te141  1  0.17182638  0.66772142  0.00146959  1
  Te  Te142  1  0.17142822  0.66404838  0.33208768  1
  Te  Te143  1  0.16668743  0.67140173  0.66729468  1
  Te  Te144  1  0.49805577  -0.00746134  -0.00476828  1
  Te  Te145  1  0.49882927  0.00793957  0.33622845  1
  Te  Te146  1  0.49957035  -0.00084192  0.66663139  1
  Te  Te147  1  0.49165919  0.33295425  0.00633030  1
  Te  Te148  1  0.50008932  0.33244967  0.33273054  1
  Te  Te149  1  0.50048217  0.33301957  0.66516447  1
  Te  Te150  1  0.49282787  0.67014362  -0.00239040  1
  Te  Te151  1  0.49200497  0.66658462  0.33479717  1
  Te  Te152  1  0.50201109  0.66999770  0.66643086  1
  Te  Te153  1  0.83460740  -0.00069306  -0.00970024  1
  Te  Te154  1  0.83316574  0.00216343  0.33463613  1
  Te  Te155  1  0.83720787  -0.00007530  0.67127916  1
  Te  Te156  1  0.83312750  0.33389977  0.00271842  1
  Te  Te157  1  0.82554499  0.32921703  0.33402608  1
  Te  Te158  1  0.82555404  0.33353409  0.66299077  1
  Te  Te159  1  0.83541694  0.66640112  -0.00908990  1
  Te  Te160  1  0.83487863  0.66863179  0.33243875  1
  Te  Te161  1  0.82936141  0.66727726  0.67401287  1
  Te  Te162  1  0.00053421  0.16817666  -0.00691519  1
  Te  Te163  1  -0.00334184  0.16771006  0.33241184  1
  Te  Te164  1  -0.00104545  0.16468732  0.67047668  1
  Te  Te165  1  0.00739790  0.50008332  -0.00334709  1
  Te  Te166  1  0.00155105  0.50169017  0.33473577  1
  Te  Te167  1  -0.00018427  0.49909019  0.67511661  1
  Te  Te168  1  0.00499604  0.83313416  0.01028896  1
  Te  Te169  1  -0.00049661  0.83102642  0.33115504  1
  Te  Te170  1  0.00557167  0.83738782  0.66620371  1
  Te  Te171  1  0.33367707  0.17406763  0.00421998  1
  Te  Te172  1  0.33655247  0.16843202  0.33077394  1
  Te  Te173  1  0.33567786  0.16624984  0.66707310  1
  Te  Te174  1  0.32718509  0.50151271  -0.00264216  1
  Te  Te175  1  0.33064017  0.49969336  0.33612128  1
  Te  Te176  1  0.33323124  0.49046657  0.66214562  1
  Te  Te177  1  0.33209145  0.82923514  -0.00339913  1
  Te  Te178  1  0.32783277  0.83142194  0.33146746  1
  Te  Te179  1  0.33360831  0.83517522  0.67096599  1
  Te  Te180  1  0.66592432  0.16710744  -0.00665271  1
  Te  Te181  1  0.66371572  0.16710841  0.33309915  1
  Te  Te182  1  0.66265686  0.17009295  0.66846203  1
  Te  Te183  1  0.66783408  0.49859770  -0.00852697  1
  Te  Te184  1  0.66976489  0.50304793  0.33252796  1
  Te  Te185  1  0.66652349  0.49979709  0.67065068  1
  Te  Te186  1  0.66310477  0.83245025  -0.00411209  1
  Te  Te187  1  0.66698744  0.82800916  0.33343944  1
  Te  Te188  1  0.66515316  0.82926568  0.66765506  1
  Te  Te189  1  -0.00020185  -0.00197670  0.16646115  1
  Te  Te190  1  0.00341066  -0.00108557  0.50754202  1
  Te  Te191  1  0.00378958  0.00090014  0.82953417  1
  Te  Te192  1  0.00159059  0.33811270  0.17270626  1
  Te  Te193  1  0.00550655  0.33388476  0.49392822  1
  Te  Te194  1  -0.00072291  0.33247944  0.83310102  1
  Te  Te195  1  -0.00020250  0.66530739  0.16982782  1
  Te  Te196  1  0.00485150  0.66646604  0.49643444  1
  Te  Te197  1  0.00737446  0.66448686  0.83299933  1
  Te  Te198  1  0.33379077  0.00827974  0.16593626  1
  Te  Te199  1  0.33451974  0.00004213  0.50548064  1
  Te  Te200  1  0.33284293  -0.00402331  0.82926457  1
  Te  Te201  1  0.33407290  0.33601769  0.17096106  1
  Te  Te202  1  0.33119716  0.33683026  0.49796231  1
  Te  Te203  1  0.33403351  0.33374691  0.82527641  1
  Te  Te204  1  0.33924753  0.66665743  0.16658692  1
  Te  Te205  1  0.32995989  0.66394844  0.49889337  1
  Te  Te206  1  0.33030719  0.66953409  0.83102448  1
  Te  Te207  1  0.66693597  -0.00927704  0.16534629  1
  Te  Te208  1  0.66329002  -0.00824367  0.50075797  1
  Te  Te209  1  0.66621061  -0.00127897  0.83193201  1
  Te  Te210  1  0.66256221  0.33410617  0.17133562  1
  Te  Te211  1  0.66612931  0.33459009  0.49887689  1
  Te  Te212  1  0.66546264  0.32660581  0.83132768  1
  Te  Te213  1  0.66594885  0.66831953  0.16577641  1
  Te  Te214  1  0.66528886  0.66737915  0.49986038  1
  Te  Te215  1  0.66359121  0.67110646  0.83414141  1
