# generated using pymatgen
data_AgSbTe2
_symmetry_space_group_name_H-M   'P 1'
_cell_length_a   18.33479527
_cell_length_b   18.33549852
_cell_length_c   18.33348908
_cell_angle_alpha   90.00193261
_cell_angle_beta   90.00142808
_cell_angle_gamma   89.99985915
_symmetry_Int_Tables_number   1
_chemical_formula_structural   AgSbTe2
_chemical_formula_sum   'Ag54 Sb54 Te108'
_cell_volume   6163.30856627
_cell_formula_units_Z   54
loop_
 _symmetry_equiv_pos_site_id
 _symmetry_equiv_pos_as_xyz
  1  'x, y, z'
loop_
 _atom_site_type_symbol
 _atom_site_label
 _atom_site_symmetry_multiplicity
 _atom_site_fract_x
 _atom_site_fract_y
 _atom_site_fract_z
 _atom_site_occupancy
  Ag  Ag0  1  0.17225807  0.32267011  0.51037061  1
  Ag  Ag1  1  0.33326313  -0.00016406  0.33194332  1
  Ag  Ag2  1  0.65424054  0.16766354  0.16672504  1
  Ag  Ag3  1  0.83266923  0.50722372  -0.00673582  1
  Ag  Ag4  1  0.33699999  0.67046119  0.33482661  1
  Ag  Ag5  1  0.66142672  0.16333875  0.82757324  1
  Ag  Ag6  1  0.32869526  0.50439582  0.83448590  1
  Ag  Ag7  1  0.65741045  0.16523264  0.50376700  1
  Ag  Ag8  1  0.00992740  -0.00273377  0.33861422  1
  Ag  Ag9  1  0.17458279  0.33832724  0.82532546  1
  Ag  Ag10  1  0.17511787  0.16497330  0.66602313  1
  Ag  Ag11  1  0.01550248  0.33220927  0.66614108  1
  Ag  Ag12  1  0.65862529  -0.00174783  0.33341535  1
  Ag  Ag13  1  0.16651742  0.00252332  0.50635572  1
  Ag  Ag14  1  0.00693931  0.83468395  0.82994337  1
  Ag  Ag15  1  0.49839517  0.83359932  0.33555325  1
  Ag  Ag16  1  0.16845551  0.49486552  0.67120107  1
  Ag  Ag17  1  0.49972354  0.66812938  0.16232518  1
  Ag  Ag18  1  0.83259105  0.83139518  -0.00669128  1
  Ag  Ag19  1  0.17861213  0.00376922  0.16767444  1
  Ag  Ag20  1  0.33030916  0.67311119  0.67243623  1
  Ag  Ag21  1  0.84430772  0.00096502  0.50523041  1
  Ag  Ag22  1  0.17708586  0.32912476  0.16658588  1
  Ag  Ag23  1  0.83022221  0.67207476  0.83441526  1
  Ag  Ag24  1  0.49541735  0.16591091  0.66788125  1
  Ag  Ag25  1  0.00324992  0.83667269  0.16782619  1
  Ag  Ag26  1  0.17868194  0.67015304  0.82869127  1
  Ag  Ag27  1  0.65442135  0.49865936  0.16484874  1
  Ag  Ag28  1  0.66575047  0.66652559  -0.00152640  1
  Ag  Ag29  1  0.33216849  0.83054162  0.82758244  1
  Ag  Ag30  1  0.33308075  0.00054388  0.00265173  1
  Ag  Ag31  1  0.49035957  0.32638225  0.50686408  1
  Ag  Ag32  1  0.16993581  -0.00481640  0.82341987  1
  Ag  Ag33  1  0.49800286  0.16537378  0.00380507  1
  Ag  Ag34  1  0.66595839  0.83430004  0.83240140  1
  Ag  Ag35  1  0.66162055  0.33057028  0.66755083  1
  Ag  Ag36  1  0.17226998  0.49940909  -0.00956741  1
  Ag  Ag37  1  0.17125080  0.67255721  0.51181520  1
  Ag  Ag38  1  0.01504986  0.16078213  0.50359250  1
  Ag  Ag39  1  0.17162304  0.83680733  0.66971177  1
  Ag  Ag40  1  0.49485640  0.00669733  0.16944475  1
  Ag  Ag41  1  0.83684098  0.49968581  0.67270332  1
  Ag  Ag42  1  0.49457833  0.32355642  0.16655775  1
  Ag  Ag43  1  0.33346075  0.16613469  0.50009670  1
  Ag  Ag44  1  0.83554497  -0.01025431  0.82986757  1
  Ag  Ag45  1  0.65599053  0.67457305  0.32870418  1
  Ag  Ag46  1  0.33665894  0.49051053  0.16242088  1
  Ag  Ag47  1  0.49128797  0.83775506  0.66831886  1
  Ag  Ag48  1  0.32958595  -0.00349896  0.66871256  1
  Ag  Ag49  1  0.49479718  0.33037174  0.83100462  1
  Ag  Ag50  1  0.00537153  0.84240279  0.50352143  1
  Ag  Ag51  1  0.33478510  0.32759872  0.32895191  1
  Ag  Ag52  1  0.33665286  0.16853677  0.17157730  1
  Ag  Ag53  1  0.49687703  0.67031048  0.83464075  1
  Sb  Sb54  1  0.83012412  0.83579996  0.33070516  1
  Sb  Sb55  1  0.00600819  0.50296421  0.16461994  1
  Sb  Sb56  1  0.32932205  0.83965871  0.50631650  1
  Sb  Sb57  1  0.00437811  0.33390471  -0.00605345  1
  Sb  Sb58  1  0.82483557  0.66787861  0.16012276  1
  Sb  Sb59  1  0.00743924  0.50514211  0.83168889  1
  Sb  Sb60  1  0.33282764  0.33044040  0.66428628  1
  Sb  Sb61  1  0.49330060  0.66442931  0.50240745  1
  Sb  Sb62  1  0.00290653  0.49861662  0.50305324  1
  Sb  Sb63  1  0.83092428  0.16447624  0.33436930  1
  Sb  Sb64  1  0.01111818  0.32566780  0.33996928  1
  Sb  Sb65  1  0.49433378  0.49712082  0.67046058  1
  Sb  Sb66  1  0.66119742  0.66369319  0.66947987  1
  Sb  Sb67  1  0.66125727  0.00427884  0.66485813  1
  Sb  Sb68  1  0.17019002  0.50010159  0.33509546  1
  Sb  Sb69  1  0.00817105  0.00201555  0.66086904  1
  Sb  Sb70  1  0.17306063  0.83656678  0.33900125  1
  Sb  Sb71  1  0.66328675  0.50125282  0.83688206  1
  Sb  Sb72  1  0.65627579  0.33002134  0.33557942  1
  Sb  Sb73  1  0.82369449  0.16362983  -0.00332395  1
  Sb  Sb74  1  0.01089639  0.66619359  0.66890817  1
  Sb  Sb75  1  0.83135679  -0.00109298  0.16552370  1
  Sb  Sb76  1  0.17326238  0.16801082  -0.00489992  1
  Sb  Sb77  1  0.49635455  0.50523396  0.32963330  1
  Sb  Sb78  1  0.83160599  0.16734965  0.66545404  1
  Sb  Sb79  1  0.66176170  -0.00337804  0.00142079  1
  Sb  Sb80  1  0.49699812  0.49776478  0.00118316  1
  Sb  Sb81  1  0.66552895  0.49583807  0.49801314  1
  Sb  Sb82  1  0.17267989  0.16261817  0.34384191  1
  Sb  Sb83  1  0.49625486  0.00000084  0.83474873  1
  Sb  Sb84  1  -0.00033969  0.16158377  0.82766963  1
  Sb  Sb85  1  0.00473928  0.67515328  0.33489341  1
  Sb  Sb86  1  -0.00362859  0.66936203  -0.00228061  1
  Sb  Sb87  1  0.83266069  0.33559506  0.83001759  1
  Sb  Sb88  1  0.83637745  0.83099472  0.67339028  1
  Sb  Sb89  1  0.00907796  0.16085361  0.17381135  1
  Sb  Sb90  1  0.33113818  0.49617310  0.50316818  1
  Sb  Sb91  1  0.66911581  0.83924514  0.50396504  1
  Sb  Sb92  1  0.83526156  0.32687755  0.50334674  1
  Sb  Sb93  1  0.16571998  0.83121492  -0.00771013  1
  Sb  Sb94  1  0.17486646  0.66787137  0.16319542  1
  Sb  Sb95  1  0.66551420  0.83370201  0.16324093  1
  Sb  Sb96  1  0.82909966  0.50352526  0.33240281  1
  Sb  Sb97  1  0.33200519  0.83746439  0.16436237  1
  Sb  Sb98  1  0.00582144  -0.00212234  0.00184275  1
  Sb  Sb99  1  0.49422701  0.00565054  0.49628771  1
  Sb  Sb100  1  0.82893693  0.33443081  0.16511877  1
  Sb  Sb101  1  0.33733956  0.16657970  0.83087291  1
  Sb  Sb102  1  0.83680870  0.67257316  0.50661651  1
  Sb  Sb103  1  0.49783173  0.16097900  0.33194360  1
  Sb  Sb104  1  0.66420870  0.33732590  -0.00350261  1
  Sb  Sb105  1  0.33766521  0.67000707  -0.00353872  1
  Sb  Sb106  1  0.33451855  0.32859711  0.00384318  1
  Sb  Sb107  1  0.50146081  0.83588828  -0.00314473  1
  Te  Te108  1  0.17191078  0.16598757  0.16353611  1
  Te  Te109  1  0.17155079  0.16492156  0.50496372  1
  Te  Te110  1  0.16661831  0.16456658  0.82845888  1
  Te  Te111  1  0.17180008  0.49858860  0.16434459  1
  Te  Te112  1  0.16600613  0.50144488  0.50555554  1
  Te  Te113  1  0.16758336  0.49892624  0.83190732  1
  Te  Te114  1  0.16289183  0.83673069  0.16448778  1
  Te  Te115  1  0.16457211  0.83445772  0.50443319  1
  Te  Te116  1  0.16805796  0.83302356  0.83141298  1
  Te  Te117  1  0.49729653  0.16601165  0.16825222  1
  Te  Te118  1  0.49817695  0.16881831  0.50335273  1
  Te  Te119  1  0.50160829  0.16679537  0.82905447  1
  Te  Te120  1  0.49726915  0.50412648  0.16481720  1
  Te  Te121  1  0.50041075  0.48714765  0.50059312  1
  Te  Te122  1  0.49463834  0.49898549  0.83486118  1
  Te  Te123  1  0.50077913  0.82907505  0.16807830  1
  Te  Te124  1  0.50071948  0.83283351  0.50407499  1
  Te  Te125  1  0.49884553  0.83331618  0.83106910  1
  Te  Te126  1  0.82789154  0.16796423  0.16496976  1
  Te  Te127  1  0.82689313  0.15939183  0.50003965  1
  Te  Te128  1  0.82728994  0.16315673  0.83337699  1
  Te  Te129  1  0.83269492  0.50067579  0.16140420  1
  Te  Te130  1  0.83422891  0.50130022  0.50697288  1
  Te  Te131  1  0.83308765  0.50273760  0.83336774  1
  Te  Te132  1  0.83879889  0.83336756  0.15966375  1
  Te  Te133  1  0.83887148  0.83981050  0.50135478  1
  Te  Te134  1  0.82931641  0.83264173  0.83341061  1
  Te  Te135  1  0.17198229  0.00032403  0.00411444  1
  Te  Te136  1  0.16983997  -0.00096231  0.32867963  1
  Te  Te137  1  0.16856504  0.00036521  0.66590163  1
  Te  Te138  1  0.16700843  0.33726431  0.00062330  1
  Te  Te139  1  0.17401693  0.33309604  0.32753804  1
  Te  Te140  1  0.17136236  0.33253882  0.66751965  1
  Te  Te141  1  0.16593025  0.66078543  -0.00595316  1
  Te  Te142  1  0.17301600  0.66852686  0.33480652  1
  Te  Te143  1  0.17018428  0.66808454  0.66925538  1
  Te  Te144  1  0.49565239  0.00357631  0.00622581  1
  Te  Te145  1  0.49845498  -0.00526760  0.33095472  1
  Te  Te146  1  0.49386980  0.00080943  0.66603473  1
  Te  Te147  1  0.50055596  0.32748632  -0.00152220  1
  Te  Te148  1  0.49411885  0.33600153  0.32846231  1
  Te  Te149  1  0.49986240  0.33109453  0.66852429  1
  Te  Te150  1  0.50463352  0.66674391  -0.00194557  1
  Te  Te151  1  0.49867177  0.67073603  0.33625129  1
  Te  Te152  1  0.49395560  0.66838676  0.67002529  1
  Te  Te153  1  0.83340720  -0.00367438  -0.00539014  1
  Te  Te154  1  0.82942802  -0.00076150  0.33582389  1
  Te  Te155  1  0.83177088  -0.00107049  0.66852000  1
  Te  Te156  1  0.83503606  0.34012644  -0.00134994  1
  Te  Te157  1  0.83550499  0.33556738  0.33431485  1
  Te  Te158  1  0.82737100  0.33886520  0.66614814  1
  Te  Te159  1  0.82888769  0.66750784  -0.00494846  1
  Te  Te160  1  0.82924870  0.66802245  0.33540940  1
  Te  Te161  1  0.83082446  0.66150346  0.67139185  1
  Te  Te162  1  -0.00336689  0.16669074  0.00301212  1
  Te  Te163  1  -0.00100704  0.15810379  0.34206574  1
  Te  Te164  1  0.00018686  0.17192898  0.66235909  1
  Te  Te165  1  -0.00372259  0.50058931  0.00012291  1
  Te  Te166  1  -0.00150022  0.50024853  0.33356014  1
  Te  Te167  1  0.00155508  0.49426457  0.66658809  1
  Te  Te168  1  -0.00510724  0.83455459  -0.00412806  1
  Te  Te169  1  -0.00019259  0.83856793  0.33447899  1
  Te  Te170  1  0.00377276  0.83285774  0.66811831  1
  Te  Te171  1  0.33797158  0.16007748  0.00452305  1
  Te  Te172  1  0.33310147  0.16586194  0.33287444  1
  Te  Te173  1  0.33408499  0.16398592  0.66521033  1
  Te  Te174  1  0.33087423  0.50200184  -0.00061848  1
  Te  Te175  1  0.33232890  0.50352101  0.32737853  1
  Te  Te176  1  0.32864810  0.50660459  0.67045664  1
  Te  Te177  1  0.33353217  0.84026378  -0.00867055  1
  Te  Te178  1  0.33849809  0.83371517  0.33318304  1
  Te  Te179  1  0.33207956  0.83415201  0.66740063  1
  Te  Te180  1  0.65916306  0.16670293  0.00134857  1
  Te  Te181  1  0.66552777  0.16294946  0.33353265  1
  Te  Te182  1  0.66448847  0.16938529  0.66667463  1
  Te  Te183  1  0.66897087  0.50466339  0.00431279  1
  Te  Te184  1  0.66642506  0.50289588  0.32598109  1
  Te  Te185  1  0.66727435  0.49514087  0.66640050  1
  Te  Te186  1  0.66975412  0.82928484  -0.00502083  1
  Te  Te187  1  0.66267705  0.83506684  0.33405887  1
  Te  Te188  1  0.66199812  0.83283676  0.67161476  1
  Te  Te189  1  -0.00065709  -0.00321476  0.17266267  1
  Te  Te190  1  0.00263758  0.00065752  0.49923508  1
  Te  Te191  1  0.00224267  -0.00408343  0.83426120  1
  Te  Te192  1  0.00453650  0.33193362  0.16953585  1
  Te  Te193  1  0.00650096  0.32741833  0.50421441  1
  Te  Te194  1  0.00389722  0.33202113  0.82668732  1
  Te  Te195  1  0.00058325  0.67328716  0.16820564  1
  Te  Te196  1  0.00624523  0.67221830  0.49979315  1
  Te  Te197  1  -0.00572809  0.67348208  0.83254354  1
  Te  Te198  1  0.33512769  -0.00167432  0.16951433  1
  Te  Te199  1  0.32892215  0.00443663  0.49676857  1
  Te  Te200  1  0.33061366  0.00026205  0.82885441  1
  Te  Te201  1  0.33466023  0.33272183  0.16677863  1
  Te  Te202  1  0.33137052  0.33089529  0.49622190  1
  Te  Te203  1  0.33361231  0.33510931  0.83506815  1
  Te  Te204  1  0.33816321  0.66801159  0.16754204  1
  Te  Te205  1  0.32967338  0.66463975  0.49656998  1
  Te  Te206  1  0.33539464  0.66712001  0.83445281  1
  Te  Te207  1  0.66417483  0.00324117  0.17020862  1
  Te  Te208  1  0.66608205  0.00420324  0.49643435  1
  Te  Te209  1  0.66728012  0.00008748  0.83327112  1
  Te  Te210  1  0.66111827  0.33262898  0.16716616  1
  Te  Te211  1  0.66641512  0.32794225  0.50287312  1
  Te  Te212  1  0.66393744  0.33075417  0.82947988  1
  Te  Te213  1  0.66122618  0.66608755  0.16827928  1
  Te  Te214  1  0.66646806  0.66590655  0.49389259  1
  Te  Te215  1  0.66273165  0.66794233  0.83383537  1
