# generated using pymatgen
data_AgSbTe2
_symmetry_space_group_name_H-M   'P 1'
_cell_length_a   18.33973197
_cell_length_b   18.34082189
_cell_length_c   18.34292623
_cell_angle_alpha   90.00071422
_cell_angle_beta   89.99945283
_cell_angle_gamma   90.00091182
_symmetry_Int_Tables_number   1
_chemical_formula_structural   AgSbTe2
_chemical_formula_sum   'Ag54 Sb54 Te108'
_cell_volume   6169.93227885
_cell_formula_units_Z   54
loop_
 _symmetry_equiv_pos_site_id
 _symmetry_equiv_pos_as_xyz
  1  'x, y, z'
loop_
 _atom_site_type_symbol
 _atom_site_label
 _atom_site_symmetry_multiplicity
 _atom_site_fract_x
 _atom_site_fract_y
 _atom_site_fract_z
 _atom_site_occupancy
  Ag  Ag0  1  0.82900556  0.00150300  0.16111333  1
  Ag  Ag1  1  0.33747263  0.00213352  0.66571021  1
  Ag  Ag2  1  0.49534732  0.16781975  0.67374285  1
  Ag  Ag3  1  0.16441500  0.50241237  0.67372078  1
  Ag  Ag4  1  0.15777909  0.49872910  -0.00411288  1
  Ag  Ag5  1  0.66661531  0.82158020  0.84170636  1
  Ag  Ag6  1  0.50846156  0.49927224  0.00263007  1
  Ag  Ag7  1  0.82963566  0.50241305  -0.00336498  1
  Ag  Ag8  1  0.34431755  0.33703691  0.66809926  1
  Ag  Ag9  1  0.83010961  0.81912799  0.00146659  1
  Ag  Ag10  1  0.50692040  0.66240468  0.15777296  1
  Ag  Ag11  1  0.83273993  0.50044533  0.67565497  1
  Ag  Ag12  1  0.17033525  0.17476741  0.00421720  1
  Ag  Ag13  1  -0.01245770  0.34042231  0.00383369  1
  Ag  Ag14  1  -0.00393133  0.49069106  0.16127793  1
  Ag  Ag15  1  -0.00028930  0.16843041  0.49661098  1
  Ag  Ag16  1  0.66459507  0.65909594  0.32032282  1
  Ag  Ag17  1  0.16558051  0.16899033  0.32305480  1
  Ag  Ag18  1  0.66453768  0.82533292  0.16129946  1
  Ag  Ag19  1  -0.00752512  0.66279182  0.67396260  1
  Ag  Ag20  1  0.82515198  0.33938464  0.84277883  1
  Ag  Ag21  1  0.33366040  0.16600572  0.15931529  1
  Ag  Ag22  1  -0.01230513  0.65631903  -0.00237356  1
  Ag  Ag23  1  0.50472594  -0.00133424  0.16354840  1
  Ag  Ag24  1  0.66914506  0.34097407  -0.00115910  1
  Ag  Ag25  1  0.82116230  0.65879720  0.84382841  1
  Ag  Ag26  1  0.67024570  -0.00623649  0.00345359  1
  Ag  Ag27  1  0.33449669  0.50092457  0.50750860  1
  Ag  Ag28  1  0.34520258  0.83837664  0.16356923  1
  Ag  Ag29  1  0.50192025  0.49889065  0.32115611  1
  Ag  Ag30  1  0.50504874  0.33860634  0.83852100  1
  Ag  Ag31  1  0.66514637  0.34156448  0.67909341  1
  Ag  Ag32  1  0.66915048  0.33981251  0.32014129  1
  Ag  Ag33  1  0.66561128  0.66213149  0.67796803  1
  Ag  Ag34  1  0.16628425  0.66404558  0.50391345  1
  Ag  Ag35  1  -0.01059056  0.33206081  0.32062331  1
  Ag  Ag36  1  0.00312969  0.17330295  0.16278743  1
  Ag  Ag37  1  -0.00218630  -0.00095401  0.67103761  1
  Ag  Ag38  1  0.66723526  0.83069424  0.50494207  1
  Ag  Ag39  1  0.83298189  0.00441517  0.49681772  1
  Ag  Ag40  1  0.33779839  0.16790711  0.84079961  1
  Ag  Ag41  1  0.50603665  0.65958928  0.83906950  1
  Ag  Ag42  1  0.34043124  0.66211647  0.67354409  1
  Ag  Ag43  1  0.33529877  0.00226971  0.32775338  1
  Ag  Ag44  1  0.83178394  0.33383741  0.50010807  1
  Ag  Ag45  1  0.50251331  0.82970339  0.66910834  1
  Ag  Ag46  1  0.34545280  0.66325831  -0.00358811  1
  Ag  Ag47  1  0.49716243  0.17592305  -0.00058666  1
  Ag  Ag48  1  0.66679476  0.50322437  0.83349009  1
  Ag  Ag49  1  0.50863939  0.33738567  0.15600381  1
  Ag  Ag50  1  0.82912042  0.33673826  0.16093467  1
  Ag  Ag51  1  -0.00881457  0.00564237  0.00184823  1
  Ag  Ag52  1  0.82613132  0.66230370  0.15925584  1
  Ag  Ag53  1  0.66992462  0.66405374  -0.00458736  1
  Sb  Sb54  1  0.50385320  -0.00043054  0.49843348  1
  Sb  Sb55  1  -0.00539898  0.65968111  0.32892494  1
  Sb  Sb56  1  0.16345188  0.33543076  0.50159441  1
  Sb  Sb57  1  0.83027425  0.17192944  0.66584259  1
  Sb  Sb58  1  0.33881198  0.66820334  0.33173090  1
  Sb  Sb59  1  0.66669188  -0.00200449  0.67118603  1
  Sb  Sb60  1  0.50875707  0.82699244  -0.00060310  1
  Sb  Sb61  1  0.83054372  0.83273976  0.32818366  1
  Sb  Sb62  1  0.00026111  0.49715857  0.49958910  1
  Sb  Sb63  1  -0.00737194  0.82983566  0.83455675  1
  Sb  Sb64  1  0.16980161  0.83610276  0.33190846  1
  Sb  Sb65  1  0.50209833  0.49974596  0.67205991  1
  Sb  Sb66  1  0.66469431  0.00077883  0.32834394  1
  Sb  Sb67  1  0.82637178  0.49698584  0.32762271  1
  Sb  Sb68  1  0.16709141  0.66508362  0.16551069  1
  Sb  Sb69  1  0.00306648  0.16776373  0.83860921  1
  Sb  Sb70  1  -0.00552891  0.33577162  0.67029130  1
  Sb  Sb71  1  0.50278023  0.82908910  0.33029058  1
  Sb  Sb72  1  0.16338525  0.33202518  0.16377448  1
  Sb  Sb73  1  0.66616061  0.16812426  0.16238548  1
  Sb  Sb74  1  0.33952014  0.33463795  -0.00156206  1
  Sb  Sb75  1  0.50053379  0.66448416  0.50386267  1
  Sb  Sb76  1  -0.00890508  0.50037194  0.83953309  1
  Sb  Sb77  1  0.17115604  0.82699304  0.66616316  1
  Sb  Sb78  1  0.33005572  0.16920088  0.50051201  1
  Sb  Sb79  1  0.00130489  0.00762505  0.33086401  1
  Sb  Sb80  1  0.83163247  0.66437301  0.50221125  1
  Sb  Sb81  1  0.50282806  0.00213460  0.83896637  1
  Sb  Sb82  1  0.16763689  0.00334619  0.16480151  1
  Sb  Sb83  1  0.17046054  0.17128510  0.66975899  1
  Sb  Sb84  1  0.16329774  -0.00126824  0.50158015  1
  Sb  Sb85  1  0.33842439  0.82954880  0.49995626  1
  Sb  Sb86  1  0.83198217  0.00044615  0.83703496  1
  Sb  Sb87  1  0.82642380  0.82845317  0.67133172  1
  Sb  Sb88  1  0.33624529  0.00029195  0.00078654  1
  Sb  Sb89  1  0.16712041  0.66312220  0.83230413  1
  Sb  Sb90  1  -0.00667728  0.83606181  0.50406512  1
  Sb  Sb91  1  0.34053278  0.49796826  0.83177530  1
  Sb  Sb92  1  0.16289711  0.83071815  0.00141110  1
  Sb  Sb93  1  0.66514798  0.50046817  0.50493627  1
  Sb  Sb94  1  0.16944225  0.33520202  0.83585245  1
  Sb  Sb95  1  0.49657809  0.17040029  0.32707797  1
  Sb  Sb96  1  0.67079567  0.16657760  0.50138241  1
  Sb  Sb97  1  0.34121528  0.83321694  0.83589753  1
  Sb  Sb98  1  -0.00616628  0.83382622  0.16371168  1
  Sb  Sb99  1  0.50507282  0.33497004  0.50207904  1
  Sb  Sb100  1  0.66819847  0.50284427  0.15707208  1
  Sb  Sb101  1  0.16781891  0.00182899  0.83430581  1
  Sb  Sb102  1  0.66203857  0.17261953  0.83633177  1
  Sb  Sb103  1  0.33589507  0.33138614  0.33440032  1
  Sb  Sb104  1  0.16868686  0.49716858  0.33197752  1
  Sb  Sb105  1  0.33545009  0.49783960  0.16429835  1
  Sb  Sb106  1  0.83216101  0.17283671  0.00166795  1
  Sb  Sb107  1  0.83672047  0.17044489  0.33151754  1
  Te  Te108  1  0.16794334  0.16625190  0.16445682  1
  Te  Te109  1  0.15927398  0.16542817  0.50100778  1
  Te  Te110  1  0.17559102  0.16824894  0.83900184  1
  Te  Te111  1  0.16234317  0.49934148  0.16132279  1
  Te  Te112  1  0.16963121  0.50297142  0.49945155  1
  Te  Te113  1  0.16866857  0.49966306  0.83431148  1
  Te  Te114  1  0.17555200  0.83420453  0.16731948  1
  Te  Te115  1  0.16643458  0.82653452  0.49924533  1
  Te  Te116  1  0.16765055  0.83330804  0.83293639  1
  Te  Te117  1  0.49825290  0.16696896  0.16422885  1
  Te  Te118  1  0.49930284  0.16631559  0.50592958  1
  Te  Te119  1  0.49705059  0.16806892  0.83408614  1
  Te  Te120  1  0.49915673  0.49913958  0.16321035  1
  Te  Te121  1  0.49476176  0.49959268  0.49480079  1
  Te  Te122  1  0.50381673  0.49934144  0.83768183  1
  Te  Te123  1  0.50258021  0.83444165  0.16683671  1
  Te  Te124  1  0.50661210  0.83344679  0.50361787  1
  Te  Te125  1  0.50521073  0.83072715  0.82945066  1
  Te  Te126  1  0.83757469  0.16520447  0.16754649  1
  Te  Te127  1  0.83863364  0.16598439  0.49972547  1
  Te  Te128  1  0.83380601  0.17347666  0.83156072  1
  Te  Te129  1  0.83712642  0.49937625  0.16468141  1
  Te  Te130  1  0.83339152  0.49486262  0.50358469  1
  Te  Te131  1  0.83086351  0.49939524  0.83352258  1
  Te  Te132  1  0.82890833  0.83558716  0.16197280  1
  Te  Te133  1  0.82676978  0.83618219  0.50027637  1
  Te  Te134  1  0.82704137  0.82985306  0.83928864  1
  Te  Te135  1  0.15989913  0.00036854  -0.00099582  1
  Te  Te136  1  0.17182040  0.00487892  0.33459898  1
  Te  Te137  1  0.16456561  -0.00028763  0.66687732  1
  Te  Te138  1  0.16372142  0.33504411  -0.00137812  1
  Te  Te139  1  0.16624706  0.32804105  0.33405675  1
  Te  Te140  1  0.16947434  0.34034006  0.66810652  1
  Te  Te141  1  0.16550482  0.66273313  0.00044110  1
  Te  Te142  1  0.16588422  0.66654820  0.33891884  1
  Te  Te143  1  0.16828674  0.66282921  0.66587107  1
  Te  Te144  1  0.50183102  0.00408570  0.00511026  1
  Te  Te145  1  0.49576722  0.00174697  0.32855589  1
  Te  Te146  1  0.49876897  0.00316165  0.66589893  1
  Te  Te147  1  0.49988569  0.33510323  -0.00072925  1
  Te  Te148  1  0.50430099  0.33739920  0.33279025  1
  Te  Te149  1  0.50299761  0.33200127  0.66824367  1
  Te  Te150  1  0.50178329  0.66607832  0.00013974  1
  Te  Te151  1  0.50371715  0.66214517  0.32791274  1
  Te  Te152  1  0.50230561  0.66723578  0.66943294  1
  Te  Te153  1  0.83181181  0.00700847  0.00190558  1
  Te  Te154  1  0.83359319  -0.00004270  0.33306787  1
  Te  Te155  1  0.83710769  -0.00132644  0.66728548  1
  Te  Te156  1  0.83007784  0.33423170  0.00216748  1
  Te  Te157  1  0.83086720  0.33461497  0.33227756  1
  Te  Te158  1  0.82879592  0.33709074  0.66522284  1
  Te  Te159  1  0.83249851  0.66397287  0.00151899  1
  Te  Te160  1  0.82702111  0.66535227  0.33000643  1
  Te  Te161  1  0.83281393  0.66367219  0.66774645  1
  Te  Te162  1  0.00369454  0.16506669  0.00130103  1
  Te  Te163  1  0.00279798  0.17157839  0.33028433  1
  Te  Te164  1  0.00087693  0.16448547  0.66891026  1
  Te  Te165  1  -0.00183972  0.49984558  0.00103234  1
  Te  Te166  1  -0.00044490  0.49167960  0.32726068  1
  Te  Te167  1  0.00169879  0.50438368  0.66517719  1
  Te  Te168  1  -0.00652519  0.83633265  -0.00070372  1
  Te  Te169  1  0.00088347  0.83198433  0.33478855  1
  Te  Te170  1  0.00162554  0.83319709  0.66668415  1
  Te  Te171  1  0.33297091  0.16686589  0.00008045  1
  Te  Te172  1  0.32871974  0.16341897  0.33223086  1
  Te  Te173  1  0.33435783  0.16725195  0.66630685  1
  Te  Te174  1  0.33185080  0.50417588  -0.00014296  1
  Te  Te175  1  0.33818154  0.50028611  0.33641077  1
  Te  Te176  1  0.33468698  0.50083674  0.66663159  1
  Te  Te177  1  0.33024477  0.83026313  0.00389088  1
  Te  Te178  1  0.33549191  0.83981402  0.32860205  1
  Te  Te179  1  0.34026072  0.83295302  0.66698467  1
  Te  Te180  1  0.65867803  0.16495284  -0.00089678  1
  Te  Te181  1  0.66503691  0.17461519  0.33438548  1
  Te  Te182  1  0.66103118  0.16761688  0.66794837  1
  Te  Te183  1  0.66875841  0.50169507  -0.00354906  1
  Te  Te184  1  0.66204337  0.49892323  0.33943920  1
  Te  Te185  1  0.66895476  0.50146396  0.67008615  1
  Te  Te186  1  0.66760385  0.83208756  0.00162718  1
  Te  Te187  1  0.66666423  0.83124104  0.32995708  1
  Te  Te188  1  0.66285592  0.83265365  0.66577276  1
  Te  Te189  1  -0.00348201  0.00110824  0.16275386  1
  Te  Te190  1  -0.00460517  0.00395520  0.49991088  1
  Te  Te191  1  -0.00008518  -0.00100666  0.83097799  1
  Te  Te192  1  0.00062959  0.33115435  0.16372657  1
  Te  Te193  1  -0.00434361  0.32890943  0.50312941  1
  Te  Te194  1  -0.00543605  0.33218192  0.84013465  1
  Te  Te195  1  -0.00309181  0.66733206  0.16210879  1
  Te  Te196  1  0.00338460  0.66666410  0.49986292  1
  Te  Te197  1  -0.00066479  0.66726457  0.83368766  1
  Te  Te198  1  0.33415703  0.00251248  0.16566955  1
  Te  Te199  1  0.33346983  -0.00065707  0.50451808  1
  Te  Te200  1  0.33498008  0.00344434  0.82741813  1
  Te  Te201  1  0.34004902  0.32762221  0.16743353  1
  Te  Te202  1  0.33275905  0.33768531  0.50438533  1
  Te  Te203  1  0.33818747  0.32956299  0.82889603  1
  Te  Te204  1  0.33519418  0.66559071  0.16291858  1
  Te  Te205  1  0.33198191  0.66473844  0.50100820  1
  Te  Te206  1  0.33607302  0.66714374  0.83429719  1
  Te  Te207  1  0.66668360  0.00148698  0.16475152  1
  Te  Te208  1  0.67250579  -0.00261809  0.49760559  1
  Te  Te209  1  0.66785220  -0.00504843  0.84058279  1
  Te  Te210  1  0.66830430  0.33435279  0.16283100  1
  Te  Te211  1  0.67293307  0.33218290  0.50348908  1
  Te  Te212  1  0.66542146  0.33463914  0.83620966  1
  Te  Te213  1  0.66695283  0.66592829  0.16451881  1
  Te  Te214  1  0.66641443  0.67102294  0.49895767  1
  Te  Te215  1  0.66484363  0.66566905  0.83416617  1
