# generated using pymatgen
data_AgSbTe2
_symmetry_space_group_name_H-M   'P 1'
_cell_length_a   18.34064865
_cell_length_b   18.33664420
_cell_length_c   18.33514745
_cell_angle_alpha   90.00136808
_cell_angle_beta   89.99633050
_cell_angle_gamma   90.00067000
_symmetry_Int_Tables_number   1
_chemical_formula_structural   AgSbTe2
_chemical_formula_sum   'Ag54 Sb54 Te108'
_cell_volume   6166.21914300
_cell_formula_units_Z   54
loop_
 _symmetry_equiv_pos_site_id
 _symmetry_equiv_pos_as_xyz
  1  'x, y, z'
loop_
 _atom_site_type_symbol
 _atom_site_label
 _atom_site_symmetry_multiplicity
 _atom_site_fract_x
 _atom_site_fract_y
 _atom_site_fract_z
 _atom_site_occupancy
  Ag  Ag0  1  0.16313707  0.00086005  0.84302767  1
  Ag  Ag1  1  0.49670698  -0.00148556  0.50043076  1
  Ag  Ag2  1  0.83867654  0.50070236  -0.00035555  1
  Ag  Ag3  1  0.84518341  0.00031403  0.15667818  1
  Ag  Ag4  1  0.17838149  0.50665137  0.33653258  1
  Ag  Ag5  1  0.32579355  0.32173265  0.00635466  1
  Ag  Ag6  1  0.33356755  0.49606495  0.17632242  1
  Ag  Ag7  1  0.16587513  0.67635282  0.49676180  1
  Ag  Ag8  1  0.48969178  0.50894401  0.33989379  1
  Ag  Ag9  1  0.50144981  0.67166014  0.49725654  1
  Ag  Ag10  1  0.83065600  0.50511547  0.66607566  1
  Ag  Ag11  1  0.32625341  0.00125925  0.66917334  1
  Ag  Ag12  1  0.00235616  0.84207197  0.16153443  1
  Ag  Ag13  1  0.66706632  0.83246820  0.49722893  1
  Ag  Ag14  1  0.66226422  -0.00529518  0.33606622  1
  Ag  Ag15  1  0.49326348  0.16154940  -0.00153707  1
  Ag  Ag16  1  0.65641664  0.67147427  0.34115970  1
  Ag  Ag17  1  0.66617400  0.16171813  0.83267556  1
  Ag  Ag18  1  0.49822724  0.16329800  0.33862497  1
  Ag  Ag19  1  0.00721306  0.83538815  0.49587520  1
  Ag  Ag20  1  0.16618904  -0.00473567  0.50195345  1
  Ag  Ag21  1  0.83115246  0.66750077  0.50010485  1
  Ag  Ag22  1  0.49996868  0.67106136  0.82733277  1
  Ag  Ag23  1  0.00630173  0.00168993  -0.00073617  1
  Ag  Ag24  1  0.32079485  0.00580710  -0.00216124  1
  Ag  Ag25  1  0.50051714  0.50494388  0.65854313  1
  Ag  Ag26  1  0.16603387  0.31953104  0.83930546  1
  Ag  Ag27  1  0.00752997  0.00030707  0.67431113  1
  Ag  Ag28  1  0.16842110  0.83267012  0.33879995  1
  Ag  Ag29  1  0.16489792  0.83930951  0.65548506  1
  Ag  Ag30  1  0.00459650  0.67970821  0.00081760  1
  Ag  Ag31  1  0.66275628  0.66664872  0.65784868  1
  Ag  Ag32  1  0.84906583  0.15815081  -0.00195573  1
  Ag  Ag33  1  0.33145779  0.50343633  0.48849937  1
  Ag  Ag34  1  0.16192996  -0.00128718  0.15531956  1
  Ag  Ag35  1  0.00047249  0.15638780  0.49880346  1
  Ag  Ag36  1  0.84441952  0.84344318  0.00160155  1
  Ag  Ag37  1  0.00479666  0.15919190  0.15645657  1
  Ag  Ag38  1  0.16299020  0.15667542  -0.00001283  1
  Ag  Ag39  1  0.84621573  0.00199667  0.83935638  1
  Ag  Ag40  1  0.00709340  0.31705050  0.00340321  1
  Ag  Ag41  1  0.33727235  0.65962883  0.33347897  1
  Ag  Ag42  1  0.49646561  0.00245246  0.82823333  1
  Ag  Ag43  1  0.65972213  0.15721040  0.50029528  1
  Ag  Ag44  1  0.32924892  0.16788071  0.16341400  1
  Ag  Ag45  1  0.32940292  0.34589578  0.32719581  1
  Ag  Ag46  1  0.00381455  0.50807361  0.49834160  1
  Ag  Ag47  1  -0.00054809  0.16148755  0.84485452  1
  Ag  Ag48  1  0.00766852  0.33229357  0.33125083  1
  Ag  Ag49  1  0.32832659  0.66663192  0.00654266  1
  Ag  Ag50  1  0.16194202  0.84473231  0.00232404  1
  Ag  Ag51  1  0.49646695  0.82891862  0.33754252  1
  Ag  Ag52  1  0.50082338  0.15831850  0.66566202  1
  Ag  Ag53  1  0.66105562  0.50349971  0.16882903  1
  Sb  Sb54  1  0.00067734  0.00235272  0.32964600  1
  Sb  Sb55  1  0.83611731  0.83442747  0.33217433  1
  Sb  Sb56  1  0.83531159  0.66995684  0.16885505  1
  Sb  Sb57  1  0.00234133  0.32690297  0.66677403  1
  Sb  Sb58  1  0.66530387  0.33572153  0.66526216  1
  Sb  Sb59  1  0.33771404  0.67026623  0.66272472  1
  Sb  Sb60  1  0.49670003  0.83548405  0.65915728  1
  Sb  Sb61  1  0.83237671  0.16464917  0.33079592  1
  Sb  Sb62  1  0.16608879  0.33144771  0.50021229  1
  Sb  Sb63  1  0.16908652  0.16355170  0.32915092  1
  Sb  Sb64  1  0.49675427  0.00226859  0.16913776  1
  Sb  Sb65  1  0.16458798  0.49958585  0.00660122  1
  Sb  Sb66  1  0.83132326  0.16744411  0.67018890  1
  Sb  Sb67  1  0.16734758  0.67267572  0.17127046  1
  Sb  Sb68  1  0.67003369  0.00107679  0.00160973  1
  Sb  Sb69  1  0.66302327  0.33403287  0.33422924  1
  Sb  Sb70  1  0.83877873  0.32674576  0.83627484  1
  Sb  Sb71  1  0.49859375  0.33316314  0.49841631  1
  Sb  Sb72  1  0.83779291  0.83275866  0.66798815  1
  Sb  Sb73  1  0.83500970  -0.00380629  0.50070090  1
  Sb  Sb74  1  0.49892620  0.49849712  0.00200672  1
  Sb  Sb75  1  0.83006032  0.67065153  0.83253983  1
  Sb  Sb76  1  0.33286434  0.83701728  0.83400053  1
  Sb  Sb77  1  0.00340221  0.49835911  0.16931023  1
  Sb  Sb78  1  0.66666249  0.16731445  0.16640541  1
  Sb  Sb79  1  0.66612711  0.66658851  0.00090901  1
  Sb  Sb80  1  0.16794202  0.32648119  0.16326851  1
  Sb  Sb81  1  0.83225745  0.50204705  0.33304721  1
  Sb  Sb82  1  0.00005169  0.49491450  0.83167486  1
  Sb  Sb83  1  0.33123770  0.82944796  0.49735393  1
  Sb  Sb84  1  0.66605184  0.49727676  0.83468864  1
  Sb  Sb85  1  0.66435558  0.50539851  0.49692481  1
  Sb  Sb86  1  0.33381037  0.50044786  0.83441876  1
  Sb  Sb87  1  0.83566129  0.33717739  0.50030506  1
  Sb  Sb88  1  0.00328639  0.66495746  0.33418051  1
  Sb  Sb89  1  0.67172960  0.83240494  0.17298026  1
  Sb  Sb90  1  0.00074535  0.84095475  0.83670906  1
  Sb  Sb91  1  0.49694026  0.83772449  0.00349042  1
  Sb  Sb92  1  0.49782392  0.66635837  0.17237026  1
  Sb  Sb93  1  0.32691016  0.83597597  0.16721610  1
  Sb  Sb94  1  -0.00171403  0.67165761  0.66654917  1
  Sb  Sb95  1  0.16975392  0.15731385  0.67155385  1
  Sb  Sb96  1  0.83719071  0.32847061  0.16439416  1
  Sb  Sb97  1  0.33360353  0.16702465  0.49485762  1
  Sb  Sb98  1  0.49639318  0.33313305  0.16729725  1
  Sb  Sb99  1  0.16838120  0.50542129  0.65885026  1
  Sb  Sb100  1  0.33107473  0.16317602  0.84225339  1
  Sb  Sb101  1  0.66596631  0.83868585  0.82826705  1
  Sb  Sb102  1  0.66720401  0.33042221  0.00019280  1
  Sb  Sb103  1  0.33558823  -0.00151863  0.33304747  1
  Sb  Sb104  1  0.49433561  0.32757638  0.83487276  1
  Sb  Sb105  1  0.66617028  -0.00230385  0.66247562  1
  Sb  Sb106  1  0.33249607  0.32880312  0.66644023  1
  Sb  Sb107  1  0.17018416  0.67268287  0.83267002  1
  Te  Te108  1  0.16578130  0.16058350  0.16346824  1
  Te  Te109  1  0.16364347  0.16300687  0.50062635  1
  Te  Te110  1  0.16323609  0.16122034  0.83621830  1
  Te  Te111  1  0.17204710  0.50182213  0.17469807  1
  Te  Te112  1  0.16523801  0.49847895  0.49596643  1
  Te  Te113  1  0.16642010  0.50275730  0.82957469  1
  Te  Te114  1  0.16214467  0.83801811  0.16366780  1
  Te  Te115  1  0.16742982  0.83368920  0.49698769  1
  Te  Te116  1  0.16660991  0.83959310  0.84014848  1
  Te  Te117  1  0.49792757  0.16666070  0.16435573  1
  Te  Te118  1  0.49952770  0.16447837  0.50007152  1
  Te  Te119  1  0.50022454  0.16456571  0.83110330  1
  Te  Te120  1  0.49716835  0.49992579  0.17044719  1
  Te  Te121  1  0.50040060  0.49980290  0.49874581  1
  Te  Te122  1  0.50169779  0.50223806  0.82972924  1
  Te  Te123  1  0.50201827  0.83429913  0.17588094  1
  Te  Te124  1  0.50206115  0.83534045  0.49616379  1
  Te  Te125  1  0.50133287  0.83497748  0.83319832  1
  Te  Te126  1  0.83576532  0.16153979  0.16079932  1
  Te  Te127  1  0.83676123  0.16671966  0.50090986  1
  Te  Te128  1  0.83448472  0.16202424  0.83657994  1
  Te  Te129  1  0.83471832  0.50073381  0.16235940  1
  Te  Te130  1  0.83490460  0.50469176  0.50232061  1
  Te  Te131  1  0.83185290  0.50059176  0.83357598  1
  Te  Te132  1  0.83893650  0.83775458  0.16243982  1
  Te  Te133  1  0.83128435  0.82822037  0.50049865  1
  Te  Te134  1  0.83150010  0.83962741  0.83968838  1
  Te  Te135  1  0.16589664  0.00107151  -0.00070577  1
  Te  Te136  1  0.16789036  -0.00470063  0.34216463  1
  Te  Te137  1  0.16683724  -0.00192994  0.66094130  1
  Te  Te138  1  0.16646673  0.33486881  -0.00261194  1
  Te  Te139  1  0.16824361  0.33329236  0.33319558  1
  Te  Te140  1  0.16778226  0.33370422  0.67661475  1
  Te  Te141  1  0.16666908  0.66750290  -0.00058552  1
  Te  Te142  1  0.16797417  0.66834012  0.33720447  1
  Te  Te143  1  0.16708735  0.67413535  0.66179985  1
  Te  Te144  1  0.50040396  0.00121241  -0.00214132  1
  Te  Te145  1  0.50093369  0.00155074  0.33614681  1
  Te  Te146  1  0.50032652  0.00016967  0.66358104  1
  Te  Te147  1  0.49327692  0.32904548  -0.00057415  1
  Te  Te148  1  0.49486571  0.32962128  0.33343403  1
  Te  Te149  1  0.49882193  0.33815980  0.66707765  1
  Te  Te150  1  0.49640629  0.66797112  -0.00409519  1
  Te  Te151  1  0.49848961  0.66737321  0.33567518  1
  Te  Te152  1  0.50140614  0.66805255  0.66393241  1
  Te  Te153  1  0.83123038  0.00239095  -0.00087075  1
  Te  Te154  1  0.82407309  -0.00007164  0.33148570  1
  Te  Te155  1  0.83883464  0.00054801  0.67336854  1
  Te  Te156  1  0.83791834  0.33532516  -0.00053220  1
  Te  Te157  1  0.84170494  0.33354087  0.33249624  1
  Te  Te158  1  0.83362381  0.34456292  0.66863327  1
  Te  Te159  1  0.83497839  0.66334705  -0.00003347  1
  Te  Te160  1  0.82954253  0.66663157  0.33982013  1
  Te  Te161  1  0.83035317  0.66476329  0.66444203  1
  Te  Te162  1  0.00334372  0.16223834  0.00063515  1
  Te  Te163  1  0.00029395  0.17079716  0.33818157  1
  Te  Te164  1  -0.00087017  0.16114696  0.65944773  1
  Te  Te165  1  -0.00209209  0.50105682  0.00041490  1
  Te  Te166  1  0.00034743  0.49669375  0.33696951  1
  Te  Te167  1  -0.00189871  0.49957542  0.66166014  1
  Te  Te168  1  0.00057253  0.83728421  -0.00009441  1
  Te  Te169  1  0.00435882  0.83242517  0.33437498  1
  Te  Te170  1  0.00369469  0.83851064  0.66135536  1
  Te  Te171  1  0.33270175  0.16505068  0.00311894  1
  Te  Te172  1  0.33704995  0.16639873  0.32717345  1
  Te  Te173  1  0.34061659  0.16292808  0.66370098  1
  Te  Te174  1  0.33325561  0.50528841  0.00271409  1
  Te  Te175  1  0.33443697  0.50150760  0.33273495  1
  Te  Te176  1  0.33827083  0.49897845  0.66435917  1
  Te  Te177  1  0.32998768  0.83073192  0.00160735  1
  Te  Te178  1  0.33215665  0.82845264  0.33116450  1
  Te  Te179  1  0.32642166  0.84074208  0.66670329  1
  Te  Te180  1  0.65654886  0.16832835  -0.00256467  1
  Te  Te181  1  0.66195475  0.16692154  0.33552594  1
  Te  Te182  1  0.66336539  0.16705207  0.66561363  1
  Te  Te183  1  0.66975529  0.49840264  0.00475047  1
  Te  Te184  1  0.66424293  0.50163289  0.33024681  1
  Te  Te185  1  0.66453084  0.50318105  0.66678050  1
  Te  Te186  1  0.66997596  0.83196964  0.00139508  1
  Te  Te187  1  0.66725599  0.83133446  0.33741710  1
  Te  Te188  1  0.66778273  0.82757080  0.66000179  1
  Te  Te189  1  0.00113882  0.00144315  0.16815952  1
  Te  Te190  1  -0.00074823  -0.00390349  0.49604560  1
  Te  Te191  1  0.00290942  0.00233859  0.83471020  1
  Te  Te192  1  0.00155083  0.32931230  0.16560145  1
  Te  Te193  1  0.00022494  0.33381667  0.49804693  1
  Te  Te194  1  0.00554621  0.32686875  0.83736404  1
  Te  Te195  1  0.00030069  0.66897379  0.16121983  1
  Te  Te196  1  0.00282141  0.66806070  0.50077596  1
  Te  Te197  1  -0.00014007  0.66529454  0.83942017  1
  Te  Te198  1  0.32924181  0.00370765  0.16196657  1
  Te  Te199  1  0.33646572  0.00078971  0.50210381  1
  Te  Te200  1  0.33588385  0.00059553  0.83374091  1
  Te  Te201  1  0.33214054  0.33273136  0.16623596  1
  Te  Te202  1  0.33155855  0.34063671  0.49555789  1
  Te  Te203  1  0.32649274  0.33338486  0.83895925  1
  Te  Te204  1  0.33237347  0.66397280  0.16733654  1
  Te  Te205  1  0.33434772  0.66313124  0.49848760  1
  Te  Te206  1  0.33910589  0.66715577  0.83548708  1
  Te  Te207  1  0.66800387  0.00067007  0.17417808  1
  Te  Te208  1  0.66713244  -0.00193227  0.49816069  1
  Te  Te209  1  0.65799005  0.00366927  0.83128446  1
  Te  Te210  1  0.66841644  0.34197500  0.16770728  1
  Te  Te211  1  0.66859195  0.31899167  0.49878856  1
  Te  Te212  1  0.66606244  0.32338814  0.83298789  1
  Te  Te213  1  0.66695942  0.66289662  0.17100303  1
  Te  Te214  1  0.66315637  0.66626127  0.49910814  1
  Te  Te215  1  0.66120399  0.66712682  0.83057462  1
