# generated using pymatgen
data_AgSbTe2
_symmetry_space_group_name_H-M   'P 1'
_cell_length_a   18.35472650
_cell_length_b   18.35312263
_cell_length_c   18.35043724
_cell_angle_alpha   90.00109902
_cell_angle_beta   89.99979760
_cell_angle_gamma   90.00035346
_symmetry_Int_Tables_number   1
_chemical_formula_structural   AgSbTe2
_chemical_formula_sum   'Ag54 Sb54 Te108'
_cell_volume   6181.64841288
_cell_formula_units_Z   54
loop_
 _symmetry_equiv_pos_site_id
 _symmetry_equiv_pos_as_xyz
  1  'x, y, z'
loop_
 _atom_site_type_symbol
 _atom_site_label
 _atom_site_symmetry_multiplicity
 _atom_site_fract_x
 _atom_site_fract_y
 _atom_site_fract_z
 _atom_site_occupancy
  Ag  Ag0  1  0.16492824  0.16834433  0.33090784  1
  Ag  Ag1  1  0.48812821  -0.00274682  0.16515656  1
  Ag  Ag2  1  0.00366853  0.82944435  0.84795588  1
  Ag  Ag3  1  0.32596080  0.67463790  -0.00154833  1
  Ag  Ag4  1  0.00505996  0.66441420  0.66822172  1
  Ag  Ag5  1  0.16694516  0.33237775  0.83384847  1
  Ag  Ag6  1  0.00672196  0.16742287  0.84506997  1
  Ag  Ag7  1  0.66419190  0.66542163  0.66315908  1
  Ag  Ag8  1  0.65870064  -0.00021312  0.33080009  1
  Ag  Ag9  1  0.16604952  0.16230109  0.00371490  1
  Ag  Ag10  1  0.84863388  0.66401847  0.50105697  1
  Ag  Ag11  1  0.00809000  0.67828782  -0.00152665  1
  Ag  Ag12  1  0.84143293  0.49988387  0.00100226  1
  Ag  Ag13  1  0.16588516  0.84165365  0.00438144  1
  Ag  Ag14  1  0.00438846  0.50042526  0.83669735  1
  Ag  Ag15  1  0.32592606  0.16798396  0.83946684  1
  Ag  Ag16  1  0.48785782  0.84083527  0.00375714  1
  Ag  Ag17  1  0.84790831  0.16206635  0.00517875  1
  Ag  Ag18  1  0.16757562  -0.00269736  0.16768552  1
  Ag  Ag19  1  0.49490091  0.32772823  0.16404793  1
  Ag  Ag20  1  0.16430984  0.49017344  0.33651850  1
  Ag  Ag21  1  0.32939450  -0.00210482  0.00106854  1
  Ag  Ag22  1  0.66200569  0.33142703  0.00192748  1
  Ag  Ag23  1  0.84665282  0.16770060  0.32497471  1
  Ag  Ag24  1  0.00651505  0.33367771  0.33383709  1
  Ag  Ag25  1  0.32909450  0.66703376  0.66769727  1
  Ag  Ag26  1  0.32319626  0.50342391  0.50227233  1
  Ag  Ag27  1  0.33418526  0.32221727  0.00595659  1
  Ag  Ag28  1  0.16861346  0.84202029  0.32720834  1
  Ag  Ag29  1  0.49162918  0.66552782  0.50052797  1
  Ag  Ag30  1  0.32939426  -0.00776877  0.67390644  1
  Ag  Ag31  1  0.83899848  0.50552751  0.66316049  1
  Ag  Ag32  1  0.84632658  -0.00000248  0.16497348  1
  Ag  Ag33  1  0.00115649  0.50043915  0.16878151  1
  Ag  Ag34  1  0.00095121  0.16100218  0.16367751  1
  Ag  Ag35  1  0.32929230  0.00094470  0.32243178  1
  Ag  Ag36  1  0.32480836  0.32976834  0.32453481  1
  Ag  Ag37  1  0.16700300  0.66194067  0.49944676  1
  Ag  Ag38  1  0.16584121  0.33974664  0.49263843  1
  Ag  Ag39  1  0.48650146  0.83473023  0.32158942  1
  Ag  Ag40  1  0.16671395  -0.00074543  0.48774855  1
  Ag  Ag41  1  0.32540107  0.49662057  0.83311564  1
  Ag  Ag42  1  0.00379342  0.50060561  0.49292821  1
  Ag  Ag43  1  0.49416520  0.00003670  0.84886425  1
  Ag  Ag44  1  0.01279185  -0.00964203  0.00150662  1
  Ag  Ag45  1  0.84351059  0.49498697  0.33204542  1
  Ag  Ag46  1  0.48354864  0.15649692  0.00208254  1
  Ag  Ag47  1  0.84816522  0.83740277  0.00242854  1
  Ag  Ag48  1  0.01034238  0.84219050  0.16337336  1
  Ag  Ag49  1  0.16695113  0.83309793  0.66932299  1
  Ag  Ag50  1  0.33027073  0.83482491  0.16433172  1
  Ag  Ag51  1  0.49146316  0.50458528  0.66627885  1
  Ag  Ag52  1  0.49524051  0.67730851  0.16631344  1
  Ag  Ag53  1  0.00733601  0.17331455  0.48522452  1
  Sb  Sb54  1  0.66591800  0.16722612  0.83941159  1
  Sb  Sb55  1  0.66550642  0.83123784  0.49849469  1
  Sb  Sb56  1  0.00269798  0.33950272  0.66314249  1
  Sb  Sb57  1  0.49624222  0.16937459  0.67160755  1
  Sb  Sb58  1  0.67689932  0.16550493  0.49595425  1
  Sb  Sb59  1  0.49561935  0.66839922  0.83447018  1
  Sb  Sb60  1  0.67058505  0.16414288  0.16553240  1
  Sb  Sb61  1  0.66704158  0.32938175  0.32843517  1
  Sb  Sb62  1  0.83465639  0.33028628  0.16447039  1
  Sb  Sb63  1  0.66603986  0.34020985  0.67190411  1
  Sb  Sb64  1  0.84238359  0.33481442  0.83738291  1
  Sb  Sb65  1  0.32651448  0.16800150  0.50177180  1
  Sb  Sb66  1  0.67030392  0.49848332  0.16503755  1
  Sb  Sb67  1  0.16691705  0.16070482  0.66745158  1
  Sb  Sb68  1  0.83342017  0.00019327  0.84128549  1
  Sb  Sb69  1  0.66549648  0.66996895  0.33654987  1
  Sb  Sb70  1  0.83966650  0.83435568  0.32688112  1
  Sb  Sb71  1  0.32954544  0.82965669  0.49548575  1
  Sb  Sb72  1  0.00283966  0.65953847  0.33092273  1
  Sb  Sb73  1  0.49197230  0.16219934  0.32544962  1
  Sb  Sb74  1  0.66779769  0.50070341  0.83374451  1
  Sb  Sb75  1  0.49005941  0.33839384  0.49442414  1
  Sb  Sb76  1  0.66876991  0.83276014  0.83624003  1
  Sb  Sb77  1  0.83817076  0.16960516  0.66872775  1
  Sb  Sb78  1  0.66713985  0.66460773  -0.00164691  1
  Sb  Sb79  1  0.32815950  0.83428627  0.84070474  1
  Sb  Sb80  1  0.00773587  0.00646646  0.32293712  1
  Sb  Sb81  1  0.48927333  -0.00353789  0.49294942  1
  Sb  Sb82  1  0.49124575  0.82825217  0.66874141  1
  Sb  Sb83  1  0.17133594  0.00349370  0.84027173  1
  Sb  Sb84  1  0.66197366  0.83592788  0.16673152  1
  Sb  Sb85  1  0.00581175  0.82987342  0.49560652  1
  Sb  Sb86  1  0.49715942  0.50100404  -0.00159515  1
  Sb  Sb87  1  0.66322733  0.00398317  0.00708222  1
  Sb  Sb88  1  0.32710515  0.15949662  0.15965703  1
  Sb  Sb89  1  0.16535752  0.50523596  0.66182119  1
  Sb  Sb90  1  0.49595879  0.50382401  0.33417060  1
  Sb  Sb91  1  0.84072774  0.33902095  0.49707955  1
  Sb  Sb92  1  0.33119473  0.66844378  0.33268824  1
  Sb  Sb93  1  0.00699136  -0.00505552  0.67318033  1
  Sb  Sb94  1  0.32884825  0.50330195  0.16628723  1
  Sb  Sb95  1  0.84084739  0.82792766  0.67060593  1
  Sb  Sb96  1  0.16706028  0.67254281  0.16929490  1
  Sb  Sb97  1  0.16780942  0.32809783  0.16798555  1
  Sb  Sb98  1  0.33026013  0.33711340  0.66812779  1
  Sb  Sb99  1  0.67048380  0.50232969  0.50111514  1
  Sb  Sb100  1  0.65875930  -0.00587645  0.66130770  1
  Sb  Sb101  1  0.83828335  0.66542684  0.83172219  1
  Sb  Sb102  1  0.00537724  0.33032301  0.00442561  1
  Sb  Sb103  1  0.49097258  0.33033600  0.84024682  1
  Sb  Sb104  1  0.16497084  0.66481368  0.83034729  1
  Sb  Sb105  1  0.84423984  -0.00316398  0.49224226  1
  Sb  Sb106  1  0.83410588  0.66913239  0.16738871  1
  Sb  Sb107  1  0.16318027  0.50030282  0.00335720  1
  Te  Te108  1  0.16202818  0.16404929  0.16725835  1
  Te  Te109  1  0.16412557  0.16568309  0.49982394  1
  Te  Te110  1  0.16717404  0.16834411  0.83345224  1
  Te  Te111  1  0.16128630  0.50257783  0.17400504  1
  Te  Te112  1  0.16564364  0.50034553  0.49996178  1
  Te  Te113  1  0.16685783  0.49565443  0.83452409  1
  Te  Te114  1  0.16880300  0.83291765  0.16504543  1
  Te  Te115  1  0.16723342  0.83545046  0.49510771  1
  Te  Te116  1  0.16115164  0.83431493  0.83659715  1
  Te  Te117  1  0.50152241  0.16338591  0.16210294  1
  Te  Te118  1  0.50081518  0.16710845  0.49943499  1
  Te  Te119  1  0.49721142  0.16325338  0.83916634  1
  Te  Te120  1  0.50130598  0.50171179  0.16808342  1
  Te  Te121  1  0.49950573  0.50387103  0.50138974  1
  Te  Te122  1  0.49871648  0.49966319  0.82910449  1
  Te  Te123  1  0.49864916  0.83559214  0.16525107  1
  Te  Te124  1  0.49862580  0.82784661  0.49984039  1
  Te  Te125  1  0.50121181  0.83879569  0.83745882  1
  Te  Te126  1  0.83676934  0.16541262  0.16590937  1
  Te  Te127  1  0.84458448  0.16579944  0.49844993  1
  Te  Te128  1  0.83822081  0.16789022  0.83730034  1
  Te  Te129  1  0.83734729  0.50002166  0.16776008  1
  Te  Te130  1  0.83677279  0.50406676  0.49982297  1
  Te  Te131  1  0.83663558  0.49861389  0.83668200  1
  Te  Te132  1  0.83578531  0.83667918  0.16220088  1
  Te  Te133  1  0.83367459  0.82702716  0.49919552  1
  Te  Te134  1  0.84065527  0.83451591  0.84059537  1
  Te  Te135  1  0.16832049  0.00142664  0.00131927  1
  Te  Te136  1  0.16873568  0.00263476  0.32963821  1
  Te  Te137  1  0.17052657  -0.00661998  0.66522847  1
  Te  Te138  1  0.17355982  0.33157575  -0.00086968  1
  Te  Te139  1  0.16684437  0.33111364  0.33160399  1
  Te  Te140  1  0.16662990  0.33025652  0.66595777  1
  Te  Te141  1  0.16582338  0.66817732  0.00016359  1
  Te  Te142  1  0.16709567  0.66663213  0.33889534  1
  Te  Te143  1  0.16748844  0.67024539  0.66497762  1
  Te  Te144  1  0.50287635  0.00083985  0.00493765  1
  Te  Te145  1  0.49319643  -0.00444003  0.32918138  1
  Te  Te146  1  0.49222742  0.00041326  0.66285291  1
  Te  Te147  1  0.49331979  0.33495831  0.00381729  1
  Te  Te148  1  0.49785479  0.33226451  0.32566939  1
  Te  Te149  1  0.50068119  0.34212492  0.66559011  1
  Te  Te150  1  0.50010374  0.66972446  0.00305423  1
  Te  Te151  1  0.50031558  0.67173549  0.33322436  1
  Te  Te152  1  0.49175090  0.66438942  0.66607663  1
  Te  Te153  1  0.82907073  0.00203076  0.00459247  1
  Te  Te154  1  0.83567195  0.00279620  0.32909997  1
  Te  Te155  1  0.82867925  -0.00039452  0.66455589  1
  Te  Te156  1  0.83220405  0.33375201  -0.00026307  1
  Te  Te157  1  0.83378359  0.33152961  0.33232106  1
  Te  Te158  1  0.83088714  0.34065152  0.66679237  1
  Te  Te159  1  0.83529229  0.66422772  0.00015010  1
  Te  Te160  1  0.83231288  0.66447846  0.33801750  1
  Te  Te161  1  0.84086845  0.66528225  0.66340862  1
  Te  Te162  1  0.00439103  0.17134375  0.00300276  1
  Te  Te163  1  0.00353934  0.16743051  0.33008402  1
  Te  Te164  1  -0.00161121  0.16433701  0.67370325  1
  Te  Te165  1  -0.00050083  0.49446696  -0.00266266  1
  Te  Te166  1  0.00150735  0.49873381  0.33377078  1
  Te  Te167  1  -0.00170411  0.50442782  0.67085611  1
  Te  Te168  1  0.00265659  0.83470697  0.00388550  1
  Te  Te169  1  0.00648127  0.83257736  0.32629745  1
  Te  Te170  1  0.00630730  0.82711078  0.66623470  1
  Te  Te171  1  0.32824741  0.16411400  -0.00020184  1
  Te  Te172  1  0.32731431  0.16787722  0.33622730  1
  Te  Te173  1  0.33496320  0.16254024  0.67415722  1
  Te  Te174  1  0.33300652  0.50609778  -0.00321434  1
  Te  Te175  1  0.32980521  0.49621031  0.33585917  1
  Te  Te176  1  0.33285419  0.50252620  0.66697357  1
  Te  Te177  1  0.33083640  0.83363555  0.00061682  1
  Te  Te178  1  0.33030705  0.83517989  0.32936854  1
  Te  Te179  1  0.32725021  0.83191618  0.66830115  1
  Te  Te180  1  0.67126639  0.17247164  -0.00051788  1
  Te  Te181  1  0.67072571  0.16130865  0.33433880  1
  Te  Te182  1  0.66730479  0.16601186  0.66669671  1
  Te  Te183  1  0.67353857  0.49573642  -0.00023334  1
  Te  Te184  1  0.67457027  0.49895954  0.33243556  1
  Te  Te185  1  0.67186609  0.50621238  0.66781950  1
  Te  Te186  1  0.66705790  0.83189531  -0.00128817  1
  Te  Te187  1  0.66821101  0.83931022  0.33334094  1
  Te  Te188  1  0.66792791  0.82621552  0.66709672  1
  Te  Te189  1  0.00263867  0.00084271  0.16074093  1
  Te  Te190  1  0.00690653  -0.00017158  0.50651674  1
  Te  Te191  1  -0.00288767  0.00242151  0.84037513  1
  Te  Te192  1  -0.00028521  0.33888258  0.17432191  1
  Te  Te193  1  0.00490879  0.33428706  0.49683278  1
  Te  Te194  1  0.00755714  0.33331406  0.83133195  1
  Te  Te195  1  -0.00226263  0.66149849  0.15960108  1
  Te  Te196  1  0.00491255  0.66402628  0.49933776  1
  Te  Te197  1  -0.00038965  0.66520346  0.83906697  1
  Te  Te198  1  0.32981963  -0.00126153  0.16408950  1
  Te  Te199  1  0.32562698  0.00050899  0.50124810  1
  Te  Te200  1  0.33561706  0.00000563  0.83626436  1
  Te  Te201  1  0.33527745  0.33639332  0.16714354  1
  Te  Te202  1  0.32717345  0.33822239  0.49836285  1
  Te  Te203  1  0.32836328  0.33408765  0.83496490  1
  Te  Te204  1  0.33575659  0.67026056  0.16184165  1
  Te  Te205  1  0.33110265  0.66369998  0.49927134  1
  Te  Te206  1  0.33257567  0.66194437  0.83539493  1
  Te  Te207  1  0.66511880  -0.00022697  0.17427054  1
  Te  Te208  1  0.66704580  0.00003048  0.49330703  1
  Te  Te209  1  0.65836063  -0.00029198  0.82681947  1
  Te  Te210  1  0.65882462  0.33274499  0.16177698  1
  Te  Te211  1  0.66441424  0.33173838  0.50151052  1
  Te  Te212  1  0.66540312  0.33347235  0.84007990  1
  Te  Te213  1  0.65903907  0.66612762  0.16701883  1
  Te  Te214  1  0.65702452  0.66688426  0.50462667  1
  Te  Te215  1  0.66662656  0.66692815  0.82407804  1
