# generated using pymatgen
data_AgSbTe2
_symmetry_space_group_name_H-M   'P 1'
_cell_length_a   18.33284730
_cell_length_b   18.33733597
_cell_length_c   18.33683510
_cell_angle_alpha   90.00336653
_cell_angle_beta   89.99971162
_cell_angle_gamma   89.99757969
_symmetry_Int_Tables_number   1
_chemical_formula_structural   AgSbTe2
_chemical_formula_sum   'Ag54 Sb54 Te108'
_cell_volume   6164.39616239
_cell_formula_units_Z   54
loop_
 _symmetry_equiv_pos_site_id
 _symmetry_equiv_pos_as_xyz
  1  'x, y, z'
loop_
 _atom_site_type_symbol
 _atom_site_label
 _atom_site_symmetry_multiplicity
 _atom_site_fract_x
 _atom_site_fract_y
 _atom_site_fract_z
 _atom_site_occupancy
  Ag  Ag0  1  0.34327840  0.32457815  0.00174198  1
  Ag  Ag1  1  0.16526079  0.83487596  0.67821081  1
  Ag  Ag2  1  -0.01431840  0.32082750  0.00101774  1
  Ag  Ag3  1  0.83459092  0.16449449  0.67508667  1
  Ag  Ag4  1  0.34305118  0.67614731  0.00170740  1
  Ag  Ag5  1  0.17418956  0.83622088  -0.00264722  1
  Ag  Ag6  1  0.33622440  0.50118328  0.16291396  1
  Ag  Ag7  1  0.82774851  0.33094824  0.15983423  1
  Ag  Ag8  1  0.32777109  0.83777486  0.83977240  1
  Ag  Ag9  1  -0.00717871  0.16285998  0.84430291  1
  Ag  Ag10  1  0.83265268  0.49746473  0.33842783  1
  Ag  Ag11  1  -0.00222024  0.67253980  0.33407462  1
  Ag  Ag12  1  -0.01019645  0.49929410  0.49922599  1
  Ag  Ag13  1  0.67525069  0.16677057  0.84603605  1
  Ag  Ag14  1  0.67247159  0.32690277  0.32001223  1
  Ag  Ag15  1  0.83525717  0.66105559  0.83245243  1
  Ag  Ag16  1  -0.00079125  0.00287033  0.32461963  1
  Ag  Ag17  1  0.16666139  0.67735064  0.15978445  1
  Ag  Ag18  1  0.67203015  0.16420575  0.15801287  1
  Ag  Ag19  1  0.33564217  0.83563813  0.50349896  1
  Ag  Ag20  1  0.16140017  0.16128845  0.32979286  1
  Ag  Ag21  1  0.66103355  0.66819967  0.00071847  1
  Ag  Ag22  1  0.83364486  0.00434059  0.50064932  1
  Ag  Ag23  1  0.51215996  0.16461620  -0.00119301  1
  Ag  Ag24  1  0.83085008  0.32709378  0.84203204  1
  Ag  Ag25  1  -0.00623021  0.16258530  0.49768515  1
  Ag  Ag26  1  0.49691274  0.83680417  -0.00016245  1
  Ag  Ag27  1  0.50288235  0.49865651  0.00060590  1
  Ag  Ag28  1  0.66730968  0.49584590  0.83511386  1
  Ag  Ag29  1  0.50415452  0.50124667  0.67804674  1
  Ag  Ag30  1  0.67292700  0.50216906  0.50252585  1
  Ag  Ag31  1  0.00149876  0.00426739  0.00496339  1
  Ag  Ag32  1  0.66780237  0.83592106  0.49562562  1
  Ag  Ag33  1  0.82691394  0.16783164  -0.00375212  1
  Ag  Ag34  1  0.67002018  0.84203865  0.16318582  1
  Ag  Ag35  1  0.33156105  0.15593567  0.83827230  1
  Ag  Ag36  1  0.66612787  0.32198929  0.00379644  1
  Ag  Ag37  1  -0.00521565  0.16186586  0.15981421  1
  Ag  Ag38  1  0.49936552  0.66400806  0.15966192  1
  Ag  Ag39  1  0.16215999  0.67767678  0.84105917  1
  Ag  Ag40  1  0.32547055  -0.00050171  0.32254597  1
  Ag  Ag41  1  0.51037954  0.33528007  0.16020267  1
  Ag  Ag42  1  0.83283302  0.33407985  0.49820289  1
  Ag  Ag43  1  0.15979568  -0.00351105  0.15970433  1
  Ag  Ag44  1  0.67444931  0.00064441  0.67262092  1
  Ag  Ag45  1  -0.00190312  0.67397367  0.66570689  1
  Ag  Ag46  1  0.67036917  0.00355539  0.32629711  1
  Ag  Ag47  1  0.17054600  -0.00370025  0.84258481  1
  Ag  Ag48  1  -0.00071307  0.84422073  0.16505563  1
  Ag  Ag49  1  0.33343454  -0.00134186  -0.00201434  1
  Ag  Ag50  1  -0.00407402  -0.00025228  0.66893895  1
  Ag  Ag51  1  0.83553008  0.66277959  0.50206611  1
  Ag  Ag52  1  0.49667145  0.00228422  0.83841563  1
  Ag  Ag53  1  0.66413783  0.00811078  0.00027762  1
  Sb  Sb54  1  0.67203683  0.67082864  0.67071412  1
  Sb  Sb55  1  -0.00087111  0.66976470  -0.00067643  1
  Sb  Sb56  1  0.33140977  -0.00119697  0.67329551  1
  Sb  Sb57  1  0.67209570  0.66726800  0.32868659  1
  Sb  Sb58  1  0.16060996  0.49785910  0.33088281  1
  Sb  Sb59  1  0.16672734  0.50803935  0.66860551  1
  Sb  Sb60  1  0.50698729  0.32899363  0.84307327  1
  Sb  Sb61  1  0.15951703  0.67012447  0.49895225  1
  Sb  Sb62  1  0.16121974  0.32869507  0.83845579  1
  Sb  Sb63  1  0.67435648  0.16485014  0.49865749  1
  Sb  Sb64  1  0.32662690  0.16071843  0.50272451  1
  Sb  Sb65  1  0.83177534  0.83870554  -0.00039858  1
  Sb  Sb66  1  0.15678828  0.15787496  0.66809029  1
  Sb  Sb67  1  0.33227262  0.83327456  0.15968804  1
  Sb  Sb68  1  0.66958957  0.33074679  0.67074844  1
  Sb  Sb69  1  0.50119858  0.66975551  0.84139784  1
  Sb  Sb70  1  0.16497258  0.32851574  0.16273863  1
  Sb  Sb71  1  -0.00299967  0.83571812  0.49717183  1
  Sb  Sb72  1  0.16340867  0.15682432  0.00274386  1
  Sb  Sb73  1  0.00183373  0.49803479  0.16781277  1
  Sb  Sb74  1  0.83342773  0.66121638  0.16506816  1
  Sb  Sb75  1  0.83378938  0.00383985  0.83188400  1
  Sb  Sb76  1  0.82642562  0.49313456  0.00108048  1
  Sb  Sb77  1  0.32639888  0.67332168  0.32559143  1
  Sb  Sb78  1  0.51022330  0.33435177  0.49417829  1
  Sb  Sb79  1  -0.00769448  0.32845185  0.32854865  1
  Sb  Sb80  1  0.33698222  0.33264359  0.67654134  1
  Sb  Sb81  1  0.50796246  0.50003170  0.32661600  1
  Sb  Sb82  1  0.33974989  0.50179953  0.84278003  1
  Sb  Sb83  1  0.83693446  0.83781824  0.66659160  1
  Sb  Sb84  1  0.50101754  -0.00030315  0.15678356  1
  Sb  Sb85  1  0.66437852  0.83851294  0.83857718  1
  Sb  Sb86  1  0.50808767  0.16768676  0.67741917  1
  Sb  Sb87  1  0.49814101  0.83116529  0.67267576  1
  Sb  Sb88  1  0.33899636  0.32742088  0.32624469  1
  Sb  Sb89  1  -0.00640846  0.49848994  0.83083252  1
  Sb  Sb90  1  0.33664259  0.50463371  0.49464377  1
  Sb  Sb91  1  -0.00337138  0.32960331  0.67012481  1
  Sb  Sb92  1  0.83511562  0.00618536  0.16928225  1
  Sb  Sb93  1  0.66388747  0.49600378  0.16243712  1
  Sb  Sb94  1  0.16044826  -0.00271945  0.49847878  1
  Sb  Sb95  1  0.83594732  0.16912849  0.33041317  1
  Sb  Sb96  1  0.16570199  0.83878600  0.32841664  1
  Sb  Sb97  1  0.33377447  0.16630449  0.15799274  1
  Sb  Sb98  1  0.49979757  0.16364990  0.32491085  1
  Sb  Sb99  1  0.49978926  0.83531524  0.32464975  1
  Sb  Sb100  1  0.32904001  0.66840620  0.67456531  1
  Sb  Sb101  1  0.50702622  -0.00033714  0.50556985  1
  Sb  Sb102  1  0.83357340  0.83313634  0.33372988  1
  Sb  Sb103  1  0.17209406  0.50721595  0.00099879  1
  Sb  Sb104  1  0.50724139  0.66843386  0.49608196  1
  Sb  Sb105  1  0.82974791  0.49726574  0.66174864  1
  Sb  Sb106  1  0.15777199  0.33159003  0.49881826  1
  Sb  Sb107  1  0.00414406  0.84083895  0.83754593  1
  Te  Te108  1  0.16374103  0.16167303  0.17131063  1
  Te  Te109  1  0.15839744  0.16603427  0.49631149  1
  Te  Te110  1  0.16648276  0.16134533  0.83137383  1
  Te  Te111  1  0.17197616  0.50378174  0.16757296  1
  Te  Te112  1  0.16356105  0.50051754  0.49971195  1
  Te  Te113  1  0.16720016  0.50455222  0.83222328  1
  Te  Te114  1  0.16540289  0.83597769  0.16345070  1
  Te  Te115  1  0.17210658  0.83259211  0.50241530  1
  Te  Te116  1  0.16634654  0.83514503  0.83660382  1
  Te  Te117  1  0.50335779  0.17015800  0.15966837  1
  Te  Te118  1  0.49713827  0.16831618  0.50185520  1
  Te  Te119  1  0.49828327  0.16368564  0.83838518  1
  Te  Te120  1  0.49790662  0.50032806  0.16163614  1
  Te  Te121  1  0.50572618  0.50124707  0.49840690  1
  Te  Te122  1  0.50550186  0.50004150  0.83727561  1
  Te  Te123  1  0.50515455  0.83025076  0.15985723  1
  Te  Te124  1  0.50185788  0.83254691  0.50168962  1
  Te  Te125  1  0.49470068  0.83776659  0.83827548  1
  Te  Te126  1  0.83345045  0.17144900  0.16392089  1
  Te  Te127  1  0.83569771  0.16544841  0.49918195  1
  Te  Te128  1  0.83394961  0.16618862  0.83471129  1
  Te  Te129  1  0.83419830  0.49293304  0.17362431  1
  Te  Te130  1  0.83275786  0.50108548  0.50135359  1
  Te  Te131  1  0.82793462  0.49852869  0.83126760  1
  Te  Te132  1  0.83183114  0.82939782  0.16671184  1
  Te  Te133  1  0.82879337  0.83140664  0.50050957  1
  Te  Te134  1  0.83342559  0.82181932  0.83229915  1
  Te  Te135  1  0.16479047  -0.00331218  0.00051242  1
  Te  Te136  1  0.16383375  0.00211232  0.33221557  1
  Te  Te137  1  0.16230697  -0.00544758  0.66871477  1
  Te  Te138  1  0.17402795  0.33837194  0.00007791  1
  Te  Te139  1  0.16885329  0.32625170  0.33154456  1
  Te  Te140  1  0.16769359  0.33410652  0.66807007  1
  Te  Te141  1  0.16480102  0.67253446  0.00044679  1
  Te  Te142  1  0.15880674  0.66682154  0.32760538  1
  Te  Te143  1  0.16140900  0.67320725  0.66953037  1
  Te  Te144  1  0.50147491  0.00048342  -0.00156334  1
  Te  Te145  1  0.50519307  0.00006980  0.33566303  1
  Te  Te146  1  0.50498611  -0.00021845  0.67490614  1
  Te  Te147  1  0.50236222  0.33262457  0.00152074  1
  Te  Te148  1  0.50807961  0.33175555  0.32434175  1
  Te  Te149  1  0.50145413  0.34055815  0.66416146  1
  Te  Te150  1  0.49978881  0.66754344  0.00140934  1
  Te  Te151  1  0.49728485  0.66691570  0.32374530  1
  Te  Te152  1  0.50026635  0.66209691  0.66582600  1
  Te  Te153  1  0.83344575  0.00561608  0.00016372  1
  Te  Te154  1  0.83289548  -0.00029969  0.33832675  1
  Te  Te155  1  0.83446290  0.00269013  0.66469320  1
  Te  Te156  1  0.82881109  0.33127538  -0.00017760  1
  Te  Te157  1  0.82934616  0.33604495  0.33793464  1
  Te  Te158  1  0.83369941  0.32618631  0.66249651  1
  Te  Te159  1  0.83041463  0.66464847  -0.00327027  1
  Te  Te160  1  0.83843294  0.66154329  0.33538475  1
  Te  Te161  1  0.83791126  0.66682528  0.66649715  1
  Te  Te162  1  0.00200729  0.16519090  0.00073472  1
  Te  Te163  1  0.00142415  0.16381568  0.33427912  1
  Te  Te164  1  -0.00515474  0.16283219  0.66254806  1
  Te  Te165  1  0.00018289  0.49474030  -0.00098821  1
  Te  Te166  1  -0.00414887  0.49834491  0.33723619  1
  Te  Te167  1  0.00076753  0.50268306  0.66144848  1
  Te  Te168  1  -0.00033622  0.83813799  0.00556481  1
  Te  Te169  1  0.00005176  0.83660859  0.32790900  1
  Te  Te170  1  0.00322740  0.83523066  0.66604609  1
  Te  Te171  1  0.33079009  0.16282852  -0.00382017  1
  Te  Te172  1  0.32985882  0.15890483  0.33480899  1
  Te  Te173  1  0.33395122  0.16760961  0.67380559  1
  Te  Te174  1  0.33934891  0.50209536  0.00380034  1
  Te  Te175  1  0.33331133  0.49905390  0.32788811  1
  Te  Te176  1  0.34078978  0.50054021  0.66414034  1
  Te  Te177  1  0.33429533  0.83636518  -0.00047226  1
  Te  Te178  1  0.33309255  0.84097951  0.33913136  1
  Te  Te179  1  0.33015503  0.83221658  0.66663280  1
  Te  Te180  1  0.66744176  0.16621183  0.00123223  1
  Te  Te181  1  0.66554231  0.16537111  0.33039130  1
  Te  Te182  1  0.67209152  0.16083923  0.66798044  1
  Te  Te183  1  0.66356762  0.50620106  -0.00311075  1
  Te  Te184  1  0.67152138  0.49959320  0.33772179  1
  Te  Te185  1  0.66367555  0.50178471  0.66781091  1
  Te  Te186  1  0.66574468  0.83139455  0.00266397  1
  Te  Te187  1  0.66642584  0.83623479  0.33134000  1
  Te  Te188  1  0.66585185  0.83907356  0.66397553  1
  Te  Te189  1  -0.00197607  0.00183960  0.16613225  1
  Te  Te190  1  -0.00463184  0.00070652  0.50145813  1
  Te  Te191  1  0.00030224  0.00305415  0.83213167  1
  Te  Te192  1  -0.00212721  0.32915763  0.16129783  1
  Te  Te193  1  -0.00588759  0.33392252  0.49973917  1
  Te  Te194  1  -0.00638168  0.32821327  0.83787809  1
  Te  Te195  1  0.00200548  0.66526635  0.16875788  1
  Te  Te196  1  -0.00370257  0.66782701  0.49882273  1
  Te  Te197  1  0.00040997  0.66588643  0.83106872  1
  Te  Te198  1  0.33154416  0.00009319  0.16533508  1
  Te  Te199  1  0.33478613  -0.00327191  0.50177152  1
  Te  Te200  1  0.33170892  -0.00224394  0.83559331  1
  Te  Te201  1  0.33399132  0.33553268  0.16197143  1
  Te  Te202  1  0.33309008  0.33395470  0.49834971  1
  Te  Te203  1  0.33192643  0.33275765  0.84200600  1
  Te  Te204  1  0.33104650  0.66695170  0.16273965  1
  Te  Te205  1  0.33446482  0.67072115  0.49800643  1
  Te  Te206  1  0.32860522  0.66932589  0.84053042  1
  Te  Te207  1  0.66713238  0.00174744  0.16473854  1
  Te  Te208  1  0.67090863  -0.00214989  0.49803872  1
  Te  Te209  1  0.66724372  0.00276183  0.83709091  1
  Te  Te210  1  0.66778157  0.33454182  0.16465034  1
  Te  Te211  1  0.67258398  0.33715872  0.50128421  1
  Te  Te212  1  0.67093218  0.33149281  0.83636209  1
  Te  Te213  1  0.66543728  0.66757979  0.16317670  1
  Te  Te214  1  0.67280540  0.66789682  0.49930095  1
  Te  Te215  1  0.66888965  0.66674936  0.83636923  1
