# generated using pymatgen
data_AgSbTe2
_symmetry_space_group_name_H-M   'P 1'
_cell_length_a   18.34099615
_cell_length_b   18.33625159
_cell_length_c   18.34386075
_cell_angle_alpha   90.00426457
_cell_angle_beta   90.00238699
_cell_angle_gamma   90.00143168
_symmetry_Int_Tables_number   1
_chemical_formula_structural   AgSbTe2
_chemical_formula_sum   'Ag54 Sb54 Te108'
_cell_volume   6169.13426195
_cell_formula_units_Z   54
loop_
 _symmetry_equiv_pos_site_id
 _symmetry_equiv_pos_as_xyz
  1  'x, y, z'
loop_
 _atom_site_type_symbol
 _atom_site_label
 _atom_site_symmetry_multiplicity
 _atom_site_fract_x
 _atom_site_fract_y
 _atom_site_fract_z
 _atom_site_occupancy
  Ag  Ag0  1  0.49209426  0.17286873  0.00142186  1
  Ag  Ag1  1  0.84634683  0.66968860  0.83580753  1
  Ag  Ag2  1  0.32724742  0.67323992  0.68038326  1
  Ag  Ag3  1  0.33427891  0.83495248  0.50819615  1
  Ag  Ag4  1  0.65682238  0.17505131  0.16445567  1
  Ag  Ag5  1  0.00686600  0.17558642  0.16217987  1
  Ag  Ag6  1  0.82872250  0.00029019  0.16350778  1
  Ag  Ag7  1  0.83495259  0.82993135  -0.00474501  1
  Ag  Ag8  1  0.66005400  0.83008455  0.83707060  1
  Ag  Ag9  1  0.83284452  0.33099865  0.50274862  1
  Ag  Ag10  1  0.66982122  0.33316356  0.67340680  1
  Ag  Ag11  1  0.00012000  0.33564120  0.67437323  1
  Ag  Ag12  1  0.65914771  0.66658378  0.00208905  1
  Ag  Ag13  1  0.16765370  0.66277589  0.83818497  1
  Ag  Ag14  1  0.17500626  0.82958521  0.32556440  1
  Ag  Ag15  1  0.65402643  0.33735977  0.00154452  1
  Ag  Ag16  1  0.50191319  0.49549711  0.00135871  1
  Ag  Ag17  1  0.00811966  -0.00142907  0.67597665  1
  Ag  Ag18  1  0.49433753  0.82975465  0.32210586  1
  Ag  Ag19  1  0.16463355  0.50495259  0.67403548  1
  Ag  Ag20  1  0.33594904  0.17055201  0.15524892  1
  Ag  Ag21  1  0.17213461  0.16929273  0.00057303  1
  Ag  Ag22  1  0.32807594  0.66980795  0.32241246  1
  Ag  Ag23  1  0.16937806  0.34202461  0.83806896  1
  Ag  Ag24  1  0.16758856  0.82461328  0.00129570  1
  Ag  Ag25  1  0.33154179  0.16791993  0.83587384  1
  Ag  Ag26  1  0.00847674  0.66407615  0.68007315  1
  Ag  Ag27  1  -0.00101850  0.34023276  0.31916544  1
  Ag  Ag28  1  0.49795531  0.82973292  0.00242262  1
  Ag  Ag29  1  0.16935333  0.66234705  0.15660229  1
  Ag  Ag30  1  0.83289550  0.83276976  0.67683451  1
  Ag  Ag31  1  0.66884701  0.33937207  0.32019501  1
  Ag  Ag32  1  0.16850459  -0.00189950  0.51377245  1
  Ag  Ag33  1  0.66012018  0.83163987  0.50480967  1
  Ag  Ag34  1  0.50980612  0.33210597  0.16241970  1
  Ag  Ag35  1  0.00585426  0.66295912  0.32176783  1
  Ag  Ag36  1  0.50020582  0.00390468  0.16156413  1
  Ag  Ag37  1  0.00637044  0.50028689  0.84003160  1
  Ag  Ag38  1  0.49465674  0.16797955  0.67799992  1
  Ag  Ag39  1  0.49341407  0.66715334  0.16132185  1
  Ag  Ag40  1  0.33310345  0.15901094  0.50615222  1
  Ag  Ag41  1  0.49165282  0.33082644  0.84361109  1
  Ag  Ag42  1  0.00053325  0.49715276  0.15786150  1
  Ag  Ag43  1  0.33326529  0.82812254  0.83369619  1
  Ag  Ag44  1  0.66726174  0.49643003  0.16347399  1
  Ag  Ag45  1  0.16866427  -0.00632780  0.83517875  1
  Ag  Ag46  1  0.32982363  -0.00418186  0.66919849  1
  Ag  Ag47  1  0.00730693  0.66456750  -0.00053325  1
  Ag  Ag48  1  0.00431191  0.33764308  0.00083528  1
  Ag  Ag49  1  0.00393929  -0.00453614  -0.00190916  1
  Ag  Ag50  1  0.32694421  0.67132966  -0.00012275  1
  Ag  Ag51  1  0.15730638  0.33692431  0.15862894  1
  Ag  Ag52  1  0.32445556  0.50697702  0.83578550  1
  Ag  Ag53  1  0.66287832  0.66536219  0.31966662  1
  Sb  Sb54  1  0.66679696  0.50163816  0.49570330  1
  Sb  Sb55  1  0.66489582  -0.00202872  0.32932175  1
  Sb  Sb56  1  0.49342921  0.66440422  0.84256596  1
  Sb  Sb57  1  0.16913754  -0.00016879  0.15935825  1
  Sb  Sb58  1  0.00056065  0.49904062  0.50044332  1
  Sb  Sb59  1  0.83785444  0.50333767  0.66905248  1
  Sb  Sb60  1  0.66586660  0.50227095  0.83912326  1
  Sb  Sb61  1  0.16364753  0.32781428  0.50118584  1
  Sb  Sb62  1  0.49921733  0.66970590  0.49214006  1
  Sb  Sb63  1  0.49583634  -0.00231738  0.49798122  1
  Sb  Sb64  1  0.16681958  0.50412995  0.33369968  1
  Sb  Sb65  1  0.50253554  0.33105053  0.49862743  1
  Sb  Sb66  1  0.83297099  0.16512427  0.66779210  1
  Sb  Sb67  1  0.83401871  0.50468328  0.00017135  1
  Sb  Sb68  1  0.16874393  0.16546436  0.32515337  1
  Sb  Sb69  1  0.33278839  0.33713219  0.32908521  1
  Sb  Sb70  1  0.00530484  0.82539945  0.83586018  1
  Sb  Sb71  1  0.33215535  -0.00569397  0.33550895  1
  Sb  Sb72  1  0.33294794  0.33560809  -0.00209366  1
  Sb  Sb73  1  0.00408779  0.83285659  0.50180829  1
  Sb  Sb74  1  0.33167416  0.33100510  0.67109654  1
  Sb  Sb75  1  0.49568765  0.49686118  0.67733940  1
  Sb  Sb76  1  0.33415577  0.83291930  0.16279791  1
  Sb  Sb77  1  0.66423860  0.82966126  0.16328705  1
  Sb  Sb78  1  0.33253181  0.50041424  0.15833246  1
  Sb  Sb79  1  0.33193935  0.50453693  0.50785481  1
  Sb  Sb80  1  0.65892279  0.16651298  0.83771747  1
  Sb  Sb81  1  0.83365362  0.66592956  0.50406724  1
  Sb  Sb82  1  0.49810533  0.83475474  0.67101905  1
  Sb  Sb83  1  0.00723718  0.17203977  0.83979182  1
  Sb  Sb84  1  0.83506261  0.16329217  0.00198727  1
  Sb  Sb85  1  0.83658992  0.33741393  0.83335704  1
  Sb  Sb86  1  0.83555961  0.49934452  0.33149086  1
  Sb  Sb87  1  0.83428533  0.33005366  0.16593111  1
  Sb  Sb88  1  0.83553668  0.67070483  0.15940956  1
  Sb  Sb89  1  0.66845366  -0.00239239  0.00135161  1
  Sb  Sb90  1  0.83777237  0.00048451  0.50010913  1
  Sb  Sb91  1  0.16768771  0.67165968  0.50133617  1
  Sb  Sb92  1  0.17049873  0.16554123  0.67533601  1
  Sb  Sb93  1  0.16915077  0.50097807  -0.00575354  1
  Sb  Sb94  1  0.66099628  0.16639224  0.49784037  1
  Sb  Sb95  1  0.00050788  0.83114254  0.16163872  1
  Sb  Sb96  1  0.83315822  0.16960472  0.32957844  1
  Sb  Sb97  1  0.50001607  0.50385841  0.32269061  1
  Sb  Sb98  1  0.32896360  -0.00259761  -0.00427877  1
  Sb  Sb99  1  0.83205528  0.83055410  0.33054017  1
  Sb  Sb100  1  0.66443275  0.00135323  0.66849062  1
  Sb  Sb101  1  0.00306806  -0.00069924  0.32734318  1
  Sb  Sb102  1  0.84215599  -0.00834349  0.83690728  1
  Sb  Sb103  1  0.66554261  0.66557824  0.67136126  1
  Sb  Sb104  1  0.49333797  0.00138841  0.83837093  1
  Sb  Sb105  1  0.16642860  0.83244185  0.67232786  1
  Sb  Sb106  1  0.49813095  0.16490193  0.32527235  1
  Sb  Sb107  1  0.00564241  0.16757162  0.49738226  1
  Te  Te108  1  0.16776373  0.16931515  0.16142490  1
  Te  Te109  1  0.17347467  0.15958775  0.49650406  1
  Te  Te110  1  0.17083617  0.16996667  0.84044727  1
  Te  Te111  1  0.16329571  0.49940836  0.17024334  1
  Te  Te112  1  0.16717490  0.49701246  0.50953415  1
  Te  Te113  1  0.16671904  0.49929421  0.83204961  1
  Te  Te114  1  0.16725318  0.82768222  0.16427469  1
  Te  Te115  1  0.17128589  0.83862022  0.49763444  1
  Te  Te116  1  0.17208945  0.83159909  0.83716332  1
  Te  Te117  1  0.49712597  0.17037002  0.16418123  1
  Te  Te118  1  0.49346512  0.16497496  0.50146968  1
  Te  Te119  1  0.49563604  0.16916655  0.83711891  1
  Te  Te120  1  0.50007838  0.49873633  0.15969748  1
  Te  Te121  1  0.50011228  0.50040611  0.50177394  1
  Te  Te122  1  0.49817397  0.49224137  0.84058014  1
  Te  Te123  1  0.50062300  0.82850243  0.16464273  1
  Te  Te124  1  0.49877186  0.83412941  0.49993697  1
  Te  Te125  1  0.49737964  0.83387324  0.83812694  1
  Te  Te126  1  0.83518990  0.16038123  0.16635728  1
  Te  Te127  1  0.83212622  0.16990818  0.49998488  1
  Te  Te128  1  0.82941958  0.16392577  0.83277239  1
  Te  Te129  1  0.83451315  0.50041594  0.16711440  1
  Te  Te130  1  0.83200606  0.49239278  0.50174886  1
  Te  Te131  1  0.84074756  0.50781953  0.83256319  1
  Te  Te132  1  0.83242938  0.84058117  0.16245535  1
  Te  Te133  1  0.83053058  0.83462981  0.50087571  1
  Te  Te134  1  0.83328502  0.82941540  0.83519747  1
  Te  Te135  1  0.16274720  -0.00097493  -0.00362543  1
  Te  Te136  1  0.16540335  -0.00716205  0.33259453  1
  Te  Te137  1  0.16703285  -0.00050256  0.67137039  1
  Te  Te138  1  0.16629444  0.33284283  0.00009149  1
  Te  Te139  1  0.16241060  0.33442054  0.33231866  1
  Te  Te140  1  0.16193585  0.33310522  0.66804374  1
  Te  Te141  1  0.16682644  0.66471024  -0.00003417  1
  Te  Te142  1  0.16567303  0.66999612  0.33605738  1
  Te  Te143  1  0.16727382  0.66656014  0.66654725  1
  Te  Te144  1  0.50107303  -0.00246436  0.00453380  1
  Te  Te145  1  0.49952742  -0.00635650  0.32599110  1
  Te  Te146  1  0.49532442  0.00555985  0.66702575  1
  Te  Te147  1  0.49703279  0.33287981  0.00079641  1
  Te  Te148  1  0.50318990  0.33458534  0.32835794  1
  Te  Te149  1  0.50160512  0.32929550  0.66631248  1
  Te  Te150  1  0.50219250  0.67021402  0.00151292  1
  Te  Te151  1  0.50340703  0.66929133  0.32607863  1
  Te  Te152  1  0.49428150  0.66542771  0.66659852  1
  Te  Te153  1  0.83853553  -0.00535785  0.00313075  1
  Te  Te154  1  0.83396821  -0.00028676  0.32700045  1
  Te  Te155  1  0.83576608  -0.00651458  0.66652811  1
  Te  Te156  1  0.83787728  0.33211277  -0.00154150  1
  Te  Te157  1  0.83430862  0.33359156  0.33644390  1
  Te  Te158  1  0.83450922  0.33283166  0.66587827  1
  Te  Te159  1  0.83564207  0.67111753  -0.00455236  1
  Te  Te160  1  0.83472480  0.66696016  0.33602134  1
  Te  Te161  1  0.83258161  0.67236846  0.67137468  1
  Te  Te162  1  0.00082799  0.17103389  0.00333994  1
  Te  Te163  1  0.00101854  0.17080975  0.32771790  1
  Te  Te164  1  -0.00052077  0.16800473  0.66542294  1
  Te  Te165  1  -0.00111158  0.50014638  -0.00027385  1
  Te  Te166  1  0.00138399  0.49984881  0.33137832  1
  Te  Te167  1  0.00290807  0.50213069  0.66684939  1
  Te  Te168  1  0.00338015  0.83116389  -0.00061254  1
  Te  Te169  1  0.00194446  0.82909476  0.33373922  1
  Te  Te170  1  -0.00250488  0.83182462  0.66720926  1
  Te  Te171  1  0.33203932  0.16360724  -0.00192984  1
  Te  Te172  1  0.33364934  0.16868194  0.33735237  1
  Te  Te173  1  0.33474929  0.16495571  0.66900844  1
  Te  Te174  1  0.33952887  0.50842874  -0.00542770  1
  Te  Te175  1  0.33376923  0.50998120  0.33795019  1
  Te  Te176  1  0.32879822  0.50534320  0.67430948  1
  Te  Te177  1  0.33225022  0.83210843  -0.00313535  1
  Te  Te178  1  0.33413701  0.82818765  0.33025868  1
  Te  Te179  1  0.33335828  0.83404329  0.66796583  1
  Te  Te180  1  0.66497868  0.16886880  0.00502549  1
  Te  Te181  1  0.66557620  0.17199484  0.32796658  1
  Te  Te182  1  0.66170217  0.17172064  0.66619210  1
  Te  Te183  1  0.66574029  0.49916910  0.00202884  1
  Te  Te184  1  0.66659234  0.50103138  0.32803838  1
  Te  Te185  1  0.66540969  0.49325194  0.66675127  1
  Te  Te186  1  0.66410114  0.83176193  -0.00274544  1
  Te  Te187  1  0.66421826  0.82855368  0.33316794  1
  Te  Te188  1  0.66831390  0.83301380  0.66795359  1
  Te  Te189  1  0.00149715  0.00253430  0.16066168  1
  Te  Te190  1  0.00603303  0.00126735  0.50448827  1
  Te  Te191  1  0.00738000  0.00472952  0.83560575  1
  Te  Te192  1  -0.00091880  0.33499497  0.16355756  1
  Te  Te193  1  -0.00449155  0.33174540  0.50503520  1
  Te  Te194  1  0.00200361  0.33795588  0.83480564  1
  Te  Te195  1  0.00222961  0.66343736  0.16296199  1
  Te  Te196  1  -0.00107369  0.66618849  0.49638153  1
  Te  Te197  1  0.00588653  0.66478325  0.83628518  1
  Te  Te198  1  0.33885958  0.00805258  0.16764485  1
  Te  Te199  1  0.33044929  -0.00348040  0.50178099  1
  Te  Te200  1  0.32980213  0.00063609  0.82915981  1
  Te  Te201  1  0.32861224  0.33179053  0.16796033  1
  Te  Te202  1  0.33328436  0.33111900  0.49842925  1
  Te  Te203  1  0.33158798  0.33103789  0.83258884  1
  Te  Te204  1  0.33112746  0.66636825  0.16329994  1
  Te  Te205  1  0.33415325  0.67259022  0.49893839  1
  Te  Te206  1  0.32996618  0.66744238  0.83716863  1
  Te  Te207  1  0.66301304  0.00631621  0.16645819  1
  Te  Te208  1  0.66819434  -0.00676155  0.49922600  1
  Te  Te209  1  0.66775124  -0.00639795  0.83287511  1
  Te  Te210  1  0.66875069  0.33516498  0.16338913  1
  Te  Te211  1  0.67083370  0.33289593  0.50222015  1
  Te  Te212  1  0.66721055  0.33363056  0.83589683  1
  Te  Te213  1  0.66868788  0.66288023  0.16297857  1
  Te  Te214  1  0.66687614  0.67080217  0.50019624  1
  Te  Te215  1  0.66404336  0.66984520  0.83832109  1
