# generated using pymatgen
data_AgSbTe2
_symmetry_space_group_name_H-M   'P 1'
_cell_length_a   18.32231279
_cell_length_b   18.32125550
_cell_length_c   18.32584478
_cell_angle_alpha   90.00344525
_cell_angle_beta   89.99838936
_cell_angle_gamma   90.00407674
_symmetry_Int_Tables_number   1
_chemical_formula_structural   AgSbTe2
_chemical_formula_sum   'Ag54 Sb54 Te108'
_cell_volume   6151.76201114
_cell_formula_units_Z   54
loop_
 _symmetry_equiv_pos_site_id
 _symmetry_equiv_pos_as_xyz
  1  'x, y, z'
loop_
 _atom_site_type_symbol
 _atom_site_label
 _atom_site_symmetry_multiplicity
 _atom_site_fract_x
 _atom_site_fract_y
 _atom_site_fract_z
 _atom_site_occupancy
  Ag  Ag0  1  0.83656749  -0.00018769  0.50406414  1
  Ag  Ag1  1  0.33376692  0.66616026  -0.00161503  1
  Ag  Ag2  1  0.49666273  0.66230472  0.49609126  1
  Ag  Ag3  1  0.65395450  0.16275325  0.15704510  1
  Ag  Ag4  1  0.00952885  -0.00217187  -0.00131647  1
  Ag  Ag5  1  0.16855858  -0.00402557  0.84461441  1
  Ag  Ag6  1  0.49349008  0.83711067  0.33057656  1
  Ag  Ag7  1  0.83816845  0.66618855  0.16611388  1
  Ag  Ag8  1  -0.00040778  0.83246049  0.49179641  1
  Ag  Ag9  1  0.82946233  0.16562276  0.66898481  1
  Ag  Ag10  1  0.16965833  0.67746110  0.83366480  1
  Ag  Ag11  1  0.66731830  0.49564267  0.83427787  1
  Ag  Ag12  1  0.32651308  0.83442215  0.84073818  1
  Ag  Ag13  1  0.00256184  0.83048279  0.17120326  1
  Ag  Ag14  1  0.66957707  0.00681135  0.67400464  1
  Ag  Ag15  1  0.16690449  0.83657809  0.33021121  1
  Ag  Ag16  1  0.66722292  0.15994044  0.83696124  1
  Ag  Ag17  1  0.00715768  0.50858956  0.17212387  1
  Ag  Ag18  1  0.49677257  0.49862697  0.00447006  1
  Ag  Ag19  1  0.84627757  0.83524565  0.33513801  1
  Ag  Ag20  1  0.82378077  0.16250628  -0.00393874  1
  Ag  Ag21  1  0.33407800  0.32187695  0.33133249  1
  Ag  Ag22  1  0.33077886  0.49625600  0.17490282  1
  Ag  Ag23  1  0.49412510  0.00238638  0.16282620  1
  Ag  Ag24  1  0.00118453  0.67020708  0.33219153  1
  Ag  Ag25  1  0.17152390  -0.00045602  0.16276292  1
  Ag  Ag26  1  0.82683569  0.00135073  0.83437114  1
  Ag  Ag27  1  0.17457822  0.15643231  0.00147789  1
  Ag  Ag28  1  0.33602367  0.16500401  0.17413930  1
  Ag  Ag29  1  0.82972536  0.32927382  0.50254575  1
  Ag  Ag30  1  0.17621263  0.15324491  0.33295762  1
  Ag  Ag31  1  0.50151049  -0.00041144  0.84465594  1
  Ag  Ag32  1  0.00849049  0.50523971  0.49416098  1
  Ag  Ag33  1  0.82840713  0.49500161  -0.00280673  1
  Ag  Ag34  1  0.17103837  0.83764231  -0.00303274  1
  Ag  Ag35  1  0.66913468  0.83730348  0.49745265  1
  Ag  Ag36  1  0.33540240  0.33331988  0.00798036  1
  Ag  Ag37  1  0.17373133  0.50229209  0.33656187  1
  Ag  Ag38  1  0.16618575  0.49799431  0.65985855  1
  Ag  Ag39  1  0.48835755  0.16128861  0.32688899  1
  Ag  Ag40  1  0.00990032  0.83709523  0.84256722  1
  Ag  Ag41  1  0.49051526  0.49868297  0.33223838  1
  Ag  Ag42  1  0.49871007  0.15931384  0.00677411  1
  Ag  Ag43  1  0.49233205  0.84373379  0.00405437  1
  Ag  Ag44  1  0.33101182  0.66477433  0.66846081  1
  Ag  Ag45  1  0.33187025  0.17047433  0.48840609  1
  Ag  Ag46  1  0.66845939  0.32641871  0.66633846  1
  Ag  Ag47  1  0.83392760  0.49451612  0.66701048  1
  Ag  Ag48  1  0.33072943  0.49678042  0.49058781  1
  Ag  Ag49  1  0.49839957  0.33598939  0.49688721  1
  Ag  Ag50  1  0.16766267  0.16459966  0.66582127  1
  Ag  Ag51  1  0.33059844  0.00952480  0.33418532  1
  Ag  Ag52  1  0.66306367  0.00331859  -0.00447853  1
  Ag  Ag53  1  0.16393460  0.00059866  0.49621230  1
  Sb  Sb54  1  0.83801475  0.67077596  0.83711214  1
  Sb  Sb55  1  0.00888270  -0.00645441  0.32995270  1
  Sb  Sb56  1  -0.00462892  0.33390036  0.66311235  1
  Sb  Sb57  1  0.00413092  0.67216124  0.00465767  1
  Sb  Sb58  1  0.49469474  0.67184419  0.83298996  1
  Sb  Sb59  1  0.83219412  0.66882983  0.49786823  1
  Sb  Sb60  1  0.17062897  0.66756470  0.50162408  1
  Sb  Sb61  1  0.50064445  0.16505001  0.66638597  1
  Sb  Sb62  1  0.83328730  0.83673602  0.66248729  1
  Sb  Sb63  1  0.66405995  0.50111261  0.50344342  1
  Sb  Sb64  1  0.66258544  0.67061281  -0.00053183  1
  Sb  Sb65  1  0.33369555  -0.00163636  0.66280014  1
  Sb  Sb66  1  0.33143559  0.83240186  0.49944635  1
  Sb  Sb67  1  0.33641022  0.33621629  0.66264803  1
  Sb  Sb68  1  0.66218041  0.49490964  0.16127976  1
  Sb  Sb69  1  0.83362062  0.33597387  0.17014613  1
  Sb  Sb70  1  0.49883034  0.00072840  0.49643624  1
  Sb  Sb71  1  0.49906795  0.83545299  0.66550378  1
  Sb  Sb72  1  0.17042619  0.32758810  0.16781914  1
  Sb  Sb73  1  0.32926273  0.83611631  0.16365174  1
  Sb  Sb74  1  0.49737620  0.32596530  0.17013369  1
  Sb  Sb75  1  0.16670518  0.83680140  0.66828356  1
  Sb  Sb76  1  0.00451960  0.16344057  0.49906688  1
  Sb  Sb77  1  0.65861354  0.33183936  0.33882026  1
  Sb  Sb78  1  0.66338613  0.16241761  0.50154514  1
  Sb  Sb79  1  0.66137267  -0.00056577  0.33229046  1
  Sb  Sb80  1  0.83368561  0.16099290  0.33384531  1
  Sb  Sb81  1  0.16947038  0.50238947  0.00283878  1
  Sb  Sb82  1  0.49853107  0.49972223  0.66572462  1
  Sb  Sb83  1  -0.00241227  0.15848321  0.83474482  1
  Sb  Sb84  1  0.66835859  0.66778826  0.33379924  1
  Sb  Sb85  1  0.33339059  0.00167720  0.00626874  1
  Sb  Sb86  1  -0.00139671  0.50758191  0.83418050  1
  Sb  Sb87  1  0.66380149  0.66678085  0.66603686  1
  Sb  Sb88  1  0.33566558  0.15876987  0.83737461  1
  Sb  Sb89  1  0.00498057  0.66625227  0.66205785  1
  Sb  Sb90  1  0.66144183  0.32585050  -0.00416452  1
  Sb  Sb91  1  0.66849688  0.83885895  0.16978869  1
  Sb  Sb92  1  0.32986275  0.66552369  0.33161169  1
  Sb  Sb93  1  0.00640371  0.33889441  0.33521901  1
  Sb  Sb94  1  0.00523402  0.16176552  0.16541531  1
  Sb  Sb95  1  0.33529089  0.50505221  0.83470576  1
  Sb  Sb96  1  0.50064761  0.32935051  0.83222188  1
  Sb  Sb97  1  0.83547077  0.50301140  0.33471387  1
  Sb  Sb98  1  0.66600865  0.83910228  0.83170796  1
  Sb  Sb99  1  0.83498374  -0.00263343  0.16542601  1
  Sb  Sb100  1  0.00282215  0.32986103  0.00242653  1
  Sb  Sb101  1  0.83491511  0.83799741  0.00327780  1
  Sb  Sb102  1  0.83107729  0.32703975  0.83009344  1
  Sb  Sb103  1  -0.00203114  -0.00059213  0.67065256  1
  Sb  Sb104  1  0.16883664  0.32881662  0.83359395  1
  Sb  Sb105  1  0.16610787  0.67140466  0.16531160  1
  Sb  Sb106  1  0.16944876  0.33160269  0.49849721  1
  Sb  Sb107  1  0.49974351  0.67029723  0.16895989  1
  Te  Te108  1  0.17009056  0.16161541  0.16603277  1
  Te  Te109  1  0.16964710  0.16577711  0.49891838  1
  Te  Te110  1  0.16615817  0.16083096  0.83390310  1
  Te  Te111  1  0.16804706  0.50092928  0.16922931  1
  Te  Te112  1  0.16782227  0.50011309  0.49951266  1
  Te  Te113  1  0.16562727  0.49993567  0.83008243  1
  Te  Te114  1  0.16394607  0.83676816  0.16815201  1
  Te  Te115  1  0.16380404  0.83614484  0.49813617  1
  Te  Te116  1  0.16681048  0.83588429  0.83218981  1
  Te  Te117  1  0.49621746  0.16399989  0.16668936  1
  Te  Te118  1  0.49547949  0.16922145  0.49622074  1
  Te  Te119  1  0.50401280  0.16207137  0.83713442  1
  Te  Te120  1  0.49644004  0.50219585  0.16671487  1
  Te  Te121  1  0.49843036  0.49954625  0.49863188  1
  Te  Te122  1  0.50406949  0.50107549  0.83617833  1
  Te  Te123  1  0.50036867  0.83787918  0.16704830  1
  Te  Te124  1  0.49949992  0.83276950  0.49581011  1
  Te  Te125  1  0.49875108  0.83792069  0.83785451  1
  Te  Te126  1  0.83648833  0.16684746  0.16319442  1
  Te  Te127  1  0.83429255  0.16405366  0.50249667  1
  Te  Te128  1  0.83124501  0.16143542  0.83307696  1
  Te  Te129  1  0.83182190  0.50309737  0.16443608  1
  Te  Te130  1  0.83226739  0.50015748  0.50286779  1
  Te  Te131  1  0.83211312  0.50207466  0.83460252  1
  Te  Te132  1  0.83634313  0.82965626  0.17167372  1
  Te  Te133  1  0.83560181  0.83569519  0.49631326  1
  Te  Te134  1  0.83573860  0.83963147  0.83290279  1
  Te  Te135  1  0.16930844  -0.00172549  0.00151438  1
  Te  Te136  1  0.16845098  -0.00255636  0.33510029  1
  Te  Te137  1  0.16659545  0.00489690  0.65939250  1
  Te  Te138  1  0.17193451  0.32748539  -0.00018866  1
  Te  Te139  1  0.17399560  0.34110768  0.33325120  1
  Te  Te140  1  0.16725682  0.33282476  0.66640161  1
  Te  Te141  1  0.17106618  0.67120802  -0.00417848  1
  Te  Te142  1  0.16265778  0.66786726  0.33374032  1
  Te  Te143  1  0.17087246  0.66251716  0.67033850  1
  Te  Te144  1  0.49746248  0.00085038  0.00130966  1
  Te  Te145  1  0.49554161  -0.00008402  0.33101496  1
  Te  Te146  1  0.50596993  0.00053684  0.67121063  1
  Te  Te147  1  0.49550065  0.33847045  -0.00055410  1
  Te  Te148  1  0.49467064  0.33549395  0.33696218  1
  Te  Te149  1  0.50589467  0.33259934  0.66064627  1
  Te  Te150  1  0.49584410  0.66279435  0.00083149  1
  Te  Te151  1  0.50038515  0.66880131  0.33520783  1
  Te  Te152  1  0.49403276  0.66718868  0.66198880  1
  Te  Te153  1  0.82947035  0.00279195  -0.00060693  1
  Te  Te154  1  0.83264875  -0.00427241  0.33760748  1
  Te  Te155  1  0.83138804  0.00307762  0.66604424  1
  Te  Te156  1  0.83372009  0.33270193  0.00075300  1
  Te  Te157  1  0.83278361  0.33204748  0.34070123  1
  Te  Te158  1  0.82969972  0.33182431  0.66435247  1
  Te  Te159  1  0.83267613  0.66421995  0.00378224  1
  Te  Te160  1  0.83688147  0.67168157  0.32990922  1
  Te  Te161  1  0.83255830  0.65874954  0.66762931  1
  Te  Te162  1  0.00214342  0.16194269  0.00091290  1
  Te  Te163  1  0.00778548  0.16999648  0.33243459  1
  Te  Te164  1  0.00115998  0.16729075  0.66674579  1
  Te  Te165  1  -0.00250876  0.49993488  0.00441260  1
  Te  Te166  1  0.00056527  0.50469554  0.33373294  1
  Te  Te167  1  0.00085617  0.50056216  0.66271149  1
  Te  Te168  1  0.00181717  0.83681280  0.00191127  1
  Te  Te169  1  0.00385875  0.83296302  0.33233394  1
  Te  Te170  1  -0.00070019  0.83193958  0.65987713  1
  Te  Te171  1  0.33478172  0.16941516  0.00085893  1
  Te  Te172  1  0.33197622  0.16674271  0.33167909  1
  Te  Te173  1  0.32895565  0.16743686  0.66624125  1
  Te  Te174  1  0.33444769  0.49864793  -0.00013857  1
  Te  Te175  1  0.33390663  0.50623496  0.33432259  1
  Te  Te176  1  0.33012718  0.50239221  0.66541207  1
  Te  Te177  1  0.33278436  0.83142016  0.00031877  1
  Te  Te178  1  0.33175894  0.83212438  0.33222189  1
  Te  Te179  1  0.33325627  0.82732420  0.67066576  1
  Te  Te180  1  0.66447563  0.16526333  -0.00229978  1
  Te  Te181  1  0.66330044  0.16655595  0.32940231  1
  Te  Te182  1  0.66805454  0.16568303  0.66844563  1
  Te  Te183  1  0.66715894  0.49923958  -0.00345120  1
  Te  Te184  1  0.65822462  0.49936776  0.33185898  1
  Te  Te185  1  0.67010530  0.49965588  0.67056208  1
  Te  Te186  1  0.66174859  0.83908697  0.00071607  1
  Te  Te187  1  0.65950099  0.83408889  0.33700223  1
  Te  Te188  1  0.66685651  0.83709420  0.66037591  1
  Te  Te189  1  0.00322306  -0.00507240  0.16057876  1
  Te  Te190  1  -0.00027955  -0.00325767  0.50012642  1
  Te  Te191  1  0.00446990  -0.00544632  0.83692378  1
  Te  Te192  1  0.00065445  0.34570971  0.16739796  1
  Te  Te193  1  -0.00747854  0.34075128  0.49891095  1
  Te  Te194  1  -0.00011410  0.33560904  0.83373387  1
  Te  Te195  1  -0.00019224  0.66842262  0.16992675  1
  Te  Te196  1  0.00034570  0.66667950  0.49526646  1
  Te  Te197  1  0.00654863  0.67624625  0.83331894  1
  Te  Te198  1  0.33282537  0.00186378  0.17273805  1
  Te  Te199  1  0.33014432  0.00278049  0.49592051  1
  Te  Te200  1  0.33130818  -0.00610080  0.82873915  1
  Te  Te201  1  0.33384814  0.33544209  0.16809495  1
  Te  Te202  1  0.33594007  0.33504357  0.49765593  1
  Te  Te203  1  0.33486227  0.33314136  0.83694731  1
  Te  Te204  1  0.33348657  0.65941609  0.15962473  1
  Te  Te205  1  0.33657791  0.66349946  0.50286856  1
  Te  Te206  1  0.33024730  0.67162169  0.83460836  1
  Te  Te207  1  0.66472620  0.00484844  0.16246788  1
  Te  Te208  1  0.66875983  -0.00296456  0.50183807  1
  Te  Te209  1  0.66671944  0.00040578  0.83371213  1
  Te  Te210  1  0.66782092  0.32282694  0.16661054  1
  Te  Te211  1  0.66745496  0.33258395  0.50517348  1
  Te  Te212  1  0.66660615  0.33419519  0.82731903  1
  Te  Te213  1  0.67472359  0.66620433  0.16571433  1
  Te  Te214  1  0.66028175  0.67422451  0.50092707  1
  Te  Te215  1  0.66752202  0.66197299  0.83261876  1
