# generated using pymatgen
data_AgSbTe2
_symmetry_space_group_name_H-M   'P 1'
_cell_length_a   18.34938386
_cell_length_b   18.33778398
_cell_length_c   18.34541630
_cell_angle_alpha   90.00326977
_cell_angle_beta   90.00047944
_cell_angle_gamma   90.00640222
_symmetry_Int_Tables_number   1
_chemical_formula_structural   AgSbTe2
_chemical_formula_sum   'Ag54 Sb54 Te108'
_cell_volume   6172.99473215
_cell_formula_units_Z   54
loop_
 _symmetry_equiv_pos_site_id
 _symmetry_equiv_pos_as_xyz
  1  'x, y, z'
loop_
 _atom_site_type_symbol
 _atom_site_label
 _atom_site_symmetry_multiplicity
 _atom_site_fract_x
 _atom_site_fract_y
 _atom_site_fract_z
 _atom_site_occupancy
  Ag  Ag0  1  0.48864194  0.49528782  0.67218471  1
  Ag  Ag1  1  0.66503746  0.33449583  0.67010905  1
  Ag  Ag2  1  0.33647111  0.65942743  0.00419955  1
  Ag  Ag3  1  0.50160437  0.83469835  0.00167902  1
  Ag  Ag4  1  0.33014083  0.65951296  0.67005742  1
  Ag  Ag5  1  0.82778556  0.49603347  0.33017180  1
  Ag  Ag6  1  0.49566091  0.49149346  0.00326767  1
  Ag  Ag7  1  0.33418758  0.66716948  0.32043667  1
  Ag  Ag8  1  0.49615094  0.00768230  0.16517960  1
  Ag  Ag9  1  0.33219842  0.49648108  0.16063702  1
  Ag  Ag10  1  0.49816758  0.83874071  0.32383480  1
  Ag  Ag11  1  0.00356742  0.34022560  0.66973994  1
  Ag  Ag12  1  0.83102263  0.33467583  0.82711822  1
  Ag  Ag13  1  0.17344315  0.83482778  0.32787804  1
  Ag  Ag14  1  0.17803923  0.33418981  0.16283118  1
  Ag  Ag15  1  0.66200718  0.00765163  0.32540466  1
  Ag  Ag16  1  0.16552018  0.33354465  0.51346366  1
  Ag  Ag17  1  0.17968681  0.32923965  0.83393801  1
  Ag  Ag18  1  0.65302284  0.67072040  0.00281740  1
  Ag  Ag19  1  0.81959198  0.33577068  0.16664674  1
  Ag  Ag20  1  0.65649637  0.32983593  0.00616967  1
  Ag  Ag21  1  0.50059917  0.49551742  0.32553282  1
  Ag  Ag22  1  -0.00285157  -0.00385705  0.32652543  1
  Ag  Ag23  1  0.17245388  0.00392905  0.84269758  1
  Ag  Ag24  1  0.00137666  0.83595681  0.83217055  1
  Ag  Ag25  1  0.33296851  0.82852675  0.16559729  1
  Ag  Ag26  1  0.65905858  0.00259074  0.00575472  1
  Ag  Ag27  1  0.65578785  0.16979644  0.16808810  1
  Ag  Ag28  1  0.83652524  0.82902272  0.67107368  1
  Ag  Ag29  1  0.00240183  -0.00353192  0.00370227  1
  Ag  Ag30  1  0.83061399  0.83266445  0.32874426  1
  Ag  Ag31  1  0.66354496  0.17005732  0.48762297  1
  Ag  Ag32  1  0.83021142  0.33458521  0.50599593  1
  Ag  Ag33  1  0.66365076  0.32700071  0.32645604  1
  Ag  Ag34  1  0.49748203  0.32881706  0.16073044  1
  Ag  Ag35  1  0.33377391  0.34172421  0.68091363  1
  Ag  Ag36  1  0.17330329  0.49576262  0.66836368  1
  Ag  Ag37  1  0.33886945  0.33794038  -0.00400284  1
  Ag  Ag38  1  0.50240254  -0.00046549  0.48244178  1
  Ag  Ag39  1  0.33406137  0.49390148  0.83641147  1
  Ag  Ag40  1  0.33281991  0.18100769  0.84330773  1
  Ag  Ag41  1  0.33673415  0.17515674  0.16232671  1
  Ag  Ag42  1  0.01029706  0.49684779  0.16572675  1
  Ag  Ag43  1  0.82517936  0.83452470  0.00188468  1
  Ag  Ag44  1  0.49154045  0.33089516  0.84326471  1
  Ag  Ag45  1  0.17365834  0.00024029  0.16145618  1
  Ag  Ag46  1  0.01062413  0.65975074  0.66975481  1
  Ag  Ag47  1  0.50368040  0.16282293  0.32827388  1
  Ag  Ag48  1  0.17415315  0.66465051  0.16647960  1
  Ag  Ag49  1  0.49436160  0.00383883  0.84072579  1
  Ag  Ag50  1  0.17035207  0.16737322  0.00142204  1
  Ag  Ag51  1  0.16987416  0.82789718  0.66777272  1
  Ag  Ag52  1  0.49568016  0.83190709  0.67316640  1
  Ag  Ag53  1  0.83618276  0.49184614  0.66593964  1
  Sb  Sb54  1  0.16973240  0.17242876  0.67169352  1
  Sb  Sb55  1  0.49928893  0.67049146  0.50018189  1
  Sb  Sb56  1  0.50133483  0.33117296  0.49922573  1
  Sb  Sb57  1  0.33419277  0.83338008  0.49660970  1
  Sb  Sb58  1  0.00456017  0.67118596  -0.00167166  1
  Sb  Sb59  1  0.00182470  -0.00171437  0.66914998  1
  Sb  Sb60  1  0.82651886  0.50061947  0.00028817  1
  Sb  Sb61  1  0.17447822  0.49479052  -0.00118253  1
  Sb  Sb62  1  0.49743045  0.66303211  0.83618821  1
  Sb  Sb63  1  0.00639762  0.16562780  0.83495900  1
  Sb  Sb64  1  0.83310957  0.66215614  0.50118153  1
  Sb  Sb65  1  0.33493898  -0.00088637  0.67002395  1
  Sb  Sb66  1  -0.00391836  0.33153228  0.33332653  1
  Sb  Sb67  1  0.33277871  0.83200186  0.83767521  1
  Sb  Sb68  1  -0.00364198  0.16863002  0.49858733  1
  Sb  Sb69  1  0.17423880  0.16395099  0.32548809  1
  Sb  Sb70  1  0.33757266  0.17032698  0.49632914  1
  Sb  Sb71  1  0.33936566  0.33848165  0.32726974  1
  Sb  Sb72  1  0.00251192  0.33198197  -0.00232304  1
  Sb  Sb73  1  0.33901468  -0.00510428  0.32701701  1
  Sb  Sb74  1  0.83167334  0.00172104  0.16712132  1
  Sb  Sb75  1  0.65744508  0.83940880  0.16522036  1
  Sb  Sb76  1  0.65949803  0.49341208  0.16632978  1
  Sb  Sb77  1  0.83158421  0.17155187  0.66685723  1
  Sb  Sb78  1  0.00390303  0.67026664  0.33519314  1
  Sb  Sb79  1  0.65784250  0.17028495  0.83923713  1
  Sb  Sb80  1  0.82837589  0.00352589  0.49722387  1
  Sb  Sb81  1  0.49437776  0.16809931  0.00680963  1
  Sb  Sb82  1  0.66351892  0.66167621  0.67183760  1
  Sb  Sb83  1  0.00510923  0.83240907  0.16386084  1
  Sb  Sb84  1  0.66504784  0.84055891  0.49871489  1
  Sb  Sb85  1  0.17208623  0.83748156  0.00118675  1
  Sb  Sb86  1  0.66088578  0.66675161  0.32489560  1
  Sb  Sb87  1  0.00491657  0.49962687  0.83440267  1
  Sb  Sb88  1  0.00308754  0.16994425  0.16595474  1
  Sb  Sb89  1  0.83470033  0.66309315  0.83270804  1
  Sb  Sb90  1  0.65884955  0.49468344  0.83339718  1
  Sb  Sb91  1  0.83492391  0.16531120  0.00102118  1
  Sb  Sb92  1  0.49284165  0.66464065  0.16432317  1
  Sb  Sb93  1  0.16844966  0.66266772  0.50033022  1
  Sb  Sb94  1  0.66696978  0.49192838  0.49986026  1
  Sb  Sb95  1  -0.00051607  0.83465830  0.50363171  1
  Sb  Sb96  1  0.82585553  0.16993065  0.33133984  1
  Sb  Sb97  1  0.33461312  0.49749207  0.50119483  1
  Sb  Sb98  1  0.66322069  0.00387750  0.66800431  1
  Sb  Sb99  1  0.16925872  0.66639382  0.83499423  1
  Sb  Sb100  1  0.83860450  0.66335816  0.16631695  1
  Sb  Sb101  1  0.17117504  0.00343737  0.49681586  1
  Sb  Sb102  1  0.66709487  0.83535567  0.83552593  1
  Sb  Sb103  1  -0.00019493  0.49731550  0.49954167  1
  Sb  Sb104  1  0.83279462  0.00228939  0.83539657  1
  Sb  Sb105  1  0.16925226  0.50112414  0.33215050  1
  Sb  Sb106  1  0.49909714  0.17033285  0.66450596  1
  Sb  Sb107  1  0.33598295  0.00299974  0.00225333  1
  Te  Te108  1  0.17033447  0.16525707  0.16282647  1
  Te  Te109  1  0.16695006  0.17228503  0.49770021  1
  Te  Te110  1  0.17206416  0.16566198  0.83670269  1
  Te  Te111  1  0.17069716  0.49800352  0.16654972  1
  Te  Te112  1  0.16585369  0.49291492  0.50476156  1
  Te  Te113  1  0.17018350  0.49526157  0.82956496  1
  Te  Te114  1  0.16977330  0.83803510  0.16779620  1
  Te  Te115  1  0.16656153  0.83428895  0.50169642  1
  Te  Te116  1  0.16543261  0.83645285  0.83086265  1
  Te  Te117  1  0.49801010  0.16731828  0.16857153  1
  Te  Te118  1  0.50332444  0.16203580  0.49451767  1
  Te  Te119  1  0.49301611  0.16812031  0.83105083  1
  Te  Te120  1  0.49442509  0.49834515  0.16556489  1
  Te  Te121  1  0.50103780  0.50215690  0.50025260  1
  Te  Te122  1  0.49483916  0.49565192  0.83144587  1
  Te  Te123  1  0.49456490  0.83338800  0.16511720  1
  Te  Te124  1  0.50024506  0.83956028  0.50185296  1
  Te  Te125  1  0.49991964  0.83649174  0.83483943  1
  Te  Te126  1  0.83275649  0.17469330  0.16630806  1
  Te  Te127  1  0.82613133  0.17314769  0.49954674  1
  Te  Te128  1  0.83360228  0.17307374  0.83404951  1
  Te  Te129  1  0.83276824  0.49643630  0.16825615  1
  Te  Te130  1  0.83364128  0.49451410  0.49938760  1
  Te  Te131  1  0.83600444  0.49577747  0.83066197  1
  Te  Te132  1  0.83539399  0.83194735  0.16752295  1
  Te  Te133  1  0.83242244  0.83391408  0.49767510  1
  Te  Te134  1  0.83656162  0.83424743  0.83281895  1
  Te  Te135  1  0.16703241  0.00094159  0.00101233  1
  Te  Te136  1  0.16610979  -0.00430418  0.33197219  1
  Te  Te137  1  0.16647658  -0.00534416  0.66586235  1
  Te  Te138  1  0.16667220  0.33000222  0.00037663  1
  Te  Te139  1  0.16530097  0.33269998  0.32481678  1
  Te  Te140  1  0.16753708  0.33382742  0.67191853  1
  Te  Te141  1  0.17245048  0.66664822  0.00463321  1
  Te  Te142  1  0.17120088  0.67080222  0.33182049  1
  Te  Te143  1  0.16800796  0.66647903  0.66707325  1
  Te  Te144  1  0.50085492  -0.00114868  0.00278676  1
  Te  Te145  1  0.50188068  -0.00179871  0.32618016  1
  Te  Te146  1  0.50134784  -0.00501026  0.67879697  1
  Te  Te147  1  0.49980889  0.33232061  -0.00032762  1
  Te  Te148  1  0.50400966  0.33756909  0.33420916  1
  Te  Te149  1  0.50156164  0.33628642  0.66417334  1
  Te  Te150  1  0.49673926  0.66956244  -0.00102738  1
  Te  Te151  1  0.49558308  0.66826423  0.33378283  1
  Te  Te152  1  0.49790715  0.66645577  0.66789270  1
  Te  Te153  1  0.83492181  -0.00505656  -0.00046724  1
  Te  Te154  1  0.82989123  -0.00508290  0.33383956  1
  Te  Te155  1  0.83259723  -0.00845269  0.66619973  1
  Te  Te156  1  0.83449905  0.33370544  0.00452075  1
  Te  Te157  1  0.83162805  0.33588509  0.32905112  1
  Te  Te158  1  0.83014719  0.33331039  0.66610443  1
  Te  Te159  1  0.83443444  0.67317508  -0.00006369  1
  Te  Te160  1  0.83340053  0.66763938  0.33344521  1
  Te  Te161  1  0.83130005  0.66948576  0.66666646  1
  Te  Te162  1  0.00605635  0.15770152  0.00001120  1
  Te  Te163  1  0.00106090  0.15789057  0.33311932  1
  Te  Te164  1  -0.00007338  0.17252845  0.66643173  1
  Te  Te165  1  -0.00258054  0.50264249  0.00461851  1
  Te  Te166  1  -0.00290072  0.50112267  0.32854252  1
  Te  Te167  1  -0.00322450  0.49991560  0.66765785  1
  Te  Te168  1  -0.00077384  0.83590775  -0.00351761  1
  Te  Te169  1  -0.00116739  0.83461645  0.33346665  1
  Te  Te170  1  0.00025966  0.83384041  0.67015025  1
  Te  Te171  1  0.32923809  0.17060178  0.00190678  1
  Te  Te172  1  0.34165958  0.16838002  0.32754820  1
  Te  Te173  1  0.33388392  0.17106084  0.66853886  1
  Te  Te174  1  0.33538027  0.49855413  -0.00053706  1
  Te  Te175  1  0.33684220  0.50590736  0.33087732  1
  Te  Te176  1  0.33280066  0.49875618  0.66476659  1
  Te  Te177  1  0.33821304  0.82756182  0.00345093  1
  Te  Te178  1  0.33422071  0.82909069  0.33069084  1
  Te  Te179  1  0.33434647  0.83177999  0.66753011  1
  Te  Te180  1  0.66909954  0.16789699  0.00524561  1
  Te  Te181  1  0.66372968  0.16721561  0.32882149  1
  Te  Te182  1  0.66667540  0.17267888  0.66689839  1
  Te  Te183  1  0.65885160  0.49459073  -0.00041833  1
  Te  Te184  1  0.66642491  0.49939396  0.33336549  1
  Te  Te185  1  0.67360973  0.49591268  0.66673622  1
  Te  Te186  1  0.66485794  0.83695694  0.00043770  1
  Te  Te187  1  0.66467485  0.83465432  0.33177930  1
  Te  Te188  1  0.66409230  0.83169785  0.66708808  1
  Te  Te189  1  0.00087638  0.00047378  0.16582305  1
  Te  Te190  1  0.00087003  0.00225825  0.49254683  1
  Te  Te191  1  0.00338779  -0.00199306  0.83692619  1
  Te  Te192  1  0.00454391  0.33690636  0.16595719  1
  Te  Te193  1  -0.00038290  0.33206373  0.50453329  1
  Te  Te194  1  -0.00465818  0.33255275  0.83041875  1
  Te  Te195  1  0.00952759  0.66086268  0.16668019  1
  Te  Te196  1  0.00041315  0.66664609  0.51068545  1
  Te  Te197  1  0.00167552  0.67247709  0.82886808  1
  Te  Te198  1  0.33338301  -0.00071001  0.16658906  1
  Te  Te199  1  0.34221080  0.00228272  0.50028386  1
  Te  Te200  1  0.33255131  -0.00009225  0.83517071  1
  Te  Te201  1  0.33683374  0.33520496  0.16627549  1
  Te  Te202  1  0.32712150  0.33221831  0.50241687  1
  Te  Te203  1  0.33520861  0.33630862  0.83579211  1
  Te  Te204  1  0.33073456  0.66743106  0.16445395  1
  Te  Te205  1  0.33278198  0.66644267  0.51026211  1
  Te  Te206  1  0.33243559  0.66161871  0.83072349  1
  Te  Te207  1  0.66560967  0.00410484  0.16589374  1
  Te  Te208  1  0.66135086  0.00783263  0.49851335  1
  Te  Te209  1  0.66163920  0.00316043  0.83984292  1
  Te  Te210  1  0.66150972  0.33201305  0.16655699  1
  Te  Te211  1  0.66825303  0.32901154  0.49773748  1
  Te  Te212  1  0.66896488  0.33225723  0.83412239  1
  Te  Te213  1  0.67012433  0.66709235  0.15903834  1
  Te  Te214  1  0.66680598  0.66783914  0.49871782  1
  Te  Te215  1  0.66728360  0.66493911  0.84455237  1
