# generated using pymatgen
data_AgSbTe2
_symmetry_space_group_name_H-M   'P 1'
_cell_length_a   18.36243298
_cell_length_b   18.36127841
_cell_length_c   18.36009294
_cell_angle_alpha   90.00027974
_cell_angle_beta   89.99919109
_cell_angle_gamma   90.00209189
_symmetry_Int_Tables_number   1
_chemical_formula_structural   AgSbTe2
_chemical_formula_sum   'Ag54 Sb54 Te108'
_cell_volume   6190.24751489
_cell_formula_units_Z   54
loop_
 _symmetry_equiv_pos_site_id
 _symmetry_equiv_pos_as_xyz
  1  'x, y, z'
loop_
 _atom_site_type_symbol
 _atom_site_label
 _atom_site_symmetry_multiplicity
 _atom_site_fract_x
 _atom_site_fract_y
 _atom_site_fract_z
 _atom_site_occupancy
  Ag  Ag0  1  0.16719972  0.50743633  0.65372838  1
  Ag  Ag1  1  0.66742100  0.16707313  0.83275832  1
  Ag  Ag2  1  0.33143546  0.34325520  0.33978410  1
  Ag  Ag3  1  0.00790533  0.51144921  0.49848468  1
  Ag  Ag4  1  0.49079382  0.34283725  0.49959870  1
  Ag  Ag5  1  0.49592125  -0.00117005  0.49507814  1
  Ag  Ag6  1  0.49492160  -0.00392996  0.82971418  1
  Ag  Ag7  1  0.33821687  0.83116345  0.17298506  1
  Ag  Ag8  1  0.50405644  0.67417543  0.17067118  1
  Ag  Ag9  1  0.66727812  -0.00810866  0.33510514  1
  Ag  Ag10  1  0.83322032  0.66950839  0.17915476  1
  Ag  Ag11  1  0.66659340  0.33726326  0.00261953  1
  Ag  Ag12  1  0.83070092  0.50156446  0.00996101  1
  Ag  Ag13  1  0.82999905  -0.01153176  0.49482775  1
  Ag  Ag14  1  0.16927022  -0.00448337  0.17958603  1
  Ag  Ag15  1  0.83353075  0.50322232  0.65234233  1
  Ag  Ag16  1  0.67670980  0.67482636  0.33492669  1
  Ag  Ag17  1  0.17799269  0.34952457  0.49612157  1
  Ag  Ag18  1  0.66809821  0.50029675  0.82181216  1
  Ag  Ag19  1  0.16787995  0.51258570  0.33898235  1
  Ag  Ag20  1  -0.00822159  0.66761210  0.33847317  1
  Ag  Ag21  1  0.84608712  0.66594275  0.49152580  1
  Ag  Ag22  1  0.16860851  0.34105726  0.17827067  1
  Ag  Ag23  1  0.16030687  0.66512648  0.49851071  1
  Ag  Ag24  1  0.00001305  0.83021339  0.17568948  1
  Ag  Ag25  1  0.16688432  0.16041738  0.66256607  1
  Ag  Ag26  1  0.67033150  0.82846715  0.49449570  1
  Ag  Ag27  1  0.33103702  0.66883699  0.33193771  1
  Ag  Ag28  1  0.82926501  0.14939337  0.33534788  1
  Ag  Ag29  1  0.49109490  0.83041921  0.66409410  1
  Ag  Ag30  1  0.16350587  0.82878297  0.33554577  1
  Ag  Ag31  1  0.50000504  0.15867672  0.33691234  1
  Ag  Ag32  1  0.33149362  0.33942777  0.65401131  1
  Ag  Ag33  1  0.83306607  0.83162625  0.33547882  1
  Ag  Ag34  1  0.33258771  0.83328162  0.83373035  1
  Ag  Ag35  1  0.33816377  -0.00451718  0.33357711  1
  Ag  Ag36  1  0.49762659  0.50718223  0.66058911  1
  Ag  Ag37  1  0.16792324  0.67514630  0.81850914  1
  Ag  Ag38  1  0.49894543  0.83516402  0.01669599  1
  Ag  Ag39  1  0.49792286  -0.00559941  0.17848483  1
  Ag  Ag40  1  0.00000606  0.16432050  0.82942607  1
  Ag  Ag41  1  0.32176813  0.49119880  0.49679019  1
  Ag  Ag42  1  0.82868192  -0.01088000  0.17670296  1
  Ag  Ag43  1  0.65883158  0.83341451  0.17661660  1
  Ag  Ag44  1  0.00809976  0.82561028  0.49568173  1
  Ag  Ag45  1  0.00403178  0.66480363  0.65256607  1
  Ag  Ag46  1  0.17016953  0.82912920  0.65205086  1
  Ag  Ag47  1  0.17594369  -0.00514308  0.82449516  1
  Ag  Ag48  1  0.66776544  0.50689189  0.49997984  1
  Ag  Ag49  1  0.32616352  0.50922211  0.17917344  1
  Ag  Ag50  1  0.84268632  0.51697123  0.33501839  1
  Ag  Ag51  1  0.33004440  0.17802095  0.49657514  1
  Ag  Ag52  1  0.00390649  0.51004361  0.17970495  1
  Ag  Ag53  1  0.16973697  -0.00559093  0.49801047  1
  Sb  Sb54  1  0.66094771  0.83271778  0.83175697  1
  Sb  Sb55  1  0.32827561  0.66570752  0.65761755  1
  Sb  Sb56  1  0.33435046  -0.00205558  0.00605534  1
  Sb  Sb57  1  0.83200463  0.00011308  0.82998950  1
  Sb  Sb58  1  0.33100797  0.83042154  0.49268766  1
  Sb  Sb59  1  0.16698481  0.16379798  0.33995102  1
  Sb  Sb60  1  0.16827541  0.33188492  0.82484524  1
  Sb  Sb61  1  0.33342069  0.15872025  0.82385067  1
  Sb  Sb62  1  0.50163116  0.16165330  0.00305838  1
  Sb  Sb63  1  0.00129286  0.16355361  0.16919182  1
  Sb  Sb64  1  -0.00266387  0.49917297  0.82820646  1
  Sb  Sb65  1  0.00702701  0.33861937  0.66328238  1
  Sb  Sb66  1  0.49866422  0.66861952  0.49392024  1
  Sb  Sb67  1  0.83124271  0.16969026  0.00507142  1
  Sb  Sb68  1  0.33205055  0.16343528  0.17735108  1
  Sb  Sb69  1  -0.00203506  0.33579096  0.00205204  1
  Sb  Sb70  1  0.83546764  0.34237457  0.49662123  1
  Sb  Sb71  1  0.66336314  0.16538441  0.50085875  1
  Sb  Sb72  1  0.83659260  0.82857756  0.65660338  1
  Sb  Sb73  1  0.83716088  0.17069481  0.66047136  1
  Sb  Sb74  1  0.33511746  0.50566877  0.82573628  1
  Sb  Sb75  1  0.82770565  0.82909530  0.01299021  1
  Sb  Sb76  1  0.49601050  0.16506011  0.65978447  1
  Sb  Sb77  1  0.16488581  0.66996265  0.17704412  1
  Sb  Sb78  1  0.66357183  -0.00129986  0.65992960  1
  Sb  Sb79  1  0.00511925  -0.00505791  0.66367097  1
  Sb  Sb80  1  0.00718008  0.34260123  0.33334977  1
  Sb  Sb81  1  0.50436797  0.50401888  -0.00148528  1
  Sb  Sb82  1  -0.00158982  -0.00968023  0.33448862  1
  Sb  Sb83  1  0.33188262  -0.00093840  0.65596462  1
  Sb  Sb84  1  0.33185878  0.66926718  0.00760232  1
  Sb  Sb85  1  0.66234103  0.33506320  0.33311286  1
  Sb  Sb86  1  0.83187423  0.33525443  0.83333549  1
  Sb  Sb87  1  0.49683199  0.67125341  0.83582968  1
  Sb  Sb88  1  0.66683685  0.66439834  0.00636868  1
  Sb  Sb89  1  0.49454120  0.49959554  0.33934564  1
  Sb  Sb90  1  0.50153928  0.83767693  0.33539188  1
  Sb  Sb91  1  0.49560669  0.33350076  0.17406436  1
  Sb  Sb92  1  0.00752787  0.83467086  0.82858456  1
  Sb  Sb93  1  0.00086426  -0.00125822  0.00167589  1
  Sb  Sb94  1  0.83691529  0.33967995  0.17050200  1
  Sb  Sb95  1  0.16942235  0.83247164  0.00556547  1
  Sb  Sb96  1  0.66727369  0.50567853  0.17335817  1
  Sb  Sb97  1  0.33617454  0.33606038  0.00561282  1
  Sb  Sb98  1  0.50072650  0.32981997  0.82712566  1
  Sb  Sb99  1  0.00067309  0.66600499  0.00678633  1
  Sb  Sb100  1  0.66721741  0.16119815  0.16791492  1
  Sb  Sb101  1  0.00523882  0.16497364  0.50008721  1
  Sb  Sb102  1  0.66902634  0.66494397  0.65920533  1
  Sb  Sb103  1  0.16281877  0.50308173  0.00621349  1
  Sb  Sb104  1  0.83629702  0.66513117  0.82961375  1
  Sb  Sb105  1  0.66433868  0.00110640  0.00545317  1
  Sb  Sb106  1  0.16626325  0.16589540  -0.00560333  1
  Sb  Sb107  1  0.66126501  0.33652891  0.66614608  1
  Te  Te108  1  0.16563888  0.15785464  0.16205913  1
  Te  Te109  1  0.16856494  0.15420183  0.50474801  1
  Te  Te110  1  0.16474129  0.16387617  0.82718936  1
  Te  Te111  1  0.16561829  0.50052142  0.17025791  1
  Te  Te112  1  0.16589551  0.50383166  0.49864298  1
  Te  Te113  1  0.16711938  0.50078061  0.83500955  1
  Te  Te114  1  0.16893584  0.83567281  0.16843399  1
  Te  Te115  1  0.16896742  0.83355818  0.49698386  1
  Te  Te116  1  0.16966088  0.83515887  0.83992042  1
  Te  Te117  1  0.50000507  0.16036597  0.17166231  1
  Te  Te118  1  0.49696545  0.15850431  0.49742202  1
  Te  Te119  1  0.50381595  0.16152670  0.83345858  1
  Te  Te120  1  0.49549088  0.50194449  0.16500214  1
  Te  Te121  1  0.50719157  0.50094055  0.50277221  1
  Te  Te122  1  0.50423898  0.49957032  0.82915259  1
  Te  Te123  1  0.49955135  0.83431890  0.17179791  1
  Te  Te124  1  0.50123516  0.83581900  0.50588059  1
  Te  Te125  1  0.49820310  0.83537030  0.82294869  1
  Te  Te126  1  0.83435374  0.16311179  0.17269888  1
  Te  Te127  1  0.83433010  0.16659839  0.49656878  1
  Te  Te128  1  0.83207758  0.16635600  0.83298830  1
  Te  Te129  1  0.83485679  0.50438170  0.17350429  1
  Te  Te130  1  0.82878725  0.50237701  0.49497396  1
  Te  Te131  1  0.82871952  0.50096427  0.83267967  1
  Te  Te132  1  0.83410943  0.83121739  0.17093875  1
  Te  Te133  1  0.83075719  0.83009960  0.49767385  1
  Te  Te134  1  0.83443430  0.83491843  0.83533525  1
  Te  Te135  1  0.16723938  0.00013171  -0.00726066  1
  Te  Te136  1  0.16508020  -0.00005849  0.33648993  1
  Te  Te137  1  0.16702200  -0.00447312  0.66738806  1
  Te  Te138  1  0.16678081  0.33377074  0.00530874  1
  Te  Te139  1  0.17199063  0.32776081  0.33649403  1
  Te  Te140  1  0.17188649  0.33817212  0.66108217  1
  Te  Te141  1  0.16648218  0.66627544  -0.01580435  1
  Te  Te142  1  0.16868112  0.66816567  0.33420701  1
  Te  Te143  1  0.16823985  0.66829270  0.66153237  1
  Te  Te144  1  0.50018196  -0.00501429  -0.00572888  1
  Te  Te145  1  0.50038777  -0.00054189  0.33408537  1
  Te  Te146  1  0.49797327  -0.00317331  0.66867275  1
  Te  Te147  1  0.50460075  0.33229221  0.00105466  1
  Te  Te148  1  0.49490459  0.32669506  0.33784092  1
  Te  Te149  1  0.49429385  0.33329275  0.66038481  1
  Te  Te150  1  0.49915248  0.67234695  0.00574227  1
  Te  Te151  1  0.49310173  0.66377157  0.32813993  1
  Te  Te152  1  0.50025617  0.66752878  0.66778986  1
  Te  Te153  1  0.83254316  -0.00008089  0.00665983  1
  Te  Te154  1  0.83400608  -0.00696285  0.33439189  1
  Te  Te155  1  0.83388386  0.00143596  0.65841154  1
  Te  Te156  1  0.82737521  0.33815228  0.00238579  1
  Te  Te157  1  0.83078331  0.33002041  0.33207091  1
  Te  Te158  1  0.83421861  0.34145768  0.66566736  1
  Te  Te159  1  0.83358885  0.66082743  -0.00087229  1
  Te  Te160  1  0.83207069  0.67028228  0.33495997  1
  Te  Te161  1  0.83783282  0.66163989  0.66279392  1
  Te  Te162  1  -0.00197745  0.16734146  -0.00775658  1
  Te  Te163  1  -0.00810984  0.17298418  0.33285047  1
  Te  Te164  1  0.00467584  0.16799077  0.66970885  1
  Te  Te165  1  -0.00840615  0.49922425  -0.00025079  1
  Te  Te166  1  0.00323168  0.50288253  0.33631601  1
  Te  Te167  1  0.00297149  0.50450873  0.66430073  1
  Te  Te168  1  -0.00303900  0.83256241  0.00787628  1
  Te  Te169  1  0.00311896  0.82980139  0.33436809  1
  Te  Te170  1  0.00496818  0.82619435  0.66227046  1
  Te  Te171  1  0.33487853  0.16855563  -0.00242747  1
  Te  Te172  1  0.33337453  0.15840331  0.33886275  1
  Te  Te173  1  0.32835580  0.16934400  0.65973174  1
  Te  Te174  1  0.33393856  0.50016567  0.00365976  1
  Te  Te175  1  0.33268972  0.49957082  0.33558988  1
  Te  Te176  1  0.33325590  0.49950164  0.66329034  1
  Te  Te177  1  0.33966365  0.83396705  0.00060537  1
  Te  Te178  1  0.32717480  0.83462580  0.33180082  1
  Te  Te179  1  0.33050363  0.83230499  0.67039114  1
  Te  Te180  1  0.66735868  0.17159611  -0.00660324  1
  Te  Te181  1  0.66579170  0.16595320  0.33380157  1
  Te  Te182  1  0.66812677  0.16736944  0.67347658  1
  Te  Te183  1  0.66985273  0.49765826  0.00222037  1
  Te  Te184  1  0.66590057  0.50121328  0.33793216  1
  Te  Te185  1  0.66577553  0.50036153  0.66411619  1
  Te  Te186  1  0.66021461  0.83253262  0.00049077  1
  Te  Te187  1  0.66528715  0.83429320  0.33460139  1
  Te  Te188  1  0.66664938  0.83283790  0.66209068  1
  Te  Te189  1  0.00580704  -0.00403897  0.16483388  1
  Te  Te190  1  0.00229610  -0.00316923  0.50125608  1
  Te  Te191  1  -0.00015367  0.00266529  0.83319953  1
  Te  Te192  1  0.00790735  0.33562585  0.16542340  1
  Te  Te193  1  0.00489650  0.33605417  0.50034088  1
  Te  Te194  1  0.00008117  0.32637301  0.83402476  1
  Te  Te195  1  -0.00203205  0.66742650  0.17084469  1
  Te  Te196  1  0.00163743  0.66936240  0.49812526  1
  Te  Te197  1  0.00508373  0.66679406  0.83450896  1
  Te  Te198  1  0.33308727  -0.00284299  0.17132775  1
  Te  Te199  1  0.33462373  -0.00439347  0.49510088  1
  Te  Te200  1  0.33372024  -0.00431831  0.83565691  1
  Te  Te201  1  0.32881015  0.33391824  0.17265257  1
  Te  Te202  1  0.33453538  0.33422849  0.49935861  1
  Te  Te203  1  0.33401083  0.33298835  0.83530887  1
  Te  Te204  1  0.33210305  0.66740580  0.17058258  1
  Te  Te205  1  0.33276809  0.65858521  0.49270238  1
  Te  Te206  1  0.32956112  0.67193923  0.83537683  1
  Te  Te207  1  0.66643086  -0.00353526  0.17103395  1
  Te  Te208  1  0.66692659  0.00067745  0.49505914  1
  Te  Te209  1  0.66489899  0.00142525  0.83336553  1
  Te  Te210  1  0.66569049  0.33285079  0.16241739  1
  Te  Te211  1  0.66319974  0.33600149  0.50015531  1
  Te  Te212  1  0.66548412  0.33597845  0.83492750  1
  Te  Te213  1  0.66733087  0.67052108  0.17204847  1
  Te  Te214  1  0.66380967  0.66909816  0.49474833  1
  Te  Te215  1  0.66602271  0.66085550  0.83402501  1
