# generated using pymatgen
data_AgSbTe2
_symmetry_space_group_name_H-M   'P 1'
_cell_length_a   18.32288101
_cell_length_b   18.32803414
_cell_length_c   18.32640454
_cell_angle_alpha   89.99858791
_cell_angle_beta   89.99722139
_cell_angle_gamma   89.99640824
_symmetry_Int_Tables_number   1
_chemical_formula_structural   AgSbTe2
_chemical_formula_sum   'Ag54 Sb54 Te108'
_cell_volume   6154.41692489
_cell_formula_units_Z   54
loop_
 _symmetry_equiv_pos_site_id
 _symmetry_equiv_pos_as_xyz
  1  'x, y, z'
loop_
 _atom_site_type_symbol
 _atom_site_label
 _atom_site_symmetry_multiplicity
 _atom_site_fract_x
 _atom_site_fract_y
 _atom_site_fract_z
 _atom_site_occupancy
  Ag  Ag0  1  0.00131462  0.65663554  0.34207332  1
  Ag  Ag1  1  0.50310991  0.32529372  0.49963858  1
  Ag  Ag2  1  0.15910903  0.49621517  0.33931109  1
  Ag  Ag3  1  -0.00155692  0.50197394  0.18155608  1
  Ag  Ag4  1  0.32053144  0.50303860  0.50126746  1
  Ag  Ag5  1  0.66878866  0.50275878  0.82157864  1
  Ag  Ag6  1  0.15962351  0.66368299  0.82619783  1
  Ag  Ag7  1  0.65695392  0.83041249  0.17079729  1
  Ag  Ag8  1  0.00399869  0.50281755  0.49707550  1
  Ag  Ag9  1  0.00050458  0.66031997  0.66509917  1
  Ag  Ag10  1  0.16111173  0.66131934  0.50504315  1
  Ag  Ag11  1  0.66281775  0.83911369  0.50151706  1
  Ag  Ag12  1  0.66962890  0.66212482  0.66380331  1
  Ag  Ag13  1  0.82710030  0.16559401  -0.00139217  1
  Ag  Ag14  1  0.33476787  0.00040828  0.34167106  1
  Ag  Ag15  1  0.84540286  0.50085900  0.33395063  1
  Ag  Ag16  1  0.34031392  0.16528782  0.16303218  1
  Ag  Ag17  1  0.50193747  0.00369776  0.50762508  1
  Ag  Ag18  1  -0.00097966  0.16989892  0.50534808  1
  Ag  Ag19  1  -0.00040790  0.33705765  0.66073264  1
  Ag  Ag20  1  0.15892783  0.49872451  0.66124862  1
  Ag  Ag21  1  0.34006853  0.83891771  0.16257150  1
  Ag  Ag22  1  0.83178590  0.16432191  0.66323619  1
  Ag  Ag23  1  0.49713787  0.67226527  0.83448545  1
  Ag  Ag24  1  0.66750852  0.50145640  0.16996512  1
  Ag  Ag25  1  0.33682586  0.83623572  0.50223559  1
  Ag  Ag26  1  0.65728423  0.16806443  0.17007493  1
  Ag  Ag27  1  0.34103878  0.00360568  0.66327715  1
  Ag  Ag28  1  0.66485189  0.16276203  0.50608412  1
  Ag  Ag29  1  0.00050120  0.00429275  0.66237903  1
  Ag  Ag30  1  0.49936971  0.00303961  0.16608161  1
  Ag  Ag31  1  0.50014695  0.16303929  0.00371546  1
  Ag  Ag32  1  0.82574667  0.00210948  0.50267646  1
  Ag  Ag33  1  0.49775727  0.00006170  0.82540937  1
  Ag  Ag34  1  0.66786618  0.33046686  0.66192994  1
  Ag  Ag35  1  0.16268549  0.17101224  0.66165960  1
  Ag  Ag36  1  0.33635245  0.83678405  0.83198750  1
  Ag  Ag37  1  0.16635332  0.17375812  0.34203270  1
  Ag  Ag38  1  0.00649054  0.82332932  0.82242738  1
  Ag  Ag39  1  0.00348383  0.50533940  0.82561467  1
  Ag  Ag40  1  0.33430640  0.33140190  0.00357628  1
  Ag  Ag41  1  0.00264892  0.82724782  0.50511615  1
  Ag  Ag42  1  0.50479016  0.67503783  0.16114246  1
  Ag  Ag43  1  0.82825791  0.66318354  0.16744223  1
  Ag  Ag44  1  0.17058982  0.33658049  0.16928908  1
  Ag  Ag45  1  0.49841686  0.83762944  0.00364910  1
  Ag  Ag46  1  0.65879687  0.00809583  0.66131556  1
  Ag  Ag47  1  0.49736049  0.32388418  0.16885165  1
  Ag  Ag48  1  0.16339544  0.50077240  0.00055629  1
  Ag  Ag49  1  0.50182519  0.16322696  0.66500777  1
  Ag  Ag50  1  0.00343655  0.34502863  0.34325391  1
  Ag  Ag51  1  0.66843475  0.49987099  0.50454816  1
  Ag  Ag52  1  0.33718349  0.15967823  0.83104552  1
  Ag  Ag53  1  0.00166925  0.66264053  -0.00721980  1
  Sb  Sb54  1  0.33136575  0.50184280  0.82905577  1
  Sb  Sb55  1  0.32848831  0.66902775  0.33427788  1
  Sb  Sb56  1  0.17257576  -0.00373264  0.82886777  1
  Sb  Sb57  1  0.66174285  0.33236283  -0.00139594  1
  Sb  Sb58  1  0.50097831  0.49611031  0.66557879  1
  Sb  Sb59  1  0.17468271  0.00647004  0.16943550  1
  Sb  Sb60  1  0.66267345  0.00153198  -0.00389672  1
  Sb  Sb61  1  0.33229259  0.32871384  0.66695022  1
  Sb  Sb62  1  0.17135287  0.17314283  -0.00138292  1
  Sb  Sb63  1  0.16692854  0.33780582  0.49727351  1
  Sb  Sb64  1  0.33227564  0.67049676  0.66670728  1
  Sb  Sb65  1  0.83433797  0.83757620  0.66441847  1
  Sb  Sb66  1  0.33287474  0.49860549  0.17151715  1
  Sb  Sb67  1  0.66937797  0.33406709  0.33809513  1
  Sb  Sb68  1  0.83239998  0.33087458  0.50113717  1
  Sb  Sb69  1  0.16643699  0.65987462  0.16742275  1
  Sb  Sb70  1  0.83877777  0.66762250  0.49856012  1
  Sb  Sb71  1  0.83385366  0.82821162  0.33520922  1
  Sb  Sb72  1  0.16815566  0.83045361  0.33526163  1
  Sb  Sb73  1  -0.00265222  -0.00414142  -0.00724306  1
  Sb  Sb74  1  0.82892730  0.83511057  0.00135018  1
  Sb  Sb75  1  0.83847524  0.49833001  0.00401233  1
  Sb  Sb76  1  0.67132992  0.66434165  0.33547214  1
  Sb  Sb77  1  0.65950454  0.00107767  0.34032027  1
  Sb  Sb78  1  0.49513514  0.16585319  0.33288053  1
  Sb  Sb79  1  0.00502323  0.00022948  0.34098294  1
  Sb  Sb80  1  0.49833780  0.83374366  0.32792662  1
  Sb  Sb81  1  0.83801813  0.17099187  0.33841686  1
  Sb  Sb82  1  0.49980337  0.66944331  0.50196350  1
  Sb  Sb83  1  0.82565238  -0.00170575  0.17363653  1
  Sb  Sb84  1  0.66065723  0.16964815  0.82720553  1
  Sb  Sb85  1  0.49896178  0.33133422  0.83210127  1
  Sb  Sb86  1  0.00419878  0.33918611  -0.00033741  1
  Sb  Sb87  1  0.49800247  0.49901829  0.33433541  1
  Sb  Sb88  1  0.16982892  -0.00270824  0.50321679  1
  Sb  Sb89  1  0.49695831  0.49873863  0.00138833  1
  Sb  Sb90  1  0.16478764  0.83035325  0.66572718  1
  Sb  Sb91  1  0.00067265  0.17158963  0.17083207  1
  Sb  Sb92  1  0.16649280  0.33876974  0.83385993  1
  Sb  Sb93  1  0.66261282  0.82876770  0.82989617  1
  Sb  Sb94  1  0.83304750  0.33341613  0.83205358  1
  Sb  Sb95  1  0.82817741  0.00177240  0.82416550  1
  Sb  Sb96  1  0.33726111  0.00364046  -0.00256860  1
  Sb  Sb97  1  0.00159211  0.82494064  0.16893216  1
  Sb  Sb98  1  0.33128813  0.66383648  -0.00038229  1
  Sb  Sb99  1  0.83722041  0.49612567  0.66108873  1
  Sb  Sb100  1  0.32809777  0.32888974  0.33163122  1
  Sb  Sb101  1  0.83095413  0.33731325  0.16800977  1
  Sb  Sb102  1  0.66843376  0.66514916  0.00003889  1
  Sb  Sb103  1  0.17175645  0.82677041  -0.00166906  1
  Sb  Sb104  1  0.83723929  0.66587264  0.83460144  1
  Sb  Sb105  1  0.33461120  0.16556772  0.50104908  1
  Sb  Sb106  1  0.49955493  0.83893326  0.66917809  1
  Sb  Sb107  1  0.00559938  0.16670582  0.82457288  1
  Te  Te108  1  0.16878591  0.17370456  0.16670583  1
  Te  Te109  1  0.16569075  0.16776285  0.50224489  1
  Te  Te110  1  0.17422664  0.16638040  0.82949277  1
  Te  Te111  1  0.16525561  0.49714572  0.16671322  1
  Te  Te112  1  0.16393643  0.50017323  0.50143277  1
  Te  Te113  1  0.16584686  0.50433600  0.82977893  1
  Te  Te114  1  0.17550803  0.83448290  0.16686938  1
  Te  Te115  1  0.16637236  0.82609087  0.49979922  1
  Te  Te116  1  0.16810806  0.82690870  0.83324314  1
  Te  Te117  1  0.50022137  0.16554570  0.16878815  1
  Te  Te118  1  0.50149373  0.16547018  0.50013523  1
  Te  Te119  1  0.49646784  0.16457036  0.83383361  1
  Te  Te120  1  0.50234604  0.49941381  0.16675613  1
  Te  Te121  1  0.50982707  0.50141151  0.49960138  1
  Te  Te122  1  0.50269453  0.50427782  0.83390726  1
  Te  Te123  1  0.49953395  0.83410973  0.16461351  1
  Te  Te124  1  0.49933192  0.83633663  0.49997257  1
  Te  Te125  1  0.49865029  0.83375901  0.83681764  1
  Te  Te126  1  0.83057514  0.16585815  0.16517569  1
  Te  Te127  1  0.83244220  0.16373287  0.50267496  1
  Te  Te128  1  0.83307008  0.16597298  0.83368158  1
  Te  Te129  1  0.83371526  0.50253581  0.16942084  1
  Te  Te130  1  0.82889939  0.50075981  0.49500086  1
  Te  Te131  1  0.82972540  0.50047691  0.83515849  1
  Te  Te132  1  0.82767363  0.82885898  0.16703947  1
  Te  Te133  1  0.83077704  0.83906815  0.49955337  1
  Te  Te134  1  0.84093636  0.83461406  0.83597340  1
  Te  Te135  1  0.16403789  -0.00015832  0.00000132  1
  Te  Te136  1  0.17352841  0.00613856  0.33396713  1
  Te  Te137  1  0.16265354  0.00714126  0.66740095  1
  Te  Te138  1  0.17076440  0.33941824  0.00493933  1
  Te  Te139  1  0.16287952  0.33386158  0.33083331  1
  Te  Te140  1  0.16357227  0.33352989  0.66703249  1
  Te  Te141  1  0.16219742  0.66107552  -0.00276956  1
  Te  Te142  1  0.16148373  0.66174723  0.33642594  1
  Te  Te143  1  0.16562326  0.66331457  0.66606500  1
  Te  Te144  1  0.50044568  0.00194022  0.00309738  1
  Te  Te145  1  0.49321624  0.00001406  0.33000751  1
  Te  Te146  1  0.49983870  0.00263125  0.66673843  1
  Te  Te147  1  0.49554354  0.32892325  0.00329655  1
  Te  Te148  1  0.50043047  0.33284737  0.33248425  1
  Te  Te149  1  0.50267948  0.32794382  0.66402549  1
  Te  Te150  1  0.50036803  0.66784752  -0.00071014  1
  Te  Te151  1  0.49915820  0.66588013  0.32597565  1
  Te  Te152  1  0.50392527  0.66555559  0.67045967  1
  Te  Te153  1  0.83133880  0.00674506  0.00015275  1
  Te  Te154  1  0.83488837  0.00123333  0.34257531  1
  Te  Te155  1  0.83576127  0.00459905  0.66082870  1
  Te  Te156  1  0.83368097  0.32425144  0.00024254  1
  Te  Te157  1  0.84289904  0.33941005  0.33338368  1
  Te  Te158  1  0.83330373  0.32558481  0.66634087  1
  Te  Te159  1  0.83963010  0.66728402  0.00633484  1
  Te  Te160  1  0.83970139  0.66169443  0.32800535  1
  Te  Te161  1  0.83099245  0.66667491  0.66642854  1
  Te  Te162  1  -0.00135745  0.16653779  -0.00178624  1
  Te  Te163  1  0.00559666  0.16801100  0.33925480  1
  Te  Te164  1  0.00122809  0.16752739  0.66461860  1
  Te  Te165  1  0.00285856  0.50295887  -0.00862582  1
  Te  Te166  1  0.00193704  0.50098113  0.33643992  1
  Te  Te167  1  -0.00189675  0.49936986  0.66507925  1
  Te  Te168  1  0.00002530  0.82702185  -0.00171543  1
  Te  Te169  1  0.00115822  0.83052967  0.33964237  1
  Te  Te170  1  -0.00020442  0.83160995  0.66460231  1
  Te  Te171  1  0.33605786  0.16967971  0.00206775  1
  Te  Te172  1  0.32628757  0.16292677  0.32894169  1
  Te  Te173  1  0.33577500  0.16437266  0.66813739  1
  Te  Te174  1  0.32738550  0.49446998  -0.00113966  1
  Te  Te175  1  0.32711416  0.50016590  0.34055403  1
  Te  Te176  1  0.32954683  0.49882567  0.66063492  1
  Te  Te177  1  0.33841854  0.83216992  -0.00159647  1
  Te  Te178  1  0.33192524  0.83843419  0.33852437  1
  Te  Te179  1  0.33198622  0.83933675  0.66606827  1
  Te  Te180  1  0.66323166  0.16698212  0.00227561  1
  Te  Te181  1  0.66983849  0.16794348  0.33232404  1
  Te  Te182  1  0.66403860  0.16782415  0.66609242  1
  Te  Te183  1  0.66791520  0.49896888  0.00682462  1
  Te  Te184  1  0.66734249  0.49929233  0.33048936  1
  Te  Te185  1  0.66905236  0.49871181  0.66495002  1
  Te  Te186  1  0.66078649  0.83354360  0.00324441  1
  Te  Te187  1  0.66732611  0.83299817  0.33532732  1
  Te  Te188  1  0.66726290  0.82960579  0.66235648  1
  Te  Te189  1  -0.00282584  -0.00240938  0.16637401  1
  Te  Te190  1  0.00360685  0.00004998  0.50348101  1
  Te  Te191  1  -0.00064499  -0.00328132  0.82568127  1
  Te  Te192  1  0.00214847  0.33860883  0.16705655  1
  Te  Te193  1  0.00020971  0.33274750  0.50195910  1
  Te  Te194  1  0.00038273  0.33857820  0.82744381  1
  Te  Te195  1  0.00038064  0.66312574  0.16753906  1
  Te  Te196  1  -0.00053742  0.66549455  0.50344196  1
  Te  Te197  1  -0.00038663  0.66567720  0.82854178  1
  Te  Te198  1  0.33759145  0.00043939  0.16473275  1
  Te  Te199  1  0.33594218  -0.00150404  0.50221782  1
  Te  Te200  1  0.33784465  -0.00195469  0.83024547  1
  Te  Te201  1  0.33552850  0.33218917  0.16627655  1
  Te  Te202  1  0.34270645  0.33777846  0.49916652  1
  Te  Te203  1  0.33365549  0.32985957  0.83838997  1
  Te  Te204  1  0.33885534  0.67123439  0.16686538  1
  Te  Te205  1  0.33107202  0.66763014  0.50036529  1
  Te  Te206  1  0.33699244  0.67091095  0.83332298  1
  Te  Te207  1  0.66204931  0.00068203  0.16763991  1
  Te  Te208  1  0.66268303  0.00088329  0.50183676  1
  Te  Te209  1  0.66016464  -0.00172252  0.82442134  1
  Te  Te210  1  0.66265690  0.33235241  0.16700821  1
  Te  Te211  1  0.66418570  0.33234857  0.50218573  1
  Te  Te212  1  0.66563784  0.34142056  0.82732048  1
  Te  Te213  1  0.66570381  0.66648046  0.16764021  1
  Te  Te214  1  0.66744264  0.66694824  0.50254987  1
  Te  Te215  1  0.66516437  0.66340753  0.83043124  1
