# generated using pymatgen
data_AgSbTe2
_symmetry_space_group_name_H-M   'P 1'
_cell_length_a   18.34728745
_cell_length_b   18.34198953
_cell_length_c   18.33961321
_cell_angle_alpha   90.00048999
_cell_angle_beta   89.99957247
_cell_angle_gamma   90.00250797
_symmetry_Int_Tables_number   1
_chemical_formula_structural   AgSbTe2
_chemical_formula_sum   'Ag54 Sb54 Te108'
_cell_volume   6171.75216408
_cell_formula_units_Z   54
loop_
 _symmetry_equiv_pos_site_id
 _symmetry_equiv_pos_as_xyz
  1  'x, y, z'
loop_
 _atom_site_type_symbol
 _atom_site_label
 _atom_site_symmetry_multiplicity
 _atom_site_fract_x
 _atom_site_fract_y
 _atom_site_fract_z
 _atom_site_occupancy
  Ag  Ag0  1  0.34471717  0.33376764  0.00248367  1
  Ag  Ag1  1  0.50278649  0.49698546  -0.00019817  1
  Ag  Ag2  1  0.34338583  0.66320628  0.00016349  1
  Ag  Ag3  1  0.33624961  0.82897834  0.16616317  1
  Ag  Ag4  1  0.66521763  0.66537417  0.67439605  1
  Ag  Ag5  1  0.82698973  0.49796685  0.00334318  1
  Ag  Ag6  1  0.49729962  0.81916196  0.66439103  1
  Ag  Ag7  1  0.00431972  -0.01074196  0.66188555  1
  Ag  Ag8  1  0.33700335  0.16554773  0.83687621  1
  Ag  Ag9  1  0.66680056  0.34280965  0.67140850  1
  Ag  Ag10  1  0.49452272  -0.00509064  0.50472516  1
  Ag  Ag11  1  0.50667888  0.66705902  0.82252205  1
  Ag  Ag12  1  0.33609877  0.00569876  0.00139219  1
  Ag  Ag13  1  0.83493588  -0.00440986  0.16324927  1
  Ag  Ag14  1  0.66438616  0.34080641  -0.00000103  1
  Ag  Ag15  1  0.49821435  0.66497546  0.50859662  1
  Ag  Ag16  1  0.49814496  0.16960101  0.33596841  1
  Ag  Ag17  1  0.49645484  0.17682110  -0.00121191  1
  Ag  Ag18  1  0.49904999  0.33590377  0.50282102  1
  Ag  Ag19  1  0.83150068  0.34171568  0.84113540  1
  Ag  Ag20  1  -0.00103270  0.49890556  0.16643504  1
  Ag  Ag21  1  0.82404580  0.66204613  0.82765093  1
  Ag  Ag22  1  0.17710436  -0.00302103  0.50189160  1
  Ag  Ag23  1  0.83312311  0.82082465  0.66626367  1
  Ag  Ag24  1  0.33642798  0.50909394  0.49758677  1
  Ag  Ag25  1  -0.00307111  0.00394870  0.00288748  1
  Ag  Ag26  1  0.35099738  0.67198775  0.66849906  1
  Ag  Ag27  1  0.16943702  0.83144599  0.66241035  1
  Ag  Ag28  1  0.66640070  0.82670463  0.83590589  1
  Ag  Ag29  1  0.50278726  0.50611502  0.66743315  1
  Ag  Ag30  1  0.83632845  0.49969331  0.31898639  1
  Ag  Ag31  1  0.66411671  0.83154493  0.16045419  1
  Ag  Ag32  1  0.33216359  -0.00117332  0.34251839  1
  Ag  Ag33  1  0.33644340  -0.01095023  0.65780041  1
  Ag  Ag34  1  0.17269089  0.34099337  0.16314645  1
  Ag  Ag35  1  0.82785925  0.50814829  0.66854637  1
  Ag  Ag36  1  0.00869202  0.83437595  0.50705821  1
  Ag  Ag37  1  0.32916748  0.50357386  0.16626323  1
  Ag  Ag38  1  0.50221713  0.33498393  0.15608499  1
  Ag  Ag39  1  0.49812013  0.16932528  0.66774798  1
  Ag  Ag40  1  -0.00523709  0.33373260  0.00376776  1
  Ag  Ag41  1  0.83353310  0.66085914  0.16213526  1
  Ag  Ag42  1  -0.00921083  0.34143106  0.67002756  1
  Ag  Ag43  1  0.17780401  0.16807976  0.00160030  1
  Ag  Ag44  1  0.83072414  0.34358492  0.15799847  1
  Ag  Ag45  1  0.66446128  -0.00293534  0.00204992  1
  Ag  Ag46  1  0.16970516  0.66104291  0.16453682  1
  Ag  Ag47  1  0.66341738  0.33525747  0.31989370  1
  Ag  Ag48  1  -0.02079975  0.67074175  0.66542925  1
  Ag  Ag49  1  0.66252270  0.66435748  -0.00669487  1
  Ag  Ag50  1  0.16687777  0.49951869  0.32746982  1
  Ag  Ag51  1  0.00377628  -0.00088548  0.33307003  1
  Ag  Ag52  1  0.82845538  0.66547717  0.51447194  1
  Ag  Ag53  1  0.33365644  0.83251872  0.50811270  1
  Sb  Sb54  1  0.66494026  0.16853529  0.16350128  1
  Sb  Sb55  1  0.33999688  0.33085620  0.32680193  1
  Sb  Sb56  1  0.82993669  0.17314749  0.00032078  1
  Sb  Sb57  1  0.00157457  0.16074280  0.50229382  1
  Sb  Sb58  1  0.16876706  0.66753227  0.83472162  1
  Sb  Sb59  1  0.66217856  0.16798474  0.50155907  1
  Sb  Sb60  1  0.00195213  0.50426605  0.49785449  1
  Sb  Sb61  1  0.49974463  0.00286735  0.16685696  1
  Sb  Sb62  1  0.66773090  0.66171513  0.33164083  1
  Sb  Sb63  1  0.33446534  0.16759497  0.15965724  1
  Sb  Sb64  1  0.17297341  0.16815319  0.32791806  1
  Sb  Sb65  1  0.82886941  0.17073614  0.33074623  1
  Sb  Sb66  1  0.66737034  0.50540802  0.83408331  1
  Sb  Sb67  1  0.83274904  0.82796919  0.33510544  1
  Sb  Sb68  1  -0.00387324  0.33207688  0.33160528  1
  Sb  Sb69  1  0.49882485  -0.00323304  0.82974524  1
  Sb  Sb70  1  0.16934209  0.49571542  0.00722501  1
  Sb  Sb71  1  0.50608629  0.33795596  0.83415705  1
  Sb  Sb72  1  0.66306625  -0.00471534  0.67062257  1
  Sb  Sb73  1  0.16976230  0.83680273  -0.00282352  1
  Sb  Sb74  1  0.50027798  0.49544589  0.33290778  1
  Sb  Sb75  1  0.66499364  0.00388796  0.32767499  1
  Sb  Sb76  1  0.49869974  0.83775867  0.33798130  1
  Sb  Sb77  1  0.50121556  0.83117539  -0.00366054  1
  Sb  Sb78  1  0.16823040  -0.00099845  0.82958461  1
  Sb  Sb79  1  0.00323064  0.16719340  0.83481827  1
  Sb  Sb80  1  -0.00307626  0.66443863  -0.00205323  1
  Sb  Sb81  1  0.33688954  0.33612179  0.67088342  1
  Sb  Sb82  1  0.00066255  0.83015623  0.16921962  1
  Sb  Sb83  1  0.16677328  -0.00148931  0.16828223  1
  Sb  Sb84  1  0.50038996  0.66200035  0.16559598  1
  Sb  Sb85  1  0.00037704  0.17131747  0.16504837  1
  Sb  Sb86  1  0.83184675  -0.00174213  0.83743002  1
  Sb  Sb87  1  0.16810874  0.83091705  0.33674842  1
  Sb  Sb88  1  0.83245784  -0.00851470  0.49809830  1
  Sb  Sb89  1  0.33758523  0.16253585  0.50539922  1
  Sb  Sb90  1  0.16377893  0.33242425  0.84095095  1
  Sb  Sb91  1  0.17144240  0.16285622  0.67086015  1
  Sb  Sb92  1  0.82733822  0.34376145  0.50043595  1
  Sb  Sb93  1  0.66812575  0.50161994  0.16405555  1
  Sb  Sb94  1  -0.00481235  0.49966952  0.83766805  1
  Sb  Sb95  1  0.16839304  0.50559501  0.65975529  1
  Sb  Sb96  1  0.65982304  0.50080530  0.50346004  1
  Sb  Sb97  1  0.83091216  0.82756294  -0.00245957  1
  Sb  Sb98  1  0.33411238  0.66835526  0.33322650  1
  Sb  Sb99  1  -0.00628584  0.83235392  0.82622793  1
  Sb  Sb100  1  0.17230197  0.33148217  0.49689337  1
  Sb  Sb101  1  0.66276969  0.83053409  0.50283065  1
  Sb  Sb102  1  0.16985536  0.67097598  0.49887359  1
  Sb  Sb103  1  0.66145989  0.16464360  0.83555299  1
  Sb  Sb104  1  0.33611943  0.49857636  0.83667291  1
  Sb  Sb105  1  0.82897360  0.16960519  0.66765077  1
  Sb  Sb106  1  -0.00049455  0.66885506  0.33703464  1
  Sb  Sb107  1  0.33897152  0.83501182  0.83000753  1
  Te  Te108  1  0.16692242  0.17379418  0.16079288  1
  Te  Te109  1  0.16860663  0.15864518  0.49841228  1
  Te  Te110  1  0.17382835  0.16629669  0.84106869  1
  Te  Te111  1  0.16775385  0.49970575  0.16761168  1
  Te  Te112  1  0.17324963  0.49958773  0.49121878  1
  Te  Te113  1  0.16567243  0.49981332  0.83157380  1
  Te  Te114  1  0.17097769  0.82739248  0.16596791  1
  Te  Te115  1  0.16957926  0.83680066  0.50254798  1
  Te  Te116  1  0.16582989  0.83222279  0.82354326  1
  Te  Te117  1  0.49999093  0.17269259  0.16325609  1
  Te  Te118  1  0.49914921  0.17204476  0.50120935  1
  Te  Te119  1  0.49641961  0.16616394  0.83554220  1
  Te  Te120  1  0.49502757  0.49544139  0.16528301  1
  Te  Te121  1  0.49491001  0.49879187  0.49964069  1
  Te  Te122  1  0.49902384  0.50642561  0.83353753  1
  Te  Te123  1  0.49808935  0.83306394  0.16827401  1
  Te  Te124  1  0.49656765  0.83392418  0.50392266  1
  Te  Te125  1  0.50537227  0.82831847  0.82705755  1
  Te  Te126  1  0.83286106  0.15883050  0.16731607  1
  Te  Te127  1  0.83275460  0.16693482  0.49813138  1
  Te  Te128  1  0.83325492  0.17384543  0.83293373  1
  Te  Te129  1  0.83209145  0.49950605  0.16308992  1
  Te  Te130  1  0.83603696  0.50750416  0.50904756  1
  Te  Te131  1  0.83313482  0.50080656  0.82984765  1
  Te  Te132  1  0.83294827  0.83543130  0.16708567  1
  Te  Te133  1  0.83237932  0.82554981  0.50290247  1
  Te  Te134  1  0.82740028  0.82999795  0.82910488  1
  Te  Te135  1  0.16853797  0.00399677  0.00036455  1
  Te  Te136  1  0.16741976  0.00100310  0.33613970  1
  Te  Te137  1  0.16749685  -0.00262039  0.66334552  1
  Te  Te138  1  0.15931222  0.33091560  0.00447001  1
  Te  Te139  1  0.16618418  0.33581165  0.32726581  1
  Te  Te140  1  0.16271836  0.33298364  0.66708035  1
  Te  Te141  1  0.16725250  0.66771328  0.00336242  1
  Te  Te142  1  0.16636686  0.66093320  0.32627777  1
  Te  Te143  1  0.17088185  0.67152822  0.66703747  1
  Te  Te144  1  0.49964710  -0.00120770  -0.00012624  1
  Te  Te145  1  0.49689994  0.00572817  0.33649933  1
  Te  Te146  1  0.49776646  0.00785302  0.66471087  1
  Te  Te147  1  0.50305732  0.33599869  -0.00300143  1
  Te  Te148  1  0.50388483  0.33055866  0.33652571  1
  Te  Te149  1  0.50138443  0.33385400  0.66856941  1
  Te  Te150  1  0.50191658  0.66423617  0.00186319  1
  Te  Te151  1  0.50215482  0.66609431  0.34436358  1
  Te  Te152  1  0.50575768  0.66330914  0.66550626  1
  Te  Te153  1  0.83271904  0.00130127  0.00210813  1
  Te  Te154  1  0.83466370  0.00083954  0.32936713  1
  Te  Te155  1  0.83532660  0.00090266  0.66774102  1
  Te  Te156  1  0.83312923  0.33507229  0.00047446  1
  Te  Te157  1  0.82811967  0.33790680  0.33202120  1
  Te  Te158  1  0.83173514  0.33468869  0.66523956  1
  Te  Te159  1  0.83272100  0.66163495  0.00209852  1
  Te  Te160  1  0.83388210  0.66088875  0.32288525  1
  Te  Te161  1  0.82470316  0.66519097  0.67044871  1
  Te  Te162  1  -0.00017656  0.16644927  -0.00026912  1
  Te  Te163  1  0.00130794  0.15962372  0.33403054  1
  Te  Te164  1  0.00169028  0.16531382  0.66811178  1
  Te  Te165  1  -0.00337311  0.49669043  0.00527596  1
  Te  Te166  1  -0.00171925  0.49957175  0.32975735  1
  Te  Te167  1  0.00035507  0.50062407  0.66576857  1
  Te  Te168  1  0.00118051  0.83971590  -0.00061308  1
  Te  Te169  1  0.00023125  0.83979467  0.34011863  1
  Te  Te170  1  -0.00399488  0.83166848  0.66475064  1
  Te  Te171  1  0.33714110  0.16890607  -0.00077524  1
  Te  Te172  1  0.33779920  0.16045292  0.33332203  1
  Te  Te173  1  0.33680275  0.16633707  0.67281233  1
  Te  Te174  1  0.33508260  0.50128691  0.00323953  1
  Te  Te175  1  0.33225631  0.49911805  0.33127213  1
  Te  Te176  1  0.33688905  0.50430982  0.66450937  1
  Te  Te177  1  0.33361165  0.82839327  0.00120048  1
  Te  Te178  1  0.33268682  0.83879025  0.33072289  1
  Te  Te179  1  0.33705688  0.83259324  0.66751399  1
  Te  Te180  1  0.65982190  0.16349465  -0.00086933  1
  Te  Te181  1  0.65970646  0.17428973  0.33293722  1
  Te  Te182  1  0.66026083  0.16762489  0.66859647  1
  Te  Te183  1  0.66518579  0.50081113  -0.00016555  1
  Te  Te184  1  0.67340129  0.49387863  0.33474336  1
  Te  Te185  1  0.66449287  0.50070991  0.66738858  1
  Te  Te186  1  0.66696316  0.83168330  0.00031145  1
  Te  Te187  1  0.66684160  0.83423164  0.32380847  1
  Te  Te188  1  0.66619771  0.83131894  0.66722003  1
  Te  Te189  1  -0.00025067  -0.00093630  0.16525130  1
  Te  Te190  1  -0.00304344  -0.00481658  0.50296537  1
  Te  Te191  1  -0.00024265  -0.00000556  0.83653019  1
  Te  Te192  1  -0.00704544  0.33723613  0.16659512  1
  Te  Te193  1  0.00151017  0.33168341  0.50425576  1
  Te  Te194  1  -0.00546934  0.33334289  0.83233725  1
  Te  Te195  1  -0.00153642  0.66329903  0.16660583  1
  Te  Te196  1  0.00054065  0.67192152  0.50473985  1
  Te  Te197  1  -0.00255048  0.66645236  0.82762129  1
  Te  Te198  1  0.33222458  -0.00502554  0.16093518  1
  Te  Te199  1  0.33691750  -0.00172334  0.50180464  1
  Te  Te200  1  0.33390465  0.00259953  0.84170457  1
  Te  Te201  1  0.33465839  0.33540440  0.16232672  1
  Te  Te202  1  0.33770473  0.33597026  0.50053094  1
  Te  Te203  1  0.33192943  0.33045616  0.84068686  1
  Te  Te204  1  0.33456886  0.66616753  0.16601890  1
  Te  Te205  1  0.33455137  0.66974891  0.50067578  1
  Te  Te206  1  0.33593803  0.66653282  0.83477248  1
  Te  Te207  1  0.66842238  -0.00430962  0.16275214  1
  Te  Te208  1  0.65977230  -0.00056747  0.49770814  1
  Te  Te209  1  0.66629545  -0.00670284  0.84082987  1
  Te  Te210  1  0.66661879  0.33362871  0.16161625  1
  Te  Te211  1  0.66013371  0.33393390  0.51082617  1
  Te  Te212  1  0.67171431  0.33088933  0.83476269  1
  Te  Te213  1  0.66838389  0.67056742  0.16472547  1
  Te  Te214  1  0.66787108  0.66686213  0.49995588  1
  Te  Te215  1  0.66694054  0.66857272  0.83639011  1
