# generated using pymatgen
data_AgSbTe2
_symmetry_space_group_name_H-M   'P 1'
_cell_length_a   18.35016786
_cell_length_b   18.34488707
_cell_length_c   18.34760846
_cell_angle_alpha   89.99875428
_cell_angle_beta   90.00109815
_cell_angle_gamma   90.00401698
_symmetry_Int_Tables_number   1
_chemical_formula_structural   AgSbTe2
_chemical_formula_sum   'Ag54 Sb54 Te108'
_cell_volume   6176.38765548
_cell_formula_units_Z   54
loop_
 _symmetry_equiv_pos_site_id
 _symmetry_equiv_pos_as_xyz
  1  'x, y, z'
loop_
 _atom_site_type_symbol
 _atom_site_label
 _atom_site_symmetry_multiplicity
 _atom_site_fract_x
 _atom_site_fract_y
 _atom_site_fract_z
 _atom_site_occupancy
  Ag  Ag0  1  0.50337825  0.16802761  0.33764645  1
  Ag  Ag1  1  0.00105598  0.65904891  0.66689051  1
  Ag  Ag2  1  0.49593857  0.49596501  -0.00938288  1
  Ag  Ag3  1  0.33102874  0.83891117  0.82716967  1
  Ag  Ag4  1  0.65987063  0.32937481  0.67122665  1
  Ag  Ag5  1  0.83003606  0.49399139  -0.00471299  1
  Ag  Ag6  1  0.16829060  0.83694216  0.33943987  1
  Ag  Ag7  1  -0.00402824  0.33592635  0.00487979  1
  Ag  Ag8  1  0.82622240  0.65737969  0.50417012  1
  Ag  Ag9  1  0.49216012  0.84773791  0.66731961  1
  Ag  Ag10  1  -0.00581256  0.33045947  0.32054544  1
  Ag  Ag11  1  0.17557900  0.01042557  0.16229797  1
  Ag  Ag12  1  0.49268187  0.01390968  0.16598485  1
  Ag  Ag13  1  0.33347843  0.84953441  0.51223999  1
  Ag  Ag14  1  0.17451331  0.16161288  0.66599531  1
  Ag  Ag15  1  0.66684877  0.32964617  0.00267783  1
  Ag  Ag16  1  0.34105784  0.32782728  0.66675566  1
  Ag  Ag17  1  0.66941687  0.32726902  0.32188025  1
  Ag  Ag18  1  0.33304423  0.00112320  -0.00735603  1
  Ag  Ag19  1  0.33887333  0.16950542  0.16888737  1
  Ag  Ag20  1  0.17846444  0.00079240  0.51413416  1
  Ag  Ag21  1  0.00295420  0.48886787  0.16114501  1
  Ag  Ag22  1  0.16840043  0.32960027  0.16511680  1
  Ag  Ag23  1  0.17054559  -0.00178745  0.82701949  1
  Ag  Ag24  1  0.17392287  0.49731448  0.00076833  1
  Ag  Ag25  1  0.83286606  0.00777519  0.83002695  1
  Ag  Ag26  1  0.49440757  0.65623887  0.82513552  1
  Ag  Ag27  1  0.33695239  0.50007253  0.83198685  1
  Ag  Ag28  1  0.49938308  0.66706476  0.50783662  1
  Ag  Ag29  1  0.82342819  0.33135022  0.82795214  1
  Ag  Ag30  1  0.17622657  0.84797791  0.67003302  1
  Ag  Ag31  1  0.49502748  0.00760139  0.51224387  1
  Ag  Ag32  1  0.33881276  0.16588264  0.50946235  1
  Ag  Ag33  1  0.66589662  0.17039622  0.82563165  1
  Ag  Ag34  1  0.01854086  0.00463265  0.66733289  1
  Ag  Ag35  1  0.65951287  0.48609410  0.16176675  1
  Ag  Ag36  1  0.65549261  0.17096601  0.16831315  1
  Ag  Ag37  1  0.65639735  0.01160038  -0.00572883  1
  Ag  Ag38  1  -0.00190527  0.33104968  0.66900093  1
  Ag  Ag39  1  0.33520531  0.48908705  0.15733938  1
  Ag  Ag40  1  0.50558208  0.33018624  0.16180428  1
  Ag  Ag41  1  0.50311768  0.33581516  0.82873247  1
  Ag  Ag42  1  0.82119344  0.17063910  0.33301425  1
  Ag  Ag43  1  0.83093292  0.49149247  0.67031123  1
  Ag  Ag44  1  0.17686772  0.67632918  0.83112121  1
  Ag  Ag45  1  0.65800708  0.16989205  0.50732884  1
  Ag  Ag46  1  0.83116199  0.33424048  0.50857219  1
  Ag  Ag47  1  0.33325279  0.00400531  0.66714983  1
  Ag  Ag48  1  0.49767283  0.16649132  0.66239064  1
  Ag  Ag49  1  0.00811642  0.17320396  0.16865440  1
  Ag  Ag50  1  0.49817408  0.49332011  0.67054914  1
  Ag  Ag51  1  0.33687816  0.49525575  0.51427118  1
  Ag  Ag52  1  0.16948466  0.83902666  -0.00986770  1
  Ag  Ag53  1  0.65711123  0.01237370  0.67100170  1
  Sb  Sb54  1  0.65931536  0.48989691  0.83640945  1
  Sb  Sb55  1  0.82853174  0.17419333  0.66369392  1
  Sb  Sb56  1  0.50303795  0.32790050  0.50466359  1
  Sb  Sb57  1  0.66210979  0.84342124  0.16496927  1
  Sb  Sb58  1  0.17159274  0.49720483  0.67185184  1
  Sb  Sb59  1  0.66622486  0.65629342  0.33625989  1
  Sb  Sb60  1  0.16871396  0.33049057  0.83519129  1
  Sb  Sb61  1  0.16790263  0.16718776  -0.00111437  1
  Sb  Sb62  1  0.33683848  0.33054609  0.33393146  1
  Sb  Sb63  1  0.83304000  0.48889589  0.33518007  1
  Sb  Sb64  1  0.33576601  0.33129444  -0.00097925  1
  Sb  Sb65  1  0.50128735  0.17209624  -0.00019423  1
  Sb  Sb66  1  0.49697521  0.00619945  0.83195234  1
  Sb  Sb67  1  0.83012158  0.00598384  0.50883216  1
  Sb  Sb68  1  0.83740258  0.83961668  0.33688160  1
  Sb  Sb69  1  0.00348292  0.00657341  -0.00386042  1
  Sb  Sb70  1  -0.00355245  0.16798602  0.83312500  1
  Sb  Sb71  1  0.65768057  0.84305173  0.83090702  1
  Sb  Sb72  1  0.33346179  0.66603707  0.33713894  1
  Sb  Sb73  1  0.83146282  0.65990952  0.82713621  1
  Sb  Sb74  1  0.65854776  0.84004738  0.50266128  1
  Sb  Sb75  1  0.66552818  0.65870390  -0.00201202  1
  Sb  Sb76  1  0.33205045  0.00248986  0.33929224  1
  Sb  Sb77  1  0.83336438  0.83237966  0.66739967  1
  Sb  Sb78  1  0.49399784  0.83311917  -0.00756988  1
  Sb  Sb79  1  0.33280979  0.66586243  -0.00391313  1
  Sb  Sb80  1  0.00273890  0.65803019  -0.00630521  1
  Sb  Sb81  1  0.00074848  0.16878548  0.50007967  1
  Sb  Sb82  1  0.49424785  0.84175683  0.34110047  1
  Sb  Sb83  1  0.49940072  0.49144738  0.33557419  1
  Sb  Sb84  1  0.83207791  0.33159377  0.16392187  1
  Sb  Sb85  1  0.16573085  0.32908708  0.49843571  1
  Sb  Sb86  1  0.33180329  0.84011040  0.16500559  1
  Sb  Sb87  1  0.00322900  0.00777021  0.33743623  1
  Sb  Sb88  1  0.00798812  0.83348284  0.50363779  1
  Sb  Sb89  1  0.66426547  0.66180206  0.66716884  1
  Sb  Sb90  1  0.16790836  0.66384206  0.16028503  1
  Sb  Sb91  1  0.16818891  0.49950548  0.32739672  1
  Sb  Sb92  1  0.00290671  0.49741362  0.50041916  1
  Sb  Sb93  1  0.33798137  0.16728358  0.83000210  1
  Sb  Sb94  1  0.33455787  0.67018941  0.66877720  1
  Sb  Sb95  1  0.49877441  0.65844003  0.16655547  1
  Sb  Sb96  1  0.17207107  0.67182153  0.50963244  1
  Sb  Sb97  1  0.01005465  0.83473790  0.83116366  1
  Sb  Sb98  1  0.66489529  0.00951959  0.33527156  1
  Sb  Sb99  1  0.83140098  0.00631462  0.15936709  1
  Sb  Sb100  1  0.66363261  0.48999456  0.50059805  1
  Sb  Sb101  1  0.83426125  0.65861269  0.17124236  1
  Sb  Sb102  1  0.17020026  0.16411458  0.33424198  1
  Sb  Sb103  1  0.00442624  0.49661936  0.83536759  1
  Sb  Sb104  1  0.83728780  0.83141397  -0.00299563  1
  Sb  Sb105  1  0.00528439  0.83870444  0.16630693  1
  Sb  Sb106  1  0.82996696  0.17519002  0.00138742  1
  Sb  Sb107  1  0.00111344  0.65964762  0.33866403  1
  Te  Te108  1  0.16734585  0.16909561  0.16688007  1
  Te  Te109  1  0.17133737  0.16150177  0.50219573  1
  Te  Te110  1  0.16625691  0.16186825  0.82899258  1
  Te  Te111  1  0.16789915  0.49801470  0.16197797  1
  Te  Te112  1  0.17488069  0.50169436  0.49747811  1
  Te  Te113  1  0.17187887  0.49911808  0.83925458  1
  Te  Te114  1  0.16708591  0.83349985  0.16336924  1
  Te  Te115  1  0.17324738  0.83762517  0.50535231  1
  Te  Te116  1  0.17142463  0.83531879  0.83027056  1
  Te  Te117  1  0.49871025  0.16982057  0.16185764  1
  Te  Te118  1  0.49873783  0.16669240  0.50128221  1
  Te  Te119  1  0.50430853  0.17311802  0.82770718  1
  Te  Te120  1  0.49898668  0.49581485  0.16822140  1
  Te  Te121  1  0.49767109  0.50190251  0.50216890  1
  Te  Te122  1  0.49866807  0.49718272  0.83172105  1
  Te  Te123  1  0.49842295  0.83155683  0.16749654  1
  Te  Te124  1  0.49341225  0.83483510  0.50528319  1
  Te  Te125  1  0.49194506  0.82821765  0.82772832  1
  Te  Te126  1  0.83409775  0.16515368  0.17208260  1
  Te  Te127  1  0.83189845  0.17024244  0.49367152  1
  Te  Te128  1  0.82831080  0.16810811  0.83472721  1
  Te  Te129  1  0.83475760  0.49966064  0.16370124  1
  Te  Te130  1  0.83350073  0.49779632  0.50372793  1
  Te  Te131  1  0.83449387  0.49619789  0.83185676  1
  Te  Te132  1  0.83412814  0.83218875  0.16733703  1
  Te  Te133  1  0.83211596  0.83056193  0.49999735  1
  Te  Te134  1  0.83237659  0.83435653  0.83371464  1
  Te  Te135  1  0.16735253  0.00013802  0.00284533  1
  Te  Te136  1  0.16526346  -0.00399275  0.32232192  1
  Te  Te137  1  0.17369107  0.00218873  0.66918036  1
  Te  Te138  1  0.16459964  0.33598749  0.00281010  1
  Te  Te139  1  0.16048110  0.33222779  0.32773903  1
  Te  Te140  1  0.16515561  0.32959054  0.66615981  1
  Te  Te141  1  0.16632596  0.66572557  -0.00760799  1
  Te  Te142  1  0.16539358  0.67411121  0.33440645  1
  Te  Te143  1  0.16068602  0.66448970  0.67257847  1
  Te  Te144  1  0.49806166  -0.00257606  0.00117438  1
  Te  Te145  1  0.50036172  0.00608143  0.32607965  1
  Te  Te146  1  0.49700631  0.00392085  0.66943629  1
  Te  Te147  1  0.50173521  0.33763155  0.00150708  1
  Te  Te148  1  0.50407724  0.32764829  0.32572050  1
  Te  Te149  1  0.49972585  0.33242694  0.66510868  1
  Te  Te150  1  0.50005885  0.66007058  -0.00307665  1
  Te  Te151  1  0.50129783  0.66990932  0.34005785  1
  Te  Te152  1  0.50104477  0.65632690  0.66623989  1
  Te  Te153  1  0.83408930  -0.00239644  -0.00861048  1
  Te  Te154  1  0.83405792  0.00594954  0.33498325  1
  Te  Te155  1  0.82492949  -0.00097425  0.67134772  1
  Te  Te156  1  0.83203434  0.33692092  -0.00631227  1
  Te  Te157  1  0.83263834  0.32964576  0.33915933  1
  Te  Te158  1  0.83429085  0.33398710  0.66866334  1
  Te  Te159  1  0.83427266  0.65847247  -0.00025005  1
  Te  Te160  1  0.83410362  0.66825873  0.34368821  1
  Te  Te161  1  0.83541395  0.66298687  0.66289352  1
  Te  Te162  1  -0.00085950  0.17416100  0.00586706  1
  Te  Te163  1  0.00140960  0.17228639  0.33037581  1
  Te  Te164  1  0.00283345  0.16512093  0.66630581  1
  Te  Te165  1  0.00021299  0.49513988  0.00175830  1
  Te  Te166  1  0.00049459  0.49227793  0.32801851  1
  Te  Te167  1  -0.00094479  0.49766625  0.66667712  1
  Te  Te168  1  0.00697123  0.83155912  0.00032852  1
  Te  Te169  1  0.00607165  0.83260120  0.33407156  1
  Te  Te170  1  0.00111332  0.84043567  0.66684888  1
  Te  Te171  1  0.33355029  0.16073424  0.00571158  1
  Te  Te172  1  0.33941630  0.16748390  0.33004953  1
  Te  Te173  1  0.33481747  0.16759269  0.66889330  1
  Te  Te174  1  0.33489925  0.49875487  -0.00160598  1
  Te  Te175  1  0.33316246  0.49864406  0.32942406  1
  Te  Te176  1  0.33509731  0.49695080  0.67130049  1
  Te  Te177  1  0.32820464  0.83800142  -0.00260403  1
  Te  Te178  1  0.32739500  0.83284229  0.33658769  1
  Te  Te179  1  0.33411999  0.83205878  0.66785737  1
  Te  Te180  1  0.66713571  0.16849564  0.00270956  1
  Te  Te181  1  0.66319628  0.16962807  0.33022152  1
  Te  Te182  1  0.66749810  0.16897195  0.66612192  1
  Te  Te183  1  0.66605095  0.49569375  0.00306890  1
  Te  Te184  1  0.66726320  0.48973624  0.32503291  1
  Te  Te185  1  0.66666060  0.49485818  0.66623557  1
  Te  Te186  1  0.66757704  0.83770225  -0.00058996  1
  Te  Te187  1  0.66738239  0.83257444  0.33346197  1
  Te  Te188  1  0.66063840  0.83759266  0.66601559  1
  Te  Te189  1  0.00192436  0.00634916  0.16602941  1
  Te  Te190  1  0.00190852  0.00055576  0.50622167  1
  Te  Te191  1  0.00021291  0.00103347  0.82840343  1
  Te  Te192  1  -0.00369596  0.33276627  0.16419117  1
  Te  Te193  1  -0.00328648  0.33420184  0.50863530  1
  Te  Te194  1  -0.00118442  0.33250141  0.82961379  1
  Te  Te195  1  0.00045874  0.66182645  0.16832742  1
  Te  Te196  1  -0.00152576  0.66555053  0.50657409  1
  Te  Te197  1  0.00032703  0.66688865  0.82585522  1
  Te  Te198  1  0.33395560  0.00207363  0.16719051  1
  Te  Te199  1  0.33543677  0.00481990  0.50236092  1
  Te  Te200  1  0.33134737  0.00106253  0.83323615  1
  Te  Te201  1  0.33060052  0.33178147  0.16640025  1
  Te  Te202  1  0.33214825  0.33146178  0.50300277  1
  Te  Te203  1  0.33616157  0.33563446  0.83065802  1
  Te  Te204  1  0.33352154  0.65803755  0.16748174  1
  Te  Te205  1  0.33869828  0.65613528  0.50110148  1
  Te  Te206  1  0.33437580  0.66340213  0.83386122  1
  Te  Te207  1  0.66355676  0.00698192  0.16073239  1
  Te  Te208  1  0.66149920  0.00705084  0.50385092  1
  Te  Te209  1  0.66481418  0.00609616  0.83375327  1
  Te  Te210  1  0.66812195  0.33010031  0.16353633  1
  Te  Te211  1  0.66982374  0.32897841  0.50535594  1
  Te  Te212  1  0.66482792  0.33088408  0.83301140  1
  Te  Te213  1  0.66693285  0.66610817  0.16733272  1
  Te  Te214  1  0.66393704  0.66708152  0.50004669  1
  Te  Te215  1  0.66112881  0.67109206  0.83311628  1
