# generated using pymatgen
data_AgSbTe2
_symmetry_space_group_name_H-M   'P 1'
_cell_length_a   18.33713972
_cell_length_b   18.33902062
_cell_length_c   18.32990578
_cell_angle_alpha   89.99828770
_cell_angle_beta   90.00092550
_cell_angle_gamma   90.00004730
_symmetry_Int_Tables_number   1
_chemical_formula_structural   AgSbTe2
_chemical_formula_sum   'Ag54 Sb54 Te108'
_cell_volume   6164.07572742
_cell_formula_units_Z   54
loop_
 _symmetry_equiv_pos_site_id
 _symmetry_equiv_pos_as_xyz
  1  'x, y, z'
loop_
 _atom_site_type_symbol
 _atom_site_label
 _atom_site_symmetry_multiplicity
 _atom_site_fract_x
 _atom_site_fract_y
 _atom_site_fract_z
 _atom_site_occupancy
  Ag  Ag0  1  0.66644788  0.66039063  0.32891240  1
  Ag  Ag1  1  0.16967965  0.66667349  0.50647242  1
  Ag  Ag2  1  0.65763396  0.17166371  0.50238526  1
  Ag  Ag3  1  0.33266198  0.65783443  0.33216584  1
  Ag  Ag4  1  0.83174801  0.82615765  0.33016009  1
  Ag  Ag5  1  0.49937472  0.83053964  0.66864299  1
  Ag  Ag6  1  0.65633550  0.33751606  0.32881342  1
  Ag  Ag7  1  0.50014505  0.17704094  0.33944654  1
  Ag  Ag8  1  0.49939361  0.17484362  0.66367621  1
  Ag  Ag9  1  0.50260419  0.01020287  0.82766079  1
  Ag  Ag10  1  0.16975978  0.50122941  -0.00063819  1
  Ag  Ag11  1  0.00940876  0.16823194  0.16687805  1
  Ag  Ag12  1  0.66319147  0.00124599  0.66716404  1
  Ag  Ag13  1  0.83848276  0.49597156  0.66643223  1
  Ag  Ag14  1  0.16701600  0.82258429  0.00099900  1
  Ag  Ag15  1  0.16871292  0.33662144  0.16246562  1
  Ag  Ag16  1  0.32694949  0.65648362  0.66049914  1
  Ag  Ag17  1  0.33455223  0.49701111  0.17323927  1
  Ag  Ag18  1  0.66159412  0.50208469  0.16898848  1
  Ag  Ag19  1  0.66520328  0.83063170  0.83164974  1
  Ag  Ag20  1  0.00987957  0.65817698  0.66253994  1
  Ag  Ag21  1  0.83382285  0.33537161  0.82422217  1
  Ag  Ag22  1  0.00467949  0.66682883  0.33132949  1
  Ag  Ag23  1  0.16573333  0.00368342  0.16866172  1
  Ag  Ag24  1  0.83334940  0.17967346  0.66392884  1
  Ag  Ag25  1  0.00275629  0.49547702  0.82809632  1
  Ag  Ag26  1  0.33226973  0.17895136  0.17273022  1
  Ag  Ag27  1  0.32918315  0.66258310  0.00600696  1
  Ag  Ag28  1  0.16430237  0.33574622  0.82720715  1
  Ag  Ag29  1  0.66262140  0.66145989  0.01264398  1
  Ag  Ag30  1  0.16755138  0.17735587  0.66401815  1
  Ag  Ag31  1  0.16705684  -0.00190844  0.50813418  1
  Ag  Ag32  1  0.50064614  0.17206869  0.00131024  1
  Ag  Ag33  1  0.49584312  0.49403645  0.33654933  1
  Ag  Ag34  1  0.50099329  0.33090272  0.82272549  1
  Ag  Ag35  1  0.50008646  0.33197329  0.50274988  1
  Ag  Ag36  1  0.49576872  0.49315438  0.66324907  1
  Ag  Ag37  1  0.16826517  0.82313727  0.66965524  1
  Ag  Ag38  1  0.82602024  0.33338260  0.50755190  1
  Ag  Ag39  1  0.33586320  0.33751315  0.66135411  1
  Ag  Ag40  1  0.34042323  0.33944848  0.34200436  1
  Ag  Ag41  1  0.16915049  0.49693509  0.67056842  1
  Ag  Ag42  1  0.00677360  0.33666567  0.67053725  1
  Ag  Ag43  1  0.66267183  0.17375970  0.17071388  1
  Ag  Ag44  1  0.00377465  0.00804187  0.66631334  1
  Ag  Ag45  1  0.33787399  0.17775333  0.49982789  1
  Ag  Ag46  1  0.16630340  0.66393646  0.16930299  1
  Ag  Ag47  1  0.00198759  0.33503582  -0.01004295  1
  Ag  Ag48  1  0.66489566  0.33652591  0.00562186  1
  Ag  Ag49  1  0.33445473  0.49602103  0.50038844  1
  Ag  Ag50  1  0.66452547  0.66686880  0.66370635  1
  Ag  Ag51  1  0.82961155  0.66697412  0.17047032  1
  Ag  Ag52  1  0.00259597  0.83007084  0.16664271  1
  Ag  Ag53  1  0.67106872  0.82004086  0.16451879  1
  Sb  Sb54  1  0.66301144  0.16891389  0.82949570  1
  Sb  Sb55  1  0.82934871  0.17143516  -0.00254597  1
  Sb  Sb56  1  0.00783826  0.49971487  0.50638130  1
  Sb  Sb57  1  0.83618733  -0.00302328  0.16749419  1
  Sb  Sb58  1  0.49761281  0.00568115  0.16318084  1
  Sb  Sb59  1  0.49576442  0.33248430  0.17053153  1
  Sb  Sb60  1  0.17352368  0.50084099  0.33351125  1
  Sb  Sb61  1  0.33188557  0.82948018  0.50213529  1
  Sb  Sb62  1  0.83139491  0.66134373  0.83457044  1
  Sb  Sb63  1  0.00203065  -0.00305941  0.33546526  1
  Sb  Sb64  1  0.66521912  0.00199776  0.33667709  1
  Sb  Sb65  1  0.00019309  0.17495394  0.83216803  1
  Sb  Sb66  1  0.83294706  0.33727668  0.16749036  1
  Sb  Sb67  1  0.00117895  0.33803084  0.33508390  1
  Sb  Sb68  1  0.66075811  0.49485398  0.49822623  1
  Sb  Sb69  1  0.49816517  0.83393809  -0.00385755  1
  Sb  Sb70  1  0.00420453  0.00511523  -0.00268503  1
  Sb  Sb71  1  0.33351453  0.00519190  0.66506170  1
  Sb  Sb72  1  0.49518791  0.65939475  0.50284581  1
  Sb  Sb73  1  0.49685332  0.49559082  -0.00084518  1
  Sb  Sb74  1  0.33206432  -0.00126623  0.00199646  1
  Sb  Sb75  1  0.66569559  0.83525337  0.50212875  1
  Sb  Sb76  1  0.33628550  0.83124725  0.83011383  1
  Sb  Sb77  1  0.66497861  0.33368478  0.66457607  1
  Sb  Sb78  1  0.82683780  0.50204230  0.33687789  1
  Sb  Sb79  1  -0.00216006  0.82842600  0.83440973  1
  Sb  Sb80  1  0.00394642  0.50054819  0.16409282  1
  Sb  Sb81  1  0.33348838  0.00299519  0.33462708  1
  Sb  Sb82  1  0.50435369  0.82898253  0.33672455  1
  Sb  Sb83  1  0.17241138  0.16899226  0.33577243  1
  Sb  Sb84  1  0.16968033  0.00440218  0.82948681  1
  Sb  Sb85  1  0.32951823  0.49842889  0.82823138  1
  Sb  Sb86  1  0.00146136  0.83204030  0.49883581  1
  Sb  Sb87  1  0.49974797  0.66537178  0.16818831  1
  Sb  Sb88  1  0.83597845  0.66008936  0.49755880  1
  Sb  Sb89  1  0.33564530  0.17097784  0.83065088  1
  Sb  Sb90  1  0.17232210  0.33583644  0.50442362  1
  Sb  Sb91  1  0.83507230  0.82917478  0.00406664  1
  Sb  Sb92  1  0.66878305  0.49927032  0.83365758  1
  Sb  Sb93  1  0.82774030  0.16672407  0.33675186  1
  Sb  Sb94  1  0.00367691  0.16902904  0.50056016  1
  Sb  Sb95  1  0.33391310  0.33747532  0.00139419  1
  Sb  Sb96  1  0.83362090  0.82875542  0.66362679  1
  Sb  Sb97  1  0.82928566  0.00621015  0.82801726  1
  Sb  Sb98  1  0.17096483  0.17312111  0.00059919  1
  Sb  Sb99  1  0.33091095  0.82839538  0.16709219  1
  Sb  Sb100  1  0.66455587  0.00151560  -0.00311241  1
  Sb  Sb101  1  0.83541332  0.49865042  -0.00224970  1
  Sb  Sb102  1  0.50178581  0.66197446  0.82861643  1
  Sb  Sb103  1  0.83639678  0.00560259  0.50325259  1
  Sb  Sb104  1  0.16404006  0.82802458  0.33178038  1
  Sb  Sb105  1  0.16622477  0.66049757  0.83060303  1
  Sb  Sb106  1  0.49583556  0.00986328  0.50709996  1
  Sb  Sb107  1  0.00307973  0.66163694  0.00175631  1
  Te  Te108  1  0.16897244  0.16739712  0.16645581  1
  Te  Te109  1  0.17071672  0.16507426  0.50322097  1
  Te  Te110  1  0.16810092  0.17291656  0.82915748  1
  Te  Te111  1  0.16834909  0.50160173  0.16529733  1
  Te  Te112  1  0.17352778  0.50450208  0.50561053  1
  Te  Te113  1  0.16381512  0.49479518  0.83275401  1
  Te  Te114  1  0.16625997  0.82765930  0.16514599  1
  Te  Te115  1  0.16645322  0.83240582  0.50629123  1
  Te  Te116  1  0.16538205  0.83601251  0.83183646  1
  Te  Te117  1  0.50018435  0.16629592  0.16547504  1
  Te  Te118  1  0.49808147  0.17035177  0.50103926  1
  Te  Te119  1  0.49995116  0.16956907  0.82881159  1
  Te  Te120  1  0.49987545  0.49954632  0.16848859  1
  Te  Te121  1  0.49494729  0.49429463  0.50078513  1
  Te  Te122  1  0.50091867  0.49237460  0.82779230  1
  Te  Te123  1  0.50640879  0.83767555  0.16631075  1
  Te  Te124  1  0.49994722  0.83767875  0.50682005  1
  Te  Te125  1  0.50464157  0.83276396  0.82943869  1
  Te  Te126  1  0.82838574  0.16574407  0.16726888  1
  Te  Te127  1  0.83194757  0.17151565  0.50452218  1
  Te  Te128  1  0.83251507  0.17421351  0.82598619  1
  Te  Te129  1  0.82850149  0.50563579  0.16735813  1
  Te  Te130  1  0.83286537  0.49402210  0.50586923  1
  Te  Te131  1  0.83803203  0.49438277  0.82865720  1
  Te  Te132  1  0.83289252  0.82995405  0.16893934  1
  Te  Te133  1  0.83308645  0.83301625  0.49260198  1
  Te  Te134  1  0.82723598  0.83425659  0.83388798  1
  Te  Te135  1  0.16669879  -0.00397403  0.00285092  1
  Te  Te136  1  0.16653989  -0.00182922  0.33038123  1
  Te  Te137  1  0.16568930  0.00122498  0.66745424  1
  Te  Te138  1  0.16641343  0.33671035  0.00112632  1
  Te  Te139  1  0.16844402  0.33393587  0.32589996  1
  Te  Te140  1  0.16644826  0.33546640  0.66498259  1
  Te  Te141  1  0.16675921  0.66331779  -0.00010070  1
  Te  Te142  1  0.16659050  0.66633715  0.33178641  1
  Te  Te143  1  0.16761352  0.66463796  0.66820112  1
  Te  Te144  1  0.49908142  0.00555481  -0.00859622  1
  Te  Te145  1  0.49959075  0.00380783  0.33349374  1
  Te  Te146  1  0.50145015  -0.00321543  0.66926410  1
  Te  Te147  1  0.50216907  0.33140345  -0.00455457  1
  Te  Te148  1  0.49956017  0.33324106  0.33419475  1
  Te  Te149  1  0.50074832  0.33348084  0.66433462  1
  Te  Te150  1  0.50291100  0.66626481  -0.00246688  1
  Te  Te151  1  0.50063338  0.66201668  0.33587765  1
  Te  Te152  1  0.50175423  0.67001313  0.66546727  1
  Te  Te153  1  0.83463137  0.00118325  -0.00217583  1
  Te  Te154  1  0.83397441  -0.00810946  0.33522406  1
  Te  Te155  1  0.83461390  0.00082396  0.66572749  1
  Te  Te156  1  0.83398363  0.33377744  -0.00299525  1
  Te  Te157  1  0.83154315  0.33373321  0.33736770  1
  Te  Te158  1  0.82777261  0.33546468  0.66755213  1
  Te  Te159  1  0.82660160  0.66514156  0.00632548  1
  Te  Te160  1  0.83030188  0.66711088  0.33121355  1
  Te  Te161  1  0.83046588  0.66097862  0.66594972  1
  Te  Te162  1  0.00046591  0.17280430  0.00639209  1
  Te  Te163  1  -0.00144076  0.16663671  0.32685464  1
  Te  Te164  1  0.00141673  0.16996768  0.66633220  1
  Te  Te165  1  0.00454920  0.49455499  -0.00389027  1
  Te  Te166  1  -0.00126463  0.50745116  0.33408912  1
  Te  Te167  1  0.00163419  0.49847113  0.66698886  1
  Te  Te168  1  0.00534040  0.83301983  0.00336277  1
  Te  Te169  1  -0.00306999  0.82875909  0.32758735  1
  Te  Te170  1  0.00296246  0.82812119  0.66775152  1
  Te  Te171  1  0.33896323  0.16670674  0.00726118  1
  Te  Te172  1  0.33798899  0.16925294  0.33249325  1
  Te  Te173  1  0.33472580  0.17016546  0.66431676  1
  Te  Te174  1  0.33041270  0.50367054  0.00607157  1
  Te  Te175  1  0.33536254  0.49978419  0.33351500  1
  Te  Te176  1  0.33382097  0.49906805  0.66724721  1
  Te  Te177  1  0.32829383  0.82624196  -0.00105994  1
  Te  Te178  1  0.33631284  0.82357584  0.33398041  1
  Te  Te179  1  0.33185062  0.82702049  0.66679063  1
  Te  Te180  1  0.66230444  0.16939577  0.00309977  1
  Te  Te181  1  0.66312936  0.16885081  0.33368855  1
  Te  Te182  1  0.66350598  0.16621612  0.66486903  1
  Te  Te183  1  0.66562013  0.50014369  0.00328310  1
  Te  Te184  1  0.66106459  0.49908386  0.33173825  1
  Te  Te185  1  0.66105838  0.50421708  0.66606932  1
  Te  Te186  1  0.66605509  0.83034056  0.00255103  1
  Te  Te187  1  0.66786858  0.83080704  0.32982004  1
  Te  Te188  1  0.66704939  0.83248886  0.66727977  1
  Te  Te189  1  0.00425028  -0.00051047  0.16653964  1
  Te  Te190  1  0.00661220  0.00062330  0.50602928  1
  Te  Te191  1  0.00009514  -0.00051484  0.82613873  1
  Te  Te192  1  0.00201174  0.33184262  0.16819760  1
  Te  Te193  1  -0.00544744  0.33315664  0.50390980  1
  Te  Te194  1  0.00177525  0.33494861  0.83145571  1
  Te  Te195  1  0.00340865  0.66828210  0.16638146  1
  Te  Te196  1  0.00476573  0.66620912  0.49955905  1
  Te  Te197  1  -0.00260732  0.66027321  0.82862404  1
  Te  Te198  1  0.32602573  0.00046538  0.16782553  1
  Te  Te199  1  0.32547380  0.00385622  0.49896132  1
  Te  Te200  1  0.34212789  -0.00037755  0.83411961  1
  Te  Te201  1  0.32957319  0.33618645  0.16624097  1
  Te  Te202  1  0.33301047  0.33424278  0.50014092  1
  Te  Te203  1  0.33362519  0.33306199  0.82724360  1
  Te  Te204  1  0.33155013  0.66385436  0.16742538  1
  Te  Te205  1  0.32971246  0.66344077  0.50076519  1
  Te  Te206  1  0.33433444  0.66569870  0.83556036  1
  Te  Te207  1  0.66707750  0.00476423  0.16674985  1
  Te  Te208  1  0.66776528  0.00705139  0.50589661  1
  Te  Te209  1  0.66312950  -0.00469149  0.82850837  1
  Te  Te210  1  0.66846110  0.33437773  0.16701243  1
  Te  Te211  1  0.66405717  0.33094956  0.49585118  1
  Te  Te212  1  0.66555428  0.33405381  0.84157913  1
  Te  Te213  1  0.66373712  0.66418400  0.16925180  1
  Te  Te214  1  0.66689738  0.66717482  0.50055360  1
  Te  Te215  1  0.66798963  0.66969237  0.82754357  1
