# generated using pymatgen
data_AgSbTe2
_symmetry_space_group_name_H-M   'P 1'
_cell_length_a   18.32632383
_cell_length_b   18.32709619
_cell_length_c   18.32776688
_cell_angle_alpha   89.99798355
_cell_angle_beta   90.00057436
_cell_angle_gamma   90.00063519
_symmetry_Int_Tables_number   1
_chemical_formula_structural   AgSbTe2
_chemical_formula_sum   'Ag54 Sb54 Te108'
_cell_volume   6155.71589152
_cell_formula_units_Z   54
loop_
 _symmetry_equiv_pos_site_id
 _symmetry_equiv_pos_as_xyz
  1  'x, y, z'
loop_
 _atom_site_type_symbol
 _atom_site_label
 _atom_site_symmetry_multiplicity
 _atom_site_fract_x
 _atom_site_fract_y
 _atom_site_fract_z
 _atom_site_occupancy
  Ag  Ag0  1  0.83167421  0.17223910  0.33466505  1
  Ag  Ag1  1  0.65658170  0.65894619  -0.00021780  1
  Ag  Ag2  1  0.83103619  0.34119117  0.17038040  1
  Ag  Ag3  1  0.49171822  0.66543030  0.84174602  1
  Ag  Ag4  1  0.33902501  0.65783114  0.00376522  1
  Ag  Ag5  1  0.49478683  0.16713412  0.33093062  1
  Ag  Ag6  1  0.83329744  0.50037720  0.00624344  1
  Ag  Ag7  1  0.33321193  0.33523631  0.32879192  1
  Ag  Ag8  1  0.84240404  0.50071513  0.66339579  1
  Ag  Ag9  1  0.50379811  -0.00060666  0.83146010  1
  Ag  Ag10  1  0.00467937  -0.00266622  0.33876498  1
  Ag  Ag11  1  0.66674966  0.83878461  0.50497254  1
  Ag  Ag12  1  0.17944881  0.33455434  0.16784370  1
  Ag  Ag13  1  0.00146500  0.66461117  0.33973343  1
  Ag  Ag14  1  0.17252882  0.66199744  0.83400075  1
  Ag  Ag15  1  0.66265081  0.83809966  0.82991550  1
  Ag  Ag16  1  0.33399057  0.83215058  0.49579867  1
  Ag  Ag17  1  0.50167350  0.17901676  0.00598834  1
  Ag  Ag18  1  0.33022659  0.50092755  0.16138646  1
  Ag  Ag19  1  0.17888619  0.49990984  -0.00142634  1
  Ag  Ag20  1  0.33769960  0.16684007  0.49322086  1
  Ag  Ag21  1  0.49512616  0.65790426  0.15987114  1
  Ag  Ag22  1  0.33797065  0.82397232  0.83623186  1
  Ag  Ag23  1  0.66157993  0.15990455  0.83272859  1
  Ag  Ag24  1  0.32959895  0.00821486  0.33377895  1
  Ag  Ag25  1  0.17005102  0.00828671  0.17043063  1
  Ag  Ag26  1  0.82336835  -0.00055713  0.83133583  1
  Ag  Ag27  1  0.66277511  0.16145462  0.49854315  1
  Ag  Ag28  1  0.00548128  0.50656535  0.82855852  1
  Ag  Ag29  1  0.00004750  0.82552064  0.82596674  1
  Ag  Ag30  1  -0.00275463  -0.00697896  0.66274107  1
  Ag  Ag31  1  0.83184776  0.34166677  0.48987546  1
  Ag  Ag32  1  0.33023697  0.66247081  0.32629342  1
  Ag  Ag33  1  -0.00075246  0.66476188  0.66217805  1
  Ag  Ag34  1  -0.00305759  0.50169363  0.16701058  1
  Ag  Ag35  1  0.32930194  0.50723599  0.84705006  1
  Ag  Ag36  1  0.17503103  0.16565515  0.33452168  1
  Ag  Ag37  1  0.83085135  0.65803307  0.17042739  1
  Ag  Ag38  1  0.34577939  0.34633215  0.00946671  1
  Ag  Ag39  1  0.67064746  0.00107466  0.66917661  1
  Ag  Ag40  1  0.33336011  0.82240367  0.17028842  1
  Ag  Ag41  1  0.49949843  0.00286343  0.50202731  1
  Ag  Ag42  1  0.66342121  0.16885623  0.16693074  1
  Ag  Ag43  1  0.49154689  0.49411773  0.00059441  1
  Ag  Ag44  1  -0.00394299  0.50707107  0.50154514  1
  Ag  Ag45  1  0.83864639  0.49779342  0.32986455  1
  Ag  Ag46  1  0.49711764  0.33759843  0.15915560  1
  Ag  Ag47  1  -0.00214907  0.82610013  0.50403328  1
  Ag  Ag48  1  0.84001596  0.66017955  0.49391449  1
  Ag  Ag49  1  0.16566975  0.16951629  0.66239974  1
  Ag  Ag50  1  0.32938693  0.50169763  0.49534390  1
  Ag  Ag51  1  0.65647513  0.33966190  0.00161679  1
  Ag  Ag52  1  0.49943509  0.33665954  0.84559787  1
  Ag  Ag53  1  0.16223817  0.49804971  0.67252169  1
  Sb  Sb54  1  0.00506851  0.82608421  0.16933700  1
  Sb  Sb55  1  0.66608628  0.32978635  0.32648289  1
  Sb  Sb56  1  0.16417352  0.83145094  0.66739115  1
  Sb  Sb57  1  0.33564213  -0.00066008  0.00442217  1
  Sb  Sb58  1  0.49978143  0.83379585  0.66889430  1
  Sb  Sb59  1  0.00004196  0.34041089  0.66516410  1
  Sb  Sb60  1  0.49471523  0.00394871  0.16720329  1
  Sb  Sb61  1  0.17053642  0.00120793  0.49641733  1
  Sb  Sb62  1  0.66433547  0.00207985  -0.00713098  1
  Sb  Sb63  1  0.00150305  0.66143605  -0.00079453  1
  Sb  Sb64  1  0.83625632  0.00164162  0.16636572  1
  Sb  Sb65  1  0.00020829  0.33689776  0.33273692  1
  Sb  Sb66  1  0.66184662  0.83430298  0.16548968  1
  Sb  Sb67  1  0.32725785  0.66476756  0.66933449  1
  Sb  Sb68  1  0.33915941  0.16761647  0.83027600  1
  Sb  Sb69  1  0.49939346  0.82673257  -0.00257808  1
  Sb  Sb70  1  0.16514359  0.49677707  0.33049688  1
  Sb  Sb71  1  0.83485493  0.82959119  0.66697140  1
  Sb  Sb72  1  0.83421140  0.66674592  0.83475626  1
  Sb  Sb73  1  -0.00041708  0.16606702  0.49764372  1
  Sb  Sb74  1  0.66830682  0.49485589  0.16368018  1
  Sb  Sb75  1  0.82851332  0.33388179  0.83695492  1
  Sb  Sb76  1  0.33246428  -0.00007890  0.66154473  1
  Sb  Sb77  1  0.49910837  0.66950017  0.49865233  1
  Sb  Sb78  1  0.16911694  0.82612714  -0.00016524  1
  Sb  Sb79  1  0.00047582  0.33820221  0.00158557  1
  Sb  Sb80  1  0.17111294  0.65993059  0.16373595  1
  Sb  Sb81  1  0.67281332  0.67083796  0.67000405  1
  Sb  Sb82  1  0.16545418  0.33481446  0.49517692  1
  Sb  Sb83  1  0.82375880  0.17444850  0.00478648  1
  Sb  Sb84  1  0.66513899  0.00356229  0.33894370  1
  Sb  Sb85  1  0.66472204  0.50166307  0.83710645  1
  Sb  Sb86  1  0.83225801  0.82672853  -0.00242877  1
  Sb  Sb87  1  -0.00349353  0.16544422  0.83052729  1
  Sb  Sb88  1  0.49830754  0.16518297  0.66456247  1
  Sb  Sb89  1  0.66749784  0.32943935  0.67051995  1
  Sb  Sb90  1  0.17596609  0.17521791  0.00332142  1
  Sb  Sb91  1  0.50213374  0.32942801  0.49603993  1
  Sb  Sb92  1  0.16961288  0.83707997  0.33248820  1
  Sb  Sb93  1  0.33231969  0.33445387  0.66505693  1
  Sb  Sb94  1  0.83093847  -0.00074533  0.50308481  1
  Sb  Sb95  1  0.66628653  0.66615855  0.32993978  1
  Sb  Sb96  1  0.16268356  0.66417117  0.50240256  1
  Sb  Sb97  1  0.49570132  0.83774179  0.33354223  1
  Sb  Sb98  1  0.33870347  0.17484859  0.17367707  1
  Sb  Sb99  1  0.17327155  0.34140499  0.83855709  1
  Sb  Sb100  1  0.49605111  0.50046184  0.67304845  1
  Sb  Sb101  1  0.16898963  -0.00361991  0.83501498  1
  Sb  Sb102  1  0.83447637  0.83124206  0.33526996  1
  Sb  Sb103  1  -0.00267751  0.17242234  0.16949906  1
  Sb  Sb104  1  0.83622508  0.16983133  0.66222720  1
  Sb  Sb105  1  0.49754670  0.49589909  0.32691977  1
  Sb  Sb106  1  0.67093560  0.49940482  0.50084903  1
  Sb  Sb107  1  0.00043400  -0.00237621  -0.00083811  1
  Te  Te108  1  0.16531235  0.17034474  0.16945834  1
  Te  Te109  1  0.16912646  0.16795778  0.49778705  1
  Te  Te110  1  0.16712531  0.16724960  0.83187659  1
  Te  Te111  1  0.16792411  0.49586707  0.16424069  1
  Te  Te112  1  0.16739037  0.49853677  0.50315533  1
  Te  Te113  1  0.16732352  0.50098509  0.83405615  1
  Te  Te114  1  0.17332130  0.83838149  0.16487673  1
  Te  Te115  1  0.16877828  0.83335051  0.50087225  1
  Te  Te116  1  0.16774784  0.82874252  0.83326650  1
  Te  Te117  1  0.50355087  0.16849005  0.16867347  1
  Te  Te118  1  0.50010774  0.16498975  0.49790651  1
  Te  Te119  1  0.50255324  0.16283326  0.83042915  1
  Te  Te120  1  0.49887297  0.49908093  0.16343075  1
  Te  Te121  1  0.49679175  0.49930235  0.50025028  1
  Te  Te122  1  0.49712310  0.50205090  0.83648078  1
  Te  Te123  1  0.49389002  0.83023407  0.16630680  1
  Te  Te124  1  0.49894258  0.83724755  0.50029696  1
  Te  Te125  1  0.49924763  0.83400591  0.83326148  1
  Te  Te126  1  0.82896883  0.16910428  0.17213328  1
  Te  Te127  1  0.83093759  0.16893636  0.49569263  1
  Te  Te128  1  0.82784271  0.16342926  0.83395548  1
  Te  Te129  1  0.83175902  0.50089680  0.16814017  1
  Te  Te130  1  0.83317980  0.50078744  0.49792943  1
  Te  Te131  1  0.83682886  0.49956539  0.83314480  1
  Te  Te132  1  0.83315732  0.82862474  0.16604285  1
  Te  Te133  1  0.83485692  0.82849042  0.50052205  1
  Te  Te134  1  0.83323677  0.83759649  0.83314286  1
  Te  Te135  1  0.16714772  0.00344271  0.00713223  1
  Te  Te136  1  0.16725522  0.00383544  0.33116433  1
  Te  Te137  1  0.16133958  0.00432365  0.66778112  1
  Te  Te138  1  0.16996604  0.33954885  0.00693723  1
  Te  Te139  1  0.16969993  0.32801003  0.32841021  1
  Te  Te140  1  0.16585730  0.33234849  0.66714819  1
  Te  Te141  1  0.17188589  0.65979540  -0.00475954  1
  Te  Te142  1  0.16755357  0.66575932  0.33210290  1
  Te  Te143  1  0.15976577  0.66209721  0.67259821  1
  Te  Te144  1  0.49996899  0.00545575  -0.00429818  1
  Te  Te145  1  0.49576554  0.00567522  0.33630290  1
  Te  Te146  1  0.50297465  0.00031694  0.66602006  1
  Te  Te147  1  0.50068489  0.33431935  0.00119956  1
  Te  Te148  1  0.49602704  0.32844499  0.32917532  1
  Te  Te149  1  0.50053274  0.33365435  0.67450823  1
  Te  Te150  1  0.49920300  0.66413755  0.00000452  1
  Te  Te151  1  0.49591843  0.66515518  0.32945654  1
  Te  Te152  1  0.50290922  0.66532469  0.67328895  1
  Te  Te153  1  0.83360466  0.00122068  -0.00505843  1
  Te  Te154  1  0.83849781  0.00361279  0.33289267  1
  Te  Te155  1  0.83566563  0.00242658  0.67010158  1
  Te  Te156  1  0.82984214  0.33901801  0.00552363  1
  Te  Te157  1  0.83321415  0.33361996  0.33151594  1
  Te  Te158  1  0.83295338  0.33891626  0.66450821  1
  Te  Te159  1  0.83196422  0.66103338  0.00472160  1
  Te  Te160  1  0.83344849  0.66488163  0.33271837  1
  Te  Te161  1  0.83855582  0.66046192  0.66268313  1
  Te  Te162  1  0.00020450  0.16706003  -0.00057405  1
  Te  Te163  1  -0.00094514  0.16194131  0.33290588  1
  Te  Te164  1  0.00478375  0.16131988  0.66571684  1
  Te  Te165  1  -0.00607426  0.50016536  0.00310480  1
  Te  Te166  1  -0.00071118  0.50302127  0.33378742  1
  Te  Te167  1  0.00176237  0.50255601  0.66558318  1
  Te  Te168  1  0.00085334  0.83119042  -0.00866179  1
  Te  Te169  1  0.00136598  0.83168180  0.33739371  1
  Te  Te170  1  0.00017827  0.83220171  0.66561769  1
  Te  Te171  1  0.34090531  0.16919198  -0.00098071  1
  Te  Te172  1  0.33394691  0.16689539  0.33431732  1
  Te  Te173  1  0.32638284  0.16675440  0.65871915  1
  Te  Te174  1  0.33532474  0.50117493  0.00164095  1
  Te  Te175  1  0.33210778  0.50004466  0.33512012  1
  Te  Te176  1  0.32816447  0.49904870  0.65685477  1
  Te  Te177  1  0.33262554  0.83071495  -0.00319457  1
  Te  Te178  1  0.33354343  0.82750117  0.33472983  1
  Te  Te179  1  0.33145846  0.83308370  0.66411321  1
  Te  Te180  1  0.66126480  0.16854546  -0.00168587  1
  Te  Te181  1  0.66746334  0.16676885  0.33658833  1
  Te  Te182  1  0.66829002  0.16226728  0.66584117  1
  Te  Te183  1  0.66978326  0.50027066  -0.00079678  1
  Te  Te184  1  0.67448570  0.49926281  0.33407392  1
  Te  Te185  1  0.67229570  0.50012805  0.66872903  1
  Te  Te186  1  0.66721391  0.82875662  -0.00464941  1
  Te  Te187  1  0.66553900  0.83525609  0.34060849  1
  Te  Te188  1  0.66783162  0.83850266  0.66617368  1
  Te  Te189  1  0.00494502  -0.00340313  0.17099326  1
  Te  Te190  1  -0.00057277  -0.00269969  0.49948985  1
  Te  Te191  1  0.00083255  -0.00287719  0.83057293  1
  Te  Te192  1  -0.00782034  0.34034428  0.16759714  1
  Te  Te193  1  -0.00670934  0.33912418  0.49895875  1
  Te  Te194  1  -0.00034167  0.33962706  0.83340200  1
  Te  Te195  1  -0.00198587  0.66333935  0.17039350  1
  Te  Te196  1  -0.00003660  0.66662441  0.49906660  1
  Te  Te197  1  -0.00073640  0.66572822  0.83282445  1
  Te  Te198  1  0.33024181  -0.00375564  0.17169680  1
  Te  Te199  1  0.33703624  -0.00099161  0.49627251  1
  Te  Te200  1  0.33791863  -0.00324158  0.83271530  1
  Te  Te201  1  0.33640603  0.33553542  0.16856882  1
  Te  Te202  1  0.33416800  0.33292654  0.49408692  1
  Te  Te203  1  0.33893144  0.33600134  0.83502138  1
  Te  Te204  1  0.33273960  0.66312060  0.16636638  1
  Te  Te205  1  0.33416041  0.66736208  0.49854780  1
  Te  Te206  1  0.33307165  0.66604473  0.83070345  1
  Te  Te207  1  0.66690786  0.00436417  0.16673649  1
  Te  Te208  1  0.66414670  -0.00018805  0.50448503  1
  Te  Te209  1  0.66489847  -0.00133405  0.83038353  1
  Te  Te210  1  0.66600649  0.32861532  0.16248958  1
  Te  Te211  1  0.67018674  0.32880897  0.50164910  1
  Te  Te212  1  0.66162267  0.32976727  0.83801397  1
  Te  Te213  1  0.66513809  0.67113345  0.16200847  1
  Te  Te214  1  0.66850606  0.67196146  0.50020784  1
  Te  Te215  1  0.66585977  0.67209218  0.83701590  1
