# generated using pymatgen
data_AgSbTe2
_symmetry_space_group_name_H-M   'P 1'
_cell_length_a   18.32928061
_cell_length_b   18.33852283
_cell_length_c   18.32914142
_cell_angle_alpha   89.99976692
_cell_angle_beta   89.99439440
_cell_angle_gamma   89.99856139
_symmetry_Int_Tables_number   1
_chemical_formula_structural   AgSbTe2
_chemical_formula_sum   'Ag54 Sb54 Te108'
_cell_volume   6161.00966699
_cell_formula_units_Z   54
loop_
 _symmetry_equiv_pos_site_id
 _symmetry_equiv_pos_as_xyz
  1  'x, y, z'
loop_
 _atom_site_type_symbol
 _atom_site_label
 _atom_site_symmetry_multiplicity
 _atom_site_fract_x
 _atom_site_fract_y
 _atom_site_fract_z
 _atom_site_occupancy
  Ag  Ag0  1  0.66635880  0.83509107  0.83191414  1
  Ag  Ag1  1  0.33236557  0.16932615  0.83286685  1
  Ag  Ag2  1  0.16450982  0.49188914  0.33484579  1
  Ag  Ag3  1  0.67078076  0.84468178  0.50012976  1
  Ag  Ag4  1  0.66645878  0.83333051  0.17274102  1
  Ag  Ag5  1  0.50161615  0.16644925  0.66731274  1
  Ag  Ag6  1  0.82923046  0.33045859  0.83317992  1
  Ag  Ag7  1  0.16586409  0.00271836  0.49437293  1
  Ag  Ag8  1  -0.01057992  0.33126451  0.33633135  1
  Ag  Ag9  1  0.82759111  0.83242353  0.65961635  1
  Ag  Ag10  1  0.50751020  0.33228618  0.49660554  1
  Ag  Ag11  1  0.83515562  0.17387449  0.34235227  1
  Ag  Ag12  1  0.66803388  0.16813591  0.82990295  1
  Ag  Ag13  1  0.33085226  0.50376755  0.50294416  1
  Ag  Ag14  1  0.82691442  0.33148140  0.18053533  1
  Ag  Ag15  1  0.00900053  0.00635115  -0.00188021  1
  Ag  Ag16  1  0.17115200  0.66025004  0.83364526  1
  Ag  Ag17  1  0.82848714  0.66955135  0.50065568  1
  Ag  Ag18  1  0.51156078  0.00362445  0.50593113  1
  Ag  Ag19  1  0.16739553  0.00897312  0.16276563  1
  Ag  Ag20  1  0.33533103  0.83301342  0.83456548  1
  Ag  Ag21  1  0.33352763  0.66130244  0.66486652  1
  Ag  Ag22  1  0.49953921  0.66277326  0.49785998  1
  Ag  Ag23  1  0.49701713  0.49873242  -0.00247115  1
  Ag  Ag24  1  0.32900595  0.00139215  -0.00526376  1
  Ag  Ag25  1  0.66629556  0.66204336  -0.00591395  1
  Ag  Ag26  1  0.82361358  0.00611818  0.49647778  1
  Ag  Ag27  1  0.66943182  0.33516963  -0.00035635  1
  Ag  Ag28  1  0.33220043  0.66455488  0.34582037  1
  Ag  Ag29  1  0.00079052  0.49352217  0.49499521  1
  Ag  Ag30  1  0.50725403  0.33623772  0.16914232  1
  Ag  Ag31  1  0.82780411  0.66287208  0.82895215  1
  Ag  Ag32  1  0.33406112  0.33820112  0.66830960  1
  Ag  Ag33  1  0.66532058  0.49558538  0.83924075  1
  Ag  Ag34  1  -0.00113855  0.16879731  0.83365762  1
  Ag  Ag35  1  0.66605258  0.00051228  0.65703442  1
  Ag  Ag36  1  0.50184897  0.00342236  0.82986493  1
  Ag  Ag37  1  0.17073282  0.49496528  -0.00257460  1
  Ag  Ag38  1  0.50212820  0.65948879  0.16874178  1
  Ag  Ag39  1  0.83503835  0.48739565  0.33859841  1
  Ag  Ag40  1  0.16845985  0.84465436  -0.00159140  1
  Ag  Ag41  1  0.16161014  0.17408226  0.33259500  1
  Ag  Ag42  1  0.67589846  0.32987601  0.33288906  1
  Ag  Ag43  1  0.16187267  0.16631845  -0.00118491  1
  Ag  Ag44  1  0.82844143  0.83414524  0.34259338  1
  Ag  Ag45  1  -0.01030708  0.17025210  0.50000527  1
  Ag  Ag46  1  0.67213918  0.15764933  0.50077550  1
  Ag  Ag47  1  0.17466568  0.66408913  0.50185112  1
  Ag  Ag48  1  0.82638637  0.32684334  0.49209965  1
  Ag  Ag49  1  0.83553616  0.16957915  -0.00333326  1
  Ag  Ag50  1  0.16715062  0.32926271  0.16377395  1
  Ag  Ag51  1  0.16716569  0.33349367  0.84040580  1
  Ag  Ag52  1  0.66971044  0.00689617  0.34349879  1
  Ag  Ag53  1  0.33274801  0.49935248  0.83020738  1
  Sb  Sb54  1  -0.00191910  0.32838849  0.00305339  1
  Sb  Sb55  1  0.16601679  0.33466505  0.49812995  1
  Sb  Sb56  1  0.17343159  0.66449771  0.16599671  1
  Sb  Sb57  1  0.33573491  0.66690445  -0.00479531  1
  Sb  Sb58  1  0.33328457  0.33656712  0.33823708  1
  Sb  Sb59  1  -0.00199544  0.66814241  -0.00308681  1
  Sb  Sb60  1  0.83301262  0.83855199  -0.00128461  1
  Sb  Sb61  1  0.66595429  0.49869708  0.16236374  1
  Sb  Sb62  1  -0.00703237  0.83664662  0.49907642  1
  Sb  Sb63  1  0.00178248  0.33139705  0.66270383  1
  Sb  Sb64  1  0.83483684  0.00566730  0.17140396  1
  Sb  Sb65  1  -0.00095650  0.83841087  0.83517439  1
  Sb  Sb66  1  0.33487576  -0.00270607  0.33349077  1
  Sb  Sb67  1  0.50465960  0.83740312  0.66674768  1
  Sb  Sb68  1  0.00118437  0.49434922  0.82944710  1
  Sb  Sb69  1  -0.00391558  0.00841082  0.33316146  1
  Sb  Sb70  1  0.17161246  0.00273205  0.83594619  1
  Sb  Sb71  1  0.49856534  0.00269467  0.16631608  1
  Sb  Sb72  1  0.00141502  0.66001552  0.33794661  1
  Sb  Sb73  1  0.50034797  0.49980797  0.33239398  1
  Sb  Sb74  1  0.33041753  0.16796613  0.16087394  1
  Sb  Sb75  1  0.33687894  0.83194831  0.16223070  1
  Sb  Sb76  1  0.33328102  0.33153497  -0.00549846  1
  Sb  Sb77  1  0.49954800  0.66826393  0.83100363  1
  Sb  Sb78  1  0.83085599  0.50211798  0.66190691  1
  Sb  Sb79  1  0.16510378  0.83357868  0.66907967  1
  Sb  Sb80  1  0.00197140  0.66648529  0.66518690  1
  Sb  Sb81  1  0.66613591  0.49740753  0.50229288  1
  Sb  Sb82  1  0.49941032  0.82965964  -0.00195648  1
  Sb  Sb83  1  0.50509915  0.83258959  0.33548804  1
  Sb  Sb84  1  0.49914481  0.49623749  0.66883716  1
  Sb  Sb85  1  0.33861504  -0.00005105  0.67005671  1
  Sb  Sb86  1  0.82589299  0.66270539  0.16856090  1
  Sb  Sb87  1  0.83453163  0.49358160  0.00133869  1
  Sb  Sb88  1  0.33393916  0.49922886  0.16612230  1
  Sb  Sb89  1  0.66500584  0.66488997  0.33265440  1
  Sb  Sb90  1  0.50138552  0.17135302  -0.00502770  1
  Sb  Sb91  1  0.66601040  0.00298650  -0.00140270  1
  Sb  Sb92  1  0.17193008  0.16679857  0.66845275  1
  Sb  Sb93  1  0.66344782  0.32761266  0.66647042  1
  Sb  Sb94  1  0.50281219  0.16877555  0.34012606  1
  Sb  Sb95  1  0.17008120  0.49968776  0.66516820  1
  Sb  Sb96  1  0.00008033  0.16778111  0.16670387  1
  Sb  Sb97  1  0.00064775  0.49684787  0.17151412  1
  Sb  Sb98  1  0.82716302  0.00252007  0.82902376  1
  Sb  Sb99  1  -0.00512409  0.83614390  0.16677669  1
  Sb  Sb100  1  0.82742469  0.16490509  0.66442294  1
  Sb  Sb101  1  -0.00481753  0.00260743  0.66746155  1
  Sb  Sb102  1  0.50014910  0.33055696  0.83268290  1
  Sb  Sb103  1  0.16173060  0.83385793  0.33124324  1
  Sb  Sb104  1  0.33519366  0.17024831  0.50418160  1
  Sb  Sb105  1  0.66304154  0.67201177  0.66867509  1
  Sb  Sb106  1  0.66806684  0.16701705  0.16858697  1
  Sb  Sb107  1  0.33820827  0.82833924  0.50645347  1
  Te  Te108  1  0.16608420  0.16792350  0.16557078  1
  Te  Te109  1  0.16811382  0.16652714  0.49849004  1
  Te  Te110  1  0.16909158  0.16837941  0.83542916  1
  Te  Te111  1  0.16763902  0.49604309  0.16840284  1
  Te  Te112  1  0.16947548  0.50202954  0.49749812  1
  Te  Te113  1  0.16658102  0.49899021  0.83364765  1
  Te  Te114  1  0.16699030  0.83369924  0.16085525  1
  Te  Te115  1  0.16501423  0.82798336  0.49990140  1
  Te  Te116  1  0.16751705  0.83145081  0.83661221  1
  Te  Te117  1  0.49848082  0.17384067  0.16751254  1
  Te  Te118  1  0.50212451  0.16730159  0.50375097  1
  Te  Te119  1  0.50118093  0.16466521  0.83096702  1
  Te  Te120  1  0.50009422  0.49778835  0.16087793  1
  Te  Te121  1  0.49623718  0.49953846  0.50010998  1
  Te  Te122  1  0.49948425  0.49976875  0.83696205  1
  Te  Te123  1  0.50608673  0.83239203  0.16611071  1
  Te  Te124  1  0.50632008  0.83611018  0.50077267  1
  Te  Te125  1  0.50047389  0.83746319  0.83321334  1
  Te  Te126  1  0.83322318  0.17302822  0.16347271  1
  Te  Te127  1  0.83206288  0.16749795  0.50085514  1
  Te  Te128  1  0.83064836  0.16705085  0.83164061  1
  Te  Te129  1  0.83343556  0.49317532  0.17290007  1
  Te  Te130  1  0.83287353  0.50000203  0.49745607  1
  Te  Te131  1  0.83326603  0.50257940  0.83379373  1
  Te  Te132  1  0.82660768  0.83365901  0.16786787  1
  Te  Te133  1  0.83149252  0.83060026  0.50005737  1
  Te  Te134  1  0.83073485  0.83116462  0.83346205  1
  Te  Te135  1  0.16839399  0.00360678  -0.00205177  1
  Te  Te136  1  0.16608093  0.00114152  0.33195795  1
  Te  Te137  1  0.16617147  -0.00144234  0.65732170  1
  Te  Te138  1  0.16595383  0.33148101  0.00068411  1
  Te  Te139  1  0.16921769  0.33334362  0.33123653  1
  Te  Te140  1  0.17235731  0.33246171  0.67598658  1
  Te  Te141  1  0.16626639  0.66023524  -0.00258964  1
  Te  Te142  1  0.16922852  0.66513654  0.33512944  1
  Te  Te143  1  0.17096149  0.66808096  0.66730325  1
  Te  Te144  1  0.49419808  0.00121775  -0.00161114  1
  Te  Te145  1  0.50527566  0.00068664  0.33712795  1
  Te  Te146  1  0.50377591  0.00320863  0.66596552  1
  Te  Te147  1  0.50352213  0.33756135  0.00285930  1
  Te  Te148  1  0.50163598  0.33418658  0.33365845  1
  Te  Te149  1  0.49650977  0.32936463  0.66062557  1
  Te  Te150  1  0.50418042  0.66198609  0.00095546  1
  Te  Te151  1  0.49646942  0.66583801  0.33574182  1
  Te  Te152  1  0.49480551  0.66672400  0.65977173  1
  Te  Te153  1  0.83553335  0.00737204  0.00170833  1
  Te  Te154  1  0.83006394  0.00129568  0.33560921  1
  Te  Te155  1  0.82844321  -0.00418304  0.66053957  1
  Te  Te156  1  0.83177390  0.33002466  -0.00883479  1
  Te  Te157  1  0.83327516  0.33060837  0.33623357  1
  Te  Te158  1  0.83315791  0.33449444  0.67419218  1
  Te  Te159  1  0.82915865  0.66595208  -0.00228505  1
  Te  Te160  1  0.83354903  0.67016344  0.33647162  1
  Te  Te161  1  0.83278673  0.66980008  0.66750938  1
  Te  Te162  1  -0.00027112  0.16596167  -0.00345272  1
  Te  Te163  1  0.00024502  0.17020042  0.33767893  1
  Te  Te164  1  0.00142834  0.16644967  0.66667263  1
  Te  Te165  1  0.00836416  0.49976175  -0.00127250  1
  Te  Te166  1  0.00198090  0.49451237  0.33703943  1
  Te  Te167  1  -0.00060047  0.49928481  0.65440504  1
  Te  Te168  1  0.00631331  0.83928738  0.00032159  1
  Te  Te169  1  -0.00953692  0.83475451  0.33192908  1
  Te  Te170  1  -0.01003229  0.83431504  0.66761027  1
  Te  Te171  1  0.33045184  0.16383099  -0.00631426  1
  Te  Te172  1  0.32486609  0.16481807  0.33398147  1
  Te  Te173  1  0.33927132  0.16796111  0.67239018  1
  Te  Te174  1  0.33230079  0.49913071  -0.00464449  1
  Te  Te175  1  0.33096772  0.50377643  0.33690646  1
  Te  Te176  1  0.33466151  0.50004801  0.66815298  1
  Te  Te177  1  0.32956490  0.83555134  -0.00515213  1
  Te  Te178  1  0.33187892  0.82735014  0.33286075  1
  Te  Te179  1  0.33256018  0.82877523  0.67457171  1
  Te  Te180  1  0.66960282  0.17081821  -0.00205914  1
  Te  Te181  1  0.66934480  0.16854292  0.33542115  1
  Te  Te182  1  0.66214574  0.16240023  0.66697782  1
  Te  Te183  1  0.66856736  0.49777905  -0.00349571  1
  Te  Te184  1  0.67061985  0.49404810  0.33347788  1
  Te  Te185  1  0.66515725  0.50039056  0.68008895  1
  Te  Te186  1  0.66728271  0.83142697  -0.00721551  1
  Te  Te187  1  0.66971377  0.83152677  0.33666446  1
  Te  Te188  1  0.66919415  0.83755973  0.66891989  1
  Te  Te189  1  0.00652864  0.00020054  0.16037389  1
  Te  Te190  1  0.00534450  0.00516321  0.50018121  1
  Te  Te191  1  -0.00076498  0.00720042  0.83629755  1
  Te  Te192  1  0.00277854  0.33368909  0.17386363  1
  Te  Te193  1  -0.00093061  0.33127548  0.49777406  1
  Te  Te194  1  0.00184851  0.32855775  0.83287852  1
  Te  Te195  1  -0.00021108  0.66721068  0.16625397  1
  Te  Te196  1  -0.00228624  0.66390944  0.50046468  1
  Te  Te197  1  0.00067745  0.66635300  0.83246359  1
  Te  Te198  1  0.32870993  -0.00101114  0.16237719  1
  Te  Te199  1  0.32949888  -0.00240868  0.50082472  1
  Te  Te200  1  0.33716648  -0.00084835  0.83419060  1
  Te  Te201  1  0.33129676  0.33353141  0.16659622  1
  Te  Te202  1  0.33486002  0.33789260  0.50561312  1
  Te  Te203  1  0.33364234  0.33512047  0.83052957  1
  Te  Te204  1  0.34238246  0.66686624  0.16912389  1
  Te  Te205  1  0.33397770  0.66633777  0.50309897  1
  Te  Te206  1  0.33209473  0.66428938  0.83132440  1
  Te  Te207  1  0.66559371  -0.00547016  0.16839812  1
  Te  Te208  1  0.66756361  0.00067306  0.49952178  1
  Te  Te209  1  0.66277849  0.00096625  0.83458160  1
  Te  Te210  1  0.66742706  0.33267709  0.16526056  1
  Te  Te211  1  0.66747682  0.33347620  0.49987418  1
  Te  Te212  1  0.66595953  0.33093487  0.83340229  1
  Te  Te213  1  0.66133389  0.66948144  0.16265460  1
  Te  Te214  1  0.66680299  0.66518076  0.50112101  1
  Te  Te215  1  0.66657775  0.66952875  0.83406966  1
