# generated using pymatgen
data_AgSbTe2
_symmetry_space_group_name_H-M   'P 1'
_cell_length_a   18.33728421
_cell_length_b   18.33611886
_cell_length_c   18.33673115
_cell_angle_alpha   89.99542879
_cell_angle_beta   90.00129767
_cell_angle_gamma   89.99599380
_symmetry_Int_Tables_number   1
_chemical_formula_structural   AgSbTe2
_chemical_formula_sum   'Ag54 Sb54 Te108'
_cell_volume   6165.44384226
_cell_formula_units_Z   54
loop_
 _symmetry_equiv_pos_site_id
 _symmetry_equiv_pos_as_xyz
  1  'x, y, z'
loop_
 _atom_site_type_symbol
 _atom_site_label
 _atom_site_symmetry_multiplicity
 _atom_site_fract_x
 _atom_site_fract_y
 _atom_site_fract_z
 _atom_site_occupancy
  Ag  Ag0  1  -0.00641866  0.32928533  0.66368802  1
  Ag  Ag1  1  0.84272756  0.00204170  0.50250203  1
  Ag  Ag2  1  0.83254963  0.33141512  0.82136269  1
  Ag  Ag3  1  0.49992846  -0.00898912  0.17452397  1
  Ag  Ag4  1  0.32974526  0.17401507  0.82731439  1
  Ag  Ag5  1  0.83031293  0.66957531  0.82765384  1
  Ag  Ag6  1  0.33815779  0.16530528  0.17417747  1
  Ag  Ag7  1  0.82815131  0.83038992  -0.00115852  1
  Ag  Ag8  1  0.49393684  0.33521668  0.82704576  1
  Ag  Ag9  1  -0.00438208  -0.00292666  0.34307926  1
  Ag  Ag10  1  0.16142624  -0.00063460  0.50312066  1
  Ag  Ag11  1  0.83878615  0.00186655  0.82248264  1
  Ag  Ag12  1  0.33428348  0.82707774  0.49419652  1
  Ag  Ag13  1  0.16077842  0.33026877  0.50554739  1
  Ag  Ag14  1  0.49900593  0.16246382  0.33305360  1
  Ag  Ag15  1  0.33907484  0.51070610  0.16207303  1
  Ag  Ag16  1  0.82870617  0.49619399  0.66614707  1
  Ag  Ag17  1  0.33543785  0.33855357  0.66878241  1
  Ag  Ag18  1  0.83206512  0.16614365  0.33520874  1
  Ag  Ag19  1  0.17694197  0.32544704  0.82413355  1
  Ag  Ag20  1  0.17370498  0.67376492  0.49749760  1
  Ag  Ag21  1  0.48972345  0.67150198  0.49614459  1
  Ag  Ag22  1  0.34393794  0.66043564  0.66276733  1
  Ag  Ag23  1  0.82751420  0.66977800  0.16644226  1
  Ag  Ag24  1  0.67249649  -0.00331623  0.66560827  1
  Ag  Ag25  1  0.00138893  0.67245808  0.33826470  1
  Ag  Ag26  1  0.33601958  0.67107018  0.33769411  1
  Ag  Ag27  1  0.49527230  0.83440943  0.32750646  1
  Ag  Ag28  1  0.66776353  0.83004252  0.83453344  1
  Ag  Ag29  1  0.50116662  0.49951799  0.66866163  1
  Ag  Ag30  1  0.49475161  -0.00434067  0.49553008  1
  Ag  Ag31  1  0.34353828  0.66788180  0.00888207  1
  Ag  Ag32  1  0.49710075  0.82430988  0.00667714  1
  Ag  Ag33  1  0.49916022  0.33604590  0.16666929  1
  Ag  Ag34  1  0.65964407  0.67006310  -0.00515674  1
  Ag  Ag35  1  0.67272808  0.33761281  0.66595709  1
  Ag  Ag36  1  0.49640597  0.67070560  0.16357442  1
  Ag  Ag37  1  0.33104291  0.16423825  0.49946280  1
  Ag  Ag38  1  0.66476796  0.66424453  0.66834250  1
  Ag  Ag39  1  0.83486862  0.66759099  0.50112530  1
  Ag  Ag40  1  0.33629080  0.49765017  0.83076716  1
  Ag  Ag41  1  0.83930156  0.33233498  0.50426599  1
  Ag  Ag42  1  0.33833188  0.82847845  0.17535750  1
  Ag  Ag43  1  0.82977747  -0.00295083  0.17111968  1
  Ag  Ag44  1  0.49711060  0.50626043  -0.00147133  1
  Ag  Ag45  1  0.82786000  0.33265756  0.17147487  1
  Ag  Ag46  1  0.00130282  0.16508956  0.50329791  1
  Ag  Ag47  1  0.17717417  0.83219001  0.33552619  1
  Ag  Ag48  1  -0.00204650  0.49185548  0.50216596  1
  Ag  Ag49  1  -0.00801695  0.00690150  0.65984845  1
  Ag  Ag50  1  0.66850349  0.32960706  0.34092576  1
  Ag  Ag51  1  0.00072437  0.16647697  0.82315702  1
  Ag  Ag52  1  0.17653822  0.83334227  0.00213287  1
  Ag  Ag53  1  0.16044886  0.00462126  0.82367639  1
  Sb  Sb54  1  0.66448591  0.66457508  0.33609628  1
  Sb  Sb55  1  0.66408370  0.34034940  -0.00451202  1
  Sb  Sb56  1  0.50019280  0.00385694  0.83141833  1
  Sb  Sb57  1  0.16942902  0.16159592  -0.00399952  1
  Sb  Sb58  1  0.16887510  -0.00279825  0.17064245  1
  Sb  Sb59  1  -0.00414059  0.83837802  0.83343207  1
  Sb  Sb60  1  0.66165954  0.50360854  0.83020186  1
  Sb  Sb61  1  0.50050513  0.33432486  0.50066015  1
  Sb  Sb62  1  0.83392133  0.49754491  0.33907131  1
  Sb  Sb63  1  0.67112633  0.50021080  0.50329248  1
  Sb  Sb64  1  0.00122126  0.16600401  0.17220813  1
  Sb  Sb65  1  0.66727436  0.00276106  0.33826855  1
  Sb  Sb66  1  -0.00519975  0.32907095  0.34253297  1
  Sb  Sb67  1  0.16807746  0.50644494  0.33747815  1
  Sb  Sb68  1  -0.00171256  0.66763385  0.00352774  1
  Sb  Sb69  1  0.33344894  -0.00604128  0.33600788  1
  Sb  Sb70  1  0.16914928  0.49736750  0.66530811  1
  Sb  Sb71  1  0.33484466  0.33896851  -0.00616737  1
  Sb  Sb72  1  0.49827155  0.50196738  0.33449554  1
  Sb  Sb73  1  -0.00373394  0.66338502  0.65945087  1
  Sb  Sb74  1  0.33647432  0.83163270  0.83273503  1
  Sb  Sb75  1  0.66165745  0.16708147  0.16892039  1
  Sb  Sb76  1  0.00028137  0.50076392  0.17468601  1
  Sb  Sb77  1  0.83064385  0.83552896  0.33097468  1
  Sb  Sb78  1  0.16905715  0.16025943  0.33812341  1
  Sb  Sb79  1  0.00454816  0.83692822  0.49889630  1
  Sb  Sb80  1  0.49806647  0.17168509  0.66151898  1
  Sb  Sb81  1  0.82720400  0.50536677  -0.00529823  1
  Sb  Sb82  1  -0.00284167  0.33364133  -0.00880509  1
  Sb  Sb83  1  0.00143142  0.83306226  0.16881672  1
  Sb  Sb84  1  0.16523278  0.66846717  0.82806457  1
  Sb  Sb85  1  0.33446881  -0.00655438  0.00063216  1
  Sb  Sb86  1  0.83201967  0.83209633  0.66882495  1
  Sb  Sb87  1  0.66158935  0.83314086  0.50426116  1
  Sb  Sb88  1  0.33637728  0.33585251  0.33710619  1
  Sb  Sb89  1  0.66882802  0.16528630  0.83051819  1
  Sb  Sb90  1  0.16861405  0.83358086  0.66296048  1
  Sb  Sb91  1  0.17513591  0.50629393  -0.00278884  1
  Sb  Sb92  1  0.33366777  0.00142950  0.66318431  1
  Sb  Sb93  1  0.66045427  0.83272835  0.16244285  1
  Sb  Sb94  1  -0.00110226  -0.00088983  -0.00128991  1
  Sb  Sb95  1  0.49702089  0.16667754  0.00480173  1
  Sb  Sb96  1  0.17368563  0.66890755  0.17255062  1
  Sb  Sb97  1  0.17172126  0.33276423  0.16858259  1
  Sb  Sb98  1  0.00153909  0.49431916  0.82493868  1
  Sb  Sb99  1  0.83520369  0.17028126  0.66052414  1
  Sb  Sb100  1  0.66112542  0.50082806  0.16575279  1
  Sb  Sb101  1  0.50332738  0.66205831  0.83474188  1
  Sb  Sb102  1  0.16566059  0.16890749  0.66493554  1
  Sb  Sb103  1  0.33101749  0.50210074  0.50258405  1
  Sb  Sb104  1  0.83341212  0.16257801  0.00372440  1
  Sb  Sb105  1  0.66848405  0.16666415  0.49984112  1
  Sb  Sb106  1  0.50009634  0.82789842  0.66623314  1
  Sb  Sb107  1  0.66696330  -0.00837419  -0.00529926  1
  Te  Te108  1  0.17523650  0.16622097  0.16649128  1
  Te  Te109  1  0.16818939  0.16463843  0.49887386  1
  Te  Te110  1  0.16775366  0.16588109  0.83373278  1
  Te  Te111  1  0.17470167  0.49916032  0.16611436  1
  Te  Te112  1  0.15990643  0.49691096  0.50022041  1
  Te  Te113  1  0.17209470  0.49503831  0.83277658  1
  Te  Te114  1  0.17378623  0.83396824  0.16733726  1
  Te  Te115  1  0.17225752  0.83414738  0.49719823  1
  Te  Te116  1  0.16683822  0.83846676  0.83663880  1
  Te  Te117  1  0.49637457  0.16902602  0.17073509  1
  Te  Te118  1  0.49689671  0.16527349  0.49463840  1
  Te  Te119  1  0.49635047  0.17334706  0.83520459  1
  Te  Te120  1  0.49661037  0.50027901  0.16730296  1
  Te  Te121  1  0.49930124  0.50675647  0.50525393  1
  Te  Te122  1  0.49598174  0.49585151  0.83168253  1
  Te  Te123  1  0.49778519  0.83202979  0.16629812  1
  Te  Te124  1  0.49554745  0.83208514  0.50038752  1
  Te  Te125  1  0.50455230  0.83690436  0.83895007  1
  Te  Te126  1  0.83511399  0.16727729  0.17112496  1
  Te  Te127  1  0.83478874  0.16446811  0.49514327  1
  Te  Te128  1  0.83587372  0.16483552  0.83651994  1
  Te  Te129  1  0.83383392  0.50032370  0.16472110  1
  Te  Te130  1  0.83708435  0.50021325  0.50398757  1
  Te  Te131  1  0.83482491  0.49711620  0.82936097  1
  Te  Te132  1  0.83354335  0.83249670  0.16404993  1
  Te  Te133  1  0.83085344  0.83506627  0.49807047  1
  Te  Te134  1  0.83147644  0.83439564  0.83628663  1
  Te  Te135  1  0.16644523  -0.00750346  -0.00070072  1
  Te  Te136  1  0.16050615  -0.00621691  0.33785959  1
  Te  Te137  1  0.16627265  -0.00051521  0.66500838  1
  Te  Te138  1  0.16566190  0.33496976  -0.00507512  1
  Te  Te139  1  0.16501792  0.33279619  0.33898785  1
  Te  Te140  1  0.16880055  0.33411709  0.66635186  1
  Te  Te141  1  0.16786240  0.67353689  -0.00151814  1
  Te  Te142  1  0.16704911  0.67234974  0.33778787  1
  Te  Te143  1  0.16558851  0.66590388  0.65871823  1
  Te  Te144  1  0.50152997  -0.00356589  0.00553739  1
  Te  Te145  1  0.50134349  0.00087270  0.33416735  1
  Te  Te146  1  0.50328123  0.00028116  0.66135028  1
  Te  Te147  1  0.50060673  0.33777208  0.00510826  1
  Te  Te148  1  0.50333911  0.33089481  0.33181151  1
  Te  Te149  1  0.49905182  0.33731775  0.66774999  1
  Te  Te150  1  0.49936338  0.66684798  -0.00127623  1
  Te  Te151  1  0.49933313  0.66848242  0.33527969  1
  Te  Te152  1  0.50268368  0.66299891  0.66812425  1
  Te  Te153  1  0.83207803  -0.00538200  0.00448806  1
  Te  Te154  1  0.83314290  0.00160023  0.33480358  1
  Te  Te155  1  0.83258048  -0.00020844  0.66478258  1
  Te  Te156  1  0.83122782  0.33442440  0.00658511  1
  Te  Te157  1  0.83126469  0.33092515  0.33275859  1
  Te  Te158  1  0.83257763  0.33347976  0.66441701  1
  Te  Te159  1  0.83260061  0.66954759  0.00105873  1
  Te  Te160  1  0.83228532  0.66707945  0.33442383  1
  Te  Te161  1  0.83186206  0.66509616  0.66600364  1
  Te  Te162  1  0.00125372  0.16730370  -0.00588669  1
  Te  Te163  1  -0.00221368  0.16093641  0.33836782  1
  Te  Te164  1  -0.00019327  0.16696773  0.66480165  1
  Te  Te165  1  0.00191629  0.50061064  0.00174887  1
  Te  Te166  1  0.00078208  0.50838198  0.34169691  1
  Te  Te167  1  -0.00618551  0.49527927  0.66089437  1
  Te  Te168  1  -0.00053152  0.83276576  0.00118333  1
  Te  Te169  1  0.00042865  0.83419303  0.33247206  1
  Te  Te170  1  0.00086436  0.84352944  0.66763771  1
  Te  Te171  1  0.33313057  0.16687645  -0.00147756  1
  Te  Te172  1  0.33570458  0.16801079  0.33655265  1
  Te  Te173  1  0.33406207  0.17137013  0.66556653  1
  Te  Te174  1  0.33848603  0.50575678  -0.00021001  1
  Te  Te175  1  0.33334476  0.50696974  0.32658150  1
  Te  Te176  1  0.33572736  0.49981772  0.66783214  1
  Te  Te177  1  0.33619917  0.82762423  -0.00171452  1
  Te  Te178  1  0.33566536  0.83103477  0.33445937  1
  Te  Te179  1  0.33391895  0.82616770  0.66190101  1
  Te  Te180  1  0.66607657  0.16626201  -0.00025860  1
  Te  Te181  1  0.66606165  0.17185430  0.33357824  1
  Te  Te182  1  0.66505681  0.16864410  0.66716341  1
  Te  Te183  1  0.65871703  0.51022860  -0.00126602  1
  Te  Te184  1  0.66632094  0.48865912  0.33340639  1
  Te  Te185  1  0.66730484  0.49994317  0.66705230  1
  Te  Te186  1  0.66802340  0.82720738  -0.00384770  1
  Te  Te187  1  0.65686154  0.83354637  0.33428508  1
  Te  Te188  1  0.66601541  0.83082553  0.67283907  1
  Te  Te189  1  -0.00490116  0.00141638  0.17030667  1
  Te  Te190  1  0.00090097  0.00118510  0.50077937  1
  Te  Te191  1  -0.00103947  0.00470733  0.83264038  1
  Te  Te192  1  -0.00189053  0.33347099  0.16747816  1
  Te  Te193  1  -0.00068249  0.32878333  0.50289778  1
  Te  Te194  1  -0.00550407  0.32915245  0.82684432  1
  Te  Te195  1  -0.00526028  0.66518160  0.17371542  1
  Te  Te196  1  -0.00418009  0.67058235  0.49762929  1
  Te  Te197  1  -0.00624979  0.66457448  0.83165187  1
  Te  Te198  1  0.33756064  0.00169675  0.16777980  1
  Te  Te199  1  0.33453010  0.00371364  0.50133409  1
  Te  Te200  1  0.33002361  0.00431178  0.83188812  1
  Te  Te201  1  0.33623689  0.32903189  0.16780464  1
  Te  Te202  1  0.33165030  0.33293271  0.50400846  1
  Te  Te203  1  0.33432786  0.33393876  0.83152550  1
  Te  Te204  1  0.33607802  0.66933508  0.16690003  1
  Te  Te205  1  0.33271018  0.66440449  0.50029001  1
  Te  Te206  1  0.32995972  0.66331260  0.82547882  1
  Te  Te207  1  0.66821305  -0.00001950  0.16699448  1
  Te  Te208  1  0.66443777  -0.00049371  0.50587949  1
  Te  Te209  1  0.67020175  -0.00274235  0.82741318  1
  Te  Te210  1  0.66675024  0.33383172  0.16368102  1
  Te  Te211  1  0.67115128  0.33352014  0.50325195  1
  Te  Te212  1  0.67101819  0.33267209  0.82893139  1
  Te  Te213  1  0.66702657  0.66644314  0.16779996  1
  Te  Te214  1  0.67270200  0.66696586  0.50427031  1
  Te  Te215  1  0.67015937  0.66909848  0.83059820  1
