# generated using pymatgen
data_AgSbTe2
_symmetry_space_group_name_H-M   'P 1'
_cell_length_a   18.33968533
_cell_length_b   18.33495457
_cell_length_c   18.33113899
_cell_angle_alpha   89.99828934
_cell_angle_beta   90.00076235
_cell_angle_gamma   90.00113237
_symmetry_Int_Tables_number   1
_chemical_formula_structural   AgSbTe2
_chemical_formula_sum   'Ag54 Sb54 Te108'
_cell_volume   6163.97924849
_cell_formula_units_Z   54
loop_
 _symmetry_equiv_pos_site_id
 _symmetry_equiv_pos_as_xyz
  1  'x, y, z'
loop_
 _atom_site_type_symbol
 _atom_site_label
 _atom_site_symmetry_multiplicity
 _atom_site_fract_x
 _atom_site_fract_y
 _atom_site_fract_z
 _atom_site_occupancy
  Ag  Ag0  1  0.00056722  0.16845764  0.16495328  1
  Ag  Ag1  1  0.83897228  0.00287172  0.83255135  1
  Ag  Ag2  1  0.34018122  0.50011255  0.83370057  1
  Ag  Ag3  1  0.49907332  0.16921313  0.33870286  1
  Ag  Ag4  1  0.17883909  0.66769292  0.15692182  1
  Ag  Ag5  1  0.49885513  0.50529060  -0.01096700  1
  Ag  Ag6  1  0.16836164  0.82891419  -0.00911780  1
  Ag  Ag7  1  -0.00190844  0.32952823  0.33197190  1
  Ag  Ag8  1  0.83177339  0.66233640  0.17101882  1
  Ag  Ag9  1  -0.00739962  0.50243128  0.51114909  1
  Ag  Ag10  1  0.33602133  0.51038738  0.16035564  1
  Ag  Ag11  1  0.49954260  0.33753339  0.82614951  1
  Ag  Ag12  1  0.65998473  0.81898165  0.82452651  1
  Ag  Ag13  1  0.33363776  0.66622938  0.00789955  1
  Ag  Ag14  1  0.82943329  0.33496706  0.83315090  1
  Ag  Ag15  1  0.34331681  0.66493565  0.32378287  1
  Ag  Ag16  1  0.00155996  0.00665730  0.33110919  1
  Ag  Ag17  1  -0.00473599  0.66331848  0.67302959  1
  Ag  Ag18  1  0.17740015  0.83325146  0.67510787  1
  Ag  Ag19  1  -0.00013290  0.49975987  0.83007367  1
  Ag  Ag20  1  0.34207767  0.33259977  0.67639004  1
  Ag  Ag21  1  0.82026254  0.50225753  0.66841236  1
  Ag  Ag22  1  0.00912489  0.66758984  -0.00523048  1
  Ag  Ag23  1  0.17184528  0.33418243  0.83120905  1
  Ag  Ag24  1  0.66407122  0.82182456  0.50685186  1
  Ag  Ag25  1  0.82074027  0.66569414  0.49782396  1
  Ag  Ag26  1  0.66513409  0.33946556  0.34246351  1
  Ag  Ag27  1  0.16476621  -0.00715007  0.82981725  1
  Ag  Ag28  1  0.66062840  0.50102896  0.82390577  1
  Ag  Ag29  1  0.33262825  -0.00261842  0.67073063  1
  Ag  Ag30  1  0.50118224  0.17728239  0.66593718  1
  Ag  Ag31  1  0.49118625  0.66473600  0.17220608  1
  Ag  Ag32  1  0.66581106  0.65681754  0.66047897  1
  Ag  Ag33  1  0.33824347  0.33636244  0.33378771  1
  Ag  Ag34  1  0.66214022  0.66518830  -0.00482901  1
  Ag  Ag35  1  0.49940600  0.82801371  0.66683941  1
  Ag  Ag36  1  0.16569545  -0.00054337  0.50804284  1
  Ag  Ag37  1  0.33161555  0.82591497  0.83167940  1
  Ag  Ag38  1  0.16780351  0.16756110  0.33399213  1
  Ag  Ag39  1  0.00333632  0.17145461  0.83403112  1
  Ag  Ag40  1  0.50782129  0.66862022  0.49858674  1
  Ag  Ag41  1  0.50712111  0.49958183  0.67096537  1
  Ag  Ag42  1  0.66371692  0.17053009  0.50748664  1
  Ag  Ag43  1  0.66270929  0.17675165  0.82740291  1
  Ag  Ag44  1  0.50317671  0.82166008  0.33952702  1
  Ag  Ag45  1  0.82368174  0.82841629  0.33358840  1
  Ag  Ag46  1  0.00172644  -0.00399422  -0.00637769  1
  Ag  Ag47  1  0.66119316  0.34523513  0.66815011  1
  Ag  Ag48  1  0.33294046  0.82181669  0.16299903  1
  Ag  Ag49  1  0.33143151  0.17729511  0.83045096  1
  Ag  Ag50  1  0.16957114  0.67086575  0.83686422  1
  Ag  Ag51  1  0.65998356  0.66403053  0.34564107  1
  Ag  Ag52  1  0.83342294  0.34114194  0.16817746  1
  Ag  Ag53  1  0.66900855  0.51103105  0.51171068  1
  Sb  Sb54  1  0.66273044  0.50353128  0.16651477  1
  Sb  Sb55  1  -0.00003755  0.33625660  -0.00198255  1
  Sb  Sb56  1  0.00225114  0.49955652  0.16318094  1
  Sb  Sb57  1  0.67176074  -0.00817322  -0.00722080  1
  Sb  Sb58  1  0.82862143  0.50299410  -0.00669878  1
  Sb  Sb59  1  0.66239838  -0.00178637  0.66803010  1
  Sb  Sb60  1  0.16939542  0.50481216  0.67095644  1
  Sb  Sb61  1  0.82563163  0.17332642  0.67031966  1
  Sb  Sb62  1  0.00395465  0.83271622  0.16694584  1
  Sb  Sb63  1  0.33859118  0.16727719  0.50526278  1
  Sb  Sb64  1  0.49908257  0.17376484  -0.00539893  1
  Sb  Sb65  1  -0.00370719  0.82782211  0.50003496  1
  Sb  Sb66  1  0.33827450  0.83130469  0.50347455  1
  Sb  Sb67  1  0.83670155  0.82883459  0.00147417  1
  Sb  Sb68  1  0.32725751  -0.00908457  -0.00900720  1
  Sb  Sb69  1  0.83751496  -0.00192059  0.16502752  1
  Sb  Sb70  1  0.17140554  0.50866855  -0.00436126  1
  Sb  Sb71  1  0.83249237  0.16642380  0.33428435  1
  Sb  Sb72  1  0.00276862  0.83062992  0.83346997  1
  Sb  Sb73  1  0.00528252  -0.00525911  0.66977777  1
  Sb  Sb74  1  0.16771104  0.49684752  0.33377247  1
  Sb  Sb75  1  0.49790983  -0.00820174  0.16970693  1
  Sb  Sb76  1  0.16786586  0.67022361  0.50271520  1
  Sb  Sb77  1  0.50107198  0.50230742  0.33726736  1
  Sb  Sb78  1  0.33816730  0.66542145  0.67015817  1
  Sb  Sb79  1  -0.00174841  0.66506151  0.33297047  1
  Sb  Sb80  1  -0.00123594  0.33909137  0.66783670  1
  Sb  Sb81  1  0.83330889  0.66482585  0.83074044  1
  Sb  Sb82  1  0.16696027  0.33054881  0.50340296  1
  Sb  Sb83  1  0.16505779  0.33721436  0.16403084  1
  Sb  Sb84  1  0.67017497  -0.00356723  0.33499446  1
  Sb  Sb85  1  0.49678600  0.00333763  0.83140119  1
  Sb  Sb86  1  0.32980170  -0.00061173  0.33846844  1
  Sb  Sb87  1  0.49544184  0.82490208  -0.00454141  1
  Sb  Sb88  1  0.82985093  0.33997701  0.50149609  1
  Sb  Sb89  1  0.17262791  0.16259580  0.66790018  1
  Sb  Sb90  1  0.49817845  -0.00373275  0.50231965  1
  Sb  Sb91  1  0.66176761  0.82647679  0.16770820  1
  Sb  Sb92  1  -0.00279580  0.17012130  0.50283640  1
  Sb  Sb93  1  0.33689969  0.50188902  0.50386469  1
  Sb  Sb94  1  0.67044550  0.17216547  0.16740889  1
  Sb  Sb95  1  0.16537042  0.16087127  -0.00182843  1
  Sb  Sb96  1  0.50321763  0.33952409  0.16755238  1
  Sb  Sb97  1  0.50304987  0.33938851  0.50542352  1
  Sb  Sb98  1  0.83372686  0.16701071  -0.00353188  1
  Sb  Sb99  1  0.82868516  0.82667304  0.66607101  1
  Sb  Sb100  1  0.66656866  0.34004253  -0.00879135  1
  Sb  Sb101  1  0.49892576  0.66037873  0.83132094  1
  Sb  Sb102  1  0.83170900  0.50364501  0.33810244  1
  Sb  Sb103  1  0.33297617  0.34157554  -0.00402369  1
  Sb  Sb104  1  0.32985614  0.16813896  0.16542972  1
  Sb  Sb105  1  0.83621590  -0.00532757  0.50404825  1
  Sb  Sb106  1  0.16979916  0.83531243  0.33493879  1
  Sb  Sb107  1  0.16569267  -0.00482011  0.16428559  1
  Te  Te108  1  0.16197975  0.16755010  0.17080102  1
  Te  Te109  1  0.16589828  0.16258944  0.49556806  1
  Te  Te110  1  0.16778422  0.16764338  0.83274809  1
  Te  Te111  1  0.17339825  0.50604606  0.16589118  1
  Te  Te112  1  0.16030328  0.49990664  0.50193083  1
  Te  Te113  1  0.16411930  0.50015242  0.83348275  1
  Te  Te114  1  0.17167007  0.82759001  0.16690308  1
  Te  Te115  1  0.16585638  0.83850805  0.50358374  1
  Te  Te116  1  0.16617320  0.83130949  0.83162762  1
  Te  Te117  1  0.50016817  0.16730222  0.16982029  1
  Te  Te118  1  0.50357149  0.16473062  0.50038156  1
  Te  Te119  1  0.49867597  0.17060358  0.83040078  1
  Te  Te120  1  0.49538979  0.50473069  0.16497428  1
  Te  Te121  1  0.50441164  0.50652236  0.50710088  1
  Te  Te122  1  0.50029789  0.49842692  0.83071297  1
  Te  Te123  1  0.49466413  0.82676455  0.17017640  1
  Te  Te124  1  0.50407242  0.83052684  0.49971914  1
  Te  Te125  1  0.50017583  0.83597481  0.82999175  1
  Te  Te126  1  0.83992514  0.16935505  0.16633090  1
  Te  Te127  1  0.82635943  0.16478478  0.50247261  1
  Te  Te128  1  0.83573926  0.16986794  0.83296063  1
  Te  Te129  1  0.83382587  0.49948504  0.16592960  1
  Te  Te130  1  0.83223665  0.50486324  0.50442836  1
  Te  Te131  1  0.83562326  0.49785018  0.82920849  1
  Te  Te132  1  0.83288116  0.83046025  0.17213705  1
  Te  Te133  1  0.82727537  0.82839178  0.49660053  1
  Te  Te134  1  0.82616540  0.83681511  0.83346728  1
  Te  Te135  1  0.16078944  -0.00662570  -0.00449708  1
  Te  Te136  1  0.16287227  0.00389157  0.33215113  1
  Te  Te137  1  0.17084233  -0.00362744  0.66927906  1
  Te  Te138  1  0.16610079  0.33122284  -0.00774683  1
  Te  Te139  1  0.16585750  0.32891528  0.33270720  1
  Te  Te140  1  0.17071260  0.33143346  0.67096548  1
  Te  Te141  1  0.16806279  0.66974148  -0.00160531  1
  Te  Te142  1  0.16769050  0.66660871  0.33279228  1
  Te  Te143  1  0.16667173  0.67207372  0.67012168  1
  Te  Te144  1  0.50070892  0.00051238  0.00178208  1
  Te  Te145  1  0.49945662  0.00504220  0.33408120  1
  Te  Te146  1  0.49244761  -0.00588298  0.66651255  1
  Te  Te147  1  0.50013033  0.34165380  -0.00413784  1
  Te  Te148  1  0.50208694  0.33192133  0.33416568  1
  Te  Te149  1  0.50133501  0.33419786  0.66699014  1
  Te  Te150  1  0.49861358  0.66470576  0.00395852  1
  Te  Te151  1  0.50271072  0.66433258  0.33299478  1
  Te  Te152  1  0.50219299  0.66741990  0.66499898  1
  Te  Te153  1  0.84148443  -0.00250731  -0.00540169  1
  Te  Te154  1  0.83929412  -0.00643463  0.33412950  1
  Te  Te155  1  0.83584503  -0.00026879  0.67203737  1
  Te  Te156  1  0.83298974  0.33470091  0.00115720  1
  Te  Te157  1  0.83117480  0.33338463  0.33198092  1
  Te  Te158  1  0.82916393  0.33991727  0.67028575  1
  Te  Te159  1  0.83076768  0.66651723  0.00523708  1
  Te  Te160  1  0.83323575  0.66940413  0.33494768  1
  Te  Te161  1  0.83210874  0.66320071  0.66441022  1
  Te  Te162  1  0.00062394  0.16428537  -0.00336272  1
  Te  Te163  1  -0.00039127  0.16834456  0.33664250  1
  Te  Te164  1  -0.00020757  0.16767684  0.67253009  1
  Te  Te165  1  -0.00093610  0.50548242  -0.00575524  1
  Te  Te166  1  -0.00029232  0.49320298  0.33211438  1
  Te  Te167  1  0.00342932  0.50334136  0.66940088  1
  Te  Te168  1  0.00516310  0.83021794  0.00107165  1
  Te  Te169  1  -0.00053687  0.83748934  0.33368416  1
  Te  Te170  1  0.00012012  0.82539289  0.66541668  1
  Te  Te171  1  0.33349501  0.16435971  -0.00686978  1
  Te  Te172  1  0.33456246  0.16808495  0.33278732  1
  Te  Te173  1  0.33870652  0.17210992  0.67079146  1
  Te  Te174  1  0.33713673  0.50579653  -0.00363332  1
  Te  Te175  1  0.33403200  0.49905618  0.33504638  1
  Te  Te176  1  0.33703125  0.49506883  0.67074852  1
  Te  Te177  1  0.32959860  0.82718004  -0.00334891  1
  Te  Te178  1  0.33817043  0.83176264  0.33272197  1
  Te  Te179  1  0.33622087  0.83191118  0.66965079  1
  Te  Te180  1  0.66524609  0.16627320  -0.00746153  1
  Te  Te181  1  0.66386938  0.16760892  0.33303107  1
  Te  Te182  1  0.66069483  0.16429518  0.66878217  1
  Te  Te183  1  0.66133018  0.50623574  -0.00325197  1
  Te  Te184  1  0.66673689  0.50020159  0.33593215  1
  Te  Te185  1  0.66516296  0.50040779  0.66731489  1
  Te  Te186  1  0.66564931  0.82577851  -0.00611183  1
  Te  Te187  1  0.66350371  0.83003535  0.33404303  1
  Te  Te188  1  0.66316269  0.83277246  0.66662734  1
  Te  Te189  1  -0.00013785  0.00623500  0.16719243  1
  Te  Te190  1  0.00329210  0.00080057  0.49789223  1
  Te  Te191  1  0.00221264  -0.00039492  0.83359118  1
  Te  Te192  1  -0.00238140  0.33141885  0.16871892  1
  Te  Te193  1  -0.00129867  0.33900638  0.49588191  1
  Te  Te194  1  -0.00229250  0.33343326  0.83283455  1
  Te  Te195  1  -0.00634914  0.66556911  0.16312802  1
  Te  Te196  1  0.00061052  0.66092907  0.50234176  1
  Te  Te197  1  -0.00024319  0.66456163  0.83343739  1
  Te  Te198  1  0.33252777  -0.00347403  0.16481214  1
  Te  Te199  1  0.32626653  -0.00015118  0.50719893  1
  Te  Te200  1  0.32918533  -0.00403668  0.82977408  1
  Te  Te201  1  0.33359776  0.33621772  0.17119841  1
  Te  Te202  1  0.33259967  0.33436648  0.49302422  1
  Te  Te203  1  0.33433128  0.33643812  0.83456506  1
  Te  Te204  1  0.33436900  0.66608491  0.16754133  1
  Te  Te205  1  0.33604731  0.66573013  0.49141551  1
  Te  Te206  1  0.33173691  0.66533354  0.83324546  1
  Te  Te207  1  0.66841532  0.00085479  0.16325681  1
  Te  Te208  1  0.66821745  0.00493231  0.49988805  1
  Te  Te209  1  0.67183991  0.00593075  0.83343665  1
  Te  Te210  1  0.67263106  0.33536657  0.17008900  1
  Te  Te211  1  0.66671427  0.32996984  0.50127695  1
  Te  Te212  1  0.66701648  0.33618453  0.83088600  1
  Te  Te213  1  0.67267898  0.66660070  0.16282021  1
  Te  Te214  1  0.66499688  0.66649848  0.50060055  1
  Te  Te215  1  0.66718688  0.66250306  0.83243972  1
