# generated using pymatgen
data_AgSbTe2
_symmetry_space_group_name_H-M   'P 1'
_cell_length_a   18.34061862
_cell_length_b   18.33456342
_cell_length_c   18.34125295
_cell_angle_alpha   90.00090276
_cell_angle_beta   89.99873101
_cell_angle_gamma   90.00138502
_symmetry_Int_Tables_number   1
_chemical_formula_structural   AgSbTe2
_chemical_formula_sum   'Ag54 Sb54 Te108'
_cell_volume   6167.56241422
_cell_formula_units_Z   54
loop_
 _symmetry_equiv_pos_site_id
 _symmetry_equiv_pos_as_xyz
  1  'x, y, z'
loop_
 _atom_site_type_symbol
 _atom_site_label
 _atom_site_symmetry_multiplicity
 _atom_site_fract_x
 _atom_site_fract_y
 _atom_site_fract_z
 _atom_site_occupancy
  Ag  Ag0  1  0.34154341  0.50415639  0.83490592  1
  Ag  Ag1  1  0.34704527  0.84043581  0.15589497  1
  Ag  Ag2  1  0.17324638  0.50078150  -0.00092006  1
  Ag  Ag3  1  0.00588569  0.16276088  0.16686147  1
  Ag  Ag4  1  0.82615097  0.33795204  0.16906339  1
  Ag  Ag5  1  0.82441335  0.82652162  0.66898581  1
  Ag  Ag6  1  0.49640860  0.17266152  0.33251044  1
  Ag  Ag7  1  0.50062506  0.82844330  0.67386982  1
  Ag  Ag8  1  0.50249777  0.49331010  0.33312483  1
  Ag  Ag9  1  0.17483337  0.16200355  0.67176282  1
  Ag  Ag10  1  -0.01258425  0.49574184  0.16432652  1
  Ag  Ag11  1  0.50354541  0.83108291  -0.00588181  1
  Ag  Ag12  1  0.66545007  0.67153316  0.32954288  1
  Ag  Ag13  1  0.66541057  0.83180205  0.15572693  1
  Ag  Ag14  1  0.50453129  0.50165928  0.67017770  1
  Ag  Ag15  1  0.82338469  0.66876691  0.82803489  1
  Ag  Ag16  1  0.33824700  -0.00603433  0.00615040  1
  Ag  Ag17  1  0.65805234  0.83203766  0.84260023  1
  Ag  Ag18  1  0.66278976  0.50151168  0.50214925  1
  Ag  Ag19  1  0.17535530  0.83456908  -0.00225672  1
  Ag  Ag20  1  0.66156731  -0.00710999  0.32844724  1
  Ag  Ag21  1  0.82289209  0.50895466  0.67048211  1
  Ag  Ag22  1  0.34177570  0.32086477  0.32966494  1
  Ag  Ag23  1  0.18064985  0.83766365  0.67419753  1
  Ag  Ag24  1  -0.00539970  0.83733710  0.16667611  1
  Ag  Ag25  1  0.33524848  0.15920551  0.16960538  1
  Ag  Ag26  1  0.34158771  0.83066942  0.83665884  1
  Ag  Ag27  1  0.50257633  0.33181956  0.16944602  1
  Ag  Ag28  1  0.82449992  0.34030708  0.49793022  1
  Ag  Ag29  1  0.65733805  -0.01112550  0.00836928  1
  Ag  Ag30  1  -0.00156339  -0.00143628  0.32914073  1
  Ag  Ag31  1  0.49777989  0.34190352  0.82688928  1
  Ag  Ag32  1  0.34083392  -0.00459332  0.66965836  1
  Ag  Ag33  1  0.50470712  0.34016671  0.50413113  1
  Ag  Ag34  1  0.82151089  0.50727327  0.00021471  1
  Ag  Ag35  1  0.81750113  0.82760600  0.00030490  1
  Ag  Ag36  1  0.16830675  0.16497358  -0.00023044  1
  Ag  Ag37  1  -0.00495475  0.83322104  0.49840353  1
  Ag  Ag38  1  0.49923063  0.00073248  0.16800081  1
  Ag  Ag39  1  0.66605703  0.67501830  0.00153929  1
  Ag  Ag40  1  0.17998302  0.16482496  0.32198067  1
  Ag  Ag41  1  0.50289072  0.50422924  -0.00548527  1
  Ag  Ag42  1  0.49714729  0.16440510  0.66513908  1
  Ag  Ag43  1  0.50300727  0.66733171  0.82954147  1
  Ag  Ag44  1  0.82262841  0.66595740  0.50699369  1
  Ag  Ag45  1  0.82757397  0.83330052  0.32712651  1
  Ag  Ag46  1  0.34064688  0.67686508  0.67046431  1
  Ag  Ag47  1  0.50623850  0.66124894  0.50932630  1
  Ag  Ag48  1  0.66513332  0.50301917  0.16619328  1
  Ag  Ag49  1  0.00523959  0.16832996  0.83862591  1
  Ag  Ag50  1  0.65901563  -0.00473234  0.66522715  1
  Ag  Ag51  1  0.34007708  0.00273685  0.32311746  1
  Ag  Ag52  1  0.17654923  0.33052524  0.83364257  1
  Ag  Ag53  1  0.66170692  0.34105951  0.66562004  1
  Sb  Sb54  1  0.82975553  0.16628659  0.66754358  1
  Sb  Sb55  1  0.83093451  -0.00747277  0.83438643  1
  Sb  Sb56  1  0.33382936  0.83394013  0.50395363  1
  Sb  Sb57  1  0.00006809  0.16222998  0.49723448  1
  Sb  Sb58  1  0.66921433  0.82521609  0.50090088  1
  Sb  Sb59  1  0.34413839  0.49916776  0.50576092  1
  Sb  Sb60  1  0.82889653  0.34042473  0.83372049  1
  Sb  Sb61  1  0.16722281  0.66848576  0.16434220  1
  Sb  Sb62  1  0.66033186  0.66832825  0.66872545  1
  Sb  Sb63  1  0.82983009  0.16413135  0.33155014  1
  Sb  Sb64  1  0.00034599  -0.00269771  0.66423811  1
  Sb  Sb65  1  0.16400951  0.83942367  0.33088243  1
  Sb  Sb66  1  0.66039774  0.33514969  0.33561938  1
  Sb  Sb67  1  0.34300008  0.32964019  0.66624579  1
  Sb  Sb68  1  0.33486739  0.33064681  0.00171634  1
  Sb  Sb69  1  0.16737800  -0.00046285  0.49954535  1
  Sb  Sb70  1  -0.00498584  0.33210741  0.66662857  1
  Sb  Sb71  1  0.33581021  0.16682329  0.49432875  1
  Sb  Sb72  1  0.83718353  0.16547647  0.00231328  1
  Sb  Sb73  1  0.00190153  0.32884967  0.33072989  1
  Sb  Sb74  1  0.17074204  0.33235464  0.50408550  1
  Sb  Sb75  1  0.50507092  0.83383095  0.33154711  1
  Sb  Sb76  1  0.33201345  0.16402187  0.83595509  1
  Sb  Sb77  1  -0.00052769  0.83649788  0.83595213  1
  Sb  Sb78  1  0.66383665  0.17314076  0.49989466  1
  Sb  Sb79  1  -0.00691214  0.66781634  0.00090677  1
  Sb  Sb80  1  -0.01110836  0.50455350  0.49397900  1
  Sb  Sb81  1  0.17236274  0.49940021  0.67292760  1
  Sb  Sb82  1  0.16839438  0.66840306  0.50237445  1
  Sb  Sb83  1  0.65935989  0.50804307  0.83443695  1
  Sb  Sb84  1  0.00033882  0.33352544  0.00126546  1
  Sb  Sb85  1  0.00166449  0.49667916  0.83872085  1
  Sb  Sb86  1  0.17048007  0.66539790  0.83458417  1
  Sb  Sb87  1  0.49896844  -0.00387290  0.83484454  1
  Sb  Sb88  1  0.82715461  -0.00150059  0.16650894  1
  Sb  Sb89  1  0.50339680  0.66810986  0.16331255  1
  Sb  Sb90  1  0.34196798  0.67292364  -0.00488072  1
  Sb  Sb91  1  0.66632457  0.16119600  0.83202931  1
  Sb  Sb92  1  -0.00892590  0.67346019  0.33219237  1
  Sb  Sb93  1  0.66166188  0.16580642  0.16776430  1
  Sb  Sb94  1  0.17557664  0.00067782  0.16608768  1
  Sb  Sb95  1  0.17366350  0.49288562  0.32659102  1
  Sb  Sb96  1  0.82382699  0.50540326  0.33114069  1
  Sb  Sb97  1  0.34346108  0.67037157  0.33755171  1
  Sb  Sb98  1  -0.00131607  0.66883842  0.66649733  1
  Sb  Sb99  1  0.49566871  0.16387692  0.00001387  1
  Sb  Sb100  1  0.82896721  0.66598813  0.16431091  1
  Sb  Sb101  1  0.34060862  0.50034971  0.16132031  1
  Sb  Sb102  1  0.16787100  0.00322566  0.83391714  1
  Sb  Sb103  1  0.16979807  0.33026980  0.16160546  1
  Sb  Sb104  1  0.83058436  -0.00526511  0.49948200  1
  Sb  Sb105  1  0.00205526  -0.00219416  0.00667510  1
  Sb  Sb106  1  0.66355720  0.33469701  -0.00303724  1
  Sb  Sb107  1  0.50186552  -0.00141329  0.49913978  1
  Te  Te108  1  0.16732232  0.16668378  0.16486919  1
  Te  Te109  1  0.16549108  0.16762891  0.50910785  1
  Te  Te110  1  0.16656611  0.16967974  0.83422947  1
  Te  Te111  1  0.16802685  0.49941047  0.15986343  1
  Te  Te112  1  0.16393656  0.49914571  0.49861956  1
  Te  Te113  1  0.16945064  0.49528368  0.83848354  1
  Te  Te114  1  0.15958477  0.83382288  0.16286919  1
  Te  Te115  1  0.15908498  0.83230144  0.50345536  1
  Te  Te116  1  0.16725593  0.83277742  0.83333469  1
  Te  Te117  1  0.49654569  0.16675259  0.16690210  1
  Te  Te118  1  0.49968002  0.17238094  0.50138557  1
  Te  Te119  1  0.49961291  0.17481463  0.82950575  1
  Te  Te120  1  0.50289025  0.49948188  0.16524626  1
  Te  Te121  1  0.50335005  0.50016468  0.50233727  1
  Te  Te122  1  0.49882180  0.50189867  0.83300727  1
  Te  Te123  1  0.50415095  0.83503778  0.16556719  1
  Te  Te124  1  0.50018009  0.82804113  0.50560609  1
  Te  Te125  1  0.49932008  0.83334148  0.83285006  1
  Te  Te126  1  0.83838911  0.17410581  0.16639648  1
  Te  Te127  1  0.83421792  0.17667449  0.50032676  1
  Te  Te128  1  0.84053052  0.16968512  0.83437752  1
  Te  Te129  1  0.82986369  0.49914956  0.16489916  1
  Te  Te130  1  0.82789637  0.50138639  0.49999388  1
  Te  Te131  1  0.83519964  0.50377781  0.83450771  1
  Te  Te132  1  0.82946125  0.83314172  0.16559468  1
  Te  Te133  1  0.83511893  0.83040116  0.50354850  1
  Te  Te134  1  0.83463522  0.82811281  0.83396594  1
  Te  Te135  1  0.17086425  -0.00128560  -0.00012135  1
  Te  Te136  1  0.17091229  0.00688723  0.33364260  1
  Te  Te137  1  0.16768249  -0.00133306  0.66638314  1
  Te  Te138  1  0.16744671  0.33252666  -0.00558920  1
  Te  Te139  1  0.17352547  0.32531885  0.33493376  1
  Te  Te140  1  0.16687272  0.33019232  0.67187547  1
  Te  Te141  1  0.16614586  0.66631701  -0.00086979  1
  Te  Te142  1  0.16808749  0.66470769  0.33460932  1
  Te  Te143  1  0.17271539  0.67153476  0.66729518  1
  Te  Te144  1  0.49828528  -0.00161454  0.00170232  1
  Te  Te145  1  0.50006744  -0.00002942  0.33286273  1
  Te  Te146  1  0.49966805  0.00226219  0.66536169  1
  Te  Te147  1  0.49978930  0.33541317  0.00325288  1
  Te  Te148  1  0.50058535  0.33270953  0.33055104  1
  Te  Te149  1  0.50197690  0.33545673  0.66539883  1
  Te  Te150  1  0.50470627  0.66688643  -0.00304843  1
  Te  Te151  1  0.50508034  0.66334491  0.33808324  1
  Te  Te152  1  0.49971864  0.66649913  0.66933413  1
  Te  Te153  1  0.82976856  -0.00736256  -0.00002248  1
  Te  Te154  1  0.82987510  -0.00466522  0.33327264  1
  Te  Te155  1  0.83014261  -0.00405791  0.66619758  1
  Te  Te156  1  0.83182503  0.33840387  0.00415217  1
  Te  Te157  1  0.83256415  0.33374998  0.33178841  1
  Te  Te158  1  0.82712101  0.33549807  0.66456235  1
  Te  Te159  1  0.82775278  0.66704347  -0.00221847  1
  Te  Te160  1  0.82653806  0.67225720  0.33991050  1
  Te  Te161  1  0.83467688  0.66655017  0.66662991  1
  Te  Te162  1  0.00544021  0.16506572  0.00348700  1
  Te  Te163  1  -0.00066234  0.16114004  0.32918552  1
  Te  Te164  1  0.00305948  0.16506286  0.66705278  1
  Te  Te165  1  0.00038158  0.50085012  0.00585295  1
  Te  Te166  1  0.00302580  0.50030769  0.32556165  1
  Te  Te167  1  -0.00258863  0.49995027  0.66493834  1
  Te  Te168  1  0.00749088  0.83391541  0.00461853  1
  Te  Te169  1  -0.00108935  0.83832111  0.33004895  1
  Te  Te170  1  -0.00415651  0.83433982  0.66551490  1
  Te  Te171  1  0.32885206  0.16119950  0.00378654  1
  Te  Te172  1  0.33610235  0.16324635  0.33076818  1
  Te  Te173  1  0.33506625  0.16318596  0.66792339  1
  Te  Te174  1  0.33579747  0.50090023  -0.00405184  1
  Te  Te175  1  0.34027058  0.50075189  0.33172666  1
  Te  Te176  1  0.33729732  0.49965234  0.67255051  1
  Te  Te177  1  0.33478536  0.83368776  -0.00134878  1
  Te  Te178  1  0.33248670  0.83927651  0.33121768  1
  Te  Te179  1  0.33691068  0.83508925  0.66633173  1
  Te  Te180  1  0.66814287  0.15631713  -0.00100004  1
  Te  Te181  1  0.66063364  0.15799371  0.33350555  1
  Te  Te182  1  0.66151036  0.15958219  0.66643304  1
  Te  Te183  1  0.66404224  0.49923854  0.00199047  1
  Te  Te184  1  0.66125021  0.50086589  0.32826766  1
  Te  Te185  1  0.66618707  0.49985964  0.66823593  1
  Te  Te186  1  0.66311353  0.83388400  -0.00066845  1
  Te  Te187  1  0.66857654  0.83298362  0.33456815  1
  Te  Te188  1  0.66544006  0.83414886  0.66569370  1
  Te  Te189  1  -0.00397990  0.00031408  0.17090179  1
  Te  Te190  1  -0.00146977  -0.00540681  0.49180742  1
  Te  Te191  1  -0.00178187  0.00891212  0.83374011  1
  Te  Te192  1  -0.00127876  0.33456591  0.16740386  1
  Te  Te193  1  -0.00458237  0.33480153  0.49867397  1
  Te  Te194  1  0.00136232  0.32797393  0.83337375  1
  Te  Te195  1  -0.00129025  0.66874440  0.16767215  1
  Te  Te196  1  -0.00463185  0.67254569  0.49871722  1
  Te  Te197  1  -0.00584637  0.66602853  0.83379142  1
  Te  Te198  1  0.33874626  -0.00100341  0.16601686  1
  Te  Te199  1  0.33375608  -0.00016514  0.50476794  1
  Te  Te200  1  0.33287485  -0.00595544  0.83029705  1
  Te  Te201  1  0.33802463  0.33232448  0.16998739  1
  Te  Te202  1  0.33875272  0.33416300  0.49199146  1
  Te  Te203  1  0.33645605  0.33575575  0.83356183  1
  Te  Te204  1  0.33451871  0.67696029  0.16849693  1
  Te  Te205  1  0.33805134  0.66617926  0.50720168  1
  Te  Te206  1  0.33658116  0.66853467  0.83016150  1
  Te  Te207  1  0.66178356  -0.00113898  0.16766675  1
  Te  Te208  1  0.66687365  0.00173032  0.50137912  1
  Te  Te209  1  0.66648721  -0.00665809  0.82851876  1
  Te  Te210  1  0.66519690  0.33459492  0.16528820  1
  Te  Te211  1  0.66516864  0.33890508  0.50226468  1
  Te  Te212  1  0.66117390  0.32997102  0.82784250  1
  Te  Te213  1  0.66626324  0.66780123  0.16701075  1
  Te  Te214  1  0.66611771  0.66102225  0.49717412  1
  Te  Te215  1  0.66493144  0.67194611  0.83758372  1
