# generated using pymatgen
data_AgSbTe2
_symmetry_space_group_name_H-M   'P 1'
_cell_length_a   18.35210100
_cell_length_b   18.34753183
_cell_length_c   18.34786182
_cell_angle_alpha   90.00624202
_cell_angle_beta   90.00178568
_cell_angle_gamma   90.00265946
_symmetry_Int_Tables_number   1
_chemical_formula_structural   AgSbTe2
_chemical_formula_sum   'Ag54 Sb54 Te108'
_cell_volume   6178.01414061
_cell_formula_units_Z   54
loop_
 _symmetry_equiv_pos_site_id
 _symmetry_equiv_pos_as_xyz
  1  'x, y, z'
loop_
 _atom_site_type_symbol
 _atom_site_label
 _atom_site_symmetry_multiplicity
 _atom_site_fract_x
 _atom_site_fract_y
 _atom_site_fract_z
 _atom_site_occupancy
  Ag  Ag0  1  0.66053047  0.50946997  0.16587749  1
  Ag  Ag1  1  0.49976879  0.83699380  0.65654223  1
  Ag  Ag2  1  0.16359519  0.49928034  0.00713684  1
  Ag  Ag3  1  0.83404741  0.32154075  0.83590260  1
  Ag  Ag4  1  0.32925718  0.82955999  0.16822149  1
  Ag  Ag5  1  0.33280256  -0.00238038  0.33961070  1
  Ag  Ag6  1  0.67569438  -0.00545178  0.33984433  1
  Ag  Ag7  1  0.16628509  -0.00793440  0.51122587  1
  Ag  Ag8  1  0.32299214  -0.00326996  0.66220125  1
  Ag  Ag9  1  0.00119949  0.32409942  -0.00045429  1
  Ag  Ag10  1  0.67689136  0.15525650  0.83109056  1
  Ag  Ag11  1  0.00876229  0.00063234  0.66911388  1
  Ag  Ag12  1  0.17042978  0.15133805  0.67683747  1
  Ag  Ag13  1  0.83216067  -0.00359947  0.50358470  1
  Ag  Ag14  1  0.49462760  0.51331852  0.32803805  1
  Ag  Ag15  1  0.49783227  0.66790567  0.16894605  1
  Ag  Ag16  1  -0.00041776  0.00370112  -0.00538303  1
  Ag  Ag17  1  0.15951270  0.16231837  -0.00544179  1
  Ag  Ag18  1  0.49812220  0.50387165  0.00875986  1
  Ag  Ag19  1  0.82715777  0.84008259  0.66632073  1
  Ag  Ag20  1  0.83710307  -0.00985625  0.17214395  1
  Ag  Ag21  1  0.83596090  0.15536668  0.67477103  1
  Ag  Ag22  1  0.49307304  0.67553111  0.49763661  1
  Ag  Ag23  1  0.16961424  0.67125353  0.50395499  1
  Ag  Ag24  1  0.16898308  0.50488749  0.66609323  1
  Ag  Ag25  1  0.66723926  0.83822808  0.82204599  1
  Ag  Ag26  1  0.82562768  0.83724516  0.32221284  1
  Ag  Ag27  1  0.32987015  0.31907074  0.66873546  1
  Ag  Ag28  1  0.16139901  -0.00677297  0.16726834  1
  Ag  Ag29  1  0.66456973  0.83724081  0.49880050  1
  Ag  Ag30  1  0.00060103  0.16334454  0.83664464  1
  Ag  Ag31  1  0.16542835  0.34817707  0.16251471  1
  Ag  Ag32  1  0.00410594  0.50313171  0.49954151  1
  Ag  Ag33  1  0.83978887  0.50089603  0.00260754  1
  Ag  Ag34  1  -0.00874589  0.83371755  0.16736239  1
  Ag  Ag35  1  0.32885216  0.67406232  0.66685991  1
  Ag  Ag36  1  0.32916177  0.50963411  0.16735803  1
  Ag  Ag37  1  0.16999907  0.50689826  0.32640219  1
  Ag  Ag38  1  0.67671863  0.83050320  0.17090105  1
  Ag  Ag39  1  0.83444534  0.67851614  0.16669731  1
  Ag  Ag40  1  0.50650505  0.83161766  0.33926814  1
  Ag  Ag41  1  0.83423096  0.84186370  0.01129730  1
  Ag  Ag42  1  0.48806218  0.15216929  0.66898260  1
  Ag  Ag43  1  0.83377308  0.15363595  0.32914926  1
  Ag  Ag44  1  0.32288426  0.16446571  0.82813459  1
  Ag  Ag45  1  0.16920974  0.83926280  0.66599490  1
  Ag  Ag46  1  0.16818035  0.66969582  0.16874551  1
  Ag  Ag47  1  0.16916165  0.67077173  0.82069007  1
  Ag  Ag48  1  0.00583119  0.66845671  0.33077178  1
  Ag  Ag49  1  0.16622770  0.00136685  0.82228702  1
  Ag  Ag50  1  0.49325056  0.66890125  0.82855549  1
  Ag  Ag51  1  0.50644102  -0.00814561  0.50598525  1
  Ag  Ag52  1  0.66953381  -0.00376868  0.66354314  1
  Ag  Ag53  1  0.84227112  0.16113192  -0.00607631  1
  Sb  Sb54  1  0.66628605  0.50415630  0.83704092  1
  Sb  Sb55  1  0.33811099  0.83478325  0.49932096  1
  Sb  Sb56  1  0.33163130  0.66651848  0.00002662  1
  Sb  Sb57  1  0.49870392  0.33427400  0.50220030  1
  Sb  Sb58  1  0.33252567  0.67331650  0.33329502  1
  Sb  Sb59  1  0.83595180  0.67523304  0.49493022  1
  Sb  Sb60  1  0.33150527  0.33146390  0.33556351  1
  Sb  Sb61  1  0.16743773  0.83131540  0.33480023  1
  Sb  Sb62  1  0.83821854  0.50161488  0.66998061  1
  Sb  Sb63  1  0.49457579  0.50766096  0.66467533  1
  Sb  Sb64  1  0.50188265  -0.01018935  0.17391082  1
  Sb  Sb65  1  0.33294308  0.16110591  0.50695656  1
  Sb  Sb66  1  0.83396828  0.50682527  0.32622431  1
  Sb  Sb67  1  0.66028981  0.67631943  0.66667435  1
  Sb  Sb68  1  0.32590732  0.33547640  -0.00391712  1
  Sb  Sb69  1  0.16523307  0.33519263  0.49998604  1
  Sb  Sb70  1  0.66754497  0.66700139  0.00326618  1
  Sb  Sb71  1  0.32507720  -0.00042672  -0.00161484  1
  Sb  Sb72  1  0.83930889  0.00307277  0.82776547  1
  Sb  Sb73  1  0.00042667  0.16465888  0.50584766  1
  Sb  Sb74  1  0.49647701  -0.00503392  0.82517897  1
  Sb  Sb75  1  0.00347872  0.49691058  0.83294341  1
  Sb  Sb76  1  -0.00267025  0.83292739  0.49723988  1
  Sb  Sb77  1  0.33063123  0.49858429  0.83494483  1
  Sb  Sb78  1  0.33088416  0.16359073  0.16177477  1
  Sb  Sb79  1  0.66816014  0.15516924  0.50649923  1
  Sb  Sb80  1  0.83497201  0.32520443  0.50593905  1
  Sb  Sb81  1  0.33485905  0.83556996  0.83242023  1
  Sb  Sb82  1  0.50187731  0.33604683  0.83236124  1
  Sb  Sb83  1  0.00006189  0.15739481  0.16004080  1
  Sb  Sb84  1  0.50704670  0.82936622  0.00177739  1
  Sb  Sb85  1  0.00065862  0.33793916  0.32645238  1
  Sb  Sb86  1  0.00136451  0.66919377  0.00410168  1
  Sb  Sb87  1  0.66841784  0.51111707  0.49398723  1
  Sb  Sb88  1  0.66523320  0.67636321  0.33019128  1
  Sb  Sb89  1  0.66800604  0.32851777  0.33011656  1
  Sb  Sb90  1  0.49944957  0.16927667  -0.00764632  1
  Sb  Sb91  1  0.16133418  0.83368521  0.00041817  1
  Sb  Sb92  1  -0.00264119  0.83850022  0.83463334  1
  Sb  Sb93  1  0.00742803  0.67378666  0.66224338  1
  Sb  Sb94  1  0.83510746  0.66963979  0.83772655  1
  Sb  Sb95  1  0.16185859  0.16414944  0.33213223  1
  Sb  Sb96  1  0.66351591  0.32171028  0.66851282  1
  Sb  Sb97  1  0.32798500  0.50459157  0.49581285  1
  Sb  Sb98  1  0.50399775  0.15747839  0.33863280  1
  Sb  Sb99  1  0.00561080  0.32691370  0.67229200  1
  Sb  Sb100  1  0.49298937  0.34563620  0.16553267  1
  Sb  Sb101  1  0.66971438  0.15955562  0.16231047  1
  Sb  Sb102  1  0.83912928  0.33313947  0.16090148  1
  Sb  Sb103  1  -0.00248943  -0.00499388  0.33422404  1
  Sb  Sb104  1  0.67568449  -0.00226023  -0.00337351  1
  Sb  Sb105  1  0.00382550  0.50804950  0.16705131  1
  Sb  Sb106  1  0.16329414  0.32795261  0.83618150  1
  Sb  Sb107  1  0.67439624  0.33383292  -0.00033957  1
  Te  Te108  1  0.16715610  0.15721615  0.16370610  1
  Te  Te109  1  0.16536914  0.16455426  0.50232723  1
  Te  Te110  1  0.16341912  0.16649856  0.83367205  1
  Te  Te111  1  0.16554334  0.50528250  0.16678755  1
  Te  Te112  1  0.16449312  0.50100715  0.49959674  1
  Te  Te113  1  0.16765379  0.50481497  0.83230398  1
  Te  Te114  1  0.16868565  0.83135230  0.16745348  1
  Te  Te115  1  0.16448196  0.83255567  0.50162672  1
  Te  Te116  1  0.16661226  0.83333046  0.83234945  1
  Te  Te117  1  0.50057153  0.16974041  0.16568439  1
  Te  Te118  1  0.50102640  0.16357712  0.50773992  1
  Te  Te119  1  0.50195285  0.16766992  0.82809735  1
  Te  Te120  1  0.49894929  0.50584943  0.16822364  1
  Te  Te121  1  0.50068368  0.50520290  0.49318176  1
  Te  Te122  1  0.49962006  0.50720856  0.83648885  1
  Te  Te123  1  0.50070081  0.82746875  0.16689779  1
  Te  Te124  1  0.50073076  0.83396980  0.49914884  1
  Te  Te125  1  0.50318397  0.82799098  0.83445158  1
  Te  Te126  1  0.83316932  0.16498806  0.16588985  1
  Te  Te127  1  0.83390708  0.15924448  0.50149712  1
  Te  Te128  1  0.83562261  0.16424793  0.83473593  1
  Te  Te129  1  0.83167338  0.49948806  0.16247129  1
  Te  Te130  1  0.83704649  0.50043936  0.49918658  1
  Te  Te131  1  0.83355515  0.50002664  0.84017902  1
  Te  Te132  1  0.83312815  0.83359085  0.16680153  1
  Te  Te133  1  0.83089025  0.83709555  0.50706684  1
  Te  Te134  1  0.82925954  0.83156176  0.82655450  1
  Te  Te135  1  0.16155395  0.00081565  0.00754025  1
  Te  Te136  1  0.16833407  0.00065188  0.32802163  1
  Te  Te137  1  0.16607464  -0.00239515  0.66643803  1
  Te  Te138  1  0.16213615  0.33557991  0.00195288  1
  Te  Te139  1  0.16692959  0.33686259  0.32748189  1
  Te  Te140  1  0.17029938  0.34111776  0.66719282  1
  Te  Te141  1  0.16605519  0.66362670  0.00700121  1
  Te  Te142  1  0.16713540  0.66543698  0.33391502  1
  Te  Te143  1  0.16762015  0.66673660  0.66385577  1
  Te  Te144  1  0.50021592  0.00199588  0.00107072  1
  Te  Te145  1  0.49755968  -0.00360405  0.34070571  1
  Te  Te146  1  0.50451077  -0.00284509  0.66504805  1
  Te  Te147  1  0.49952451  0.34190672  -0.00141517  1
  Te  Te148  1  0.49924608  0.33324599  0.33418463  1
  Te  Te149  1  0.49324040  0.33311189  0.66686905  1
  Te  Te150  1  0.49878534  0.66232103  0.00284826  1
  Te  Te151  1  0.49875396  0.67033396  0.33330856  1
  Te  Te152  1  0.49498144  0.67163639  0.66607219  1
  Te  Te153  1  0.83796173  0.00082984  0.00115059  1
  Te  Te154  1  0.83557804  -0.00344424  0.33336342  1
  Te  Te155  1  0.82914586  -0.00067290  0.66757376  1
  Te  Te156  1  0.83978579  0.33056595  -0.00285511  1
  Te  Te157  1  0.83405271  0.32880040  0.33411909  1
  Te  Te158  1  0.83430313  0.33170238  0.67336588  1
  Te  Te159  1  0.83511403  0.66321534  0.00513478  1
  Te  Te160  1  0.83850522  0.67234883  0.32847621  1
  Te  Te161  1  0.83433048  0.66970752  0.66647307  1
  Te  Te162  1  0.00107909  0.16369986  -0.00084973  1
  Te  Te163  1  -0.00630453  0.16920368  0.33397463  1
  Te  Te164  1  -0.00057577  0.16340505  0.67092697  1
  Te  Te165  1  0.00160563  0.49926105  -0.00010833  1
  Te  Te166  1  0.00305547  0.50495268  0.33598281  1
  Te  Te167  1  0.00485771  0.49875398  0.66333407  1
  Te  Te168  1  -0.00608600  0.83808973  0.00324512  1
  Te  Te169  1  -0.00209910  0.82928545  0.32969371  1
  Te  Te170  1  0.00404416  0.83941930  0.66696811  1
  Te  Te171  1  0.33028747  0.16787491  -0.00830467  1
  Te  Te172  1  0.33396381  0.16063093  0.33276197  1
  Te  Te173  1  0.33003029  0.16057226  0.66924269  1
  Te  Te174  1  0.33045093  0.49968241  0.00538262  1
  Te  Te175  1  0.33306687  0.49725066  0.32858218  1
  Te  Te176  1  0.32953613  0.50839878  0.66610159  1
  Te  Te177  1  0.33538519  0.83395535  0.00710832  1
  Te  Te178  1  0.33687600  0.83895021  0.32797123  1
  Te  Te179  1  0.33246004  0.83535878  0.66815282  1
  Te  Te180  1  0.66892925  0.16650588  -0.00732766  1
  Te  Te181  1  0.67212464  0.15931241  0.33226801  1
  Te  Te182  1  0.67344473  0.16084181  0.67166095  1
  Te  Te183  1  0.66662810  0.49961215  0.00449382  1
  Te  Te184  1  0.66376826  0.49761195  0.32770428  1
  Te  Te185  1  0.66663358  0.49775302  0.66581111  1
  Te  Te186  1  0.67467312  0.83316952  0.00577842  1
  Te  Te187  1  0.66636217  0.83697677  0.33318669  1
  Te  Te188  1  0.66348975  0.83567435  0.66429518  1
  Te  Te189  1  -0.00217796  -0.00544365  0.16816671  1
  Te  Te190  1  0.00162176  -0.00023525  0.50468978  1
  Te  Te191  1  0.00636912  0.00276344  0.83323225  1
  Te  Te192  1  0.00655588  0.33311715  0.16019406  1
  Te  Te193  1  -0.00082459  0.34054486  0.49937034  1
  Te  Te194  1  -0.00448685  0.32832530  0.83869253  1
  Te  Te195  1  0.00042546  0.67182725  0.16943573  1
  Te  Te196  1  0.00387233  0.66444147  0.49522216  1
  Te  Te197  1  0.00797146  0.66681699  0.83288410  1
  Te  Te198  1  0.33348083  -0.00345502  0.16704698  1
  Te  Te199  1  0.32717412  -0.00083632  0.50071583  1
  Te  Te200  1  0.32721132  0.00280822  0.83004254  1
  Te  Te201  1  0.32589836  0.33505101  0.16707790  1
  Te  Te202  1  0.33287344  0.33351852  0.50865199  1
  Te  Te203  1  0.33394667  0.32824800  0.82739860  1
  Te  Te204  1  0.33258598  0.66695675  0.16743907  1
  Te  Te205  1  0.33176469  0.66816042  0.50411959  1
  Te  Te206  1  0.33114646  0.66724297  0.82942815  1
  Te  Te207  1  0.66971738  -0.00557449  0.16977988  1
  Te  Te208  1  0.66804870  -0.00395530  0.49986096  1
  Te  Te209  1  0.66308236  -0.00256474  0.83026948  1
  Te  Te210  1  0.66542997  0.33836219  0.16596770  1
  Te  Te211  1  0.66721332  0.33600770  0.49951522  1
  Te  Te212  1  0.67242319  0.33229172  0.83261798  1
  Te  Te213  1  0.66753629  0.66776534  0.16800757  1
  Te  Te214  1  0.66197783  0.67516598  0.49938925  1
  Te  Te215  1  0.66286923  0.67277271  0.83372922  1
