# generated using pymatgen
data_AgSbTe2
_symmetry_space_group_name_H-M   'P 1'
_cell_length_a   18.34454011
_cell_length_b   18.34588637
_cell_length_c   18.34218861
_cell_angle_alpha   90.00036263
_cell_angle_beta   90.00239810
_cell_angle_gamma   89.99994460
_symmetry_Int_Tables_number   1
_chemical_formula_structural   AgSbTe2
_chemical_formula_sum   'Ag54 Sb54 Te108'
_cell_volume   6173.00576067
_cell_formula_units_Z   54
loop_
 _symmetry_equiv_pos_site_id
 _symmetry_equiv_pos_as_xyz
  1  'x, y, z'
loop_
 _atom_site_type_symbol
 _atom_site_label
 _atom_site_symmetry_multiplicity
 _atom_site_fract_x
 _atom_site_fract_y
 _atom_site_fract_z
 _atom_site_occupancy
  Ag  Ag0  1  0.82174215  0.50112585  -0.00279967  1
  Ag  Ag1  1  0.00299229  0.16177033  0.49087781  1
  Ag  Ag2  1  0.66654831  0.32680333  0.66271358  1
  Ag  Ag3  1  0.66279069  0.16836837  0.83668778  1
  Ag  Ag4  1  0.49762918  0.16011852  0.00091123  1
  Ag  Ag5  1  0.66452065  0.00311024  0.33662096  1
  Ag  Ag6  1  0.17254834  0.16514613  0.66585654  1
  Ag  Ag7  1  0.65888561  0.66589924  -0.00420964  1
  Ag  Ag8  1  0.49828233  0.67065902  0.16168529  1
  Ag  Ag9  1  0.50086214  -0.00265464  0.50005696  1
  Ag  Ag10  1  0.33820158  0.00459946  0.67324885  1
  Ag  Ag11  1  0.66390673  0.31928727  0.33713471  1
  Ag  Ag12  1  0.66065350  0.84329674  0.49406359  1
  Ag  Ag13  1  0.50237917  0.83830867  0.65970708  1
  Ag  Ag14  1  -0.00039686  0.84346263  0.49648381  1
  Ag  Ag15  1  0.33567716  0.49363853  0.16853876  1
  Ag  Ag16  1  0.50256691  0.50907374  0.00362491  1
  Ag  Ag17  1  0.33945334  0.16146351  0.84721177  1
  Ag  Ag18  1  0.66299380  0.16117915  0.49520377  1
  Ag  Ag19  1  0.16639150  0.16633300  0.32908750  1
  Ag  Ag20  1  0.33303793  0.16503048  0.16503516  1
  Ag  Ag21  1  0.33063716  0.00189003  -0.00205988  1
  Ag  Ag22  1  0.66603805  0.50343303  0.83186890  1
  Ag  Ag23  1  0.65917739  0.16220755  0.17205711  1
  Ag  Ag24  1  -0.00310625  0.00376010  0.33141350  1
  Ag  Ag25  1  0.17107163  0.31950623  0.16932887  1
  Ag  Ag26  1  0.66286192  0.66590773  0.67376883  1
  Ag  Ag27  1  0.17050658  0.49514894  0.66573849  1
  Ag  Ag28  1  0.50199139  0.67104758  0.84114119  1
  Ag  Ag29  1  0.17915692  0.00525427  0.84677303  1
  Ag  Ag30  1  0.49730072  -0.00024953  0.83425022  1
  Ag  Ag31  1  0.01522620  0.00084370  0.00646790  1
  Ag  Ag32  1  0.16787683  0.84770353  0.00282644  1
  Ag  Ag33  1  0.33577674  0.16241142  0.49584697  1
  Ag  Ag34  1  0.17691902  0.15880672  0.00890818  1
  Ag  Ag35  1  0.33992400  0.67070506  0.00278918  1
  Ag  Ag36  1  0.83117306  0.16365936  0.32971660  1
  Ag  Ag37  1  0.82843753  0.16626784  0.00372825  1
  Ag  Ag38  1  0.33739051  0.32827602  0.33145926  1
  Ag  Ag39  1  0.66168450  0.84209614  0.17406634  1
  Ag  Ag40  1  0.34368736  0.84606476  0.50027356  1
  Ag  Ag41  1  0.66117855  0.49856968  0.50336632  1
  Ag  Ag42  1  0.17916120  0.66958396  0.16140854  1
  Ag  Ag43  1  0.49980924  0.50320772  0.33019509  1
  Ag  Ag44  1  0.50294132  0.83621553  0.33584345  1
  Ag  Ag45  1  0.00256029  0.32053610  0.33364932  1
  Ag  Ag46  1  0.49776459  -0.00048353  0.16576977  1
  Ag  Ag47  1  0.17606400  0.00354718  0.15902865  1
  Ag  Ag48  1  0.65606087  0.00221072  0.65774684  1
  Ag  Ag49  1  0.34312948  0.49810855  0.49223377  1
  Ag  Ag50  1  0.82726390  0.33311871  0.83603765  1
  Ag  Ag51  1  0.00210446  0.67198422  0.00062869  1
  Ag  Ag52  1  0.81758339  0.66258206  0.83911689  1
  Ag  Ag53  1  0.81903341  0.84458160  0.33382121  1
  Sb  Sb54  1  0.33665489  0.84233921  0.83336403  1
  Sb  Sb55  1  0.82392270  0.49534685  0.32719289  1
  Sb  Sb56  1  0.83019976  0.49931925  0.67149020  1
  Sb  Sb57  1  0.17422486  0.49193300  0.33457367  1
  Sb  Sb58  1  0.33880824  0.32676218  0.66156383  1
  Sb  Sb59  1  0.00394194  0.00218773  0.66213218  1
  Sb  Sb60  1  0.82737832  0.66685929  0.16020444  1
  Sb  Sb61  1  -0.00095533  0.16481541  0.83389109  1
  Sb  Sb62  1  0.00062990  0.67245883  0.32771673  1
  Sb  Sb63  1  -0.00023665  0.49744661  0.49741730  1
  Sb  Sb64  1  0.49993542  0.50564974  0.66527160  1
  Sb  Sb65  1  0.50521649  0.32978204  0.83382774  1
  Sb  Sb66  1  0.66486865  0.67139367  0.33183764  1
  Sb  Sb67  1  0.66639692  0.33306838  0.00121415  1
  Sb  Sb68  1  0.83474331  0.32976827  0.16536026  1
  Sb  Sb69  1  0.66367296  0.83282066  0.83273240  1
  Sb  Sb70  1  0.82513259  0.00093551  0.49777957  1
  Sb  Sb71  1  0.82930251  0.00261198  0.16762811  1
  Sb  Sb72  1  0.17129075  0.49876314  -0.00140883  1
  Sb  Sb73  1  -0.00107135  0.32832758  0.00573749  1
  Sb  Sb74  1  0.50174296  0.16302932  0.32885146  1
  Sb  Sb75  1  0.17281358  0.67013753  0.83937603  1
  Sb  Sb76  1  0.82355038  0.83301865  0.66085674  1
  Sb  Sb77  1  -0.00570948  0.50019265  0.83585372  1
  Sb  Sb78  1  0.17021074  0.84157140  0.32838936  1
  Sb  Sb79  1  0.16420389  0.32608810  0.83737392  1
  Sb  Sb80  1  0.16956793  0.66745980  0.49568267  1
  Sb  Sb81  1  0.66119166  0.00011900  0.00203761  1
  Sb  Sb82  1  0.50151380  0.32544510  0.49716726  1
  Sb  Sb83  1  0.34045758  0.49429078  0.83578198  1
  Sb  Sb84  1  0.33536350  0.66432344  0.32716156  1
  Sb  Sb85  1  0.33747473  0.00541503  0.33156824  1
  Sb  Sb86  1  -0.00017886  0.83580269  0.83204382  1
  Sb  Sb87  1  0.17317043  0.00284358  0.49701192  1
  Sb  Sb88  1  0.00815209  0.50056084  0.16631427  1
  Sb  Sb89  1  0.82751603  0.00112985  0.83729230  1
  Sb  Sb90  1  0.82833384  0.66809905  0.50293321  1
  Sb  Sb91  1  0.33400636  0.32758648  0.00579164  1
  Sb  Sb92  1  -0.00346609  0.66821207  0.67157920  1
  Sb  Sb93  1  0.83482316  0.83479085  0.00424797  1
  Sb  Sb94  1  0.49832028  0.15840080  0.67084734  1
  Sb  Sb95  1  0.49707496  0.83465541  0.00274362  1
  Sb  Sb96  1  0.82850083  0.33133592  0.50093580  1
  Sb  Sb97  1  0.33808046  0.83658975  0.16904391  1
  Sb  Sb98  1  0.49651539  0.32998701  0.16884192  1
  Sb  Sb99  1  0.82966191  0.16580352  0.66589657  1
  Sb  Sb100  1  0.33915601  0.67052887  0.67134799  1
  Sb  Sb101  1  0.65752584  0.49791614  0.16509671  1
  Sb  Sb102  1  0.50099330  0.67229839  0.49881705  1
  Sb  Sb103  1  0.16902192  0.32860551  0.49542653  1
  Sb  Sb104  1  -0.00179497  0.83630501  0.16952855  1
  Sb  Sb105  1  0.17253527  0.83879098  0.66898044  1
  Sb  Sb106  1  0.00545602  0.16400957  0.17205389  1
  Sb  Sb107  1  -0.00227846  0.33015079  0.66152626  1
  Te  Te108  1  0.16827612  0.16293952  0.16824511  1
  Te  Te109  1  0.16966944  0.16627110  0.49692084  1
  Te  Te110  1  0.16595808  0.16363187  0.83346071  1
  Te  Te111  1  0.17490278  0.50830747  0.16703597  1
  Te  Te112  1  0.16880217  0.49929615  0.50379352  1
  Te  Te113  1  0.16794765  0.49751176  0.82918643  1
  Te  Te114  1  0.16687293  0.83204226  0.16274477  1
  Te  Te115  1  0.16554562  0.83294725  0.49922726  1
  Te  Te116  1  0.16776477  0.83994896  0.83814480  1
  Te  Te117  1  0.49849159  0.16416784  0.16256300  1
  Te  Te118  1  0.50119507  0.16023657  0.50012632  1
  Te  Te119  1  0.50002861  0.16381425  0.83714257  1
  Te  Te120  1  0.49505461  0.50028310  0.16494815  1
  Te  Te121  1  0.50142144  0.50275383  0.49843771  1
  Te  Te122  1  0.50526553  0.50142103  0.83647653  1
  Te  Te123  1  0.50254600  0.83567713  0.16912335  1
  Te  Te124  1  0.50147170  0.83415126  0.49809498  1
  Te  Te125  1  0.49948225  0.83608626  0.82914176  1
  Te  Te126  1  0.82473617  0.16743028  0.16680253  1
  Te  Te127  1  0.82955329  0.16697102  0.49547206  1
  Te  Te128  1  0.82894972  0.16814678  0.83499496  1
  Te  Te129  1  0.83470267  0.49871303  0.15832198  1
  Te  Te130  1  0.82693225  0.50005754  0.49880855  1
  Te  Te131  1  0.82809067  0.50129049  0.83772093  1
  Te  Te132  1  0.82590981  0.83370418  0.17391668  1
  Te  Te133  1  0.83431402  0.83263006  0.49369497  1
  Te  Te134  1  0.83321320  0.82722818  0.83385818  1
  Te  Te135  1  0.17045061  0.00371920  0.00207558  1
  Te  Te136  1  0.16416184  0.00580226  0.32925940  1
  Te  Te137  1  0.17190555  0.00471053  0.66780848  1
  Te  Te138  1  0.16529572  0.32792595  0.00649782  1
  Te  Te139  1  0.16831223  0.32772505  0.32960276  1
  Te  Te140  1  0.16654491  0.32923054  0.66785767  1
  Te  Te141  1  0.16574793  0.66344573  0.00218116  1
  Te  Te142  1  0.16593478  0.66603107  0.32460008  1
  Te  Te143  1  0.16668578  0.66673243  0.66895646  1
  Te  Te144  1  0.49638934  0.00016307  0.00116438  1
  Te  Te145  1  0.50325589  -0.00305254  0.33056118  1
  Te  Te146  1  0.49904225  -0.00197959  0.66669978  1
  Te  Te147  1  0.49988240  0.33535671  0.00043556  1
  Te  Te148  1  0.50177167  0.34166872  0.33370913  1
  Te  Te149  1  0.50794059  0.33669988  0.66577868  1
  Te  Te150  1  0.49942508  0.67079788  0.00096917  1
  Te  Te151  1  0.49994308  0.66642835  0.32656658  1
  Te  Te152  1  0.50392291  0.67300436  0.67117562  1
  Te  Te153  1  0.83758623  0.00445078  0.00050818  1
  Te  Te154  1  0.83300024  0.00274383  0.33274611  1
  Te  Te155  1  0.82866024  -0.00091587  0.66946450  1
  Te  Te156  1  0.83396960  0.33107858  -0.00264101  1
  Te  Te157  1  0.82848872  0.32804033  0.33288616  1
  Te  Te158  1  0.82729418  0.33344802  0.67368534  1
  Te  Te159  1  0.83535241  0.66741023  -0.00235009  1
  Te  Te160  1  0.83513240  0.66809908  0.33160376  1
  Te  Te161  1  0.82785535  0.66604404  0.67587948  1
  Te  Te162  1  -0.00523643  0.16263541  0.00028310  1
  Te  Te163  1  -0.00209832  0.16417443  0.33336459  1
  Te  Te164  1  0.00458737  0.16678742  0.65769739  1
  Te  Te165  1  -0.00195568  0.50079746  0.00030951  1
  Te  Te166  1  -0.00269775  0.49777715  0.33423402  1
  Te  Te167  1  0.00773572  0.49927850  0.66551586  1
  Te  Te168  1  0.00293248  0.83630932  -0.00007938  1
  Te  Te169  1  0.00218089  0.83903775  0.33708642  1
  Te  Te170  1  -0.00041685  0.83374280  0.65846207  1
  Te  Te171  1  0.33478920  0.16547422  0.00372730  1
  Te  Te172  1  0.33500479  0.16856656  0.33315616  1
  Te  Te173  1  0.33223312  0.16410322  0.65629883  1
  Te  Te174  1  0.33853784  0.50092244  0.00263386  1
  Te  Te175  1  0.33768643  0.49737973  0.33191471  1
  Te  Te176  1  0.33169378  0.49864966  0.66636752  1
  Te  Te177  1  0.32877429  0.83487377  -0.00010657  1
  Te  Te178  1  0.33755665  0.83215670  0.34048265  1
  Te  Te179  1  0.33731032  0.83783854  0.66054702  1
  Te  Te180  1  0.66532765  0.16593184  -0.00208554  1
  Te  Te181  1  0.66355551  0.16317174  0.33362057  1
  Te  Te182  1  0.66628114  0.16537887  0.66500200  1
  Te  Te183  1  0.66392820  0.50081743  -0.00136035  1
  Te  Te184  1  0.66228684  0.50230909  0.33591658  1
  Te  Te185  1  0.66646696  0.50159813  0.66867263  1
  Te  Te186  1  0.66817788  0.82889119  0.00510569  1
  Te  Te187  1  0.66319789  0.83320524  0.33467161  1
  Te  Te188  1  0.66297384  0.83652362  0.66347127  1
  Te  Te189  1  0.00375259  -0.00084029  0.16686330  1
  Te  Te190  1  0.00112560  0.00280382  0.49660838  1
  Te  Te191  1  0.00016920  -0.00056291  0.83380365  1
  Te  Te192  1  0.00743369  0.33455720  0.17442461  1
  Te  Te193  1  -0.00141325  0.32830099  0.49277084  1
  Te  Te194  1  -0.00845042  0.33326927  0.83205656  1
  Te  Te195  1  0.00000689  0.66791571  0.15975169  1
  Te  Te196  1  -0.00055981  0.66816542  0.50090362  1
  Te  Te197  1  0.00221524  0.66783630  0.83997430  1
  Te  Te198  1  0.33524429  0.00208506  0.16595707  1
  Te  Te199  1  0.33817809  0.00239390  0.49749095  1
  Te  Te200  1  0.33599774  0.00434334  0.83325225  1
  Te  Te201  1  0.33044091  0.33167453  0.17096612  1
  Te  Te202  1  0.33527658  0.33665744  0.49403498  1
  Te  Te203  1  0.33309944  0.32259034  0.83111478  1
  Te  Te204  1  0.33738310  0.67050651  0.16223198  1
  Te  Te205  1  0.33323167  0.65741038  0.50221060  1
  Te  Te206  1  0.34021899  0.66487872  0.84010580  1
  Te  Te207  1  0.66328550  0.00169209  0.16829864  1
  Te  Te208  1  0.66266243  0.00042688  0.49879566  1
  Te  Te209  1  0.66171809  0.00295206  0.83353505  1
  Te  Te210  1  0.66689796  0.32787657  0.17406591  1
  Te  Te211  1  0.66572347  0.33375200  0.49938453  1
  Te  Te212  1  0.66833231  0.32994276  0.83388269  1
  Te  Te213  1  0.66109670  0.66560170  0.16139740  1
  Te  Te214  1  0.66604999  0.66198191  0.50563702  1
  Te  Te215  1  0.66140287  0.66838246  0.83460778  1
