# generated using pymatgen
data_AgSbTe2
_symmetry_space_group_name_H-M   'P 1'
_cell_length_a   18.32934221
_cell_length_b   18.32735551
_cell_length_c   18.32044977
_cell_angle_alpha   89.99900248
_cell_angle_beta   90.00067576
_cell_angle_gamma   89.99918670
_symmetry_Int_Tables_number   1
_chemical_formula_structural   AgSbTe2
_chemical_formula_sum   'Ag54 Sb54 Te108'
_cell_volume   6154.35884399
_cell_formula_units_Z   54
loop_
 _symmetry_equiv_pos_site_id
 _symmetry_equiv_pos_as_xyz
  1  'x, y, z'
loop_
 _atom_site_type_symbol
 _atom_site_label
 _atom_site_symmetry_multiplicity
 _atom_site_fract_x
 _atom_site_fract_y
 _atom_site_fract_z
 _atom_site_occupancy
  Ag  Ag0  1  0.84521651  0.33872803  0.49832694  1
  Ag  Ag1  1  0.32971015  0.66781214  0.66420671  1
  Ag  Ag2  1  0.16176345  0.33220213  0.16189188  1
  Ag  Ag3  1  0.16518504  0.01092439  0.49758728  1
  Ag  Ag4  1  0.84247308  0.66280703  0.49535922  1
  Ag  Ag5  1  0.50026943  -0.00085827  0.16633824  1
  Ag  Ag6  1  0.83557226  0.82726039  0.32550736  1
  Ag  Ag7  1  0.83994815  0.83453467  0.00509812  1
  Ag  Ag8  1  0.15918483  -0.00092772  0.16504765  1
  Ag  Ag9  1  0.32240993  0.17611311  0.50551273  1
  Ag  Ag10  1  0.32464525  0.82527353  0.83284162  1
  Ag  Ag11  1  -0.00065620  0.83574266  0.16168240  1
  Ag  Ag12  1  0.15712485  0.83689856  -0.00006835  1
  Ag  Ag13  1  0.16346314  0.66402877  0.83381308  1
  Ag  Ag14  1  0.33014278  -0.00271638  0.66665667  1
  Ag  Ag15  1  0.67397165  0.33483337  0.66802844  1
  Ag  Ag16  1  0.32596820  0.49917415  0.49972224  1
  Ag  Ag17  1  0.49600658  0.50614415  0.33033873  1
  Ag  Ag18  1  0.83828008  0.67358912  0.17003970  1
  Ag  Ag19  1  -0.00247508  0.32840906  0.00081309  1
  Ag  Ag20  1  0.16868625  0.16748231  0.66452806  1
  Ag  Ag21  1  0.84209008  -0.00773340  0.16295056  1
  Ag  Ag22  1  0.00529419  0.49628795  0.50187837  1
  Ag  Ag23  1  0.49351484  0.33508982  0.49546174  1
  Ag  Ag24  1  0.83555958  0.33267635  0.15914760  1
  Ag  Ag25  1  0.33188049  0.66470638  0.33391760  1
  Ag  Ag26  1  0.16434351  0.33590329  0.83439798  1
  Ag  Ag27  1  0.84499093  0.66831628  0.83488672  1
  Ag  Ag28  1  0.83631951  0.49679902  0.00223371  1
  Ag  Ag29  1  0.66860393  0.16799581  0.16167334  1
  Ag  Ag30  1  0.16308699  0.32949810  0.50499507  1
  Ag  Ag31  1  0.83530713  0.82835212  0.66894074  1
  Ag  Ag32  1  0.32671437  0.16849610  0.83040367  1
  Ag  Ag33  1  0.33242251  0.50261507  0.16971836  1
  Ag  Ag34  1  0.67737862  0.32695447  0.00445248  1
  Ag  Ag35  1  0.16365218  0.66333519  0.49940055  1
  Ag  Ag36  1  -0.00001574  0.33241918  0.66540924  1
  Ag  Ag37  1  0.00620315  0.17779916  0.50141320  1
  Ag  Ag38  1  0.00365506  0.82500195  0.84389109  1
  Ag  Ag39  1  0.67077575  0.66310916  0.66188322  1
  Ag  Ag40  1  0.83703253  0.16859229  0.00291450  1
  Ag  Ag41  1  0.49938704  0.66597584  0.17284077  1
  Ag  Ag42  1  0.66966015  0.66762331  0.33435378  1
  Ag  Ag43  1  -0.00228222  0.67032607  0.33251163  1
  Ag  Ag44  1  0.16314920  0.16617353  -0.00176665  1
  Ag  Ag45  1  0.32439331  0.50265072  0.83320860  1
  Ag  Ag46  1  0.16380448  0.66779524  0.16781008  1
  Ag  Ag47  1  0.50580861  0.16762419  0.00377664  1
  Ag  Ag48  1  -0.00239002  -0.00163233  0.00448241  1
  Ag  Ag49  1  0.00430178  0.50406784  0.83299612  1
  Ag  Ag50  1  0.67918946  0.00780214  0.00605333  1
  Ag  Ag51  1  0.50136089  0.33336200  0.16675834  1
  Ag  Ag52  1  0.50290261  0.82313686  0.32903486  1
  Ag  Ag53  1  0.00043794  -0.00847088  0.32160935  1
  Sb  Sb54  1  0.83529765  0.50420232  0.66887124  1
  Sb  Sb55  1  0.00460384  0.00303328  0.66884642  1
  Sb  Sb56  1  0.50063719  0.83739406  0.00693042  1
  Sb  Sb57  1  0.16976291  0.50315365  0.33457903  1
  Sb  Sb58  1  0.33345919  0.33969847  0.33472721  1
  Sb  Sb59  1  0.66474802  0.00105816  0.67082298  1
  Sb  Sb60  1  0.33058050  0.82768046  0.50209140  1
  Sb  Sb61  1  0.16561289  0.49549418  0.66638646  1
  Sb  Sb62  1  0.66866818  0.17172647  0.49579521  1
  Sb  Sb63  1  0.67096145  -0.00601672  0.32569800  1
  Sb  Sb64  1  0.16516369  0.16535760  0.33400474  1
  Sb  Sb65  1  0.00565621  0.17000308  0.83533186  1
  Sb  Sb66  1  0.66738011  0.33858029  0.33025437  1
  Sb  Sb67  1  0.83658651  -0.00714446  0.84359688  1
  Sb  Sb68  1  0.66976554  0.49936104  0.83452198  1
  Sb  Sb69  1  0.66497871  0.49740304  0.16709366  1
  Sb  Sb70  1  0.67283187  0.66603716  0.00276236  1
  Sb  Sb71  1  0.67079872  0.83016185  0.83511318  1
  Sb  Sb72  1  0.84189941  0.33949894  0.83757653  1
  Sb  Sb73  1  0.67545835  0.83578013  0.16582836  1
  Sb  Sb74  1  0.16002762  0.49822982  -0.00158201  1
  Sb  Sb75  1  -0.00104681  0.66943130  0.00305676  1
  Sb  Sb76  1  0.33027380  0.66623976  0.00119096  1
  Sb  Sb77  1  0.49735530  0.49904001  0.66096483  1
  Sb  Sb78  1  0.16727151  0.00006014  0.83748498  1
  Sb  Sb79  1  0.49899313  0.16858962  0.32704379  1
  Sb  Sb80  1  0.49714113  0.66044506  0.49209637  1
  Sb  Sb81  1  0.00306478  0.50368859  0.16578781  1
  Sb  Sb82  1  0.00159029  0.66378227  0.66559635  1
  Sb  Sb83  1  0.33319473  0.17022995  0.16640394  1
  Sb  Sb84  1  0.84276142  -0.00080897  0.49321805  1
  Sb  Sb85  1  0.32763624  0.82807842  0.16367894  1
  Sb  Sb86  1  0.32778365  0.33495119  0.66484293  1
  Sb  Sb87  1  0.66905777  0.83060942  0.49819481  1
  Sb  Sb88  1  0.32861807  0.00175494  -0.00086688  1
  Sb  Sb89  1  0.00103458  0.82981125  0.49802857  1
  Sb  Sb90  1  0.32803073  -0.00631033  0.33544235  1
  Sb  Sb91  1  0.32829933  0.33220788  0.00039563  1
  Sb  Sb92  1  0.00018826  0.33612219  0.33294027  1
  Sb  Sb93  1  0.49316593  0.16860884  0.66987428  1
  Sb  Sb94  1  0.49428314  0.33410322  0.83529042  1
  Sb  Sb95  1  0.49571495  0.66608760  0.83728697  1
  Sb  Sb96  1  0.49591055  0.00086099  0.84095561  1
  Sb  Sb97  1  0.50068890  0.83037846  0.66329443  1
  Sb  Sb98  1  0.16247224  0.83604966  0.67241932  1
  Sb  Sb99  1  0.49089213  0.00595270  0.49285610  1
  Sb  Sb100  1  0.83788124  0.16680928  0.67095064  1
  Sb  Sb101  1  0.50293752  0.49531303  0.00622664  1
  Sb  Sb102  1  -0.00211885  0.16322885  0.16648871  1
  Sb  Sb103  1  0.66886511  0.50019705  0.49943695  1
  Sb  Sb104  1  0.83193264  0.50641469  0.32921757  1
  Sb  Sb105  1  0.16236312  0.83012218  0.32735056  1
  Sb  Sb106  1  0.66445944  0.16966372  0.84164949  1
  Sb  Sb107  1  0.83603656  0.16446808  0.32698990  1
  Te  Te108  1  0.16681708  0.16855191  0.16325834  1
  Te  Te109  1  0.16630435  0.16864524  0.49800576  1
  Te  Te110  1  0.16847655  0.16787923  0.83557290  1
  Te  Te111  1  0.17103953  0.50202842  0.16520161  1
  Te  Te112  1  0.16595731  0.50245295  0.50033229  1
  Te  Te113  1  0.16522613  0.50164311  0.83296163  1
  Te  Te114  1  0.16204324  0.83187437  0.16174136  1
  Te  Te115  1  0.16661676  0.82664546  0.50104294  1
  Te  Te116  1  0.16536828  0.83226063  0.83765964  1
  Te  Te117  1  0.49971611  0.17064586  0.16291130  1
  Te  Te118  1  0.49822495  0.17440089  0.50013326  1
  Te  Te119  1  0.49159599  0.16761219  0.84092793  1
  Te  Te120  1  0.49625399  0.49934710  0.16885787  1
  Te  Te121  1  0.49546290  0.49353937  0.49436339  1
  Te  Te122  1  0.49081522  0.50032868  0.83466711  1
  Te  Te123  1  0.49749291  0.83166750  0.16947483  1
  Te  Te124  1  0.49981040  0.83583940  0.49267337  1
  Te  Te125  1  0.49264480  0.83318595  0.83348740  1
  Te  Te126  1  0.83197133  0.17237815  0.16258037  1
  Te  Te127  1  0.83737687  0.17068804  0.50060565  1
  Te  Te128  1  0.83381604  0.16568381  0.84021344  1
  Te  Te129  1  0.83392576  0.49615159  0.16291724  1
  Te  Te130  1  0.83698688  0.49976875  0.49953741  1
  Te  Te131  1  0.83731353  0.50714312  0.83827516  1
  Te  Te132  1  0.83712840  0.83289488  0.16585283  1
  Te  Te133  1  0.83423329  0.83006677  0.49985926  1
  Te  Te134  1  0.83601718  0.82741418  0.83494489  1
  Te  Te135  1  0.16299870  0.00096569  0.00385595  1
  Te  Te136  1  0.16148539  -0.00300961  0.33117686  1
  Te  Te137  1  0.17060942  0.00458420  0.66291859  1
  Te  Te138  1  0.16271486  0.33241488  0.00047490  1
  Te  Te139  1  0.16609737  0.33329260  0.32584189  1
  Te  Te140  1  0.16333393  0.32803733  0.66514413  1
  Te  Te141  1  0.16595434  0.66926123  -0.00002021  1
  Te  Te142  1  0.16696771  0.66804129  0.33174986  1
  Te  Te143  1  0.16987471  0.66937501  0.66749551  1
  Te  Te144  1  0.49953213  0.00537256  0.00774223  1
  Te  Te145  1  0.50040857  -0.00314847  0.32621317  1
  Te  Te146  1  0.49501298  -0.00054623  0.66513031  1
  Te  Te147  1  0.50248507  0.32857889  0.00324389  1
  Te  Te148  1  0.50071737  0.33644109  0.33034533  1
  Te  Te149  1  0.50612784  0.33294514  0.66419316  1
  Te  Te150  1  0.50369463  0.66662426  0.00971594  1
  Te  Te151  1  0.49809842  0.66638139  0.33127860  1
  Te  Te152  1  0.50255398  0.66709738  0.66578244  1
  Te  Te153  1  0.83647828  -0.00023672  0.00429880  1
  Te  Te154  1  0.83824347  -0.00621909  0.32676111  1
  Te  Te155  1  0.83089290  -0.00452152  0.66632349  1
  Te  Te156  1  0.83579695  0.33116740  -0.00117324  1
  Te  Te157  1  0.83275247  0.33386072  0.33417632  1
  Te  Te158  1  0.83553377  0.33273422  0.66515210  1
  Te  Te159  1  0.83250132  0.66953802  0.00302423  1
  Te  Te160  1  0.83469177  0.66695799  0.33290926  1
  Te  Te161  1  0.83380087  0.66836915  0.66489139  1
  Te  Te162  1  0.00175023  0.16753870  0.00026692  1
  Te  Te163  1  -0.00099088  0.15976871  0.34215732  1
  Te  Te164  1  0.00507561  0.17067219  0.66390815  1
  Te  Te165  1  -0.00459769  0.49264424  -0.00256365  1
  Te  Te166  1  -0.00107454  0.50790291  0.33899101  1
  Te  Te167  1  -0.00054897  0.49258846  0.66716770  1
  Te  Te168  1  -0.00026447  0.83300411  0.00086157  1
  Te  Te169  1  -0.00295484  0.83128352  0.33125222  1
  Te  Te170  1  -0.00519852  0.83423087  0.67086258  1
  Te  Te171  1  0.32594226  0.16660432  -0.00268429  1
  Te  Te172  1  0.33395224  0.16349483  0.34294858  1
  Te  Te173  1  0.32912073  0.16745034  0.66629084  1
  Te  Te174  1  0.33408796  0.49923756  -0.00166975  1
  Te  Te175  1  0.33598019  0.50513580  0.33310853  1
  Te  Te176  1  0.33305350  0.50563364  0.66640426  1
  Te  Te177  1  0.33134479  0.83426250  -0.00737411  1
  Te  Te178  1  0.33759874  0.82611412  0.33288929  1
  Te  Te179  1  0.33359829  0.83177309  0.67130472  1
  Te  Te180  1  0.66776149  0.16758536  0.00245668  1
  Te  Te181  1  0.66693678  0.16547771  0.32480176  1
  Te  Te182  1  0.66654947  0.17043228  0.66747243  1
  Te  Te183  1  0.67381104  0.49250806  -0.00037222  1
  Te  Te184  1  0.65865742  0.50813355  0.33387407  1
  Te  Te185  1  0.66567133  0.49952713  0.66726748  1
  Te  Te186  1  0.67084745  0.83901186  -0.00070259  1
  Te  Te187  1  0.66843868  0.82691577  0.33200989  1
  Te  Te188  1  0.67260499  0.83112694  0.66715295  1
  Te  Te189  1  0.00126334  0.00020383  0.16518288  1
  Te  Te190  1  0.00634956  0.00029720  0.50113044  1
  Te  Te191  1  0.00093689  -0.00640765  0.83772574  1
  Te  Te192  1  0.00048445  0.33467275  0.16565293  1
  Te  Te193  1  0.00215704  0.33590576  0.49666196  1
  Te  Te194  1  0.00543418  0.33621117  0.83334604  1
  Te  Te195  1  0.00122032  0.66850516  0.16971970  1
  Te  Te196  1  0.00136303  0.66411255  0.49934812  1
  Te  Te197  1  0.00252079  0.66504519  0.83152672  1
  Te  Te198  1  0.33158948  0.00050662  0.16815373  1
  Te  Te199  1  0.32656296  0.00103550  0.50305826  1
  Te  Te200  1  0.33315812  0.00385949  0.82777154  1
  Te  Te201  1  0.33346761  0.33834245  0.16762932  1
  Te  Te202  1  0.32921828  0.33629632  0.50046400  1
  Te  Te203  1  0.32605789  0.33517408  0.83203380  1
  Te  Te204  1  0.32966999  0.66364722  0.16821838  1
  Te  Te205  1  0.33137750  0.66197723  0.50111020  1
  Te  Te206  1  0.33098026  0.66538958  0.83170345  1
  Te  Te207  1  0.66547159  0.00380614  0.16350332  1
  Te  Te208  1  0.66565248  0.00215404  0.50110532  1
  Te  Te209  1  0.66461421  0.00052274  0.84102342  1
  Te  Te210  1  0.66841516  0.33119211  0.16502958  1
  Te  Te211  1  0.66761815  0.33399591  0.50223461  1
  Te  Te212  1  0.66595288  0.33423182  0.83027861  1
  Te  Te213  1  0.66911465  0.66610863  0.17011213  1
  Te  Te214  1  0.66989734  0.66607723  0.50105668  1
  Te  Te215  1  0.66726933  0.66500409  0.82848246  1
