# generated using pymatgen
data_AgSbTe2
_symmetry_space_group_name_H-M   'P 1'
_cell_length_a   18.31312003
_cell_length_b   18.31633231
_cell_length_c   18.31106798
_cell_angle_alpha   90.00059180
_cell_angle_beta   90.00126869
_cell_angle_gamma   90.00299894
_symmetry_Int_Tables_number   1
_chemical_formula_structural   AgSbTe2
_chemical_formula_sum   'Ag54 Sb54 Te108'
_cell_volume   6142.06672604
_cell_formula_units_Z   54
loop_
 _symmetry_equiv_pos_site_id
 _symmetry_equiv_pos_as_xyz
  1  'x, y, z'
loop_
 _atom_site_type_symbol
 _atom_site_label
 _atom_site_symmetry_multiplicity
 _atom_site_fract_x
 _atom_site_fract_y
 _atom_site_fract_z
 _atom_site_occupancy
  Ag  Ag0  1  0.00353267  0.65725134  0.33469750  1
  Ag  Ag1  1  0.66283319  0.82870078  0.49617015  1
  Ag  Ag2  1  0.84490661  0.50245334  0.34035549  1
  Ag  Ag3  1  0.15695452  0.50172112  0.34091975  1
  Ag  Ag4  1  0.82917749  0.34035992  0.83072345  1
  Ag  Ag5  1  0.00081949  0.16769583  0.49816321  1
  Ag  Ag6  1  -0.00250748  0.50146945  0.17864502  1
  Ag  Ag7  1  0.49548102  0.66659279  0.82295398  1
  Ag  Ag8  1  0.67173548  0.49782064  0.17619567  1
  Ag  Ag9  1  0.49909102  0.33192416  0.17140743  1
  Ag  Ag10  1  0.00025345  0.00075801  0.33697419  1
  Ag  Ag11  1  0.83311112  0.66167409  0.49826969  1
  Ag  Ag12  1  -0.00048631  0.34508660  0.33511226  1
  Ag  Ag13  1  0.17205014  0.82969070  0.66439381  1
  Ag  Ag14  1  0.49847835  0.16354003  0.33570160  1
  Ag  Ag15  1  0.66684960  0.83536449  0.17445669  1
  Ag  Ag16  1  -0.00027525  0.00037410  0.65764136  1
  Ag  Ag17  1  0.00950728  0.49948395  0.49300824  1
  Ag  Ag18  1  0.83172741  -0.00239205  0.17073354  1
  Ag  Ag19  1  0.33454070  0.33717412  0.66678743  1
  Ag  Ag20  1  0.83349384  -0.00611670  0.49611013  1
  Ag  Ag21  1  0.16826739  0.65748556  0.49568183  1
  Ag  Ag22  1  0.33639495  0.16684236  0.16831730  1
  Ag  Ag23  1  0.33543574  -0.00261498  0.33220104  1
  Ag  Ag24  1  0.82980618  0.66266848  0.82425413  1
  Ag  Ag25  1  0.50027377  0.33536195  0.82881520  1
  Ag  Ag26  1  0.33478380  -0.00012113  0.00376476  1
  Ag  Ag27  1  0.49169008  0.50118726  0.66348621  1
  Ag  Ag28  1  0.66991455  0.50576164  0.49489310  1
  Ag  Ag29  1  0.66869248  0.00081553  0.00509492  1
  Ag  Ag30  1  0.83685364  0.16236513  0.00294647  1
  Ag  Ag31  1  0.33697641  0.50462399  0.82278578  1
  Ag  Ag32  1  0.16502221  0.16510834  0.00206582  1
  Ag  Ag33  1  0.49883589  0.83197773  0.66144908  1
  Ag  Ag34  1  0.66824312  0.33677572  0.33161239  1
  Ag  Ag35  1  0.16464979  0.65930230  0.17866386  1
  Ag  Ag36  1  0.49816173  -0.00210156  0.82532322  1
  Ag  Ag37  1  0.49451693  0.16598891  0.66109707  1
  Ag  Ag38  1  0.17199180  0.16937291  0.66401650  1
  Ag  Ag39  1  -0.00424907  0.00363401  0.00355008  1
  Ag  Ag40  1  0.32855888  0.66661194  0.33392429  1
  Ag  Ag41  1  0.17336263  0.49968695  0.65543361  1
  Ag  Ag42  1  0.32207359  0.50189767  0.50293692  1
  Ag  Ag43  1  0.50026795  0.66837430  0.50342288  1
  Ag  Ag44  1  0.66324406  0.16677807  0.16842794  1
  Ag  Ag45  1  0.49969675  0.83643783  0.34268865  1
  Ag  Ag46  1  0.16497435  0.34484531  0.49565795  1
  Ag  Ag47  1  0.50250089  -0.00803120  0.50155108  1
  Ag  Ag48  1  0.83533449  0.66442110  0.17364156  1
  Ag  Ag49  1  0.33293114  0.66903490  0.00223852  1
  Ag  Ag50  1  0.83457556  0.50654559  0.65517749  1
  Ag  Ag51  1  0.33864983  0.82697563  0.83056895  1
  Ag  Ag52  1  0.83145299  0.82718435  0.66267819  1
  Ag  Ag53  1  0.16978630  0.33851444  0.17573157  1
  Sb  Sb54  1  0.49908829  0.50089152  0.34195531  1
  Sb  Sb55  1  -0.00517872  0.83104822  0.50034554  1
  Sb  Sb56  1  0.33485818  0.66038741  0.66260236  1
  Sb  Sb57  1  0.33995079  0.82671781  0.50405725  1
  Sb  Sb58  1  0.33377868  0.00178036  0.66371130  1
  Sb  Sb59  1  0.33742028  0.83561000  0.16671765  1
  Sb  Sb60  1  -0.00446693  0.83101590  0.16987554  1
  Sb  Sb61  1  0.83759896  0.34061540  0.50239288  1
  Sb  Sb62  1  0.82929753  -0.00213592  0.83281874  1
  Sb  Sb63  1  0.66891525  0.66094504  0.33558260  1
  Sb  Sb64  1  0.66601957  0.66592630  0.66234715  1
  Sb  Sb65  1  0.66722274  0.32935402  0.00681382  1
  Sb  Sb66  1  0.00303504  0.66981580  0.00751364  1
  Sb  Sb67  1  0.66186295  0.83292314  0.82906056  1
  Sb  Sb68  1  0.17115944  0.82555482  0.33905491  1
  Sb  Sb69  1  0.83315153  0.49818988  0.00179562  1
  Sb  Sb70  1  0.33302309  0.33239544  -0.00241528  1
  Sb  Sb71  1  0.33612907  0.16629354  0.83545354  1
  Sb  Sb72  1  0.16929527  0.83635742  -0.00236816  1
  Sb  Sb73  1  0.66558725  0.00211424  0.33044783  1
  Sb  Sb74  1  0.16944665  0.33447342  0.82914517  1
  Sb  Sb75  1  0.83227648  0.33462900  0.16772082  1
  Sb  Sb76  1  -0.00102459  0.66774689  0.65845249  1
  Sb  Sb77  1  0.17205494  -0.00009356  0.83257555  1
  Sb  Sb78  1  0.50405105  0.00367355  0.17054092  1
  Sb  Sb79  1  0.49972816  0.83518909  -0.00208232  1
  Sb  Sb80  1  0.83329067  0.16679665  0.66639073  1
  Sb  Sb81  1  0.83178551  0.16938432  0.33145182  1
  Sb  Sb82  1  0.83204679  0.83680250  -0.00169475  1
  Sb  Sb83  1  0.33092049  0.16958465  0.49689831  1
  Sb  Sb84  1  0.16843618  0.17160512  0.33524014  1
  Sb  Sb85  1  0.49578521  0.33656417  0.50033705  1
  Sb  Sb86  1  0.66649124  -0.00029031  0.66683164  1
  Sb  Sb87  1  0.49867221  0.16434754  0.00327892  1
  Sb  Sb88  1  0.16532760  -0.00241365  0.50022682  1
  Sb  Sb89  1  0.66354318  0.67057383  0.00325764  1
  Sb  Sb90  1  0.16353316  0.00051444  0.16756318  1
  Sb  Sb91  1  0.66207876  0.33565401  0.66101527  1
  Sb  Sb92  1  0.17122175  0.66579082  0.82921171  1
  Sb  Sb93  1  0.49895783  0.50089562  -0.00514317  1
  Sb  Sb94  1  0.33338847  0.49779429  0.17035014  1
  Sb  Sb95  1  0.66474856  0.16688906  0.83864127  1
  Sb  Sb96  1  0.33206451  0.33566750  0.33625084  1
  Sb  Sb97  1  0.00157245  0.50051687  0.82687623  1
  Sb  Sb98  1  0.00137525  0.83315224  0.82990385  1
  Sb  Sb99  1  0.16786375  0.49729621  0.00309021  1
  Sb  Sb100  1  0.00508023  0.33160085  0.65930809  1
  Sb  Sb101  1  -0.00041277  0.16661145  0.82963608  1
  Sb  Sb102  1  0.66374870  0.50008327  0.82949476  1
  Sb  Sb103  1  0.66795675  0.16708548  0.49471600  1
  Sb  Sb104  1  -0.00048013  0.32910694  0.00664367  1
  Sb  Sb105  1  0.00028460  0.16883327  0.17231926  1
  Sb  Sb106  1  0.50037916  0.66261755  0.17199785  1
  Sb  Sb107  1  0.82834090  0.82895900  0.33799428  1
  Te  Te108  1  0.16902140  0.16872988  0.16630603  1
  Te  Te109  1  0.16323910  0.16642222  0.50347529  1
  Te  Te110  1  0.16747269  0.16817850  0.83033299  1
  Te  Te111  1  0.16682344  0.49963674  0.16779231  1
  Te  Te112  1  0.16479313  0.50126453  0.49975763  1
  Te  Te113  1  0.17103209  0.49964646  0.82868533  1
  Te  Te114  1  0.16747644  0.82490326  0.16648241  1
  Te  Te115  1  0.16830865  0.82844160  0.50695907  1
  Te  Te116  1  0.17330559  0.83209120  0.82548163  1
  Te  Te117  1  0.49971217  0.16962580  0.16911584  1
  Te  Te118  1  0.49982142  0.16546515  0.49981013  1
  Te  Te119  1  0.49999699  0.16844198  0.82749398  1
  Te  Te120  1  0.50281074  0.49395223  0.16633857  1
  Te  Te121  1  0.50692217  0.50276952  0.50548476  1
  Te  Te122  1  0.49841357  0.50172230  0.82777731  1
  Te  Te123  1  0.50567269  0.83225056  0.17060777  1
  Te  Te124  1  0.50154315  0.83173403  0.50122649  1
  Te  Te125  1  0.49855831  0.83034735  0.82979063  1
  Te  Te126  1  0.83141713  0.16436017  0.16385541  1
  Te  Te127  1  0.83740677  0.15987460  0.50068216  1
  Te  Te128  1  0.83195638  0.16949063  0.83708671  1
  Te  Te129  1  0.83290915  0.50144931  0.16764391  1
  Te  Te130  1  0.82958512  0.50121812  0.49878211  1
  Te  Te131  1  0.83288927  0.50215384  0.83254440  1
  Te  Te132  1  0.82800349  0.83382895  0.16711359  1
  Te  Te133  1  0.82830981  0.83400704  0.50275398  1
  Te  Te134  1  0.83107527  0.82758439  0.82560224  1
  Te  Te135  1  0.17005643  0.00426182  0.00012317  1
  Te  Te136  1  0.16930628  -0.00168242  0.33257820  1
  Te  Te137  1  0.16303346  0.00273519  0.66651547  1
  Te  Te138  1  0.16588432  0.32604507  0.00348606  1
  Te  Te139  1  0.16514672  0.33768692  0.33404052  1
  Te  Te140  1  0.16999478  0.33329712  0.66398322  1
  Te  Te141  1  0.17163326  0.66719146  0.00155442  1
  Te  Te142  1  0.16685384  0.66432812  0.33508527  1
  Te  Te143  1  0.16511755  0.66584652  0.66167202  1
  Te  Te144  1  0.49526397  0.00061478  -0.00259916  1
  Te  Te145  1  0.49928365  0.00113964  0.33590174  1
  Te  Te146  1  0.49994664  -0.00059992  0.66403422  1
  Te  Te147  1  0.50007986  0.33253050  -0.00341317  1
  Te  Te148  1  0.49989858  0.32933671  0.33109144  1
  Te  Te149  1  0.49671545  0.33510082  0.66784151  1
  Te  Te150  1  0.49341628  0.66775634  -0.00243922  1
  Te  Te151  1  0.49518579  0.66962941  0.33782261  1
  Te  Te152  1  0.50018688  0.66680263  0.66450041  1
  Te  Te153  1  0.83324509  0.00226857  0.00010840  1
  Te  Te154  1  0.83439765  -0.00085844  0.33366123  1
  Te  Te155  1  0.83622414  -0.00123525  0.66442896  1
  Te  Te156  1  0.83363166  0.32709569  -0.00665634  1
  Te  Te157  1  0.83579712  0.33800882  0.33356071  1
  Te  Te158  1  0.83331997  0.33604671  0.67178213  1
  Te  Te159  1  0.83375187  0.66760155  0.00474822  1
  Te  Te160  1  0.83635870  0.66405816  0.33373507  1
  Te  Te161  1  0.83386774  0.66659703  0.66343236  1
  Te  Te162  1  0.00154864  0.16220292  0.00042484  1
  Te  Te163  1  0.00034699  0.15969253  0.33943145  1
  Te  Te164  1  0.00224829  0.16257497  0.66188781  1
  Te  Te165  1  0.00105159  0.49982025  0.00540949  1
  Te  Te166  1  0.00023895  0.50113126  0.33388146  1
  Te  Te167  1  -0.00245605  0.49995066  0.66082938  1
  Te  Te168  1  0.00106858  0.84306756  -0.00095758  1
  Te  Te169  1  0.00083308  0.84220472  0.33371096  1
  Te  Te170  1  -0.00086258  0.83877564  0.66679175  1
  Te  Te171  1  0.32975773  0.16368441  0.00430737  1
  Te  Te172  1  0.33668133  0.16414828  0.32935314  1
  Te  Te173  1  0.33346806  0.17103356  0.66651901  1
  Te  Te174  1  0.33223040  0.50501503  -0.00399019  1
  Te  Te175  1  0.33150088  0.50439085  0.33801645  1
  Te  Te176  1  0.33292283  0.49878437  0.66431195  1
  Te  Te177  1  0.33301871  0.83548286  -0.00475741  1
  Te  Te178  1  0.33839957  0.83461610  0.33376081  1
  Te  Te179  1  0.33556277  0.83557808  0.67064224  1
  Te  Te180  1  0.66927123  0.16221906  0.00669045  1
  Te  Te181  1  0.66251094  0.17264698  0.32798431  1
  Te  Te182  1  0.65842374  0.16767862  0.66561518  1
  Te  Te183  1  0.66651046  0.50052481  0.00978788  1
  Te  Te184  1  0.66464745  0.49605254  0.33353849  1
  Te  Te185  1  0.67160749  0.49937022  0.66188447  1
  Te  Te186  1  0.66675708  0.83937628  0.00753862  1
  Te  Te187  1  0.66137385  0.83355478  0.33472019  1
  Te  Te188  1  0.66505641  0.83419995  0.66094306  1
  Te  Te189  1  -0.00478707  -0.00012667  0.16791337  1
  Te  Te190  1  -0.00110537  -0.00145884  0.49972063  1
  Te  Te191  1  -0.00065974  -0.00014672  0.83560451  1
  Te  Te192  1  0.00343477  0.33697156  0.17333944  1
  Te  Te193  1  0.00356548  0.33361642  0.49561791  1
  Te  Te194  1  -0.00535986  0.33436899  0.83423551  1
  Te  Te195  1  -0.00117922  0.66399533  0.17124679  1
  Te  Te196  1  -0.00371044  0.66497307  0.49505328  1
  Te  Te197  1  -0.00680060  0.66631454  0.83759550  1
  Te  Te198  1  0.33293507  0.00262998  0.16782327  1
  Te  Te199  1  0.33906252  0.00067818  0.49426295  1
  Te  Te200  1  0.33914667  -0.00161469  0.83524040  1
  Te  Te201  1  0.33408014  0.32977761  0.16608205  1
  Te  Te202  1  0.32789554  0.33817530  0.50412340  1
  Te  Te203  1  0.33742799  0.33773407  0.83012768  1
  Te  Te204  1  0.33161356  0.66708444  0.16751716  1
  Te  Te205  1  0.33513670  0.66283995  0.49614451  1
  Te  Te206  1  0.33521265  0.66572797  0.83478917  1
  Te  Te207  1  0.67008708  0.00132387  0.16516842  1
  Te  Te208  1  0.66651986  -0.00086855  0.49887204  1
  Te  Te209  1  0.65918500  -0.00062467  0.84082490  1
  Te  Te210  1  0.66483375  0.33306604  0.17083991  1
  Te  Te211  1  0.66740106  0.33553078  0.49274090  1
  Te  Te212  1  0.66401544  0.33433966  0.83428606  1
  Te  Te213  1  0.66981003  0.66579340  0.16810218  1
  Te  Te214  1  0.66740654  0.66712016  0.49780779  1
  Te  Te215  1  0.66781303  0.66602752  0.83736031  1
