# generated using pymatgen
data_AgSbTe2
_symmetry_space_group_name_H-M   'P 1'
_cell_length_a   18.33933831
_cell_length_b   18.33628620
_cell_length_c   18.33551243
_cell_angle_alpha   89.99980587
_cell_angle_beta   90.00000593
_cell_angle_gamma   90.00049480
_symmetry_Int_Tables_number   1
_chemical_formula_structural   AgSbTe2
_chemical_formula_sum   'Ag54 Sb54 Te108'
_cell_volume   6165.78097194
_cell_formula_units_Z   54
loop_
 _symmetry_equiv_pos_site_id
 _symmetry_equiv_pos_as_xyz
  1  'x, y, z'
loop_
 _atom_site_type_symbol
 _atom_site_label
 _atom_site_symmetry_multiplicity
 _atom_site_fract_x
 _atom_site_fract_y
 _atom_site_fract_z
 _atom_site_occupancy
  Ag  Ag0  1  0.34341456  0.17453791  0.16416292  1
  Ag  Ag1  1  0.50582459  0.83180395  0.33823208  1
  Ag  Ag2  1  0.32930180  0.33865765  0.67335411  1
  Ag  Ag3  1  0.50299407  -0.00505961  0.83747353  1
  Ag  Ag4  1  0.83129715  0.16795731  0.65817846  1
  Ag  Ag5  1  -0.00265905  0.82506613  0.49434963  1
  Ag  Ag6  1  -0.00450503  -0.01501718  0.33653152  1
  Ag  Ag7  1  0.83738548  0.49764551  0.65808818  1
  Ag  Ag8  1  0.83925526  0.66772039  0.49496152  1
  Ag  Ag9  1  0.34228324  -0.00323768  -0.00152763  1
  Ag  Ag10  1  0.66927072  -0.00104312  0.66721709  1
  Ag  Ag11  1  0.66256099  0.16355895  0.16830377  1
  Ag  Ag12  1  0.33981521  0.34770495  -0.00446245  1
  Ag  Ag13  1  0.66030002  0.50243023  0.83612104  1
  Ag  Ag14  1  0.33066673  0.49926123  0.15443838  1
  Ag  Ag15  1  0.82524893  0.16499054  0.33735494  1
  Ag  Ag16  1  0.16798896  0.50475156  0.66769941  1
  Ag  Ag17  1  -0.00199869  0.66632542  0.33516286  1
  Ag  Ag18  1  0.33350317  0.50545095  0.84263493  1
  Ag  Ag19  1  0.50076689  0.50113717  0.33523149  1
  Ag  Ag20  1  0.83507156  0.51105639  0.33888003  1
  Ag  Ag21  1  0.66418373  0.33783210  0.33184732  1
  Ag  Ag22  1  0.50004456  0.17434419  0.00586684  1
  Ag  Ag23  1  0.66907651  0.50482200  0.49785585  1
  Ag  Ag24  1  0.16341602  0.50443361  0.33832853  1
  Ag  Ag25  1  0.18041172  0.50469322  -0.01129204  1
  Ag  Ag26  1  0.66677484  0.83484880  0.17335995  1
  Ag  Ag27  1  0.16204960  0.66561813  0.50038806  1
  Ag  Ag28  1  0.50619549  0.16705752  0.32933354  1
  Ag  Ag29  1  0.17091480  0.66431368  0.83875774  1
  Ag  Ag30  1  0.01176501  0.66429974  0.00564615  1
  Ag  Ag31  1  0.32899168  0.66072664  -0.00406681  1
  Ag  Ag32  1  0.82615606  -0.00942822  0.49895717  1
  Ag  Ag33  1  0.65983411  -0.00303068  -0.00462275  1
  Ag  Ag34  1  0.16048126  0.82192322  0.33712230  1
  Ag  Ag35  1  -0.00192997  0.50613003  0.49583785  1
  Ag  Ag36  1  0.17187155  0.82058595  -0.00452357  1
  Ag  Ag37  1  0.83370193  0.82842470  0.33844457  1
  Ag  Ag38  1  0.48812073  0.66651346  0.83964294  1
  Ag  Ag39  1  0.82411765  -0.00105555  0.82622927  1
  Ag  Ag40  1  0.65762564  0.34097317  0.00378963  1
  Ag  Ag41  1  0.33209639  0.82247876  0.83395180  1
  Ag  Ag42  1  0.66402608  0.66299007  -0.00131130  1
  Ag  Ag43  1  0.33032071  0.82664036  0.50056627  1
  Ag  Ag44  1  0.17299070  0.34740062  0.83084763  1
  Ag  Ag45  1  0.00523323  0.50511890  0.17564733  1
  Ag  Ag46  1  0.00420489  0.33975342  0.66554050  1
  Ag  Ag47  1  0.49288490  0.49912012  0.00110467  1
  Ag  Ag48  1  0.16954308  0.82224578  0.65835042  1
  Ag  Ag49  1  0.83374803  0.66508109  0.17718044  1
  Ag  Ag50  1  0.50029124  0.34237835  0.49712050  1
  Ag  Ag51  1  0.33121042  0.50681545  0.50013229  1
  Ag  Ag52  1  0.50574005  -0.00336975  0.49952948  1
  Ag  Ag53  1  0.66994529  0.83048315  0.49437141  1
  Sb  Sb54  1  0.66697574  0.16581580  0.49486071  1
  Sb  Sb55  1  0.83609177  0.66863054  0.83126261  1
  Sb  Sb56  1  -0.00441454  0.17275959  0.16873449  1
  Sb  Sb57  1  0.66875791  -0.00057385  0.33537186  1
  Sb  Sb58  1  -0.00645087  0.00140018  0.65990078  1
  Sb  Sb59  1  -0.00165280  -0.00806603  0.00375818  1
  Sb  Sb60  1  -0.00593554  0.34194170  0.33992557  1
  Sb  Sb61  1  0.49900256  0.66639034  0.50111877  1
  Sb  Sb62  1  0.83670537  0.83188212  0.65892126  1
  Sb  Sb63  1  0.66483841  0.50186905  0.16806638  1
  Sb  Sb64  1  0.16739948  -0.00276926  0.16685307  1
  Sb  Sb65  1  0.50071061  0.33334523  0.17012076  1
  Sb  Sb66  1  0.67152426  0.66486900  0.33045568  1
  Sb  Sb67  1  0.33342315  -0.00267392  0.33088612  1
  Sb  Sb68  1  0.00586484  0.83041434  0.82695551  1
  Sb  Sb69  1  0.33631162  0.16980691  0.83896260  1
  Sb  Sb70  1  0.00494602  0.50269780  0.82969227  1
  Sb  Sb71  1  0.83410247  0.33343720  0.83113959  1
  Sb  Sb72  1  0.32863096  0.66418948  0.32956846  1
  Sb  Sb73  1  0.83062479  0.33961713  0.16963391  1
  Sb  Sb74  1  0.33011698  0.66106827  0.67157072  1
  Sb  Sb75  1  0.17755852  0.17206779  0.00013122  1
  Sb  Sb76  1  0.83405773  0.83042547  0.00410813  1
  Sb  Sb77  1  0.82845852  0.34058799  0.49939428  1
  Sb  Sb78  1  0.33724114  0.00129976  0.66951789  1
  Sb  Sb79  1  0.16196571  0.66418739  0.16530815  1
  Sb  Sb80  1  0.49671066  0.33761223  0.83360625  1
  Sb  Sb81  1  0.16361668  0.17249424  0.66621219  1
  Sb  Sb82  1  0.83059850  0.50209488  0.00145405  1
  Sb  Sb83  1  0.50191507  0.00093394  0.16620006  1
  Sb  Sb84  1  0.00248541  0.66194871  0.65938861  1
  Sb  Sb85  1  0.49653314  0.49911714  0.66638552  1
  Sb  Sb86  1  0.33641445  0.82913701  0.16574670  1
  Sb  Sb87  1  0.49518393  0.83416612  0.66164789  1
  Sb  Sb88  1  0.66450664  0.16802870  0.83807901  1
  Sb  Sb89  1  0.17277649  0.34702175  0.50433502  1
  Sb  Sb90  1  0.00349606  0.34245917  -0.00432322  1
  Sb  Sb91  1  0.66572445  0.33369093  0.66494991  1
  Sb  Sb92  1  0.66730245  0.66777355  0.66826212  1
  Sb  Sb93  1  0.82944514  -0.00498190  0.17269317  1
  Sb  Sb94  1  -0.00389007  0.82502569  0.17442149  1
  Sb  Sb95  1  -0.00416062  0.16899476  0.49909187  1
  Sb  Sb96  1  0.50442032  0.16620330  0.66617958  1
  Sb  Sb97  1  0.33716066  0.16761347  0.49496639  1
  Sb  Sb98  1  0.66153300  0.83168151  0.83288656  1
  Sb  Sb99  1  0.16833000  0.16967306  0.33299373  1
  Sb  Sb100  1  0.16704324  -0.01385116  0.50068409  1
  Sb  Sb101  1  -0.00240346  0.16630338  0.83426694  1
  Sb  Sb102  1  0.16999764  0.33999532  0.16298921  1
  Sb  Sb103  1  0.82268204  0.16405412  0.00350642  1
  Sb  Sb104  1  0.49671242  0.83022108  0.00168972  1
  Sb  Sb105  1  0.17110208  -0.00607723  0.83420130  1
  Sb  Sb106  1  0.33958572  0.33898340  0.33158377  1
  Sb  Sb107  1  0.50453215  0.66573393  0.16329760  1
  Te  Te108  1  0.17151853  0.16785936  0.16671554  1
  Te  Te109  1  0.16643202  0.16437085  0.49960937  1
  Te  Te110  1  0.16638407  0.16956647  0.83289702  1
  Te  Te111  1  0.16919734  0.49999913  0.17322245  1
  Te  Te112  1  0.16790272  0.50480179  0.50022656  1
  Te  Te113  1  0.16795541  0.50386801  0.83127001  1
  Te  Te114  1  0.16700635  0.83266812  0.17315098  1
  Te  Te115  1  0.16958647  0.82724878  0.49750816  1
  Te  Te116  1  0.17171881  0.82962515  0.83634127  1
  Te  Te117  1  0.50179259  0.16637358  0.16736369  1
  Te  Te118  1  0.50022132  0.16071899  0.49544679  1
  Te  Te119  1  0.50069453  0.15814874  0.83810573  1
  Te  Te120  1  0.49588636  0.50000262  0.16708113  1
  Te  Te121  1  0.50135746  0.50183119  0.49942200  1
  Te  Te122  1  0.49861488  0.50157207  0.83441229  1
  Te  Te123  1  0.50485745  0.83320413  0.17670758  1
  Te  Te124  1  0.50083087  0.83313112  0.49733484  1
  Te  Te125  1  0.49441120  0.83317363  0.83252197  1
  Te  Te126  1  0.82803427  0.16628343  0.17306037  1
  Te  Te127  1  0.83233517  0.16230900  0.49822861  1
  Te  Te128  1  0.83210418  0.16116629  0.83082647  1
  Te  Te129  1  0.83508090  0.50517135  0.17210444  1
  Te  Te130  1  0.83133002  0.50089308  0.49806319  1
  Te  Te131  1  0.82951643  0.49982992  0.82910898  1
  Te  Te132  1  0.82824595  0.82806015  0.17183960  1
  Te  Te133  1  0.83208393  0.83086273  0.49863608  1
  Te  Te134  1  0.83473674  0.83806213  0.83120486  1
  Te  Te135  1  0.16683278  -0.00154861  -0.00085350  1
  Te  Te136  1  0.16018249  0.00005507  0.33433567  1
  Te  Te137  1  0.16568989  -0.00045963  0.66814370  1
  Te  Te138  1  0.17123610  0.33973477  -0.00614637  1
  Te  Te139  1  0.16538040  0.33907347  0.33516006  1
  Te  Te140  1  0.16804602  0.33728288  0.66976326  1
  Te  Te141  1  0.16876251  0.66387469  0.00127430  1
  Te  Te142  1  0.16348597  0.66408404  0.33491350  1
  Te  Te143  1  0.16622058  0.66510799  0.66498663  1
  Te  Te144  1  0.50187969  -0.00393050  -0.00085472  1
  Te  Te145  1  0.49964307  -0.00058059  0.33787915  1
  Te  Te146  1  0.50523855  0.00131258  0.66466461  1
  Te  Te147  1  0.49968638  0.33494365  -0.00279895  1
  Te  Te148  1  0.50400031  0.33521327  0.33702363  1
  Te  Te149  1  0.49604511  0.33088457  0.66016049  1
  Te  Te150  1  0.50252753  0.66367357  -0.00225323  1
  Te  Te151  1  0.49868838  0.66418343  0.33300382  1
  Te  Te152  1  0.50038024  0.66710413  0.67955562  1
  Te  Te153  1  0.83057651  -0.00106290  -0.00447764  1
  Te  Te154  1  0.83495490  -0.00237861  0.33762882  1
  Te  Te155  1  0.83060909  -0.00015566  0.66339263  1
  Te  Te156  1  0.82907071  0.33152167  -0.00023269  1
  Te  Te157  1  0.82686001  0.32704194  0.33424005  1
  Te  Te158  1  0.83445427  0.33388456  0.66625422  1
  Te  Te159  1  0.82622841  0.66734497  -0.00038857  1
  Te  Te160  1  0.83407164  0.66743289  0.33628396  1
  Te  Te161  1  0.83496553  0.65944168  0.66230625  1
  Te  Te162  1  0.00057719  0.16754876  0.00294411  1
  Te  Te163  1  -0.00291070  0.16985807  0.33216651  1
  Te  Te164  1  -0.00776189  0.17265883  0.66686261  1
  Te  Te165  1  -0.00103207  0.50403348  0.00236941  1
  Te  Te166  1  -0.00220825  0.50257241  0.33568631  1
  Te  Te167  1  0.00130098  0.49855272  0.66356293  1
  Te  Te168  1  0.00658276  0.82793584  0.00093994  1
  Te  Te169  1  -0.00053088  0.82818492  0.33580924  1
  Te  Te170  1  0.00800869  0.83404147  0.65846585  1
  Te  Te171  1  0.33997086  0.15882954  0.00515380  1
  Te  Te172  1  0.33776187  0.16732834  0.32531378  1
  Te  Te173  1  0.33276532  0.17405726  0.66594484  1
  Te  Te174  1  0.33522669  0.50252763  -0.00184759  1
  Te  Te175  1  0.33708664  0.50017972  0.34180434  1
  Te  Te176  1  0.33053243  0.49656273  0.65916037  1
  Te  Te177  1  0.33094579  0.83538284  0.00059828  1
  Te  Te178  1  0.33262299  0.83210664  0.33515101  1
  Te  Te179  1  0.32825159  0.83568837  0.66611393  1
  Te  Te180  1  0.66030504  0.16545854  0.00471429  1
  Te  Te181  1  0.66469018  0.16655774  0.33031240  1
  Te  Te182  1  0.67232293  0.16311122  0.66755898  1
  Te  Te183  1  0.66511661  0.49974482  0.00061973  1
  Te  Te184  1  0.66482389  0.49841635  0.33352235  1
  Te  Te185  1  0.66854859  0.49942088  0.66395967  1
  Te  Te186  1  0.66583983  0.83356843  0.00040457  1
  Te  Te187  1  0.66704761  0.83311632  0.33475782  1
  Te  Te188  1  0.66738650  0.83811502  0.66169807  1
  Te  Te189  1  -0.00147606  0.00267257  0.17318725  1
  Te  Te190  1  -0.00260540  -0.00122930  0.49477604  1
  Te  Te191  1  -0.00457607  -0.00105444  0.83323092  1
  Te  Te192  1  -0.00015567  0.34204507  0.16531064  1
  Te  Te193  1  0.00097663  0.33896995  0.50621136  1
  Te  Te194  1  0.00523755  0.33367492  0.82784807  1
  Te  Te195  1  -0.00582437  0.66242224  0.16718086  1
  Te  Te196  1  0.00036098  0.66555282  0.49812427  1
  Te  Te197  1  0.00444377  0.66773631  0.84319043  1
  Te  Te198  1  0.33367857  0.00106103  0.16040673  1
  Te  Te199  1  0.33834203  -0.00359939  0.50018201  1
  Te  Te200  1  0.33833641  -0.00019775  0.83650714  1
  Te  Te201  1  0.33403722  0.33554210  0.15988349  1
  Te  Te202  1  0.33898710  0.33489821  0.50005013  1
  Te  Te203  1  0.33238870  0.33644214  0.83454551  1
  Te  Te204  1  0.33555592  0.66106758  0.15877316  1
  Te  Te205  1  0.33203128  0.66815729  0.49973351  1
  Te  Te206  1  0.33072184  0.66545609  0.83502316  1
  Te  Te207  1  0.66769947  -0.00156134  0.15866574  1
  Te  Te208  1  0.66715516  -0.00087595  0.50104246  1
  Te  Te209  1  0.66453507  -0.00143364  0.83333662  1
  Te  Te210  1  0.66689970  0.32927537  0.16571338  1
  Te  Te211  1  0.66174707  0.33736929  0.49669285  1
  Te  Te212  1  0.66574073  0.33994502  0.83680296  1
  Te  Te213  1  0.67137076  0.67005568  0.16093831  1
  Te  Te214  1  0.66705140  0.66699667  0.50115175  1
  Te  Te215  1  0.66848254  0.66363966  0.83643434  1
