# generated using pymatgen
data_AgSbTe2
_symmetry_space_group_name_H-M   'P 1'
_cell_length_a   18.36987501
_cell_length_b   18.36767074
_cell_length_c   18.37033570
_cell_angle_alpha   89.99870642
_cell_angle_beta   90.00319015
_cell_angle_gamma   90.00251147
_symmetry_Int_Tables_number   1
_chemical_formula_structural   AgSbTe2
_chemical_formula_sum   'Ag54 Sb54 Te108'
_cell_volume   6198.36830562
_cell_formula_units_Z   54
loop_
 _symmetry_equiv_pos_site_id
 _symmetry_equiv_pos_as_xyz
  1  'x, y, z'
loop_
 _atom_site_type_symbol
 _atom_site_label
 _atom_site_symmetry_multiplicity
 _atom_site_fract_x
 _atom_site_fract_y
 _atom_site_fract_z
 _atom_site_occupancy
  Ag  Ag0  1  0.18055379  0.15080283  0.33095597  1
  Ag  Ag1  1  0.16900655  0.33589466  0.84409292  1
  Ag  Ag2  1  0.17306479  0.51450112  0.32883752  1
  Ag  Ag3  1  0.32567205  0.67052108  0.65056425  1
  Ag  Ag4  1  0.49861693  0.16121350  0.00794857  1
  Ag  Ag5  1  0.48916265  0.50686589  0.33075530  1
  Ag  Ag6  1  0.16596810  0.66668550  0.17293453  1
  Ag  Ag7  1  0.15493522  0.82767058  0.00826962  1
  Ag  Ag8  1  0.84162913  0.83144642  0.00926452  1
  Ag  Ag9  1  0.00757299  0.51383903  0.16338015  1
  Ag  Ag10  1  0.49423196  -0.00428274  0.16919147  1
  Ag  Ag11  1  -0.00411677  0.83226538  0.85195878  1
  Ag  Ag12  1  0.17323793  -0.01038800  0.49281623  1
  Ag  Ag13  1  0.66255167  0.33997010  -0.00089155  1
  Ag  Ag14  1  0.16878266  0.67228694  0.48692520  1
  Ag  Ag15  1  0.66485405  0.50887699  0.83816317  1
  Ag  Ag16  1  0.32999159  0.83388040  0.17350281  1
  Ag  Ag17  1  -0.00423497  -0.01207412  0.66263494  1
  Ag  Ag18  1  0.00617475  0.83140490  0.16693931  1
  Ag  Ag19  1  0.66329034  -0.00613410  0.00154115  1
  Ag  Ag20  1  0.33475473  0.14957770  0.49040266  1
  Ag  Ag21  1  0.49325236  0.15032800  0.32944820  1
  Ag  Ag22  1  0.49933072  0.49939373  0.00862972  1
  Ag  Ag23  1  0.00712976  -0.01015540  0.01048108  1
  Ag  Ag24  1  0.66750449  -0.00809669  0.66942640  1
  Ag  Ag25  1  0.67284964  0.83417360  0.17450813  1
  Ag  Ag26  1  0.16754509  0.51248415  0.00991914  1
  Ag  Ag27  1  0.65846859  0.83248713  0.48933844  1
  Ag  Ag28  1  0.82867949  -0.00659081  0.16569412  1
  Ag  Ag29  1  0.00881428  0.67549233  0.00983711  1
  Ag  Ag30  1  0.65754947  0.67413609  0.33359698  1
  Ag  Ag31  1  0.49342611  -0.00418289  0.48887349  1
  Ag  Ag32  1  0.83272217  0.51244211  0.67143370  1
  Ag  Ag33  1  0.33045887  0.83203535  0.48899580  1
  Ag  Ag34  1  0.83455032  0.51042348  0.00063316  1
  Ag  Ag35  1  0.51024040  0.83475339  0.65392901  1
  Ag  Ag36  1  0.00448645  0.67244878  0.66478729  1
  Ag  Ag37  1  0.48306591  0.83340794  0.33458747  1
  Ag  Ag38  1  0.49677159  0.32869788  0.49659347  1
  Ag  Ag39  1  0.00745876  0.83182877  0.48338506  1
  Ag  Ag40  1  0.01296231  -0.01199854  0.32966772  1
  Ag  Ag41  1  0.33149697  -0.00615469  0.33077175  1
  Ag  Ag42  1  0.16752497  0.34552125  0.16655813  1
  Ag  Ag43  1  0.49945651  0.33612684  0.83753976  1
  Ag  Ag44  1  0.33153850  0.15289864  0.17551929  1
  Ag  Ag45  1  0.83777984  0.83144863  0.66449630  1
  Ag  Ag46  1  0.33436937  0.51409429  0.49280322  1
  Ag  Ag47  1  0.33337626  -0.01017863  0.01110582  1
  Ag  Ag48  1  0.32586577  0.67231191  0.00963492  1
  Ag  Ag49  1  0.32829659  0.67825232  0.33234398  1
  Ag  Ag50  1  0.16718982  0.83084835  0.32934927  1
  Ag  Ag51  1  0.01400651  0.67364136  0.32678275  1
  Ag  Ag52  1  0.67003790  0.83184216  0.83379566  1
  Ag  Ag53  1  0.85077314  0.83210430  0.32500460  1
  Sb  Sb54  1  0.16887322  0.16502662  0.66046387  1
  Sb  Sb55  1  0.49869962  0.16050041  0.66449231  1
  Sb  Sb56  1  0.66900873  0.50674298  0.16242162  1
  Sb  Sb57  1  0.32943467  0.50458192  0.17006059  1
  Sb  Sb58  1  0.17238200  0.33597731  0.49423514  1
  Sb  Sb59  1  0.00022504  0.33868969  0.66789152  1
  Sb  Sb60  1  0.50071381  -0.00028308  0.83740494  1
  Sb  Sb61  1  0.15821988  0.83199697  0.65979818  1
  Sb  Sb62  1  0.33489059  0.16760549  0.83559399  1
  Sb  Sb63  1  0.16485665  0.66723071  0.83730690  1
  Sb  Sb64  1  0.83735422  0.51060151  0.32955071  1
  Sb  Sb65  1  0.65827703  0.15557896  0.49712167  1
  Sb  Sb66  1  0.33650667  0.33564360  0.00140886  1
  Sb  Sb67  1  0.66354167  0.33274064  0.67165761  1
  Sb  Sb68  1  0.83101121  0.15133938  0.33116414  1
  Sb  Sb69  1  0.83452722  0.67201827  0.83390388  1
  Sb  Sb70  1  0.33306274  0.83263094  0.83539423  1
  Sb  Sb71  1  0.66184949  0.34035699  0.32821286  1
  Sb  Sb72  1  0.66780097  0.67140758  0.00432579  1
  Sb  Sb73  1  0.83688323  0.33210640  0.16487420  1
  Sb  Sb74  1  0.49593264  0.32969450  0.16663085  1
  Sb  Sb75  1  0.16522934  -0.00203952  0.83119512  1
  Sb  Sb76  1  0.33596974  0.50176315  0.83360251  1
  Sb  Sb77  1  0.66824824  0.67621596  0.66229601  1
  Sb  Sb78  1  0.00292469  0.15885054  0.83560988  1
  Sb  Sb79  1  0.33374392  -0.00962818  0.65944203  1
  Sb  Sb80  1  0.00257471  0.33851899  0.33260402  1
  Sb  Sb81  1  0.83367610  0.15710953  0.66435506  1
  Sb  Sb82  1  0.17261293  -0.01011710  0.17311616  1
  Sb  Sb83  1  0.65885396  0.15777297  0.16630760  1
  Sb  Sb84  1  0.84023326  0.67295859  0.49950480  1
  Sb  Sb85  1  0.65950799  0.50674238  0.50267588  1
  Sb  Sb86  1  0.83234957  -0.00649984  0.49420533  1
  Sb  Sb87  1  0.50003570  0.66681273  0.83502175  1
  Sb  Sb88  1  -0.00111626  0.33679905  0.00099513  1
  Sb  Sb89  1  0.49431465  0.67373041  0.16898987  1
  Sb  Sb90  1  0.00536434  0.50848118  0.49618017  1
  Sb  Sb91  1  0.00839045  0.15263485  0.49626909  1
  Sb  Sb92  1  0.66494943  0.16421836  0.83553755  1
  Sb  Sb93  1  0.00867654  0.15809968  0.16822118  1
  Sb  Sb94  1  0.84102522  0.67606024  0.16587599  1
  Sb  Sb95  1  0.83083962  0.33977201  0.83655833  1
  Sb  Sb96  1  -0.00265510  0.50723989  0.83866548  1
  Sb  Sb97  1  0.49165492  0.67482128  0.49800239  1
  Sb  Sb98  1  0.82560880  0.33866937  0.49981249  1
  Sb  Sb99  1  0.50051736  0.83411534  0.00484173  1
  Sb  Sb100  1  0.83360230  -0.00525332  0.83990179  1
  Sb  Sb101  1  0.65860650  -0.01113483  0.33072013  1
  Sb  Sb102  1  0.82781219  0.15874408  0.00221544  1
  Sb  Sb103  1  0.50240272  0.50611217  0.66435165  1
  Sb  Sb104  1  0.16439070  0.50358022  0.66728268  1
  Sb  Sb105  1  0.33317557  0.33127466  0.33232157  1
  Sb  Sb106  1  0.17324338  0.16301944  0.00836207  1
  Sb  Sb107  1  0.33489206  0.33873829  0.66356291  1
  Te  Te108  1  0.17210817  0.17324280  0.17260876  1
  Te  Te109  1  0.17421525  0.16804505  0.49253267  1
  Te  Te110  1  0.16670513  0.17382807  0.83255332  1
  Te  Te111  1  0.16811938  0.50401154  0.16672672  1
  Te  Te112  1  0.17232801  0.50290755  0.49743847  1
  Te  Te113  1  0.16533603  0.49486318  0.83592573  1
  Te  Te114  1  0.16924779  0.83054805  0.16580724  1
  Te  Te115  1  0.16619189  0.83222539  0.50088842  1
  Te  Te116  1  0.16305117  0.83463081  0.84478330  1
  Te  Te117  1  0.49394044  0.16399402  0.16810126  1
  Te  Te118  1  0.49562997  0.16348790  0.49769881  1
  Te  Te119  1  0.50020058  0.17368756  0.83559238  1
  Te  Te120  1  0.50102809  0.49795790  0.16880701  1
  Te  Te121  1  0.49638368  0.49775694  0.49817382  1
  Te  Te122  1  0.50372138  0.49638294  0.83206264  1
  Te  Te123  1  0.49599139  0.83680615  0.17074039  1
  Te  Te124  1  0.49782652  0.83475598  0.49665770  1
  Te  Te125  1  0.50556834  0.83452458  0.83169854  1
  Te  Te126  1  0.83395675  0.15906674  0.16698189  1
  Te  Te127  1  0.83283595  0.16937771  0.49880471  1
  Te  Te128  1  0.83459879  0.16921308  0.83261385  1
  Te  Te129  1  0.83698386  0.49799082  0.16047437  1
  Te  Te130  1  0.83348974  0.50124339  0.50286509  1
  Te  Te131  1  0.82953944  0.50120513  0.83672725  1
  Te  Te132  1  0.83069230  0.83591178  0.16657943  1
  Te  Te133  1  0.83436788  0.83440879  0.50456047  1
  Te  Te134  1  0.83315001  0.83557543  0.83003571  1
  Te  Te135  1  0.16671680  -0.00213564  -0.00325704  1
  Te  Te136  1  0.16978620  -0.00431847  0.33615409  1
  Te  Te137  1  0.16320167  0.00209556  0.66035515  1
  Te  Te138  1  0.16696324  0.32990194  0.00294806  1
  Te  Te139  1  0.16420605  0.33911596  0.32908418  1
  Te  Te140  1  0.16617383  0.33406819  0.67017005  1
  Te  Te141  1  0.16645745  0.66730301  -0.00110530  1
  Te  Te142  1  0.16883932  0.66920709  0.33275574  1
  Te  Te143  1  0.16745318  0.66556063  0.66911559  1
  Te  Te144  1  0.49878282  0.00096367  0.00260015  1
  Te  Te145  1  0.49868253  -0.00518911  0.33193111  1
  Te  Te146  1  0.50161020  -0.00609682  0.66852119  1
  Te  Te147  1  0.50128798  0.33855052  -0.00012037  1
  Te  Te148  1  0.50199772  0.34424157  0.33603093  1
  Te  Te149  1  0.50047708  0.33298466  0.66928481  1
  Te  Te150  1  0.49682543  0.65901046  0.00047953  1
  Te  Te151  1  0.49693260  0.66769677  0.33309728  1
  Te  Te152  1  0.49796503  0.67333739  0.66817904  1
  Te  Te153  1  0.83039028  -0.00507044  0.00494638  1
  Te  Te154  1  0.83757576  -0.00878831  0.32766574  1
  Te  Te155  1  0.83287260  -0.00611472  0.66567785  1
  Te  Te156  1  0.82724556  0.33283853  0.00022738  1
  Te  Te157  1  0.83190670  0.33153279  0.33353207  1
  Te  Te158  1  0.83225301  0.33257367  0.66690695  1
  Te  Te159  1  0.83677651  0.66922919  0.00020975  1
  Te  Te160  1  0.83083411  0.67300142  0.33366512  1
  Te  Te161  1  0.83556238  0.66941886  0.66536685  1
  Te  Te162  1  -0.00127151  0.16023664  -0.00012083  1
  Te  Te163  1  -0.00053497  0.16598102  0.33434549  1
  Te  Te164  1  -0.00006169  0.16305450  0.66589575  1
  Te  Te165  1  0.00141298  0.50108833  0.00273638  1
  Te  Te166  1  0.00261700  0.50683620  0.32785251  1
  Te  Te167  1  -0.00715478  0.50547299  0.66666745  1
  Te  Te168  1  -0.00228310  0.83536937  0.00744922  1
  Te  Te169  1  0.00543621  0.83203728  0.32836587  1
  Te  Te170  1  0.00067665  0.83237986  0.66408402  1
  Te  Te171  1  0.33945081  0.16326410  0.00205858  1
  Te  Te172  1  0.33691806  0.16909976  0.33492250  1
  Te  Te173  1  0.33358731  0.16495625  0.66275962  1
  Te  Te174  1  0.33223476  0.50519197  0.00078859  1
  Te  Te175  1  0.33194495  0.49708602  0.33415286  1
  Te  Te176  1  0.33351489  0.50796691  0.66250998  1
  Te  Te177  1  0.33589359  0.83187947  -0.00037363  1
  Te  Te178  1  0.32773898  0.83555232  0.33367591  1
  Te  Te179  1  0.33339999  0.82876596  0.66890383  1
  Te  Te180  1  0.66012109  0.16156688  0.00067648  1
  Te  Te181  1  0.66185256  0.17081571  0.33345079  1
  Te  Te182  1  0.66735996  0.15768780  0.66612459  1
  Te  Te183  1  0.66609388  0.50298017  -0.00179090  1
  Te  Te184  1  0.66825919  0.50856999  0.33315101  1
  Te  Te185  1  0.67152350  0.49924583  0.67087525  1
  Te  Te186  1  0.66635988  0.83444995  -0.00256521  1
  Te  Te187  1  0.66651484  0.83322601  0.33267095  1
  Te  Te188  1  0.66760292  0.83418762  0.67008324  1
  Te  Te189  1  0.00029338  -0.00407122  0.16856791  1
  Te  Te190  1  -0.00047191  -0.00762434  0.49903211  1
  Te  Te191  1  -0.00009392  -0.00733374  0.82732095  1
  Te  Te192  1  0.00506261  0.33171174  0.16597057  1
  Te  Te193  1  -0.00287920  0.33228528  0.50194498  1
  Te  Te194  1  0.00547035  0.33220233  0.83286801  1
  Te  Te195  1  0.00229639  0.66877637  0.16624316  1
  Te  Te196  1  0.00674298  0.67003914  0.50060288  1
  Te  Te197  1  0.00034193  0.67320941  0.82648989  1
  Te  Te198  1  0.33399877  -0.00294148  0.16833463  1
  Te  Te199  1  0.33393487  -0.00582619  0.49837811  1
  Te  Te200  1  0.33203550  0.00166180  0.83978687  1
  Te  Te201  1  0.32850325  0.32904502  0.16459402  1
  Te  Te202  1  0.33809744  0.33641344  0.50182386  1
  Te  Te203  1  0.33375829  0.33405097  0.83171021  1
  Te  Te204  1  0.32933978  0.66978531  0.17049065  1
  Te  Te205  1  0.33066418  0.67057205  0.49436560  1
  Te  Te206  1  0.33265468  0.66595828  0.83634753  1
  Te  Te207  1  0.66462176  -0.00488139  0.16448584  1
  Te  Te208  1  0.66332005  -0.00749916  0.50386707  1
  Te  Te209  1  0.66708552  -0.00338024  0.83424557  1
  Te  Te210  1  0.66779018  0.33378049  0.15906192  1
  Te  Te211  1  0.65804217  0.33377749  0.49992527  1
  Te  Te212  1  0.66290494  0.33369793  0.83865001  1
  Te  Te213  1  0.66474298  0.67364042  0.17202387  1
  Te  Te214  1  0.66820092  0.67252058  0.49567055  1
  Te  Te215  1  0.66696432  0.66745354  0.83280926  1
