# generated using pymatgen
data_AgSbTe2
_symmetry_space_group_name_H-M   'P 1'
_cell_length_a   18.33755311
_cell_length_b   18.33523588
_cell_length_c   18.34104960
_cell_angle_alpha   90.00121805
_cell_angle_beta   89.99570089
_cell_angle_gamma   90.00277168
_symmetry_Int_Tables_number   1
_chemical_formula_structural   AgSbTe2
_chemical_formula_sum   'Ag54 Sb54 Te108'
_cell_volume   6166.68932875
_cell_formula_units_Z   54
loop_
 _symmetry_equiv_pos_site_id
 _symmetry_equiv_pos_as_xyz
  1  'x, y, z'
loop_
 _atom_site_type_symbol
 _atom_site_label
 _atom_site_symmetry_multiplicity
 _atom_site_fract_x
 _atom_site_fract_y
 _atom_site_fract_z
 _atom_site_occupancy
  Ag  Ag0  1  0.16797387  0.33231840  0.16534917  1
  Ag  Ag1  1  0.83150573  0.83449706  -0.00148428  1
  Ag  Ag2  1  0.67162154  0.15685762  0.50017204  1
  Ag  Ag3  1  0.16502185  0.32840434  0.51218333  1
  Ag  Ag4  1  0.67524381  0.32774970  0.00261966  1
  Ag  Ag5  1  -0.00217115  0.83741992  0.83026529  1
  Ag  Ag6  1  -0.00718425  0.33965748  -0.00512294  1
  Ag  Ag7  1  0.66203537  0.66748049  0.32162278  1
  Ag  Ag8  1  -0.00265492  0.67022065  0.67257868  1
  Ag  Ag9  1  0.67420486  0.67416823  0.00560228  1
  Ag  Ag10  1  0.33284346  0.33239183  0.33445232  1
  Ag  Ag11  1  0.67163664  0.67150303  0.66792451  1
  Ag  Ag12  1  0.16331478  0.48627184  0.67250477  1
  Ag  Ag13  1  0.83940568  0.16600716  0.68010940  1
  Ag  Ag14  1  0.82886591  0.00711702  0.83599896  1
  Ag  Ag15  1  0.51219294  0.50000879  0.00252352  1
  Ag  Ag16  1  0.16897509  0.17198126  0.33985853  1
  Ag  Ag17  1  0.66701985  0.15753719  0.16366098  1
  Ag  Ag18  1  0.82614870  0.00152781  0.50526083  1
  Ag  Ag19  1  0.50575373  0.67400810  0.49562226  1
  Ag  Ag20  1  0.50472088  0.16834063  0.33279497  1
  Ag  Ag21  1  0.50451738  0.83561632  0.66758664  1
  Ag  Ag22  1  0.50382122  0.33196835  0.16748238  1
  Ag  Ag23  1  0.00951685  0.32320442  0.67778781  1
  Ag  Ag24  1  0.66155723  0.32811288  0.32240014  1
  Ag  Ag25  1  0.67630345  0.15975879  0.84030944  1
  Ag  Ag26  1  0.51011690  0.67061088  0.16945609  1
  Ag  Ag27  1  -0.00314368  0.83779703  0.51003658  1
  Ag  Ag28  1  0.32167311  0.32768880  0.66502285  1
  Ag  Ag29  1  0.82521015  -0.00307608  0.15352350  1
  Ag  Ag30  1  0.50842322  -0.00014235  0.16587447  1
  Ag  Ag31  1  0.33544254  0.00016903  0.66763866  1
  Ag  Ag32  1  0.67076155  0.83971413  0.84070791  1
  Ag  Ag33  1  0.51147493  -0.00238758  0.83356496  1
  Ag  Ag34  1  0.82966506  0.16598681  -0.00826840  1
  Ag  Ag35  1  0.32941663  0.83612535  0.83037274  1
  Ag  Ag36  1  0.16671593  0.83497842  0.33495634  1
  Ag  Ag37  1  0.50791500  -0.00400742  0.50427570  1
  Ag  Ag38  1  0.67067235  -0.00104064  0.00036365  1
  Ag  Ag39  1  0.15826205  0.33026462  0.82400109  1
  Ag  Ag40  1  0.15666536  0.82915384  -0.00805793  1
  Ag  Ag41  1  -0.01178828  0.17109699  0.82735853  1
  Ag  Ag42  1  0.66748874  0.83907707  0.50144855  1
  Ag  Ag43  1  0.00042481  0.49839445  0.15883920  1
  Ag  Ag44  1  -0.00772535  0.66121946  -0.00328212  1
  Ag  Ag45  1  0.15869761  0.49816378  -0.00274833  1
  Ag  Ag46  1  0.66758941  0.83824805  0.15974083  1
  Ag  Ag47  1  0.16285297  0.83395356  0.66924914  1
  Ag  Ag48  1  0.34075843  0.66723102  0.33293412  1
  Ag  Ag49  1  0.82665728  0.67236796  0.15922225  1
  Ag  Ag50  1  0.15640356  0.17570337  0.66302946  1
  Ag  Ag51  1  0.83595137  0.50117709  0.00014639  1
  Ag  Ag52  1  0.84204722  0.32065746  0.83898706  1
  Ag  Ag53  1  -0.00502378  0.16310033  0.50921232  1
  Sb  Sb54  1  0.83184806  0.50040923  0.32437461  1
  Sb  Sb55  1  0.66703513  0.50159629  0.50086498  1
  Sb  Sb56  1  0.16581405  0.00283981  0.50343371  1
  Sb  Sb57  1  0.49642270  0.50577420  0.67215472  1
  Sb  Sb58  1  0.00047669  0.00037835  0.33476723  1
  Sb  Sb59  1  0.50059520  0.49907781  0.32699000  1
  Sb  Sb60  1  0.33257845  0.16261337  0.83016256  1
  Sb  Sb61  1  0.16524327  0.66486138  0.16506672  1
  Sb  Sb62  1  0.00120302  0.00224527  0.66761909  1
  Sb  Sb63  1  -0.00077167  0.66963022  0.33200457  1
  Sb  Sb64  1  0.50019335  0.83375623  0.33668114  1
  Sb  Sb65  1  0.82942046  0.33218124  0.15859580  1
  Sb  Sb66  1  0.33228896  0.16669962  0.50051463  1
  Sb  Sb67  1  0.33079246  0.33305422  -0.00052072  1
  Sb  Sb68  1  0.33551021  0.66826719  0.00324574  1
  Sb  Sb69  1  0.33209597  0.67017878  0.66349843  1
  Sb  Sb70  1  -0.00526877  0.82975179  0.16151803  1
  Sb  Sb71  1  0.00102336  0.33152396  0.33303788  1
  Sb  Sb72  1  0.33479383  0.83447072  0.50470887  1
  Sb  Sb73  1  0.16694732  0.00317068  0.16495930  1
  Sb  Sb74  1  0.66413829  -0.00443863  0.67204067  1
  Sb  Sb75  1  0.34136173  -0.00367169  -0.00606630  1
  Sb  Sb76  1  0.33135906  0.49920686  0.16550419  1
  Sb  Sb77  1  0.66760686  0.50104512  0.83722649  1
  Sb  Sb78  1  -0.00941995  -0.00176191  -0.00235304  1
  Sb  Sb79  1  0.33030094  0.50240015  0.83340944  1
  Sb  Sb80  1  0.82800921  0.67504579  0.49826442  1
  Sb  Sb81  1  0.66917005  0.50185377  0.16202198  1
  Sb  Sb82  1  0.34090228  0.16770604  0.16883342  1
  Sb  Sb83  1  0.33808341  0.83264138  0.16367770  1
  Sb  Sb84  1  0.66542414  0.00096926  0.33046934  1
  Sb  Sb85  1  0.00149136  0.49892494  0.50103133  1
  Sb  Sb86  1  0.49792091  0.33079410  0.49515049  1
  Sb  Sb87  1  0.82905209  0.16661273  0.33161255  1
  Sb  Sb88  1  0.50402185  0.67482285  0.83550926  1
  Sb  Sb89  1  0.84008110  0.49607086  0.67454910  1
  Sb  Sb90  1  0.83429450  0.66997936  0.83991436  1
  Sb  Sb91  1  0.50806526  0.83077828  -0.00354366  1
  Sb  Sb92  1  0.83660139  0.32454818  0.50577508  1
  Sb  Sb93  1  0.66759689  0.33198193  0.66985123  1
  Sb  Sb94  1  0.51088820  0.16875639  0.00492560  1
  Sb  Sb95  1  0.50087983  0.32613528  0.83706041  1
  Sb  Sb96  1  0.16336910  0.00101788  0.83167113  1
  Sb  Sb97  1  0.33641597  0.00028562  0.33812161  1
  Sb  Sb98  1  0.16716095  0.49639067  0.33188626  1
  Sb  Sb99  1  0.33272260  0.49960334  0.50084976  1
  Sb  Sb100  1  0.83248577  0.83456623  0.32941710  1
  Sb  Sb101  1  0.16344235  0.66748072  0.83312557  1
  Sb  Sb102  1  0.15586945  0.17066423  -0.00419560  1
  Sb  Sb103  1  0.50169521  0.16081041  0.66272399  1
  Sb  Sb104  1  -0.00559986  0.17060836  0.16438830  1
  Sb  Sb105  1  0.16773230  0.66644159  0.50105207  1
  Sb  Sb106  1  0.00011027  0.49555905  0.83902704  1
  Sb  Sb107  1  0.83225663  0.83918751  0.67294927  1
  Te  Te108  1  0.16566931  0.16918119  0.16794383  1
  Te  Te109  1  0.16522856  0.16788356  0.50154080  1
  Te  Te110  1  0.16472044  0.16883293  0.82786378  1
  Te  Te111  1  0.16277415  0.49692485  0.16369284  1
  Te  Te112  1  0.16556350  0.49373795  0.50530339  1
  Te  Te113  1  0.16661139  0.49498186  0.83381843  1
  Te  Te114  1  0.16685901  0.83471997  0.16907417  1
  Te  Te115  1  0.16331418  0.83457279  0.50024203  1
  Te  Te116  1  0.16153344  0.83397872  0.83377126  1
  Te  Te117  1  0.50639567  0.16855942  0.17069087  1
  Te  Te118  1  0.50520843  0.16364794  0.49521745  1
  Te  Te119  1  0.50242501  0.15853224  0.83224544  1
  Te  Te120  1  0.49815455  0.49744924  0.16085238  1
  Te  Te121  1  0.50019624  0.50654406  0.50228218  1
  Te  Te122  1  0.49838657  0.49901597  0.84171223  1
  Te  Te123  1  0.50498153  0.83303805  0.16653806  1
  Te  Te124  1  0.50160234  0.83424497  0.50253254  1
  Te  Te125  1  0.50770984  0.83798394  0.83006365  1
  Te  Te126  1  0.82766237  0.16138107  0.16466350  1
  Te  Te127  1  0.83363269  0.16184020  0.49774748  1
  Te  Te128  1  0.83180425  0.16545272  0.83515701  1
  Te  Te129  1  0.83915202  0.50347790  0.15942121  1
  Te  Te130  1  0.83471659  0.49967029  0.50120956  1
  Te  Te131  1  0.83284769  0.49145186  0.84078471  1
  Te  Te132  1  0.82910688  0.83428512  0.16304747  1
  Te  Te133  1  0.83356086  0.83944589  0.49947741  1
  Te  Te134  1  0.83228295  0.83557145  0.83707457  1
  Te  Te135  1  0.16789922  -0.00452595  0.00095809  1
  Te  Te136  1  0.16959644  0.00105802  0.33311870  1
  Te  Te137  1  0.17462048  -0.00795496  0.66692397  1
  Te  Te138  1  0.16581379  0.33466257  0.00561044  1
  Te  Te139  1  0.16819625  0.33217290  0.32568498  1
  Te  Te140  1  0.16538837  0.33074907  0.66803254  1
  Te  Te141  1  0.16464316  0.66660555  0.00031282  1
  Te  Te142  1  0.16970356  0.66851156  0.33367313  1
  Te  Te143  1  0.16283317  0.67564922  0.66607173  1
  Te  Te144  1  0.50789440  -0.00018830  0.00171944  1
  Te  Te145  1  0.49869755  0.00458912  0.33005617  1
  Te  Te146  1  0.49734019  -0.00336911  0.66565825  1
  Te  Te147  1  0.49885439  0.33700362  0.00404907  1
  Te  Te148  1  0.49999104  0.33174816  0.33041745  1
  Te  Te149  1  0.49565034  0.33613728  0.66600515  1
  Te  Te150  1  0.50322586  0.66307786  0.00429758  1
  Te  Te151  1  0.50157809  0.66645572  0.33175231  1
  Te  Te152  1  0.50097249  0.67037711  0.66423419  1
  Te  Te153  1  0.82971452  -0.00108065  -0.00308793  1
  Te  Te154  1  0.83348356  -0.00015678  0.33836936  1
  Te  Te155  1  0.83231391  0.00608556  0.66606762  1
  Te  Te156  1  0.83320120  0.33130514  -0.00055231  1
  Te  Te157  1  0.82600569  0.33478146  0.33443230  1
  Te  Te158  1  0.83699553  0.32889587  0.67327095  1
  Te  Te159  1  0.83310761  0.66842609  0.00073379  1
  Te  Te160  1  0.82752753  0.66624687  0.32628925  1
  Te  Te161  1  0.83547290  0.66505332  0.66680259  1
  Te  Te162  1  -0.00804927  0.17139382  -0.00401128  1
  Te  Te163  1  0.00666918  0.16766961  0.33626827  1
  Te  Te164  1  -0.00030489  0.16603680  0.66627337  1
  Te  Te165  1  -0.00115241  0.50086858  0.00000636  1
  Te  Te166  1  0.00010175  0.50078122  0.32604248  1
  Te  Te167  1  0.00502011  0.50719588  0.66603235  1
  Te  Te168  1  -0.00244257  0.83131050  -0.00204781  1
  Te  Te169  1  0.00614216  0.83282877  0.33719339  1
  Te  Te170  1  -0.00231828  0.83403740  0.66822249  1
  Te  Te171  1  0.33046627  0.16466243  -0.00022038  1
  Te  Te172  1  0.33089037  0.17116830  0.33400394  1
  Te  Te173  1  0.33155708  0.16659687  0.66622636  1
  Te  Te174  1  0.32334527  0.50136637  -0.00124863  1
  Te  Te175  1  0.33288685  0.49752139  0.33340643  1
  Te  Te176  1  0.32590853  0.49754617  0.66771057  1
  Te  Te177  1  0.32444956  0.83253588  -0.00594934  1
  Te  Te178  1  0.32832836  0.83151953  0.33251058  1
  Te  Te179  1  0.33470094  0.83389852  0.67036993  1
  Te  Te180  1  0.66953641  0.16682447  0.00099646  1
  Te  Te181  1  0.66465861  0.16880207  0.33365299  1
  Te  Te182  1  0.66866072  0.16897817  0.66129092  1
  Te  Te183  1  0.66987774  0.49870572  -0.00199912  1
  Te  Te184  1  0.66662623  0.49987173  0.33368770  1
  Te  Te185  1  0.66674861  0.50821277  0.66927319  1
  Te  Te186  1  0.66839359  0.83366455  0.00078778  1
  Te  Te187  1  0.66594043  0.82635893  0.33831071  1
  Te  Te188  1  0.66638481  0.83059926  0.66140459  1
  Te  Te189  1  -0.00715397  0.00027292  0.16660474  1
  Te  Te190  1  -0.00248897  -0.00032103  0.50114839  1
  Te  Te191  1  -0.00571617  -0.00029323  0.83351026  1
  Te  Te192  1  0.00052366  0.33586553  0.16407148  1
  Te  Te193  1  0.00415771  0.32993781  0.50224615  1
  Te  Te194  1  0.00154011  0.33264021  0.83490244  1
  Te  Te195  1  -0.00246115  0.66292702  0.16308428  1
  Te  Te196  1  -0.00169417  0.67163753  0.50170442  1
  Te  Te197  1  -0.00068435  0.67398730  0.83385530  1
  Te  Te198  1  0.34236851  -0.00027320  0.16576697  1
  Te  Te199  1  0.34284082  -0.00002498  0.50581592  1
  Te  Te200  1  0.33596277  -0.00510574  0.82839757  1
  Te  Te201  1  0.33477651  0.33280260  0.17077135  1
  Te  Te202  1  0.32897844  0.33315369  0.49899505  1
  Te  Te203  1  0.33176480  0.33254577  0.82883366  1
  Te  Te204  1  0.33951111  0.66659161  0.17261942  1
  Te  Te205  1  0.33885819  0.66685914  0.49363311  1
  Te  Te206  1  0.33493561  0.67639150  0.83334284  1
  Te  Te207  1  0.66671955  -0.00193490  0.16714269  1
  Te  Te208  1  0.66563390  -0.00048821  0.49770530  1
  Te  Te209  1  0.66839344  -0.00007167  0.83388231  1
  Te  Te210  1  0.66474939  0.33485980  0.16400080  1
  Te  Te211  1  0.66733923  0.33248350  0.49923185  1
  Te  Te212  1  0.66641554  0.32778420  0.83788323  1
  Te  Te213  1  0.66686426  0.66538241  0.16425666  1
  Te  Te214  1  0.66483829  0.66848935  0.50357981  1
  Te  Te215  1  0.66765131  0.67237112  0.83272289  1
