# generated using pymatgen
data_AgSbTe2
_symmetry_space_group_name_H-M   'P 1'
_cell_length_a   18.32322828
_cell_length_b   18.31911483
_cell_length_c   18.32632054
_cell_angle_alpha   90.00010420
_cell_angle_beta   89.99863709
_cell_angle_gamma   90.00047936
_symmetry_Int_Tables_number   1
_chemical_formula_structural   AgSbTe2
_chemical_formula_sum   'Ag54 Sb54 Te108'
_cell_volume   6151.51030150
_cell_formula_units_Z   54
loop_
 _symmetry_equiv_pos_site_id
 _symmetry_equiv_pos_as_xyz
  1  'x, y, z'
loop_
 _atom_site_type_symbol
 _atom_site_label
 _atom_site_symmetry_multiplicity
 _atom_site_fract_x
 _atom_site_fract_y
 _atom_site_fract_z
 _atom_site_occupancy
  Ag  Ag0  1  0.65587439  0.17134746  0.16446139  1
  Ag  Ag1  1  0.83526034  0.33232373  0.50165524  1
  Ag  Ag2  1  0.00397662  0.16437393  0.16870921  1
  Ag  Ag3  1  0.01043928  0.16783094  0.50609853  1
  Ag  Ag4  1  0.50636661  0.49019342  -0.00090923  1
  Ag  Ag5  1  0.66956449  0.49821577  0.15635966  1
  Ag  Ag6  1  0.50204475  0.00946797  0.83791347  1
  Ag  Ag7  1  0.34243185  0.32763597  0.00094142  1
  Ag  Ag8  1  0.33006071  0.66205382  0.67017613  1
  Ag  Ag9  1  0.33398931  0.66469998  -0.00207951  1
  Ag  Ag10  1  0.00556849  0.66312154  0.66669102  1
  Ag  Ag11  1  0.16567401  0.16270764  0.33734260  1
  Ag  Ag12  1  0.66396371  0.33488168  0.67127823  1
  Ag  Ag13  1  0.83680492  0.66005933  0.16752052  1
  Ag  Ag14  1  -0.00779079  0.50339799  0.16714074  1
  Ag  Ag15  1  0.81891254  0.50067175  0.00711133  1
  Ag  Ag16  1  0.49199075  0.00804252  0.16259418  1
  Ag  Ag17  1  0.50624576  0.49933414  0.32828952  1
  Ag  Ag18  1  0.33007285  0.16957523  0.50102564  1
  Ag  Ag19  1  0.49809032  0.16696358  0.32726495  1
  Ag  Ag20  1  0.16702812  0.00200269  0.16528274  1
  Ag  Ag21  1  0.49958797  0.83597959  0.33262755  1
  Ag  Ag22  1  0.16667043  0.83404285  0.00464591  1
  Ag  Ag23  1  0.33362793  0.49288495  0.50418645  1
  Ag  Ag24  1  0.84082348  0.00329579  0.83461574  1
  Ag  Ag25  1  0.66900143  0.66185034  0.33005823  1
  Ag  Ag26  1  0.49793662  0.17079780  0.67395377  1
  Ag  Ag27  1  0.00655694  0.00377978  -0.00354483  1
  Ag  Ag28  1  0.49983557  0.17117067  -0.00408846  1
  Ag  Ag29  1  0.33218953  0.00493689  -0.00100045  1
  Ag  Ag30  1  0.33968923  0.16427630  0.16677067  1
  Ag  Ag31  1  0.16439335  0.32829067  0.50426316  1
  Ag  Ag32  1  -0.00109212  0.66759976  0.32985576  1
  Ag  Ag33  1  0.00082684  0.32731299  0.66498562  1
  Ag  Ag34  1  0.82570074  0.50246924  0.32614858  1
  Ag  Ag35  1  0.50415076  0.32749660  0.83482342  1
  Ag  Ag36  1  0.66477081  0.83231121  0.49893925  1
  Ag  Ag37  1  0.16334231  0.66961568  0.16350290  1
  Ag  Ag38  1  0.66457385  0.49263798  0.84500514  1
  Ag  Ag39  1  0.00262661  0.84341584  0.83188344  1
  Ag  Ag40  1  0.66218028  0.65775622  0.00282524  1
  Ag  Ag41  1  0.00406878  0.00283640  0.32723163  1
  Ag  Ag42  1  0.66156053  0.16870750  0.50264065  1
  Ag  Ag43  1  0.65743785  0.17284306  0.83231516  1
  Ag  Ag44  1  0.17070481  0.49775508  0.66614528  1
  Ag  Ag45  1  0.32956597  0.01024542  0.67247418  1
  Ag  Ag46  1  0.50089924  0.49474876  0.67033786  1
  Ag  Ag47  1  0.66251755  0.65649384  0.66809317  1
  Ag  Ag48  1  0.16512222  0.16932453  0.66145689  1
  Ag  Ag49  1  0.66063628  0.34243252  -0.00731380  1
  Ag  Ag50  1  0.16472565  0.66644503  0.83408294  1
  Ag  Ag51  1  0.00792435  0.01201386  0.67551113  1
  Ag  Ag52  1  0.16654801  0.83837759  0.32802432  1
  Ag  Ag53  1  -0.00150450  0.16026556  0.82396198  1
  Sb  Sb54  1  0.83352918  0.83299209  0.66650547  1
  Sb  Sb55  1  0.00315993  0.49503131  0.49866719  1
  Sb  Sb56  1  0.33031849  0.00399662  0.33026267  1
  Sb  Sb57  1  0.50080215  0.83559651  0.66389468  1
  Sb  Sb58  1  0.83073315  0.49865413  0.66668601  1
  Sb  Sb59  1  0.33547788  0.16612531  0.83305660  1
  Sb  Sb60  1  0.83245715  0.33949582  0.16879838  1
  Sb  Sb61  1  0.66399769  0.82964928  0.16943686  1
  Sb  Sb62  1  0.83545733  0.00731206  0.50366795  1
  Sb  Sb63  1  0.33513951  0.33293632  0.66864776  1
  Sb  Sb64  1  0.00383832  0.83358959  0.16424743  1
  Sb  Sb65  1  0.66402182  0.00184647  -0.00042601  1
  Sb  Sb66  1  0.49880335  0.66685191  0.16620523  1
  Sb  Sb67  1  0.50052427  0.66427703  0.50010309  1
  Sb  Sb68  1  0.49581141  0.83577900  0.00317796  1
  Sb  Sb69  1  0.66936634  0.83347290  0.82979895  1
  Sb  Sb70  1  -0.00483213  0.49771948  0.83534890  1
  Sb  Sb71  1  0.33171350  0.83867559  0.16608920  1
  Sb  Sb72  1  0.33239819  0.66578594  0.33266099  1
  Sb  Sb73  1  0.16555523  0.83439477  0.66661888  1
  Sb  Sb74  1  0.17001652  0.50492108  -0.00353115  1
  Sb  Sb75  1  0.00195369  0.66872073  0.00153032  1
  Sb  Sb76  1  0.82701276  0.17088587  -0.00009099  1
  Sb  Sb77  1  0.16578088  0.32978344  0.16943039  1
  Sb  Sb78  1  0.66519039  0.33641806  0.33335601  1
  Sb  Sb79  1  0.82660976  0.32922317  0.83033207  1
  Sb  Sb80  1  0.83537522  0.82812916  0.33283456  1
  Sb  Sb81  1  0.83206625  0.66029888  0.49621378  1
  Sb  Sb82  1  0.17144887  0.16246764  0.00037323  1
  Sb  Sb83  1  0.49899090  0.00580720  0.49929078  1
  Sb  Sb84  1  0.49966898  0.33111332  0.50674136  1
  Sb  Sb85  1  0.16553687  -0.00128583  0.83741123  1
  Sb  Sb86  1  0.66500953  0.00687963  0.66847822  1
  Sb  Sb87  1  0.16627988  0.66276247  0.50125618  1
  Sb  Sb88  1  0.83695923  -0.00152643  0.16326711  1
  Sb  Sb89  1  0.49893114  0.66647394  0.83316809  1
  Sb  Sb90  1  0.83359148  0.17068414  0.33329285  1
  Sb  Sb91  1  0.33612777  0.49598613  0.16663248  1
  Sb  Sb92  1  0.16986317  0.33528065  0.82881987  1
  Sb  Sb93  1  0.83558881  0.16782353  0.66764257  1
  Sb  Sb94  1  0.33562940  0.83691583  0.50023981  1
  Sb  Sb95  1  0.83572874  0.66786078  0.83635552  1
  Sb  Sb96  1  -0.00161583  0.32762595  -0.00461025  1
  Sb  Sb97  1  -0.00230793  0.83806447  0.50279003  1
  Sb  Sb98  1  0.50190280  0.32686671  0.15862031  1
  Sb  Sb99  1  -0.00015673  0.33165539  0.33803976  1
  Sb  Sb100  1  0.83751177  0.82996992  -0.00062807  1
  Sb  Sb101  1  0.33537573  0.33038579  0.33161686  1
  Sb  Sb102  1  0.16628796  0.00614875  0.49562262  1
  Sb  Sb103  1  0.66844462  -0.00109270  0.33239492  1
  Sb  Sb104  1  0.16684136  0.49911406  0.33584074  1
  Sb  Sb105  1  0.66189691  0.49593606  0.50043374  1
  Sb  Sb106  1  0.32869004  0.83308538  0.83396527  1
  Sb  Sb107  1  0.34019516  0.50043001  0.83023546  1
  Te  Te108  1  0.16443608  0.16457238  0.16739671  1
  Te  Te109  1  0.16841488  0.16745357  0.50011445  1
  Te  Te110  1  0.16048593  0.16691175  0.82860363  1
  Te  Te111  1  0.16614181  0.50163413  0.16672137  1
  Te  Te112  1  0.17103296  0.49463379  0.50442276  1
  Te  Te113  1  0.16449242  0.50447209  0.82696356  1
  Te  Te114  1  0.16699689  0.83355381  0.16742316  1
  Te  Te115  1  0.16662223  0.83397069  0.49024466  1
  Te  Te116  1  0.16212781  0.82783290  0.83509462  1
  Te  Te117  1  0.49963260  0.16502035  0.16798216  1
  Te  Te118  1  0.50003814  0.16778024  0.49926749  1
  Te  Te119  1  0.49929759  0.16672455  0.83345726  1
  Te  Te120  1  0.50345718  0.49964097  0.16689249  1
  Te  Te121  1  0.49383065  0.49801474  0.50295605  1
  Te  Te122  1  0.50553056  0.50110471  0.83262255  1
  Te  Te123  1  0.49921722  0.84235719  0.17292337  1
  Te  Te124  1  0.50418140  0.83532107  0.49324934  1
  Te  Te125  1  0.50108588  0.84218263  0.83310595  1
  Te  Te126  1  0.83696926  0.16660464  0.16668528  1
  Te  Te127  1  0.82682400  0.17232521  0.49932246  1
  Te  Te128  1  0.83627064  0.16248908  0.83481839  1
  Te  Te129  1  0.83217901  0.50228648  0.16735778  1
  Te  Te130  1  0.83412406  0.49340058  0.49556138  1
  Te  Te131  1  0.82644724  0.50039353  0.83862905  1
  Te  Te132  1  0.83277835  0.82337793  0.16608494  1
  Te  Te133  1  0.82495735  0.83453743  0.49902662  1
  Te  Te134  1  0.84027528  0.83987921  0.83364271  1
  Te  Te135  1  0.16823404  -0.00285485  0.00370170  1
  Te  Te136  1  0.16440471  0.00248420  0.32824901  1
  Te  Te137  1  0.16752127  0.00201641  0.66802670  1
  Te  Te138  1  0.17113126  0.33441495  -0.00135290  1
  Te  Te139  1  0.16773151  0.32656811  0.33930121  1
  Te  Te140  1  0.16705554  0.33311106  0.66509519  1
  Te  Te141  1  0.16905595  0.67004485  0.00074334  1
  Te  Te142  1  0.16426372  0.66697335  0.32953034  1
  Te  Te143  1  0.16734059  0.66689203  0.66746625  1
  Te  Te144  1  0.49706160  0.00089183  0.00129036  1
  Te  Te145  1  0.50030156  0.00336707  0.32830952  1
  Te  Te146  1  0.49707324  0.00401886  0.67021320  1
  Te  Te147  1  0.50132637  0.33220377  -0.00345993  1
  Te  Te148  1  0.50056261  0.33248702  0.33423527  1
  Te  Te149  1  0.50146666  0.33303436  0.67221470  1
  Te  Te150  1  0.49817483  0.66808981  -0.00023228  1
  Te  Te151  1  0.50200912  0.66499045  0.33311171  1
  Te  Te152  1  0.50042324  0.66416581  0.66720227  1
  Te  Te153  1  0.83752872  -0.00078234  -0.00414101  1
  Te  Te154  1  0.84243688  -0.00183591  0.33264008  1
  Te  Te155  1  0.83938417  -0.00020627  0.67259213  1
  Te  Te156  1  0.82974167  0.34034226  -0.00073427  1
  Te  Te157  1  0.83255140  0.34114758  0.33966231  1
  Te  Te158  1  0.83380369  0.33462255  0.66252530  1
  Te  Te159  1  0.83071452  0.66239557  0.00384561  1
  Te  Te160  1  0.83440990  0.66242071  0.33003140  1
  Te  Te161  1  0.83348265  0.66495779  0.66693732  1
  Te  Te162  1  -0.00056020  0.16365471  0.00334948  1
  Te  Te163  1  0.00056280  0.16552528  0.33192394  1
  Te  Te164  1  0.00033286  0.16776509  0.66485053  1
  Te  Te165  1  0.00138638  0.49772218  0.00538205  1
  Te  Te166  1  0.00066028  0.50276017  0.32914864  1
  Te  Te167  1  0.00156901  0.50311900  0.66693672  1
  Te  Te168  1  0.00474646  0.83747112  -0.00517212  1
  Te  Te169  1  0.00380947  0.83171941  0.33505837  1
  Te  Te170  1  0.00062775  0.82751251  0.67004399  1
  Te  Te171  1  0.33698609  0.16397711  0.00082748  1
  Te  Te172  1  0.33424444  0.16563403  0.33395595  1
  Te  Te173  1  0.33467387  0.16783910  0.66585619  1
  Te  Te174  1  0.33878108  0.50387216  -0.00001566  1
  Te  Te175  1  0.33904677  0.49906813  0.33792917  1
  Te  Te176  1  0.33371730  0.49997939  0.66541743  1
  Te  Te177  1  0.32767588  0.82992300  0.00006036  1
  Te  Te178  1  0.33418621  0.83474742  0.33490636  1
  Te  Te179  1  0.33377330  0.82643799  0.66552470  1
  Te  Te180  1  0.66123931  0.16668921  0.00040792  1
  Te  Te181  1  0.66488147  0.16703974  0.33110362  1
  Te  Te182  1  0.66344220  0.16963948  0.66870885  1
  Te  Te183  1  0.66312178  0.50147599  0.00029892  1
  Te  Te184  1  0.66502882  0.50236711  0.33452491  1
  Te  Te185  1  0.66396778  0.49783536  0.66489975  1
  Te  Te186  1  0.66662614  0.82464884  -0.00047607  1
  Te  Te187  1  0.66399733  0.83040272  0.33680529  1
  Te  Te188  1  0.66568160  0.82806590  0.66132817  1
  Te  Te189  1  0.00116959  0.00091129  0.16595583  1
  Te  Te190  1  -0.00100510  0.00632878  0.50221925  1
  Te  Te191  1  0.00292254  0.00185470  0.83433179  1
  Te  Te192  1  -0.00031183  0.33102381  0.16576504  1
  Te  Te193  1  0.00196811  0.32877881  0.50463363  1
  Te  Te194  1  -0.00092423  0.32863072  0.82664991  1
  Te  Te195  1  0.00226189  0.66639608  0.16805469  1
  Te  Te196  1  -0.00108944  0.66822561  0.50067815  1
  Te  Te197  1  0.00272222  0.66517130  0.83123241  1
  Te  Te198  1  0.33079165  0.00452957  0.16371347  1
  Te  Te199  1  0.33312352  0.00532418  0.51008592  1
  Te  Te200  1  0.33628860  -0.00090808  0.83368131  1
  Te  Te201  1  0.33185738  0.32580258  0.15915774  1
  Te  Te202  1  0.32918216  0.33028913  0.49999943  1
  Te  Te203  1  0.33926210  0.33425477  0.84179669  1
  Te  Te204  1  0.32783327  0.66523183  0.16373794  1
  Te  Te205  1  0.33289141  0.66472500  0.50479012  1
  Te  Te206  1  0.32879122  0.66662806  0.83277933  1
  Te  Te207  1  0.66793081  0.00502204  0.16639159  1
  Te  Te208  1  0.66792722  0.00495677  0.50044327  1
  Te  Te209  1  0.66554097  0.00249509  0.83326421  1
  Te  Te210  1  0.66820780  0.33284500  0.16225076  1
  Te  Te211  1  0.66797178  0.32849455  0.50420488  1
  Te  Te212  1  0.66529019  0.33238369  0.83285179  1
  Te  Te213  1  0.66438044  0.66355870  0.16853213  1
  Te  Te214  1  0.66729981  0.66796059  0.50002727  1
  Te  Te215  1  0.66760372  0.66644993  0.83051165  1
