# generated using pymatgen
data_AgSbTe2
_symmetry_space_group_name_H-M   'P 1'
_cell_length_a   18.33636986
_cell_length_b   18.33481192
_cell_length_c   18.33741686
_cell_angle_alpha   89.99643690
_cell_angle_beta   89.99992879
_cell_angle_gamma   89.99953619
_symmetry_Int_Tables_number   1
_chemical_formula_structural   AgSbTe2
_chemical_formula_sum   'Ag54 Sb54 Te108'
_cell_volume   6164.92754393
_cell_formula_units_Z   54
loop_
 _symmetry_equiv_pos_site_id
 _symmetry_equiv_pos_as_xyz
  1  'x, y, z'
loop_
 _atom_site_type_symbol
 _atom_site_label
 _atom_site_symmetry_multiplicity
 _atom_site_fract_x
 _atom_site_fract_y
 _atom_site_fract_z
 _atom_site_occupancy
  Ag  Ag0  1  0.16700829  0.34380043  0.16757147  1
  Ag  Ag1  1  0.16651637  -0.00247990  0.16841264  1
  Ag  Ag2  1  0.33388243  0.83622096  0.84090309  1
  Ag  Ag3  1  0.67683663  0.50133795  0.48796898  1
  Ag  Ag4  1  -0.00078804  0.50881816  0.49427621  1
  Ag  Ag5  1  0.33020721  0.33332965  0.32569027  1
  Ag  Ag6  1  0.16954079  0.34066788  0.84249995  1
  Ag  Ag7  1  0.49036759  0.66979577  0.84361010  1
  Ag  Ag8  1  0.66656368  0.66665276  0.00096406  1
  Ag  Ag9  1  0.00240004  0.66761968  0.00322859  1
  Ag  Ag10  1  0.49195996  0.83296228  0.33012016  1
  Ag  Ag11  1  0.00295163  0.67026998  0.66279988  1
  Ag  Ag12  1  0.00102855  0.66256783  0.33187409  1
  Ag  Ag13  1  0.48721579  0.50819114  0.00466081  1
  Ag  Ag14  1  0.00887595  0.16270000  0.83597964  1
  Ag  Ag15  1  0.83893296  -0.00399086  0.16591724  1
  Ag  Ag16  1  0.84165181  -0.00084839  0.49200988  1
  Ag  Ag17  1  -0.00542998  0.34339800  0.33273147  1
  Ag  Ag18  1  0.83646373  0.33685587  0.48814093  1
  Ag  Ag19  1  0.67738255  0.49924935  0.16965786  1
  Ag  Ag20  1  0.33138188  0.15805175  0.50227806  1
  Ag  Ag21  1  0.84104617  0.49746908  0.32931767  1
  Ag  Ag22  1  0.32564947  0.49728148  0.16429748  1
  Ag  Ag23  1  0.32929959  0.33046953  0.66615895  1
  Ag  Ag24  1  0.32596280  0.00083948  0.66250644  1
  Ag  Ag25  1  0.16250773  0.66034706  0.16357144  1
  Ag  Ag26  1  0.49815083  0.66752549  0.49874228  1
  Ag  Ag27  1  0.32886921  -0.00324267  0.33417952  1
  Ag  Ag28  1  0.32547582  -0.00419193  0.00055122  1
  Ag  Ag29  1  0.00477317  -0.00484146  0.66661216  1
  Ag  Ag30  1  0.83762644  0.50703731  0.01183120  1
  Ag  Ag31  1  -0.00043226  -0.00616438  -0.00193978  1
  Ag  Ag32  1  0.83715831  0.83211514  0.32828979  1
  Ag  Ag33  1  0.16562308  0.83094095  0.33434015  1
  Ag  Ag34  1  0.16672875  0.50145395  0.66873029  1
  Ag  Ag35  1  0.16877435  0.66298130  0.84596926  1
  Ag  Ag36  1  0.83487151  0.83060590  0.00753348  1
  Ag  Ag37  1  0.00271102  0.83045977  0.49595007  1
  Ag  Ag38  1  0.48569138  0.34062683  0.16738330  1
  Ag  Ag39  1  0.83734000  0.34548492  0.17046348  1
  Ag  Ag40  1  0.15905439  0.50307998  0.32938906  1
  Ag  Ag41  1  0.67807437  0.34169586  0.32929025  1
  Ag  Ag42  1  0.16732242  -0.00452575  0.49373846  1
  Ag  Ag43  1  0.32861832  0.16022051  0.83363245  1
  Ag  Ag44  1  0.16704172  0.50598830  0.00922950  1
  Ag  Ag45  1  0.67546413  -0.00321234  0.33245006  1
  Ag  Ag46  1  0.32869242  0.34404711  0.00602664  1
  Ag  Ag47  1  0.66405550  0.83152808  0.83950760  1
  Ag  Ag48  1  0.49693071  0.82639171  0.00161857  1
  Ag  Ag49  1  0.33194421  0.66490765  -0.00040847  1
  Ag  Ag50  1  0.83916487  -0.00260022  0.84666188  1
  Ag  Ag51  1  0.32691002  0.83774196  0.49648094  1
  Ag  Ag52  1  0.84080299  0.66250196  0.16485860  1
  Ag  Ag53  1  0.83725736  0.15409013  0.00107264  1
  Sb  Sb54  1  0.16687471  0.83018177  0.66220849  1
  Sb  Sb55  1  0.66993728  0.17238194  0.16645628  1
  Sb  Sb56  1  0.16487287  0.33268269  0.49452002  1
  Sb  Sb57  1  0.49547209  0.83083447  0.66825805  1
  Sb  Sb58  1  0.16566460  -0.00315582  0.83441623  1
  Sb  Sb59  1  0.00127282  0.50182757  0.17303634  1
  Sb  Sb60  1  0.49973582  0.33963603  0.49188484  1
  Sb  Sb61  1  0.83758400  0.67231568  0.84505134  1
  Sb  Sb62  1  0.00225054  0.49998922  0.83142590  1
  Sb  Sb63  1  0.66464246  0.34242220  0.00805059  1
  Sb  Sb64  1  0.16741801  0.16695567  0.33281397  1
  Sb  Sb65  1  0.67065975  0.66560524  0.32729226  1
  Sb  Sb66  1  0.49349169  -0.00711879  0.49736610  1
  Sb  Sb67  1  0.66726843  0.16050879  0.83680200  1
  Sb  Sb68  1  0.49886680  0.00160106  0.16737374  1
  Sb  Sb69  1  0.16697294  0.66953683  0.49574234  1
  Sb  Sb70  1  0.83489523  0.66684993  0.49176053  1
  Sb  Sb71  1  0.00308334  0.16305827  0.50216871  1
  Sb  Sb72  1  0.66303265  0.33690270  0.65972808  1
  Sb  Sb73  1  0.66905813  -0.00265402  0.66234989  1
  Sb  Sb74  1  0.66795615  0.82954371  0.49841908  1
  Sb  Sb75  1  0.16737675  0.16889000  0.66769797  1
  Sb  Sb76  1  0.49816954  0.66210054  0.16314361  1
  Sb  Sb77  1  0.00321722  0.83525240  0.83263502  1
  Sb  Sb78  1  -0.00075094  0.16596795  0.16201896  1
  Sb  Sb79  1  -0.00086679  0.83043773  0.17191199  1
  Sb  Sb80  1  0.49182038  0.50205781  0.66972222  1
  Sb  Sb81  1  0.49986951  0.50407190  0.32689528  1
  Sb  Sb82  1  0.33096443  0.17104559  0.16423363  1
  Sb  Sb83  1  0.32986180  0.50203862  0.49401829  1
  Sb  Sb84  1  0.83519457  0.16800708  0.32826440  1
  Sb  Sb85  1  0.66944874  0.82659495  0.16386808  1
  Sb  Sb86  1  0.49880492  0.16637883  0.00003508  1
  Sb  Sb87  1  0.67207931  0.66563995  0.67052646  1
  Sb  Sb88  1  0.32808694  0.66824495  0.32798138  1
  Sb  Sb89  1  0.48969063  0.34029327  0.84112788  1
  Sb  Sb90  1  0.66733426  0.50503393  0.84078140  1
  Sb  Sb91  1  0.67149789  -0.00787321  0.00564513  1
  Sb  Sb92  1  0.00194910  -0.00259429  0.33211136  1
  Sb  Sb93  1  0.83883825  0.32925153  0.84085250  1
  Sb  Sb94  1  0.16610732  0.82787978  0.00603559  1
  Sb  Sb95  1  0.49650270  0.16380399  0.33255921  1
  Sb  Sb96  1  0.33243574  0.83023526  0.16597831  1
  Sb  Sb97  1  0.84015644  0.50033846  0.66036957  1
  Sb  Sb98  1  0.32862274  0.50215914  0.84205088  1
  Sb  Sb99  1  0.83650087  0.83336554  0.66632578  1
  Sb  Sb100  1  0.00379471  0.33766130  0.00535094  1
  Sb  Sb101  1  0.49351991  0.16678256  0.66726658  1
  Sb  Sb102  1  0.49828093  -0.00732136  0.83571924  1
  Sb  Sb103  1  0.00586791  0.33441436  0.66374943  1
  Sb  Sb104  1  0.83732418  0.16452744  0.67019771  1
  Sb  Sb105  1  0.16403758  0.16939218  -0.00150290  1
  Sb  Sb106  1  0.66546920  0.16939596  0.49682827  1
  Sb  Sb107  1  0.32665469  0.66731331  0.67165151  1
  Te  Te108  1  0.16589996  0.15593374  0.16551484  1
  Te  Te109  1  0.17213858  0.15877031  0.50077548  1
  Te  Te110  1  0.16978031  0.17146680  0.83349787  1
  Te  Te111  1  0.16577645  0.50040031  0.16844500  1
  Te  Te112  1  0.16198281  0.50034172  0.49278323  1
  Te  Te113  1  0.16549689  0.50047140  0.83252139  1
  Te  Te114  1  0.16730280  0.83875381  0.17455170  1
  Te  Te115  1  0.16641167  0.83539332  0.49577350  1
  Te  Te116  1  0.17230995  0.82739535  0.83302913  1
  Te  Te117  1  0.50189803  0.17953102  0.16527182  1
  Te  Te118  1  0.49227165  0.16785925  0.49996803  1
  Te  Te119  1  0.49287446  0.16858277  0.83475074  1
  Te  Te120  1  0.49789629  0.49805486  0.16203783  1
  Te  Te121  1  0.50078201  0.50630085  0.50061398  1
  Te  Te122  1  0.50147077  0.50830620  0.84072420  1
  Te  Te123  1  0.50148308  0.83297680  0.16730432  1
  Te  Te124  1  0.49988434  0.82767071  0.49576040  1
  Te  Te125  1  0.49602016  0.82824727  0.83684441  1
  Te  Te126  1  0.83376757  0.15684874  0.15977977  1
  Te  Te127  1  0.83375920  0.16429437  0.50073784  1
  Te  Te128  1  0.83523692  0.16128944  0.83936609  1
  Te  Te129  1  0.83602021  0.50229602  0.16917163  1
  Te  Te130  1  0.83599704  0.49920782  0.49506958  1
  Te  Te131  1  0.83364215  0.49818281  0.83432390  1
  Te  Te132  1  0.83256399  0.83578594  0.16735314  1
  Te  Te133  1  0.83525470  0.83656479  0.49627968  1
  Te  Te134  1  0.83332214  0.83854933  0.83459540  1
  Te  Te135  1  0.16513408  -0.00107496  0.00131171  1
  Te  Te136  1  0.16729526  -0.00168362  0.33374258  1
  Te  Te137  1  0.16677390  -0.00099155  0.66574414  1
  Te  Te138  1  0.16882861  0.33567744  0.00247277  1
  Te  Te139  1  0.17094596  0.33424505  0.33017282  1
  Te  Te140  1  0.17039539  0.33890546  0.66534281  1
  Te  Te141  1  0.16559986  0.66696222  0.00307307  1
  Te  Te142  1  0.16267536  0.66708318  0.32971504  1
  Te  Te143  1  0.16166742  0.66218077  0.66656522  1
  Te  Te144  1  0.49693724  -0.00442563  0.00144963  1
  Te  Te145  1  0.49513652  -0.00692024  0.33234691  1
  Te  Te146  1  0.49402193  -0.00104405  0.66647695  1
  Te  Te147  1  0.49559997  0.33661804  0.00575279  1
  Te  Te148  1  0.49316049  0.33379059  0.32792178  1
  Te  Te149  1  0.49151963  0.33490528  0.66738456  1
  Te  Te150  1  0.49647829  0.66776192  0.00197921  1
  Te  Te151  1  0.50054499  0.67227402  0.33406921  1
  Te  Te152  1  0.50157643  0.66555902  0.66774278  1
  Te  Te153  1  0.83322603  -0.00560013  0.00345144  1
  Te  Te154  1  0.83563850  0.00125852  0.33141855  1
  Te  Te155  1  0.83702973  -0.00005507  0.66028187  1
  Te  Te156  1  0.83414751  0.34224088  0.00556444  1
  Te  Te157  1  0.83368835  0.33271241  0.33129139  1
  Te  Te158  1  0.83288952  0.33296654  0.66449089  1
  Te  Te159  1  0.83690739  0.66852109  0.00405803  1
  Te  Te160  1  0.83705401  0.66792267  0.32836344  1
  Te  Te161  1  0.84285922  0.66587260  0.66923564  1
  Te  Te162  1  -0.00406767  0.16421050  -0.00495604  1
  Te  Te163  1  0.00056366  0.17838446  0.33515656  1
  Te  Te164  1  0.00089022  0.15938944  0.67380058  1
  Te  Te165  1  0.00259942  0.50457871  -0.00376179  1
  Te  Te166  1  -0.00044388  0.50103015  0.33655985  1
  Te  Te167  1  0.00615251  0.50221693  0.65930634  1
  Te  Te168  1  -0.00281170  0.83332892  -0.00177300  1
  Te  Te169  1  -0.00170906  0.83259637  0.33784335  1
  Te  Te170  1  0.00087968  0.83457558  0.66007529  1
  Te  Te171  1  0.33389054  0.15972680  -0.00498091  1
  Te  Te172  1  0.33359957  0.16503812  0.33718458  1
  Te  Te173  1  0.33191839  0.16453159  0.66782793  1
  Te  Te174  1  0.32892796  0.50163927  0.00293930  1
  Te  Te175  1  0.33125233  0.49833940  0.32811297  1
  Te  Te176  1  0.32641298  0.49699003  0.66382006  1
  Te  Te177  1  0.33233334  0.83399323  0.00041580  1
  Te  Te178  1  0.33158037  0.83386708  0.33339203  1
  Te  Te179  1  0.33264035  0.83769040  0.66189902  1
  Te  Te180  1  0.67393363  0.16680339  -0.00075625  1
  Te  Te181  1  0.66463870  0.16263371  0.33362505  1
  Te  Te182  1  0.66481722  0.16688312  0.66704571  1
  Te  Te183  1  0.67294510  0.50570987  0.00429355  1
  Te  Te184  1  0.66622808  0.49936453  0.33111788  1
  Te  Te185  1  0.66617549  0.50012268  0.66070694  1
  Te  Te186  1  0.66588524  0.82879715  -0.00200365  1
  Te  Te187  1  0.67325233  0.83584872  0.33372089  1
  Te  Te188  1  0.66559985  0.83281359  0.67582109  1
  Te  Te189  1  0.00074468  0.00012458  0.16245021  1
  Te  Te190  1  0.00201095  -0.00118794  0.50015117  1
  Te  Te191  1  -0.00012418  0.00068133  0.83501961  1
  Te  Te192  1  0.00184587  0.33078299  0.17096149  1
  Te  Te193  1  -0.00338581  0.33147373  0.49762652  1
  Te  Te194  1  0.00593589  0.32639949  0.83283198  1
  Te  Te195  1  0.00166483  0.66745032  0.16553127  1
  Te  Te196  1  0.00021520  0.66867427  0.49734456  1
  Te  Te197  1  0.00490634  0.66754541  0.83548358  1
  Te  Te198  1  0.33295601  0.00198661  0.16723602  1
  Te  Te199  1  0.33210065  -0.00234638  0.49834529  1
  Te  Te200  1  0.33234334  -0.00215431  0.83586693  1
  Te  Te201  1  0.32788895  0.33306702  0.16545904  1
  Te  Te202  1  0.33354275  0.33299254  0.50037805  1
  Te  Te203  1  0.32870786  0.33397037  0.83456411  1
  Te  Te204  1  0.32803413  0.66215987  0.16115135  1
  Te  Te205  1  0.33663426  0.67148368  0.50135966  1
  Te  Te206  1  0.33089935  0.66940465  0.83568554  1
  Te  Te207  1  0.66722457  0.00085018  0.17315811  1
  Te  Te208  1  0.66937153  0.00006401  0.49509210  1
  Te  Te209  1  0.67161737  -0.00563843  0.83191886  1
  Te  Te210  1  0.67719401  0.33825810  0.17125406  1
  Te  Te211  1  0.66985097  0.33747902  0.49256843  1
  Te  Te212  1  0.66566243  0.33194917  0.83048319  1
  Te  Te213  1  0.67094325  0.66049406  0.16124751  1
  Te  Te214  1  0.66447998  0.66141169  0.50160980  1
  Te  Te215  1  0.66669204  0.67146645  0.83801636  1
