# generated using pymatgen
data_AgSbTe2
_symmetry_space_group_name_H-M   'P 1'
_cell_length_a   18.31114969
_cell_length_b   18.31304238
_cell_length_c   18.31163729
_cell_angle_alpha   90.00075592
_cell_angle_beta   90.00334818
_cell_angle_gamma   89.99944344
_symmetry_Int_Tables_number   1
_chemical_formula_structural   AgSbTe2
_chemical_formula_sum   'Ag54 Sb54 Te108'
_cell_volume   6140.49369641
_cell_formula_units_Z   54
loop_
 _symmetry_equiv_pos_site_id
 _symmetry_equiv_pos_as_xyz
  1  'x, y, z'
loop_
 _atom_site_type_symbol
 _atom_site_label
 _atom_site_symmetry_multiplicity
 _atom_site_fract_x
 _atom_site_fract_y
 _atom_site_fract_z
 _atom_site_occupancy
  Ag  Ag0  1  0.33597679  0.33878609  0.66344030  1
  Ag  Ag1  1  0.33803514  0.49301627  0.82619663  1
  Ag  Ag2  1  0.82894313  0.17257712  0.67334092  1
  Ag  Ag3  1  0.82995412  0.00550843  0.15964851  1
  Ag  Ag4  1  0.16798280  0.17145509  -0.00376735  1
  Ag  Ag5  1  0.49027014  0.33524413  0.50041295  1
  Ag  Ag6  1  0.33514654  0.65883841  -0.00548455  1
  Ag  Ag7  1  0.67176316  0.16604350  0.83071488  1
  Ag  Ag8  1  0.66878906  0.66478063  0.33834375  1
  Ag  Ag9  1  0.33456363  0.49160586  0.50988940  1
  Ag  Ag10  1  0.66682215  0.17146838  0.50668238  1
  Ag  Ag11  1  0.66950406  0.83429711  0.82857148  1
  Ag  Ag12  1  -0.01008919  0.66070569  0.66626705  1
  Ag  Ag13  1  0.17246534  0.49788634  0.66544588  1
  Ag  Ag14  1  0.33534757  0.18026333  0.50663263  1
  Ag  Ag15  1  0.66636487  0.49769951  0.82770307  1
  Ag  Ag16  1  0.66799993  0.66116691  0.66829424  1
  Ag  Ag17  1  0.82535915  0.49926924  0.67171351  1
  Ag  Ag18  1  -0.00219005  0.00835191  0.33346659  1
  Ag  Ag19  1  0.16399822  0.83344612  -0.00035380  1
  Ag  Ag20  1  0.83312799  0.66104835  0.16232365  1
  Ag  Ag21  1  -0.01072760  0.17157575  0.83333343  1
  Ag  Ag22  1  -0.00352380  0.49770728  0.16829856  1
  Ag  Ag23  1  -0.00019104  0.49646660  0.50310055  1
  Ag  Ag24  1  0.82884869  0.49964222  -0.00523314  1
  Ag  Ag25  1  0.51037760  0.83234884  0.66610924  1
  Ag  Ag26  1  0.50218723  0.49797324  0.33499773  1
  Ag  Ag27  1  0.51113369  0.00183117  0.83714331  1
  Ag  Ag28  1  0.00052281  0.33299741  0.33156873  1
  Ag  Ag29  1  0.83229176  0.16861207  0.33448671  1
  Ag  Ag30  1  0.32840854  0.33523111  0.34802851  1
  Ag  Ag31  1  0.83335099  0.32937942  0.83377080  1
  Ag  Ag32  1  0.82611589  0.82633517  0.67386248  1
  Ag  Ag33  1  0.16672421  0.83295646  0.33446283  1
  Ag  Ag34  1  0.16829822  0.00427416  0.49945383  1
  Ag  Ag35  1  0.17153316  0.33230707  0.83140076  1
  Ag  Ag36  1  0.51065944  0.00142210  0.16023804  1
  Ag  Ag37  1  0.16212357  0.66511263  0.16391199  1
  Ag  Ag38  1  0.82701237  0.00807835  0.83783752  1
  Ag  Ag39  1  0.66316522  0.82883765  0.51167554  1
  Ag  Ag40  1  0.33551926  0.83118498  0.50452002  1
  Ag  Ag41  1  0.66689837  0.34140841  0.66711883  1
  Ag  Ag42  1  0.17601145  0.33376721  0.50573821  1
  Ag  Ag43  1  0.50473695  0.49946593  0.00145087  1
  Ag  Ag44  1  0.83421025  0.33402890  0.15993423  1
  Ag  Ag45  1  0.66516622  0.49684342  0.50967471  1
  Ag  Ag46  1  0.32788102  0.33959582  -0.01100125  1
  Ag  Ag47  1  0.83019784  0.83031857  -0.00535709  1
  Ag  Ag48  1  0.33325969  0.17703644  0.82836969  1
  Ag  Ag49  1  0.33574075  0.65596819  0.66856478  1
  Ag  Ag50  1  0.67004519  0.66587382  -0.00443051  1
  Ag  Ag51  1  0.67192313  0.16554275  0.16044833  1
  Ag  Ag52  1  -0.00083673  0.33419836  -0.00170042  1
  Ag  Ag53  1  0.66998301  -0.00185279  -0.00474743  1
  Sb  Sb54  1  0.83438495  0.83602140  0.33275313  1
  Sb  Sb55  1  0.33003058  0.49905247  0.16482834  1
  Sb  Sb56  1  -0.00711731  0.17280720  0.16341395  1
  Sb  Sb57  1  -0.00282635  0.66085962  -0.00322298  1
  Sb  Sb58  1  0.33045792  0.00408008  0.33609967  1
  Sb  Sb59  1  -0.00829322  0.83808341  0.83349779  1
  Sb  Sb60  1  -0.00175833  0.33938699  0.66822158  1
  Sb  Sb61  1  0.82940380  0.66519930  0.50154868  1
  Sb  Sb62  1  0.83315186  0.33398966  0.50478186  1
  Sb  Sb63  1  0.16230529  -0.00303372  0.16855887  1
  Sb  Sb64  1  0.16842946  0.66038934  0.83596069  1
  Sb  Sb65  1  0.33716990  0.00000370  -0.00233120  1
  Sb  Sb66  1  0.50730194  0.16555076  0.66774201  1
  Sb  Sb67  1  0.16840481  0.66270870  0.49949006  1
  Sb  Sb68  1  -0.00314535  0.66288821  0.33526893  1
  Sb  Sb69  1  0.16281393  0.16647067  0.33272956  1
  Sb  Sb70  1  0.16860264  0.50083576  0.33886388  1
  Sb  Sb71  1  0.66907828  0.83541010  0.16216274  1
  Sb  Sb72  1  0.67256647  0.49768931  0.16460930  1
  Sb  Sb73  1  0.66796008  0.33585647  -0.00737130  1
  Sb  Sb74  1  0.16491941  0.00685188  0.83100598  1
  Sb  Sb75  1  0.33242692  0.83188190  0.16836431  1
  Sb  Sb76  1  0.33838158  0.83121847  0.82913020  1
  Sb  Sb77  1  0.50334146  0.66561710  0.83203480  1
  Sb  Sb78  1  0.33651051  0.16970986  0.16617867  1
  Sb  Sb79  1  0.33339192  0.00460500  0.66623162  1
  Sb  Sb80  1  0.49893264  0.00378353  0.50187155  1
  Sb  Sb81  1  0.83329964  0.17075603  -0.00353664  1
  Sb  Sb82  1  0.67092227  -0.00114443  0.32954314  1
  Sb  Sb83  1  0.50469752  0.17090003  0.33483173  1
  Sb  Sb84  1  -0.00273225  -0.00163124  0.66386024  1
  Sb  Sb85  1  0.49931549  0.33197985  0.82836176  1
  Sb  Sb86  1  0.49835201  0.17112607  -0.00247648  1
  Sb  Sb87  1  -0.00658655  0.00525223  0.00324700  1
  Sb  Sb88  1  0.66901440  0.33585136  0.34015835  1
  Sb  Sb89  1  0.49877851  0.82969948  0.33980488  1
  Sb  Sb90  1  -0.00057023  0.82988320  0.50114689  1
  Sb  Sb91  1  0.83038094  0.66211857  0.83455531  1
  Sb  Sb92  1  0.16101835  0.33710322  0.16437163  1
  Sb  Sb93  1  0.16588202  0.49798373  -0.00495448  1
  Sb  Sb94  1  0.16474771  0.17525529  0.66982628  1
  Sb  Sb95  1  0.50167793  0.65777936  0.50200836  1
  Sb  Sb96  1  0.83380398  0.00206064  0.50172509  1
  Sb  Sb97  1  -0.00425238  0.49353830  0.83087707  1
  Sb  Sb98  1  0.16599810  0.82634755  0.66723021  1
  Sb  Sb99  1  0.66847160  -0.00248698  0.67440665  1
  Sb  Sb100  1  0.50178405  0.50199636  0.66645884  1
  Sb  Sb101  1  0.83043627  0.49559581  0.33372285  1
  Sb  Sb102  1  0.50341294  0.66844991  0.16382944  1
  Sb  Sb103  1  0.50567737  0.33146858  0.16918154  1
  Sb  Sb104  1  0.33528625  0.66119645  0.33537877  1
  Sb  Sb105  1  0.50437712  0.83075378  -0.00568625  1
  Sb  Sb106  1  -0.00124744  0.82923862  0.16643248  1
  Sb  Sb107  1  -0.00037139  0.17244879  0.50349571  1
  Te  Te108  1  0.16625384  0.16603404  0.15940066  1
  Te  Te109  1  0.16951658  0.16866126  0.49986628  1
  Te  Te110  1  0.17241091  0.17138440  0.83568409  1
  Te  Te111  1  0.16069630  0.50488660  0.16708733  1
  Te  Te112  1  0.16919502  0.49617976  0.50383754  1
  Te  Te113  1  0.17008832  0.49346944  0.82766560  1
  Te  Te114  1  0.16592357  0.82913183  0.16464977  1
  Te  Te115  1  0.16768785  0.83419994  0.49970257  1
  Te  Te116  1  0.16619231  0.83551504  0.83829218  1
  Te  Te117  1  0.50788801  0.16184082  0.16706104  1
  Te  Te118  1  0.49962013  0.17126923  0.50078237  1
  Te  Te119  1  0.50007260  0.16118083  0.83301938  1
  Te  Te120  1  0.50002020  0.50031305  0.16534022  1
  Te  Te121  1  0.50200178  0.49506620  0.49846033  1
  Te  Te122  1  0.50189289  0.49867119  0.84006055  1
  Te  Te123  1  0.50043153  0.84036810  0.16835493  1
  Te  Te124  1  0.50158241  0.83620527  0.50420761  1
  Te  Te125  1  0.50542704  0.83999937  0.82837719  1
  Te  Te126  1  0.82991478  0.16730159  0.16551707  1
  Te  Te127  1  0.83014230  0.16644203  0.50045606  1
  Te  Te128  1  0.83109414  0.16919871  0.83356095  1
  Te  Te129  1  0.83617749  0.49818339  0.16636145  1
  Te  Te130  1  0.83062261  0.50003614  0.50453172  1
  Te  Te131  1  0.82996418  0.49551215  0.83274804  1
  Te  Te132  1  0.83351227  0.83398068  0.16324111  1
  Te  Te133  1  0.82858498  0.83427016  0.50424141  1
  Te  Te134  1  0.82915992  0.83618324  0.83425061  1
  Te  Te135  1  0.16598925  -0.00396522  0.00022805  1
  Te  Te136  1  0.16228102  -0.00311466  0.33589531  1
  Te  Te137  1  0.16496292  -0.00087736  0.66023189  1
  Te  Te138  1  0.16665499  0.33195483  -0.00184232  1
  Te  Te139  1  0.16537612  0.33314897  0.33383658  1
  Te  Te140  1  0.16694190  0.33765792  0.66759011  1
  Te  Te141  1  0.16631283  0.66875253  0.00240246  1
  Te  Te142  1  0.16603215  0.67193530  0.32715485  1
  Te  Te143  1  0.17339732  0.65888162  0.66726262  1
  Te  Te144  1  0.50487881  -0.00079559  -0.00050753  1
  Te  Te145  1  0.49975957  -0.00055329  0.32744815  1
  Te  Te146  1  0.49819576  -0.00688357  0.67087341  1
  Te  Te147  1  0.49576854  0.34004380  0.00231395  1
  Te  Te148  1  0.49806559  0.33786438  0.33641021  1
  Te  Te149  1  0.50115514  0.33211620  0.66104201  1
  Te  Te150  1  0.49976536  0.66224120  0.00043469  1
  Te  Te151  1  0.50676702  0.66092361  0.33089011  1
  Te  Te152  1  0.50124947  0.67341693  0.66702445  1
  Te  Te153  1  0.83053682  -0.00238626  -0.00085703  1
  Te  Te154  1  0.83787286  0.00373585  0.33026635  1
  Te  Te155  1  0.83515480  0.00180654  0.67133194  1
  Te  Te156  1  0.83418061  0.33665945  -0.00210944  1
  Te  Te157  1  0.83647974  0.32907789  0.33022993  1
  Te  Te158  1  0.83113994  0.33532955  0.67061334  1
  Te  Te159  1  0.83226934  0.66561496  0.00176440  1
  Te  Te160  1  0.82856479  0.66739998  0.32563629  1
  Te  Te161  1  0.82872935  0.66414319  0.66708137  1
  Te  Te162  1  0.00540883  0.17189369  -0.00415690  1
  Te  Te163  1  -0.00454426  0.17031865  0.33407516  1
  Te  Te164  1  -0.00651265  0.16723568  0.67153586  1
  Te  Te165  1  -0.00486178  0.49467608  0.00054652  1
  Te  Te166  1  -0.00034035  0.49538354  0.33662323  1
  Te  Te167  1  -0.00390968  0.50284390  0.66494364  1
  Te  Te168  1  -0.00086872  0.83283352  -0.00047552  1
  Te  Te169  1  0.00474978  0.83347959  0.33472500  1
  Te  Te170  1  -0.00624560  0.82568013  0.66636181  1
  Te  Te171  1  0.33049227  0.16913356  -0.00253264  1
  Te  Te172  1  0.33278299  0.17343758  0.33811417  1
  Te  Te173  1  0.33269596  0.17201340  0.66598756  1
  Te  Te174  1  0.33242680  0.50043487  -0.00147378  1
  Te  Te175  1  0.33707043  0.49593143  0.33674028  1
  Te  Te176  1  0.33843009  0.49971823  0.66743276  1
  Te  Te177  1  0.33175801  0.82842911  -0.00116619  1
  Te  Te178  1  0.32901213  0.83197635  0.33884427  1
  Te  Te179  1  0.33187542  0.83123785  0.66357599  1
  Te  Te180  1  0.66585333  0.16488809  -0.00299207  1
  Te  Te181  1  0.67186529  0.16663287  0.33723892  1
  Te  Te182  1  0.66978379  0.16771387  0.66780495  1
  Te  Te183  1  0.66913464  0.50173131  -0.00192485  1
  Te  Te184  1  0.66380509  0.50366827  0.33548128  1
  Te  Te185  1  0.66522078  0.50109049  0.66728536  1
  Te  Te186  1  0.66901398  0.83042643  -0.00471183  1
  Te  Te187  1  0.66654098  0.82714468  0.33955705  1
  Te  Te188  1  0.66972583  0.83368453  0.66770228  1
  Te  Te189  1  -0.00598544  0.00074900  0.17245264  1
  Te  Te190  1  0.00491539  0.00048206  0.49461233  1
  Te  Te191  1  -0.00416573  0.00889018  0.83351358  1
  Te  Te192  1  -0.00466215  0.33759942  0.16692364  1
  Te  Te193  1  0.00247113  0.33782481  0.49699055  1
  Te  Te194  1  -0.00062678  0.33017912  0.83487047  1
  Te  Te195  1  -0.00289095  0.66001761  0.16661537  1
  Te  Te196  1  0.00023579  0.65891797  0.50451296  1
  Te  Te197  1  0.00123122  0.66756156  0.82508690  1
  Te  Te198  1  0.33641042  0.00105711  0.16705035  1
  Te  Te199  1  0.32999040  -0.00518806  0.49975677  1
  Te  Te200  1  0.33409218  0.00475073  0.83327984  1
  Te  Te201  1  0.33464634  0.33283694  0.16278170  1
  Te  Te202  1  0.33237619  0.33595572  0.50337226  1
  Te  Te203  1  0.33553708  0.33406469  0.83256540  1
  Te  Te204  1  0.33058483  0.66641620  0.16267559  1
  Te  Te205  1  0.33434768  0.66889822  0.50287013  1
  Te  Te206  1  0.33475328  0.66283483  0.83369026  1
  Te  Te207  1  0.66985178  0.00195104  0.16299142  1
  Te  Te208  1  0.66522791  0.00514880  0.49811984  1
  Te  Te209  1  0.66889849  0.00223238  0.83569430  1
  Te  Te210  1  0.67302086  0.32770048  0.16727663  1
  Te  Te211  1  0.66769100  0.33369532  0.50465838  1
  Te  Te212  1  0.66586387  0.33407057  0.82828308  1
  Te  Te213  1  0.67097952  0.66647880  0.16050254  1
  Te  Te214  1  0.66592350  0.66550330  0.50343844  1
  Te  Te215  1  0.66678086  0.66475547  0.83413254  1
