# generated using pymatgen
data_AgSbTe2
_symmetry_space_group_name_H-M   'P 1'
_cell_length_a   18.34090849
_cell_length_b   18.34319008
_cell_length_c   18.34437901
_cell_angle_alpha   90.00027819
_cell_angle_beta   90.00206933
_cell_angle_gamma   90.00087747
_symmetry_Int_Tables_number   1
_chemical_formula_structural   AgSbTe2
_chemical_formula_sum   'Ag54 Sb54 Te108'
_cell_volume   6171.61356586
_cell_formula_units_Z   54
loop_
 _symmetry_equiv_pos_site_id
 _symmetry_equiv_pos_as_xyz
  1  'x, y, z'
loop_
 _atom_site_type_symbol
 _atom_site_label
 _atom_site_symmetry_multiplicity
 _atom_site_fract_x
 _atom_site_fract_y
 _atom_site_fract_z
 _atom_site_occupancy
  Ag  Ag0  1  0.66959113  0.50052617  0.49915519  1
  Ag  Ag1  1  0.17139968  0.16652757  -0.00362366  1
  Ag  Ag2  1  0.82854659  0.50175419  0.33787157  1
  Ag  Ag3  1  0.33959263  0.66495696  0.31831743  1
  Ag  Ag4  1  0.33308971  -0.00010446  -0.00215497  1
  Ag  Ag5  1  0.33372941  -0.00352147  0.67231814  1
  Ag  Ag6  1  0.83317631  0.82074920  0.33670642  1
  Ag  Ag7  1  -0.00366083  0.00316708  0.33359991  1
  Ag  Ag8  1  0.17964616  0.66422733  0.16446693  1
  Ag  Ag9  1  0.16918710  0.16263870  0.67460656  1
  Ag  Ag10  1  0.66874270  0.33691832  -0.00098229  1
  Ag  Ag11  1  0.66900074  0.34115964  0.66815916  1
  Ag  Ag12  1  0.83032675  0.34736438  0.49746614  1
  Ag  Ag13  1  0.32948587  0.66756327  0.67208449  1
  Ag  Ag14  1  0.49834297  0.34090968  0.83285373  1
  Ag  Ag15  1  -0.01187575  0.49941043  0.17133204  1
  Ag  Ag16  1  0.82866180  -0.00206122  0.49816327  1
  Ag  Ag17  1  0.50222341  0.50113806  0.00131621  1
  Ag  Ag18  1  0.33085235  0.66536258  0.00310916  1
  Ag  Ag19  1  0.16878500  0.82549535  0.66673397  1
  Ag  Ag20  1  0.82514295  0.49767059  0.00496091  1
  Ag  Ag21  1  0.33920261  0.81789696  0.16695952  1
  Ag  Ag22  1  0.16025962  0.66605011  0.50904552  1
  Ag  Ag23  1  -0.00436528  0.33557051  0.33041043  1
  Ag  Ag24  1  0.17396047  0.33325119  0.83324433  1
  Ag  Ag25  1  0.17171472  0.00779974  0.83037103  1
  Ag  Ag26  1  0.50893331  0.50034423  0.32838970  1
  Ag  Ag27  1  0.66331378  0.65727142  0.65996445  1
  Ag  Ag28  1  0.66755294  0.17369268  0.49707738  1
  Ag  Ag29  1  0.83724385  0.65860459  0.49994612  1
  Ag  Ag30  1  0.49326916  0.65783353  0.16581646  1
  Ag  Ag31  1  0.32993611  0.17291020  0.83785629  1
  Ag  Ag32  1  0.00086498  0.17657050  0.16868446  1
  Ag  Ag33  1  0.50829203  0.00230421  0.49664318  1
  Ag  Ag34  1  -0.01633329  0.50337845  0.49566731  1
  Ag  Ag35  1  0.65995978  0.17340624  0.17349664  1
  Ag  Ag36  1  0.17355118  0.66382455  0.83076685  1
  Ag  Ag37  1  0.33580229  0.16770303  0.16048636  1
  Ag  Ag38  1  0.66672529  0.50008349  0.17264442  1
  Ag  Ag39  1  0.65925179  0.00026902  0.66149791  1
  Ag  Ag40  1  0.82238417  0.50056479  0.65250438  1
  Ag  Ag41  1  0.65978831  0.81798133  0.16988637  1
  Ag  Ag42  1  0.49155570  0.65787112  0.83589173  1
  Ag  Ag43  1  0.01044104  0.66347248  0.00006982  1
  Ag  Ag44  1  0.00766401  0.66416893  0.65887384  1
  Ag  Ag45  1  0.82828685  0.33844104  0.83292962  1
  Ag  Ag46  1  0.50458470  0.50373904  0.67022937  1
  Ag  Ag47  1  -0.00247770  0.82056199  0.49859547  1
  Ag  Ag48  1  0.34343410  0.50769524  0.16131189  1
  Ag  Ag49  1  0.49818749  -0.00217922  0.17014167  1
  Ag  Ag50  1  0.33863855  0.50571286  0.83701861  1
  Ag  Ag51  1  0.66392116  0.66084196  0.33543657  1
  Ag  Ag52  1  0.83137375  0.33778055  0.17005206  1
  Ag  Ag53  1  0.50164393  0.17204304  0.32884468  1
  Sb  Sb54  1  0.66706703  0.83145716  0.83559833  1
  Sb  Sb55  1  0.65980769  0.17095775  0.83084542  1
  Sb  Sb56  1  0.33229938  0.82782389  0.83642251  1
  Sb  Sb57  1  0.33673948  0.33718873  -0.00186644  1
  Sb  Sb58  1  0.83649546  0.00717743  0.82596007  1
  Sb  Sb59  1  0.67191872  0.82952323  0.49580577  1
  Sb  Sb60  1  0.50906172  0.33314033  0.50354321  1
  Sb  Sb61  1  0.66007500  0.00638409  0.00075994  1
  Sb  Sb62  1  0.00895951  0.16926609  0.83899172  1
  Sb  Sb63  1  0.32998098  0.83006809  0.49720432  1
  Sb  Sb64  1  0.00322894  0.50078983  0.83400758  1
  Sb  Sb65  1  0.65959238  0.49831120  0.82975897  1
  Sb  Sb66  1  0.15912589  0.33917561  0.50604243  1
  Sb  Sb67  1  0.83074161  0.65708380  0.17352656  1
  Sb  Sb68  1  0.00219041  -0.00385715  0.66080279  1
  Sb  Sb69  1  0.16390802  0.50321334  0.33132921  1
  Sb  Sb70  1  -0.00492964  0.17018909  0.49579933  1
  Sb  Sb71  1  0.33756924  0.50388291  0.49947875  1
  Sb  Sb72  1  0.16601675  -0.00397284  0.50560327  1
  Sb  Sb73  1  0.33164118  0.33999181  0.32857087  1
  Sb  Sb74  1  -0.00223580  0.66223776  0.33617324  1
  Sb  Sb75  1  0.82785236  0.17250104  0.33380822  1
  Sb  Sb76  1  0.50174483  0.66732959  0.49782527  1
  Sb  Sb77  1  0.83418711  0.17376562  0.66417358  1
  Sb  Sb78  1  0.16267108  0.33666571  0.16155979  1
  Sb  Sb79  1  0.49835857  0.82554587  0.00424069  1
  Sb  Sb80  1  0.66819137  -0.00204023  0.33667934  1
  Sb  Sb81  1  0.16931497  0.16597799  0.33126896  1
  Sb  Sb82  1  0.00029311  0.82706052  0.17344067  1
  Sb  Sb83  1  0.49270473  0.00107486  0.83377198  1
  Sb  Sb84  1  0.49698478  0.82840103  0.66541985  1
  Sb  Sb85  1  0.83296028  0.82124067  0.01076112  1
  Sb  Sb86  1  0.33398036  -0.00411302  0.33051178  1
  Sb  Sb87  1  0.33859006  0.16374225  0.50094247  1
  Sb  Sb88  1  0.16227375  0.82956824  0.33658406  1
  Sb  Sb89  1  0.49533770  0.17304743  0.00499728  1
  Sb  Sb90  1  0.50692973  0.33864304  0.16303750  1
  Sb  Sb91  1  0.67090772  0.34032670  0.33314772  1
  Sb  Sb92  1  0.49796487  0.16924471  0.66450075  1
  Sb  Sb93  1  0.83513508  0.82554113  0.65964262  1
  Sb  Sb94  1  0.17000340  0.50016008  -0.00014116  1
  Sb  Sb95  1  0.00473217  -0.00277033  0.00620812  1
  Sb  Sb96  1  0.82811741  0.00466527  0.17053864  1
  Sb  Sb97  1  0.16859648  0.50358134  0.66844397  1
  Sb  Sb98  1  0.33768297  0.33603985  0.66959836  1
  Sb  Sb99  1  0.83319727  0.65738013  0.82689232  1
  Sb  Sb100  1  0.66339283  0.65677316  0.00213963  1
  Sb  Sb101  1  0.16861803  0.83157402  -0.00377171  1
  Sb  Sb102  1  -0.00383089  0.34032314  0.00338437  1
  Sb  Sb103  1  0.17354746  -0.00316197  0.16301740  1
  Sb  Sb104  1  0.00261145  0.82996191  0.82668148  1
  Sb  Sb105  1  0.50449190  0.82940061  0.33070505  1
  Sb  Sb106  1  -0.00484680  0.34010007  0.66458366  1
  Sb  Sb107  1  0.83646669  0.17318878  0.00211217  1
  Te  Te108  1  0.16611690  0.16609346  0.16421613  1
  Te  Te109  1  0.16644209  0.16834070  0.50339999  1
  Te  Te110  1  0.17079655  0.16754447  0.83471537  1
  Te  Te111  1  0.17197003  0.50331804  0.16597583  1
  Te  Te112  1  0.16583214  0.50598006  0.49992585  1
  Te  Te113  1  0.17248553  0.50015673  0.83351538  1
  Te  Te114  1  0.17048341  0.82803519  0.16588883  1
  Te  Te115  1  0.16146396  0.82797972  0.50438590  1
  Te  Te116  1  0.16641226  0.82754618  0.82715403  1
  Te  Te117  1  0.50051395  0.17191781  0.16845051  1
  Te  Te118  1  0.50609995  0.16355465  0.49611281  1
  Te  Te119  1  0.49153354  0.16981530  0.83370423  1
  Te  Te120  1  0.50215396  0.49859709  0.16781820  1
  Te  Te121  1  0.50526572  0.50036918  0.49809764  1
  Te  Te122  1  0.49783256  0.50080034  0.83189903  1
  Te  Te123  1  0.50017705  0.83625457  0.16794361  1
  Te  Te124  1  0.50043221  0.84296125  0.49825686  1
  Te  Te125  1  0.50117254  0.82555105  0.83454524  1
  Te  Te126  1  0.83620615  0.17268315  0.16685936  1
  Te  Te127  1  0.82746757  0.15879662  0.49993051  1
  Te  Te128  1  0.83438342  0.17563496  0.83327937  1
  Te  Te129  1  0.83052054  0.49778019  0.16657383  1
  Te  Te130  1  0.82882598  0.50280219  0.49792395  1
  Te  Te131  1  0.83575644  0.49546308  0.84286029  1
  Te  Te132  1  0.82896304  0.83552709  0.17540456  1
  Te  Te133  1  0.83759256  0.83788084  0.49580921  1
  Te  Te134  1  0.83406538  0.83657801  0.83511469  1
  Te  Te135  1  0.17221812  0.00222814  -0.00491234  1
  Te  Te136  1  0.16120139  -0.00141254  0.33430348  1
  Te  Te137  1  0.16941804  0.00049542  0.66960450  1
  Te  Te138  1  0.16483285  0.32791176  -0.00651740  1
  Te  Te139  1  0.15911093  0.33303105  0.33525852  1
  Te  Te140  1  0.16580129  0.33056385  0.67238114  1
  Te  Te141  1  0.16960310  0.66649883  -0.00123093  1
  Te  Te142  1  0.17340014  0.66746670  0.32817749  1
  Te  Te143  1  0.16643980  0.66508682  0.66856809  1
  Te  Te144  1  0.49329911  0.00113695  0.00381359  1
  Te  Te145  1  0.49944747  0.00220460  0.33162048  1
  Te  Te146  1  0.49705060  -0.00019888  0.66654484  1
  Te  Te147  1  0.50470547  0.34004087  -0.00612921  1
  Te  Te148  1  0.49802960  0.33490225  0.33579453  1
  Te  Te149  1  0.50564122  0.33744021  0.67117462  1
  Te  Te150  1  0.49732374  0.66091555  0.00224116  1
  Te  Te151  1  0.50159374  0.66354214  0.33117113  1
  Te  Te152  1  0.50289450  0.66493638  0.66505370  1
  Te  Te153  1  0.83346859  -0.00182033  -0.00325253  1
  Te  Te154  1  0.83572315  0.00375666  0.33605994  1
  Te  Te155  1  0.83275644  -0.00054414  0.66246801  1
  Te  Te156  1  0.83022662  0.33784409  0.00113692  1
  Te  Te157  1  0.83619035  0.33748331  0.33367234  1
  Te  Te158  1  0.82943254  0.33872827  0.66474858  1
  Te  Te159  1  0.83425179  0.65895987  -0.00348542  1
  Te  Te160  1  0.83170409  0.66327676  0.33876290  1
  Te  Te161  1  0.83001434  0.66153103  0.66224387  1
  Te  Te162  1  0.00516195  0.16477884  0.00806123  1
  Te  Te163  1  0.00130624  0.16827171  0.32935801  1
  Te  Te164  1  0.00625362  0.16622078  0.66758428  1
  Te  Te165  1  0.00074093  0.50449795  0.00488381  1
  Te  Te166  1  -0.00217036  0.49850443  0.33275796  1
  Te  Te167  1  -0.00238788  0.50515535  0.66408523  1
  Te  Te168  1  -0.00033040  0.82487151  0.00150772  1
  Te  Te169  1  -0.00502733  0.83641315  0.33804383  1
  Te  Te170  1  0.00366868  0.82741384  0.66008631  1
  Te  Te171  1  0.33175567  0.16827831  -0.00169935  1
  Te  Te172  1  0.33789695  0.16625066  0.33141080  1
  Te  Te173  1  0.33001787  0.16445937  0.66883568  1
  Te  Te174  1  0.33592619  0.50234810  -0.00009195  1
  Te  Te175  1  0.33678230  0.50488788  0.33059281  1
  Te  Te176  1  0.33877121  0.50286697  0.66850087  1
  Te  Te177  1  0.33317248  0.83382894  0.00788426  1
  Te  Te178  1  0.33334260  0.82712907  0.32785463  1
  Te  Te179  1  0.32981687  0.83394562  0.66614745  1
  Te  Te180  1  0.66727495  0.17394460  0.00323285  1
  Te  Te181  1  0.66189523  0.16553536  0.33421648  1
  Te  Te182  1  0.66625043  0.16268631  0.66298643  1
  Te  Te183  1  0.66408898  0.49643776  0.00341616  1
  Te  Te184  1  0.66764704  0.50149418  0.33425789  1
  Te  Te185  1  0.66575669  0.50075940  0.66730767  1
  Te  Te186  1  0.66686934  0.83641800  0.00967201  1
  Te  Te187  1  0.67158698  0.82826247  0.32828299  1
  Te  Te188  1  0.66657174  0.83722647  0.66722599  1
  Te  Te189  1  0.00013211  -0.00095778  0.17087444  1
  Te  Te190  1  -0.00204364  0.00224496  0.49533431  1
  Te  Te191  1  0.00629835  -0.00013555  0.83448061  1
  Te  Te192  1  -0.00283717  0.33700092  0.16880329  1
  Te  Te193  1  -0.00795731  0.33841792  0.49633444  1
  Te  Te194  1  -0.00227111  0.33378454  0.83351883  1
  Te  Te195  1  -0.00178160  0.66218377  0.16576295  1
  Te  Te196  1  -0.00022335  0.66319025  0.49796778  1
  Te  Te197  1  0.00396904  0.66634104  0.83408774  1
  Te  Te198  1  0.33700765  0.00923442  0.16548771  1
  Te  Te199  1  0.33543792  -0.00168941  0.50338839  1
  Te  Te200  1  0.33091920  -0.00279361  0.83418893  1
  Te  Te201  1  0.33069531  0.32768357  0.16554409  1
  Te  Te202  1  0.33077465  0.33336015  0.49932806  1
  Te  Te203  1  0.33412113  0.33478905  0.83291160  1
  Te  Te204  1  0.33587273  0.66251509  0.16226401  1
  Te  Te205  1  0.32948311  0.66753411  0.51165423  1
  Te  Te206  1  0.33366042  0.66622050  0.83215784  1
  Te  Te207  1  0.66063284  0.01158087  0.16611292  1
  Te  Te208  1  0.66686429  -0.00392784  0.50133725  1
  Te  Te209  1  0.66617472  0.00162453  0.82753999  1
  Te  Te210  1  0.67042136  0.33447252  0.16684619  1
  Te  Te211  1  0.67120633  0.33285675  0.50304675  1
  Te  Te212  1  0.66678308  0.33210103  0.83138231  1
  Te  Te213  1  0.66520212  0.66226313  0.16734191  1
  Te  Te214  1  0.66686876  0.66416551  0.49910976  1
  Te  Te215  1  0.66424075  0.66900149  0.82947989  1
