# generated using pymatgen
data_AgSbTe2
_symmetry_space_group_name_H-M   'P 1'
_cell_length_a   18.33839459
_cell_length_b   18.33395332
_cell_length_c   18.33698959
_cell_angle_alpha   90.00176580
_cell_angle_beta   89.99823540
_cell_angle_gamma   90.00333034
_symmetry_Int_Tables_number   1
_chemical_formula_structural   AgSbTe2
_chemical_formula_sum   'Ag54 Sb54 Te108'
_cell_volume   6165.17589821
_cell_formula_units_Z   54
loop_
 _symmetry_equiv_pos_site_id
 _symmetry_equiv_pos_as_xyz
  1  'x, y, z'
loop_
 _atom_site_type_symbol
 _atom_site_label
 _atom_site_symmetry_multiplicity
 _atom_site_fract_x
 _atom_site_fract_y
 _atom_site_fract_z
 _atom_site_occupancy
  Ag  Ag0  1  0.33948283  0.49395682  0.49928563  1
  Ag  Ag1  1  0.49755800  0.66308739  0.83241570  1
  Ag  Ag2  1  0.33489842  0.66736939  0.00012902  1
  Ag  Ag3  1  0.83137952  0.32346952  0.49416530  1
  Ag  Ag4  1  0.33371773  0.32991924  0.33147763  1
  Ag  Ag5  1  -0.01087996  0.16753833  0.48947323  1
  Ag  Ag6  1  0.33133326  0.17007911  0.15562809  1
  Ag  Ag7  1  0.33409719  0.84096126  0.83876317  1
  Ag  Ag8  1  -0.00398663  0.16543389  0.17512579  1
  Ag  Ag9  1  0.33379429  0.01104812  -0.00285693  1
  Ag  Ag10  1  0.49997145  0.83773447  0.66790282  1
  Ag  Ag11  1  0.83654686  0.32699114  0.17468912  1
  Ag  Ag12  1  0.66361586  0.49659164  0.82967309  1
  Ag  Ag13  1  0.67562605  0.16662922  0.17307152  1
  Ag  Ag14  1  0.17587075  0.16607769  -0.00003328  1
  Ag  Ag15  1  0.83533561  0.00237875  0.83187022  1
  Ag  Ag16  1  0.66904765  0.00652467  -0.00084193  1
  Ag  Ag17  1  0.33254125  0.32261706  -0.00419784  1
  Ag  Ag18  1  0.17102160  0.32768499  0.49999019  1
  Ag  Ag19  1  0.17385253  0.16855159  0.67690801  1
  Ag  Ag20  1  0.00136880  0.84265928  0.16510592  1
  Ag  Ag21  1  0.66150202  0.48948857  0.50395901  1
  Ag  Ag22  1  0.82864960  0.83910860  0.66993049  1
  Ag  Ag23  1  -0.00820238  0.01118809  0.32705120  1
  Ag  Ag24  1  0.67450772  0.00664421  0.33888994  1
  Ag  Ag25  1  0.33624745  0.33117283  0.67349745  1
  Ag  Ag26  1  0.33141079  0.49425016  0.16777982  1
  Ag  Ag27  1  0.82714564  0.00692498  0.49374575  1
  Ag  Ag28  1  0.17880248  0.32434677  0.82894205  1
  Ag  Ag29  1  0.83116713  0.84764295  0.33484194  1
  Ag  Ag30  1  0.17600246  0.66698417  0.16536302  1
  Ag  Ag31  1  0.48892063  0.16638365  -0.00350264  1
  Ag  Ag32  1  0.67107727  0.16627744  0.49172580  1
  Ag  Ag33  1  0.67310476  0.32329143  0.33673522  1
  Ag  Ag34  1  0.16625986  0.00762162  0.83536892  1
  Ag  Ag35  1  0.00581368  0.48946216  0.16710622  1
  Ag  Ag36  1  0.82781877  0.67803013  0.83322868  1
  Ag  Ag37  1  0.49593160  0.16774042  0.67107438  1
  Ag  Ag38  1  0.50742533  0.00240221  0.50185101  1
  Ag  Ag39  1  0.49297614  0.66803731  0.15753163  1
  Ag  Ag40  1  0.15233321  0.16901787  0.32938840  1
  Ag  Ag41  1  0.32989906  0.16842927  0.84090573  1
  Ag  Ag42  1  0.83365181  0.16504476  0.00983144  1
  Ag  Ag43  1  0.49835383  0.49403726  0.66908568  1
  Ag  Ag44  1  0.49493553  0.33078840  0.83018931  1
  Ag  Ag45  1  0.33781574  0.66237985  0.67650980  1
  Ag  Ag46  1  -0.00273591  0.00467646  0.00280306  1
  Ag  Ag47  1  0.83876816  0.16490485  0.33082757  1
  Ag  Ag48  1  0.66670472  0.00272218  0.66313444  1
  Ag  Ag49  1  0.83190869  0.32285677  0.83294977  1
  Ag  Ag50  1  0.50114747  0.83631895  0.33363999  1
  Ag  Ag51  1  -0.00129390  0.83954393  0.83760539  1
  Ag  Ag52  1  -0.00674013  0.32249685  0.33124139  1
  Ag  Ag53  1  0.33289417  0.83032385  0.15988301  1
  Sb  Sb54  1  0.50408140  0.16387108  0.33306477  1
  Sb  Sb55  1  -0.00073737  0.66972013  0.33010821  1
  Sb  Sb56  1  0.16997117  0.65750115  0.49688513  1
  Sb  Sb57  1  0.00367686  0.67000515  0.67022243  1
  Sb  Sb58  1  0.17000860  0.49201408  0.00140565  1
  Sb  Sb59  1  0.66542852  0.66845602  0.33320773  1
  Sb  Sb60  1  0.17670323  0.49223310  0.66709654  1
  Sb  Sb61  1  0.49910788  0.50197354  0.33751105  1
  Sb  Sb62  1  0.16627827  0.84170796  0.32963591  1
  Sb  Sb63  1  0.83255551  0.49113852  0.33386894  1
  Sb  Sb64  1  0.00384649  0.32371505  0.00445099  1
  Sb  Sb65  1  0.33523988  0.83032363  0.50131241  1
  Sb  Sb66  1  0.66669482  0.84051487  0.16857001  1
  Sb  Sb67  1  0.49733453  0.33272371  0.16360010  1
  Sb  Sb68  1  0.82583695  0.50161130  0.66834502  1
  Sb  Sb69  1  0.83126390  0.16309241  0.66356091  1
  Sb  Sb70  1  0.33470750  0.66453417  0.32751677  1
  Sb  Sb71  1  0.66378269  0.49187925  0.16724265  1
  Sb  Sb72  1  0.83333516  0.49123115  -0.00112177  1
  Sb  Sb73  1  0.49618141  0.83916810  -0.00182100  1
  Sb  Sb74  1  0.66025049  0.66965281  0.66774584  1
  Sb  Sb75  1  0.66249130  0.67147973  -0.00225724  1
  Sb  Sb76  1  0.50025209  0.00283980  0.83059918  1
  Sb  Sb77  1  0.66528350  0.83458746  0.83196017  1
  Sb  Sb78  1  -0.00343943  0.84360857  0.49721885  1
  Sb  Sb79  1  0.66624843  0.84080715  0.50007579  1
  Sb  Sb80  1  0.00365503  0.32933511  0.66456854  1
  Sb  Sb81  1  0.66359250  0.32512872  0.00115673  1
  Sb  Sb82  1  0.83471485  0.00715963  0.16959811  1
  Sb  Sb83  1  0.16984905  0.83968081  0.67014524  1
  Sb  Sb84  1  0.00449110  0.16221591  0.83600535  1
  Sb  Sb85  1  0.17296962  0.66666248  0.83803289  1
  Sb  Sb86  1  0.16978076  0.84183601  0.00063368  1
  Sb  Sb87  1  0.83515242  0.84285987  -0.00070490  1
  Sb  Sb88  1  0.33917711  0.00442914  0.67205496  1
  Sb  Sb89  1  0.33823746  0.49459322  0.83466957  1
  Sb  Sb90  1  -0.00106145  0.48799068  0.49435541  1
  Sb  Sb91  1  0.49887429  -0.00014345  0.16843318  1
  Sb  Sb92  1  0.33264225  0.00644827  0.32753460  1
  Sb  Sb93  1  0.16595151  0.32980078  0.16859011  1
  Sb  Sb94  1  -0.00589089  0.50060290  0.83838116  1
  Sb  Sb95  1  0.16509760  0.01096643  0.50476414  1
  Sb  Sb96  1  0.66323532  0.32776065  0.66432175  1
  Sb  Sb97  1  -0.00634336  0.00252757  0.66916080  1
  Sb  Sb98  1  0.00474386  0.67385184  0.00176787  1
  Sb  Sb99  1  0.83308834  0.66425609  0.16238723  1
  Sb  Sb100  1  0.50004158  0.66887578  0.50409027  1
  Sb  Sb101  1  0.83236187  0.66885397  0.50441817  1
  Sb  Sb102  1  0.16521318  0.00320429  0.16021332  1
  Sb  Sb103  1  0.50052177  0.32818421  0.50347503  1
  Sb  Sb104  1  0.66408414  0.16828889  0.83420355  1
  Sb  Sb105  1  0.33571438  0.17162549  0.50128293  1
  Sb  Sb106  1  0.49768059  0.49543190  -0.00477851  1
  Sb  Sb107  1  0.16760641  0.49014132  0.33063779  1
  Te  Te108  1  0.16951672  0.16677971  0.16564679  1
  Te  Te109  1  0.16942992  0.17113147  0.49433125  1
  Te  Te110  1  0.16674858  0.16742359  0.83559206  1
  Te  Te111  1  0.16868496  0.50414986  0.16657454  1
  Te  Te112  1  0.17072463  0.48984213  0.49936464  1
  Te  Te113  1  0.16303205  0.49348767  0.83340645  1
  Te  Te114  1  0.16743306  0.82977499  0.16691496  1
  Te  Te115  1  0.16549509  0.83123756  0.49985300  1
  Te  Te116  1  0.16837698  0.83519904  0.83355463  1
  Te  Te117  1  0.49325826  0.16713401  0.16048561  1
  Te  Te118  1  0.50471402  0.16186820  0.50395435  1
  Te  Te119  1  0.49722636  0.16858130  0.83311812  1
  Te  Te120  1  0.49524752  0.50530305  0.16675040  1
  Te  Te121  1  0.49957889  0.50085266  0.50463935  1
  Te  Te122  1  0.50233364  0.49956154  0.82955429  1
  Te  Te123  1  0.49877955  0.83025447  0.16797702  1
  Te  Te124  1  0.49988352  0.83758369  0.50148889  1
  Te  Te125  1  0.49580532  0.83066633  0.83064403  1
  Te  Te126  1  0.83453661  0.16952915  0.16999590  1
  Te  Te127  1  0.83068100  0.16619297  0.50217186  1
  Te  Te128  1  0.83427205  0.16392628  0.82969035  1
  Te  Te129  1  0.83541480  0.49378787  0.16597171  1
  Te  Te130  1  0.82961601  0.49640533  0.50146969  1
  Te  Te131  1  0.82716597  0.49889368  0.83316881  1
  Te  Te132  1  0.83655887  0.82942016  0.17107918  1
  Te  Te133  1  0.83319682  0.83708235  0.50078408  1
  Te  Te134  1  0.83333960  0.83649325  0.83330076  1
  Te  Te135  1  0.16866408  0.00674398  -0.00519426  1
  Te  Te136  1  0.16367038  0.00831025  0.33573461  1
  Te  Te137  1  0.16710634  0.00685503  0.67349071  1
  Te  Te138  1  0.17065252  0.32650380  -0.00550366  1
  Te  Te139  1  0.17076393  0.32740736  0.33525100  1
  Te  Te140  1  0.17055552  0.32814336  0.66747158  1
  Te  Te141  1  0.17213381  0.66454679  0.00478887  1
  Te  Te142  1  0.16629393  0.66811130  0.32766086  1
  Te  Te143  1  0.17558521  0.66634076  0.66647757  1
  Te  Te144  1  0.49837436  0.00590741  -0.00073581  1
  Te  Te145  1  0.50048086  -0.00400820  0.33726210  1
  Te  Te146  1  0.50409742  -0.00027762  0.66485066  1
  Te  Te147  1  0.49559230  0.32846051  -0.00545219  1
  Te  Te148  1  0.49619373  0.33474151  0.33327997  1
  Te  Te149  1  0.49759859  0.33194970  0.66962730  1
  Te  Te150  1  0.49712061  0.66720721  -0.00322246  1
  Te  Te151  1  0.50154975  0.67500082  0.33275794  1
  Te  Te152  1  0.49575341  0.67164703  0.67007822  1
  Te  Te153  1  0.83443597  0.00316218  -0.00350742  1
  Te  Te154  1  0.83261501  0.00355507  0.33277611  1
  Te  Te155  1  0.82898593  -0.00235556  0.66867557  1
  Te  Te156  1  0.83325809  0.32667912  -0.00323066  1
  Te  Te157  1  0.83313172  0.32914480  0.33465870  1
  Te  Te158  1  0.83351400  0.33431671  0.66921315  1
  Te  Te159  1  0.83220025  0.66552758  -0.00721327  1
  Te  Te160  1  0.83182188  0.67167361  0.33364175  1
  Te  Te161  1  0.83393143  0.67322784  0.67286112  1
  Te  Te162  1  -0.00730570  0.16210188  0.00185113  1
  Te  Te163  1  -0.00328998  0.16745762  0.33233096  1
  Te  Te164  1  0.00886596  0.16636003  0.66026469  1
  Te  Te165  1  0.00144299  0.50122623  0.00802238  1
  Te  Te166  1  0.00007421  0.49790281  0.32607115  1
  Te  Te167  1  0.00051818  0.50180585  0.66531934  1
  Te  Te168  1  0.00192697  0.84116206  0.00111914  1
  Te  Te169  1  -0.00323662  0.83777122  0.32895021  1
  Te  Te170  1  -0.00309859  0.83453729  0.67095729  1
  Te  Te171  1  0.33244309  0.16672437  -0.00176373  1
  Te  Te172  1  0.33738644  0.17056793  0.33048326  1
  Te  Te173  1  0.33446822  0.16967355  0.66796651  1
  Te  Te174  1  0.33394628  0.50552007  0.00670896  1
  Te  Te175  1  0.33380176  0.49516395  0.33188130  1
  Te  Te176  1  0.33901097  0.49715783  0.66733671  1
  Te  Te177  1  0.33385482  0.82803978  -0.00060525  1
  Te  Te178  1  0.33627233  0.83481827  0.32998862  1
  Te  Te179  1  0.33703495  0.83222722  0.66950096  1
  Te  Te180  1  0.67516432  0.16331560  0.00084844  1
  Te  Te181  1  0.66437557  0.16612156  0.33230018  1
  Te  Te182  1  0.66191559  0.16201414  0.66575645  1
  Te  Te183  1  0.66594022  0.50022838  -0.00378249  1
  Te  Te184  1  0.66572640  0.49517925  0.33694670  1
  Te  Te185  1  0.65963237  0.50054527  0.66726840  1
  Te  Te186  1  0.66599222  0.84424552  0.00086616  1
  Te  Te187  1  0.66787785  0.83821174  0.33337120  1
  Te  Te188  1  0.66595579  0.83815013  0.66609170  1
  Te  Te189  1  0.00089300  0.00194441  0.16598582  1
  Te  Te190  1  -0.00318586  0.00660562  0.49566241  1
  Te  Te191  1  -0.00104874  -0.00224198  0.83521409  1
  Te  Te192  1  -0.00015656  0.32997231  0.16976087  1
  Te  Te193  1  -0.00240494  0.32842787  0.49537816  1
  Te  Te194  1  -0.00834134  0.33517950  0.83390392  1
  Te  Te195  1  0.00140121  0.66919696  0.16560717  1
  Te  Te196  1  0.00136678  0.66434448  0.50012876  1
  Te  Te197  1  -0.00198729  0.67263029  0.83527581  1
  Te  Te198  1  0.33219735  -0.00191524  0.15982182  1
  Te  Te199  1  0.33497019  -0.00185548  0.49952008  1
  Te  Te200  1  0.33351833  0.00036747  0.83633271  1
  Te  Te201  1  0.33242612  0.33266448  0.16482186  1
  Te  Te202  1  0.33416526  0.33568840  0.49900897  1
  Te  Te203  1  0.33500282  0.33256467  0.83419369  1
  Te  Te204  1  0.33545868  0.67065231  0.16695670  1
  Te  Te205  1  0.33283161  0.65790767  0.50282991  1
  Te  Te206  1  0.33514652  0.66442179  0.83517160  1
  Te  Te207  1  0.66506221  0.00704366  0.16515322  1
  Te  Te208  1  0.66817301  0.00200265  0.49874881  1
  Te  Te209  1  0.67009537  0.00067295  0.83398041  1
  Te  Te210  1  0.66946256  0.32842593  0.17104125  1
  Te  Te211  1  0.66729486  0.32959322  0.49871626  1
  Te  Te212  1  0.66903290  0.33564802  0.83302745  1
  Te  Te213  1  0.66015047  0.66458352  0.16571851  1
  Te  Te214  1  0.66804933  0.65286266  0.49986777  1
  Te  Te215  1  0.66463618  0.66249674  0.83387751  1
