# generated using pymatgen
data_AgSbTe2
_symmetry_space_group_name_H-M   'P 1'
_cell_length_a   18.30643622
_cell_length_b   18.31372712
_cell_length_c   18.30729870
_cell_angle_alpha   89.99982323
_cell_angle_beta   90.00223424
_cell_angle_gamma   90.00015553
_symmetry_Int_Tables_number   1
_chemical_formula_structural   AgSbTe2
_chemical_formula_sum   'Ag54 Sb54 Te108'
_cell_volume   6137.68807063
_cell_formula_units_Z   54
loop_
 _symmetry_equiv_pos_site_id
 _symmetry_equiv_pos_as_xyz
  1  'x, y, z'
loop_
 _atom_site_type_symbol
 _atom_site_label
 _atom_site_symmetry_multiplicity
 _atom_site_fract_x
 _atom_site_fract_y
 _atom_site_fract_z
 _atom_site_occupancy
  Ag  Ag0  1  -0.00509488  0.33742484  0.00119598  1
  Ag  Ag1  1  0.16577242  0.83353168  0.33789495  1
  Ag  Ag2  1  0.66540059  0.84102008  0.49518854  1
  Ag  Ag3  1  0.67313923  0.84098101  0.83486068  1
  Ag  Ag4  1  0.66165737  0.16269627  0.50215997  1
  Ag  Ag5  1  0.83553959  0.17099717  -0.00360060  1
  Ag  Ag6  1  0.17343619  0.16459037  0.66732762  1
  Ag  Ag7  1  0.33335001  0.32911855  0.66082543  1
  Ag  Ag8  1  0.00255488  0.65976994  -0.00283025  1
  Ag  Ag9  1  0.83733086  0.49935602  0.33278795  1
  Ag  Ag10  1  0.33802577  0.16876418  0.50802909  1
  Ag  Ag11  1  0.66937351  0.16118369  0.83338407  1
  Ag  Ag12  1  0.00253229  0.16987701  0.16333831  1
  Ag  Ag13  1  0.83165611  -0.00051059  0.83732157  1
  Ag  Ag14  1  0.15852535  0.49559870  0.00572411  1
  Ag  Ag15  1  0.66903582  0.00355157  -0.00055648  1
  Ag  Ag16  1  0.83313269  0.49894076  0.66710199  1
  Ag  Ag17  1  0.67009258  0.66955872  0.33336112  1
  Ag  Ag18  1  0.33217624  0.83454217  0.50146712  1
  Ag  Ag19  1  0.67679062  0.32521600  0.00267852  1
  Ag  Ag20  1  0.17068038  0.83350583  0.66518357  1
  Ag  Ag21  1  0.83288257  0.83439272  0.33480275  1
  Ag  Ag22  1  0.33485669  -0.00304167  -0.00140898  1
  Ag  Ag23  1  0.16214424  0.16948503  0.00037103  1
  Ag  Ag24  1  0.33139147  0.16157333  0.82698804  1
  Ag  Ag25  1  0.33611461  0.83366656  0.16763351  1
  Ag  Ag26  1  0.82977341  -0.00082383  0.16442788  1
  Ag  Ag27  1  0.83187149  0.33180625  0.84006690  1
  Ag  Ag28  1  0.16703331  0.16826457  0.33281833  1
  Ag  Ag29  1  0.16296296  0.49759328  0.32881244  1
  Ag  Ag30  1  0.00072621  0.49529107  0.16292598  1
  Ag  Ag31  1  0.50517529  -0.00370246  0.16991763  1
  Ag  Ag32  1  0.49503640  0.49496405  0.66254317  1
  Ag  Ag33  1  0.32907157  0.66706404  0.66693302  1
  Ag  Ag34  1  0.33148523  0.33201049  0.34167098  1
  Ag  Ag35  1  0.66366349  0.83663879  0.16902824  1
  Ag  Ag36  1  0.82642998  0.33029123  0.50071447  1
  Ag  Ag37  1  -0.00124592  -0.00107296  0.33172490  1
  Ag  Ag38  1  0.16589400  0.33189601  0.16719615  1
  Ag  Ag39  1  0.00505118  0.66667952  0.67214037  1
  Ag  Ag40  1  -0.00352007  0.83334824  0.83370329  1
  Ag  Ag41  1  0.83983938  0.49215975  0.00070766  1
  Ag  Ag42  1  0.33260187  0.49252647  0.50237349  1
  Ag  Ag43  1  0.66932655  0.33420198  0.33453179  1
  Ag  Ag44  1  0.49842503  0.32608077  0.50130133  1
  Ag  Ag45  1  0.82628235  0.00296741  0.49602624  1
  Ag  Ag46  1  0.49926698  0.67475944  0.16642983  1
  Ag  Ag47  1  0.32636295  0.67290665  -0.00453474  1
  Ag  Ag48  1  0.17063266  0.66978885  0.50155895  1
  Ag  Ag49  1  0.16727845  0.00016581  0.83497966  1
  Ag  Ag50  1  0.50353172  0.00618014  0.49566680  1
  Ag  Ag51  1  0.83499722  0.67001542  0.83404796  1
  Ag  Ag52  1  0.49115938  0.17026137  0.66238661  1
  Ag  Ag53  1  0.32905824  0.83839158  0.83208126  1
  Sb  Sb54  1  0.66360715  0.33188987  0.66441279  1
  Sb  Sb55  1  0.83699454  0.83010903  0.66605174  1
  Sb  Sb56  1  0.67220697  -0.00045090  0.33187995  1
  Sb  Sb57  1  0.16548606  0.00277204  0.16384150  1
  Sb  Sb58  1  0.66895307  0.66914348  0.00229059  1
  Sb  Sb59  1  0.33312875  0.00220202  0.67074039  1
  Sb  Sb60  1  0.16978374  -0.00197293  0.50196219  1
  Sb  Sb61  1  0.16867791  0.83483554  -0.00094559  1
  Sb  Sb62  1  0.33358394  0.66569276  0.33503683  1
  Sb  Sb63  1  0.00206510  0.33740387  0.67200890  1
  Sb  Sb64  1  0.67105695  0.16198015  0.16577419  1
  Sb  Sb65  1  0.83282539  0.83602035  -0.00040974  1
  Sb  Sb66  1  0.66470750  0.49749324  0.49821409  1
  Sb  Sb67  1  0.33017348  0.33156854  -0.00091883  1
  Sb  Sb68  1  0.17016603  0.33405639  0.49551139  1
  Sb  Sb69  1  0.50110615  0.16549704  -0.00393952  1
  Sb  Sb70  1  0.49565599  0.16696891  0.34038487  1
  Sb  Sb71  1  0.49586688  0.66730390  0.49762994  1
  Sb  Sb72  1  0.67214047  0.49788125  0.83438631  1
  Sb  Sb73  1  0.49989362  0.49959898  -0.00276070  1
  Sb  Sb74  1  0.49793690  0.49948019  0.33709820  1
  Sb  Sb75  1  0.00172362  0.83401538  0.50263982  1
  Sb  Sb76  1  0.83096459  0.67039816  0.16308398  1
  Sb  Sb77  1  0.66532958  0.66802226  0.66373713  1
  Sb  Sb78  1  0.00035061  0.83398394  0.16377048  1
  Sb  Sb79  1  0.50215508  0.66845057  0.83529342  1
  Sb  Sb80  1  0.00093024  0.33130226  0.32845707  1
  Sb  Sb81  1  -0.00092267  0.16100414  0.83801738  1
  Sb  Sb82  1  -0.00183082  0.50598465  0.84007397  1
  Sb  Sb83  1  -0.00199348  0.66890025  0.33236902  1
  Sb  Sb84  1  0.16683557  0.50163622  0.66510707  1
  Sb  Sb85  1  0.00263881  0.49923258  0.49529959  1
  Sb  Sb86  1  0.33140248  0.50080816  0.82878740  1
  Sb  Sb87  1  0.49867185  0.83527751  0.00224613  1
  Sb  Sb88  1  0.00100715  0.16618107  0.49680481  1
  Sb  Sb89  1  0.83730768  0.32967662  0.16425623  1
  Sb  Sb90  1  0.83645724  0.16601236  0.33117836  1
  Sb  Sb91  1  0.66650583  0.00044403  0.66841584  1
  Sb  Sb92  1  0.16339030  0.67330169  0.83044782  1
  Sb  Sb93  1  0.00082560  -0.00340164  0.66525451  1
  Sb  Sb94  1  0.67189421  0.50274936  0.16818002  1
  Sb  Sb95  1  0.50410267  0.33076483  0.82750713  1
  Sb  Sb96  1  0.32912540  0.16189671  0.16544993  1
  Sb  Sb97  1  0.16944096  0.66506504  0.16780865  1
  Sb  Sb98  1  0.50079859  0.00065966  0.83289638  1
  Sb  Sb99  1  0.50135627  0.83309732  0.33263562  1
  Sb  Sb100  1  0.16329766  0.32626409  0.83778449  1
  Sb  Sb101  1  0.49318472  0.83481122  0.66411565  1
  Sb  Sb102  1  0.32858044  0.00161629  0.33125653  1
  Sb  Sb103  1  -0.00184713  0.00164813  0.00190163  1
  Sb  Sb104  1  0.32845985  0.50401392  0.17014798  1
  Sb  Sb105  1  0.83516032  0.66679977  0.50269846  1
  Sb  Sb106  1  0.83443970  0.17036404  0.66999837  1
  Sb  Sb107  1  0.49705864  0.33043405  0.17158420  1
  Te  Te108  1  0.16400884  0.16883334  0.16592370  1
  Te  Te109  1  0.17014503  0.16590254  0.49981879  1
  Te  Te110  1  0.16764993  0.16176819  0.83453137  1
  Te  Te111  1  0.16328560  0.49805841  0.16737685  1
  Te  Te112  1  0.17087886  0.50264593  0.49623904  1
  Te  Te113  1  0.16607422  0.49831414  0.84126854  1
  Te  Te114  1  0.17063822  0.83399064  0.17216993  1
  Te  Te115  1  0.16852636  0.83266144  0.49985968  1
  Te  Te116  1  0.17125631  0.83820956  0.83211906  1
  Te  Te117  1  0.49922953  0.16048064  0.16749741  1
  Te  Te118  1  0.50020749  0.16635234  0.50215244  1
  Te  Te119  1  0.50033942  0.16592162  0.82666756  1
  Te  Te120  1  0.49984620  0.50199386  0.16712430  1
  Te  Te121  1  0.49469965  0.49746247  0.50383836  1
  Te  Te122  1  0.50154057  0.49963110  0.82415082  1
  Te  Te123  1  0.49929088  0.83528601  0.16767584  1
  Te  Te124  1  0.50005940  0.83751182  0.49973511  1
  Te  Te125  1  0.50011766  0.83378216  0.83147452  1
  Te  Te126  1  0.83824732  0.16098144  0.16187891  1
  Te  Te127  1  0.83103323  0.16652695  0.50139246  1
  Te  Te128  1  0.83120873  0.16381724  0.83555158  1
  Te  Te129  1  0.83825590  0.50069455  0.16728041  1
  Te  Te130  1  0.83317524  0.49755552  0.49691566  1
  Te  Te131  1  0.83303672  0.49792012  0.83427107  1
  Te  Te132  1  0.83136553  0.83797680  0.17107326  1
  Te  Te133  1  0.83087834  0.83553083  0.49788399  1
  Te  Te134  1  0.83195319  0.83629484  0.83209141  1
  Te  Te135  1  0.16804921  0.00419441  -0.00370839  1
  Te  Te136  1  0.16153974  -0.00039970  0.33367124  1
  Te  Te137  1  0.16599928  -0.00113099  0.67124143  1
  Te  Te138  1  0.16514222  0.33173813  0.00404970  1
  Te  Te139  1  0.16723338  0.33446652  0.33003986  1
  Te  Te140  1  0.17047610  0.33125235  0.66763330  1
  Te  Te141  1  0.16744025  0.66394104  -0.00084197  1
  Te  Te142  1  0.16528385  0.66717041  0.33733597  1
  Te  Te143  1  0.16844797  0.66790607  0.66482540  1
  Te  Te144  1  0.50066596  0.00166196  0.00486893  1
  Te  Te145  1  0.49920349  0.00028307  0.33269369  1
  Te  Te146  1  0.50010577  0.00599627  0.65810933  1
  Te  Te147  1  0.50613958  0.33421479  0.00181738  1
  Te  Te148  1  0.49949156  0.33408220  0.33970710  1
  Te  Te149  1  0.49641547  0.33313884  0.66113986  1
  Te  Te150  1  0.49601136  0.66377690  0.00541655  1
  Te  Te151  1  0.50691470  0.66532030  0.32762656  1
  Te  Te152  1  0.49391726  0.66132177  0.66665951  1
  Te  Te153  1  0.83169044  0.00238104  -0.00143452  1
  Te  Te154  1  0.83668769  -0.00091346  0.33436728  1
  Te  Te155  1  0.83456780  0.00080968  0.66909830  1
  Te  Te156  1  0.83365838  0.33186594  0.00119335  1
  Te  Te157  1  0.83220795  0.33553296  0.33387649  1
  Te  Te158  1  0.83401840  0.33816236  0.66635078  1
  Te  Te159  1  0.83555471  0.66338464  -0.00512971  1
  Te  Te160  1  0.83084846  0.66689686  0.33376571  1
  Te  Te161  1  0.83527522  0.66207313  0.67086594  1
  Te  Te162  1  0.00069987  0.16823000  0.00263975  1
  Te  Te163  1  0.00594412  0.16373320  0.32896705  1
  Te  Te164  1  0.00972553  0.16795894  0.66637883  1
  Te  Te165  1  -0.00051434  0.49964202  0.00227031  1
  Te  Te166  1  0.00002705  0.50085793  0.32733516  1
  Te  Te167  1  -0.00343785  0.50572648  0.66641725  1
  Te  Te168  1  0.00067114  0.82716100  -0.00509214  1
  Te  Te169  1  -0.00046685  0.83539772  0.33288195  1
  Te  Te170  1  0.00609311  0.82837774  0.67147024  1
  Te  Te171  1  0.33091706  0.16437556  -0.00329666  1
  Te  Te172  1  0.32705062  0.16985276  0.33476817  1
  Te  Te173  1  0.33162127  0.16676409  0.66744995  1
  Te  Te174  1  0.33056024  0.50215385  -0.00089005  1
  Te  Te175  1  0.32890246  0.49717233  0.33823421  1
  Te  Te176  1  0.33264367  0.50153776  0.66281691  1
  Te  Te177  1  0.33275037  0.83344546  -0.00173072  1
  Te  Te178  1  0.32886510  0.83327805  0.33476409  1
  Te  Te179  1  0.32988118  0.83156011  0.66600195  1
  Te  Te180  1  0.66799237  0.16549182  -0.00132013  1
  Te  Te181  1  0.66782950  0.17211015  0.33790446  1
  Te  Te182  1  0.66668090  0.16732892  0.66638577  1
  Te  Te183  1  0.67155164  0.49676842  0.00072930  1
  Te  Te184  1  0.67191723  0.49798918  0.33278988  1
  Te  Te185  1  0.67118794  0.50055007  0.66636966  1
  Te  Te186  1  0.66643278  0.83725167  0.00035811  1
  Te  Te187  1  0.66962409  0.83403863  0.33360810  1
  Te  Te188  1  0.66519170  0.83262235  0.66671525  1
  Te  Te189  1  -0.00442832  0.00147185  0.16938837  1
  Te  Te190  1  -0.00860038  0.00031086  0.49533773  1
  Te  Te191  1  -0.00237478  -0.00670160  0.83328992  1
  Te  Te192  1  0.00342771  0.33219638  0.16215545  1
  Te  Te193  1  -0.01008982  0.33322821  0.50254621  1
  Te  Te194  1  -0.00668502  0.33182175  0.83956886  1
  Te  Te195  1  -0.00010043  0.66386375  0.16053264  1
  Te  Te196  1  0.00649012  0.66629601  0.50420033  1
  Te  Te197  1  -0.00247427  0.67167578  0.83402086  1
  Te  Te198  1  0.33562173  -0.00526827  0.16151305  1
  Te  Te199  1  0.33614410  -0.00066226  0.49885709  1
  Te  Te200  1  0.33536871  -0.00015548  0.83759242  1
  Te  Te201  1  0.32893287  0.33397247  0.17083488  1
  Te  Te202  1  0.33196739  0.33081656  0.49992491  1
  Te  Te203  1  0.33443253  0.32876260  0.82930709  1
  Te  Te204  1  0.33723201  0.67167612  0.16441504  1
  Te  Te205  1  0.33199989  0.67327611  0.50195200  1
  Te  Te206  1  0.33378599  0.66986979  0.83371000  1
  Te  Te207  1  0.66782940  -0.00307213  0.16457686  1
  Te  Te208  1  0.66739284  0.00078065  0.49896791  1
  Te  Te209  1  0.66710614  0.00083289  0.83691395  1
  Te  Te210  1  0.66471871  0.33234591  0.16888855  1
  Te  Te211  1  0.66693771  0.33152705  0.49799252  1
  Te  Te212  1  0.67150586  0.32862783  0.83639711  1
  Te  Te213  1  0.66283855  0.67291870  0.16986554  1
  Te  Te214  1  0.66573562  0.67250653  0.49524859  1
  Te  Te215  1  0.67152202  0.67314155  0.83300954  1
