# generated using pymatgen
data_AgSbTe2
_symmetry_space_group_name_H-M   'P 1'
_cell_length_a   18.32076052
_cell_length_b   18.32025127
_cell_length_c   18.32298919
_cell_angle_alpha   89.99923207
_cell_angle_beta   90.00191514
_cell_angle_gamma   90.00119620
_symmetry_Int_Tables_number   1
_chemical_formula_structural   AgSbTe2
_chemical_formula_sum   'Ag54 Sb54 Te108'
_cell_volume   6149.94523827
_cell_formula_units_Z   54
loop_
 _symmetry_equiv_pos_site_id
 _symmetry_equiv_pos_as_xyz
  1  'x, y, z'
loop_
 _atom_site_type_symbol
 _atom_site_label
 _atom_site_symmetry_multiplicity
 _atom_site_fract_x
 _atom_site_fract_y
 _atom_site_fract_z
 _atom_site_occupancy
  Ag  Ag0  1  0.50676819  0.66439408  0.17132688  1
  Ag  Ag1  1  0.83080201  0.49594819  0.66777406  1
  Ag  Ag2  1  0.32827748  0.33310413  0.34013638  1
  Ag  Ag3  1  0.16275499  0.17244501  0.32954177  1
  Ag  Ag4  1  0.66488619  0.66230311  0.33965723  1
  Ag  Ag5  1  -0.00641554  -0.00157970  -0.00252364  1
  Ag  Ag6  1  0.66950687  0.49003992  0.82578191  1
  Ag  Ag7  1  0.16959395  0.17379765  0.66843672  1
  Ag  Ag8  1  0.16009589  0.49146762  0.66783654  1
  Ag  Ag9  1  0.67097936  0.32739281  -0.00907076  1
  Ag  Ag10  1  0.83017178  0.67146999  0.16173366  1
  Ag  Ag11  1  0.50986886  0.17088721  -0.00923260  1
  Ag  Ag12  1  0.67072537  0.01397463  0.67281238  1
  Ag  Ag13  1  0.83024562  0.00038627  0.83689462  1
  Ag  Ag14  1  0.00211253  0.33267808  0.33104854  1
  Ag  Ag15  1  0.33457314  0.82912428  0.50109402  1
  Ag  Ag16  1  -0.00461102  0.49542258  0.50389722  1
  Ag  Ag17  1  0.34170021  0.16737070  0.83073026  1
  Ag  Ag18  1  0.83809353  0.83886326  -0.00700659  1
  Ag  Ag19  1  0.66677055  0.16715591  0.15666778  1
  Ag  Ag20  1  0.66746325  0.65553978  0.66346131  1
  Ag  Ag21  1  0.50329825  0.00977556  0.50718620  1
  Ag  Ag22  1  0.16735316  0.16884869  0.00003307  1
  Ag  Ag23  1  0.66401337  0.17587268  0.51043850  1
  Ag  Ag24  1  0.32637129  0.83237664  0.16736167  1
  Ag  Ag25  1  0.83764885  -0.00408251  0.15484653  1
  Ag  Ag26  1  0.83266717  0.16899856  0.33227905  1
  Ag  Ag27  1  0.83361920  0.83102525  0.67487756  1
  Ag  Ag28  1  0.15766895  0.00714946  0.16161754  1
  Ag  Ag29  1  0.50454987  0.49162113  0.00129796  1
  Ag  Ag30  1  0.17421686  0.66372939  0.50345645  1
  Ag  Ag31  1  0.33340331  0.33303377  0.66396121  1
  Ag  Ag32  1  0.50786476  0.33563763  0.50237106  1
  Ag  Ag33  1  -0.00762444  0.33282642  0.66667984  1
  Ag  Ag34  1  0.33936725  0.66169705  0.66368210  1
  Ag  Ag35  1  0.50250562  0.50017351  0.33675841  1
  Ag  Ag36  1  -0.00873484  0.00667161  0.67317241  1
  Ag  Ag37  1  0.50602299  0.16781837  0.67195584  1
  Ag  Ag38  1  0.82987622  0.33229289  0.82871551  1
  Ag  Ag39  1  0.16354016  0.49394893  -0.00163533  1
  Ag  Ag40  1  0.00003389  0.49728372  0.16586799  1
  Ag  Ag41  1  0.83102184  0.67160509  0.83228628  1
  Ag  Ag42  1  0.16333316  0.32834042  0.16333301  1
  Ag  Ag43  1  0.15542289  0.84259873  0.00318679  1
  Ag  Ag44  1  0.82718181  0.33498458  0.50970085  1
  Ag  Ag45  1  0.66765122  0.49322493  0.50732048  1
  Ag  Ag46  1  -0.00528869  0.83758350  0.84121170  1
  Ag  Ag47  1  0.50158895  0.66174686  0.50015988  1
  Ag  Ag48  1  -0.00171991  0.32954659  0.00014252  1
  Ag  Ag49  1  0.67344995  0.00816855  -0.00972628  1
  Ag  Ag50  1  0.51226386  0.00589029  0.82964817  1
  Ag  Ag51  1  0.00035506  0.83548505  0.15877926  1
  Ag  Ag52  1  0.66512518  0.16808563  0.83228134  1
  Ag  Ag53  1  0.67159751  0.33179481  0.66905813  1
  Sb  Sb54  1  0.83060809  0.49581618  0.33731605  1
  Sb  Sb55  1  -0.00453444  0.65966048  0.33219111  1
  Sb  Sb56  1  0.16023138  0.33174411  0.83427530  1
  Sb  Sb57  1  0.83471320  0.83615582  0.33182816  1
  Sb  Sb58  1  -0.00610823  0.50035816  0.83289979  1
  Sb  Sb59  1  0.32803563  0.83791728  0.83223411  1
  Sb  Sb60  1  0.67058947  0.83536877  0.16454746  1
  Sb  Sb61  1  0.83417934  0.50073616  -0.00445505  1
  Sb  Sb62  1  -0.00607496  0.16451696  0.83307011  1
  Sb  Sb63  1  0.49926603  0.82797132  0.33401030  1
  Sb  Sb64  1  -0.00135416  0.16772940  0.16376550  1
  Sb  Sb65  1  0.33427279  0.66682792  -0.00476324  1
  Sb  Sb66  1  0.67443053  0.83863469  0.83231837  1
  Sb  Sb67  1  -0.00458401  0.66195660  0.66645593  1
  Sb  Sb68  1  -0.00069932  0.66902775  0.00067380  1
  Sb  Sb69  1  0.66833029  0.66385539  -0.00339510  1
  Sb  Sb70  1  0.33361243  0.00575789  0.33320564  1
  Sb  Sb71  1  0.16813379  0.49448879  0.33546077  1
  Sb  Sb72  1  0.16077937  0.00369814  0.83757781  1
  Sb  Sb73  1  0.82857698  0.66056783  0.50321376  1
  Sb  Sb74  1  0.66777551  0.00081367  0.33528048  1
  Sb  Sb75  1  0.83098928  0.16302133  0.00234025  1
  Sb  Sb76  1  0.50883788  0.32650358  0.82767673  1
  Sb  Sb77  1  -0.00111212  0.00719943  0.33080571  1
  Sb  Sb78  1  0.83640340  0.33206826  0.16466625  1
  Sb  Sb79  1  0.50502695  0.83742497  0.66583959  1
  Sb  Sb80  1  0.33084702  0.00086832  -0.00005182  1
  Sb  Sb81  1  0.50283989  -0.00191502  0.16430033  1
  Sb  Sb82  1  0.50176794  0.17281302  0.33597957  1
  Sb  Sb83  1  0.33980549  0.49365313  0.82983451  1
  Sb  Sb84  1  0.33749233  0.66173303  0.33772152  1
  Sb  Sb85  1  0.33330186  0.16530315  0.16318295  1
  Sb  Sb86  1  0.16173679  0.83398730  0.67037532  1
  Sb  Sb87  1  0.82885312  0.17097119  0.66665194  1
  Sb  Sb88  1  0.66882901  0.33489471  0.33807669  1
  Sb  Sb89  1  0.49775417  0.33690107  0.16908766  1
  Sb  Sb90  1  0.33036080  0.50241137  0.16623913  1
  Sb  Sb91  1  0.16537273  0.66580907  0.16914872  1
  Sb  Sb92  1  0.50765353  0.66876186  0.83023348  1
  Sb  Sb93  1  0.33554013  0.00315951  0.66752603  1
  Sb  Sb94  1  0.16196882  0.66502213  0.82951405  1
  Sb  Sb95  1  0.50247102  0.83632682  -0.00005163  1
  Sb  Sb96  1  0.33708612  0.50116464  0.50296991  1
  Sb  Sb97  1  -0.00556095  0.17362065  0.50225844  1
  Sb  Sb98  1  0.16885780  -0.00045072  0.49955967  1
  Sb  Sb99  1  0.33838641  0.16699491  0.50526794  1
  Sb  Sb100  1  0.50651260  0.49366444  0.66672268  1
  Sb  Sb101  1  0.16537651  0.33611545  0.50172580  1
  Sb  Sb102  1  0.33280778  0.33117406  -0.00369748  1
  Sb  Sb103  1  0.66391667  0.83203251  0.50298095  1
  Sb  Sb104  1  0.82823932  0.00576248  0.50643442  1
  Sb  Sb105  1  0.67035747  0.49665895  0.16636657  1
  Sb  Sb106  1  0.00238492  0.82844801  0.50222256  1
  Sb  Sb107  1  0.16720959  0.83781160  0.32738937  1
  Te  Te108  1  0.16814439  0.16736949  0.16407048  1
  Te  Te109  1  0.16805437  0.16511561  0.50297216  1
  Te  Te110  1  0.16982473  0.16650013  0.83279133  1
  Te  Te111  1  0.16258990  0.49714819  0.16476706  1
  Te  Te112  1  0.16378291  0.50220243  0.50330477  1
  Te  Te113  1  0.16742510  0.50046112  0.83269695  1
  Te  Te114  1  0.16398463  0.83297728  0.16272915  1
  Te  Te115  1  0.17107096  0.83007142  0.49963409  1
  Te  Te116  1  0.15956824  0.83309691  0.84127626  1
  Te  Te117  1  0.50333952  0.16638796  0.16422512  1
  Te  Te118  1  0.50377336  0.16867577  0.50170057  1
  Te  Te119  1  0.50285823  0.16566590  0.83269429  1
  Te  Te120  1  0.50018245  0.50405561  0.16303343  1
  Te  Te121  1  0.50336215  0.49965590  0.50126429  1
  Te  Te122  1  0.50689742  0.50165124  0.83996281  1
  Te  Te123  1  0.49604008  0.82783293  0.16628408  1
  Te  Te124  1  0.49558043  0.82683440  0.50041530  1
  Te  Te125  1  0.49701640  0.84168502  0.83455021  1
  Te  Te126  1  0.82973525  0.16441482  0.17066887  1
  Te  Te127  1  0.82737779  0.17176919  0.49483151  1
  Te  Te128  1  0.82720527  0.16587781  0.83356906  1
  Te  Te129  1  0.83869842  0.50456085  0.16678607  1
  Te  Te130  1  0.83265686  0.49573764  0.50414984  1
  Te  Te131  1  0.82941003  0.49946285  0.82957352  1
  Te  Te132  1  0.83765355  0.83373865  0.16666090  1
  Te  Te133  1  0.83505080  0.83386572  0.50382936  1
  Te  Te134  1  0.83551919  0.83463233  0.83270372  1
  Te  Te135  1  0.16358586  0.00186916  0.00252740  1
  Te  Te136  1  0.16580825  0.00896854  0.32732899  1
  Te  Te137  1  0.16259085  0.00347689  0.66751955  1
  Te  Te138  1  0.16588192  0.33282962  0.00051165  1
  Te  Te139  1  0.16461506  0.33095295  0.33328008  1
  Te  Te140  1  0.16591651  0.33332092  0.66768759  1
  Te  Te141  1  0.16788846  0.65847546  -0.00084010  1
  Te  Te142  1  0.16727616  0.66605584  0.34071401  1
  Te  Te143  1  0.16646973  0.66565060  0.66318967  1
  Te  Te144  1  0.50474319  0.00485992  -0.00151959  1
  Te  Te145  1  0.50056367  0.00016537  0.33974931  1
  Te  Te146  1  0.50294737  0.00394414  0.66635022  1
  Te  Te147  1  0.50053043  0.33225184  0.00169043  1
  Te  Te148  1  0.49794518  0.33853291  0.33734769  1
  Te  Te149  1  0.50001367  0.33016039  0.66237399  1
  Te  Te150  1  0.50091155  0.66495560  0.00227739  1
  Te  Te151  1  0.50284293  0.66156561  0.33417936  1
  Te  Te152  1  0.50244926  0.66726012  0.66435787  1
  Te  Te153  1  0.83433287  -0.00045727  -0.00130198  1
  Te  Te154  1  0.83390562  0.00563877  0.33109882  1
  Te  Te155  1  0.83206222  0.00140155  0.66971233  1
  Te  Te156  1  0.83493159  0.33331635  -0.00345052  1
  Te  Te157  1  0.83821351  0.32960909  0.33306013  1
  Te  Te158  1  0.83247523  0.33394591  0.66753842  1
  Te  Te159  1  0.83242789  0.67195629  0.00003505  1
  Te  Te160  1  0.82766896  0.66729724  0.33043927  1
  Te  Te161  1  0.82945538  0.66437230  0.66823771  1
  Te  Te162  1  0.00613794  0.16854226  -0.00215778  1
  Te  Te163  1  0.00143382  0.17393563  0.33543906  1
  Te  Te164  1  0.00513054  0.16805805  0.66744967  1
  Te  Te165  1  0.00193739  0.49613937  0.00080866  1
  Te  Te166  1  -0.00016085  0.49225018  0.33299954  1
  Te  Te167  1  -0.00030171  0.49602172  0.66632573  1
  Te  Te168  1  -0.00130220  0.83387397  0.00181981  1
  Te  Te169  1  0.00082327  0.83343625  0.32803676  1
  Te  Te170  1  -0.00518636  0.83649656  0.66704921  1
  Te  Te171  1  0.33093030  0.16673962  -0.00492743  1
  Te  Te172  1  0.32994829  0.17344091  0.33330328  1
  Te  Te173  1  0.33174063  0.16948087  0.66952624  1
  Te  Te174  1  0.33238087  0.49959840  -0.00186226  1
  Te  Te175  1  0.33943327  0.49265026  0.33319552  1
  Te  Te176  1  0.32703387  0.49887324  0.66793628  1
  Te  Te177  1  0.32924813  0.83256500  0.00256810  1
  Te  Te178  1  0.33225341  0.83306754  0.33311782  1
  Te  Te179  1  0.33144993  0.82971833  0.66469147  1
  Te  Te180  1  0.66750390  0.16732042  -0.00120155  1
  Te  Te181  1  0.66875338  0.16640382  0.33327112  1
  Te  Te182  1  0.66586336  0.17027546  0.66736435  1
  Te  Te183  1  0.66530807  0.49502510  -0.00127592  1
  Te  Te184  1  0.66300514  0.50286307  0.33450001  1
  Te  Te185  1  0.66738432  0.49547152  0.66626608  1
  Te  Te186  1  0.67186391  0.84018489  -0.00002122  1
  Te  Te187  1  0.66733167  0.82471984  0.33341323  1
  Te  Te188  1  0.67276081  0.83065739  0.66635875  1
  Te  Te189  1  -0.00136835  -0.00000983  0.16482921  1
  Te  Te190  1  -0.00094591  -0.00111687  0.50474310  1
  Te  Te191  1  -0.00531363  -0.00114185  0.83354637  1
  Te  Te192  1  0.00224925  0.33390826  0.16284159  1
  Te  Te193  1  -0.00118328  0.33709290  0.50560552  1
  Te  Te194  1  -0.00782389  0.33297420  0.83301755  1
  Te  Te195  1  -0.00374311  0.66395563  0.16821211  1
  Te  Te196  1  0.00179237  0.65934060  0.49825147  1
  Te  Te197  1  -0.00770933  0.67288412  0.83280562  1
  Te  Te198  1  0.33087637  -0.00626734  0.16784387  1
  Te  Te199  1  0.33868638  -0.00666934  0.49995172  1
  Te  Te200  1  0.33885080  0.00535077  0.83301537  1
  Te  Te201  1  0.32640301  0.33366793  0.16966341  1
  Te  Te202  1  0.33625281  0.33362311  0.50318095  1
  Te  Te203  1  0.33294201  0.32767594  0.82621797  1
  Te  Te204  1  0.33520369  0.67078172  0.16720464  1
  Te  Te205  1  0.33663254  0.66733643  0.50293240  1
  Te  Te206  1  0.33505245  0.66821645  0.82395393  1
  Te  Te207  1  0.67065789  0.00340603  0.16729732  1
  Te  Te208  1  0.66197243  0.00164231  0.50389942  1
  Te  Te209  1  0.66905190  0.00163674  0.83136079  1
  Te  Te210  1  0.66715031  0.32872194  0.16260444  1
  Te  Te211  1  0.66783199  0.33398389  0.49912944  1
  Te  Te212  1  0.66891508  0.33115633  0.83247565  1
  Te  Te213  1  0.66766659  0.66613912  0.16466501  1
  Te  Te214  1  0.66341101  0.66494895  0.50255585  1
  Te  Te215  1  0.67202589  0.66367111  0.82864855  1
