# generated using pymatgen
data_AgSbTe2
_symmetry_space_group_name_H-M   'P 1'
_cell_length_a   18.31251148
_cell_length_b   18.31370204
_cell_length_c   18.31174461
_cell_angle_alpha   89.99850813
_cell_angle_beta   89.99819170
_cell_angle_gamma   90.00015528
_symmetry_Int_Tables_number   1
_chemical_formula_structural   AgSbTe2
_chemical_formula_sum   'Ag54 Sb54 Te108'
_cell_volume   6141.20756857
_cell_formula_units_Z   54
loop_
 _symmetry_equiv_pos_site_id
 _symmetry_equiv_pos_as_xyz
  1  'x, y, z'
loop_
 _atom_site_type_symbol
 _atom_site_label
 _atom_site_symmetry_multiplicity
 _atom_site_fract_x
 _atom_site_fract_y
 _atom_site_fract_z
 _atom_site_occupancy
  Ag  Ag0  1  -0.00371218  0.50744010  0.83048124  1
  Ag  Ag1  1  0.33887859  0.67928587  0.67459950  1
  Ag  Ag2  1  0.50129347  -0.00525625  0.82295837  1
  Ag  Ag3  1  0.17004760  0.50525728  0.67053148  1
  Ag  Ag4  1  0.49831051  0.16353672  0.33782082  1
  Ag  Ag5  1  0.32716248  0.82420842  0.82396033  1
  Ag  Ag6  1  -0.00002485  0.83818354  0.16046113  1
  Ag  Ag7  1  0.16328101  0.83583475  -0.00822121  1
  Ag  Ag8  1  0.83621165  0.83230286  -0.00484959  1
  Ag  Ag9  1  0.49896353  0.66480211  0.16817988  1
  Ag  Ag10  1  0.66500147  0.33455352  0.00365650  1
  Ag  Ag11  1  0.33758847  0.00084940  0.34174404  1
  Ag  Ag12  1  0.33940787  0.83742333  0.51174029  1
  Ag  Ag13  1  0.33266865  0.51089962  0.82999042  1
  Ag  Ag14  1  0.83193391  0.33873585  0.83501974  1
  Ag  Ag15  1  0.48966916  0.67085082  0.82638629  1
  Ag  Ag16  1  -0.00104831  0.16354793  0.83445023  1
  Ag  Ag17  1  -0.00432530  0.00103145  0.33085587  1
  Ag  Ag18  1  0.66810173  0.49792103  0.16600952  1
  Ag  Ag19  1  0.67203982  0.50315715  0.83375756  1
  Ag  Ag20  1  0.00484391  0.83092501  0.83666748  1
  Ag  Ag21  1  0.33373460  0.33112115  0.67256263  1
  Ag  Ag22  1  0.33393667  0.66497915  -0.01452274  1
  Ag  Ag23  1  0.66712310  0.00629334  0.33140571  1
  Ag  Ag24  1  0.16693162  0.16564437  0.33094542  1
  Ag  Ag25  1  0.83370140  0.00110034  0.16454924  1
  Ag  Ag26  1  0.16652975  0.16483822  -0.00340063  1
  Ag  Ag27  1  0.33544487  0.15798408  0.50398436  1
  Ag  Ag28  1  0.50100583  0.33393060  0.16636453  1
  Ag  Ag29  1  0.49041926  0.15855595  0.66299507  1
  Ag  Ag30  1  0.17873088  0.82954158  0.67399118  1
  Ag  Ag31  1  0.17134791  0.33052332  0.16412468  1
  Ag  Ag32  1  0.83015355  0.49761950  0.33056030  1
  Ag  Ag33  1  0.33479337  0.33727336  -0.00550215  1
  Ag  Ag34  1  -0.00592683  0.50409102  0.50363603  1
  Ag  Ag35  1  0.65697135  0.66588551  0.66948875  1
  Ag  Ag36  1  0.66938411  0.50567279  0.50118393  1
  Ag  Ag37  1  0.17418733  0.16578720  0.66898821  1
  Ag  Ag38  1  0.33472287  0.67062225  0.33778561  1
  Ag  Ag39  1  0.49197162  0.83415159  0.66572550  1
  Ag  Ag40  1  0.65720293  0.82933419  0.50169502  1
  Ag  Ag41  1  0.17644362  0.67008433  0.83181027  1
  Ag  Ag42  1  0.83283300  0.16510943  0.33478481  1
  Ag  Ag43  1  0.00149957  0.16192363  0.16650573  1
  Ag  Ag44  1  0.66930940  0.00210665  0.00084288  1
  Ag  Ag45  1  0.49883948  0.67448179  0.50801884  1
  Ag  Ag46  1  0.00167858  0.66915146  0.33345164  1
  Ag  Ag47  1  0.66669648  0.33183847  0.32821886  1
  Ag  Ag48  1  0.83052894  -0.00063985  0.83768597  1
  Ag  Ag49  1  0.83444882  0.66251842  0.83417196  1
  Ag  Ag50  1  0.49761258  -0.00533200  0.50596934  1
  Ag  Ag51  1  0.83017391  0.50228970  -0.00698682  1
  Ag  Ag52  1  0.83373939  0.16524730  0.67106590  1
  Ag  Ag53  1  0.33715984  -0.00701837  0.66332191  1
  Sb  Sb54  1  0.65993778  -0.00362995  0.66687494  1
  Sb  Sb55  1  0.00415431  0.33285320  0.66933740  1
  Sb  Sb56  1  0.32847543  0.16758103  0.17076560  1
  Sb  Sb57  1  0.83701272  0.16589304  -0.00101794  1
  Sb  Sb58  1  0.50124281  0.33449967  0.83522329  1
  Sb  Sb59  1  0.00418473  0.16733516  0.49912320  1
  Sb  Sb60  1  0.66490926  0.66533710  0.33746879  1
  Sb  Sb61  1  0.16492959  0.49986273  -0.00666079  1
  Sb  Sb62  1  0.50512722  0.50081588  -0.00163600  1
  Sb  Sb63  1  0.16577581  -0.00573387  0.83287237  1
  Sb  Sb64  1  -0.00523204  0.33069399  0.33193031  1
  Sb  Sb65  1  0.66593260  0.82893795  0.82989522  1
  Sb  Sb66  1  0.49575586  0.16726233  -0.00129268  1
  Sb  Sb67  1  0.00311064  0.66622642  0.66818824  1
  Sb  Sb68  1  -0.00021925  0.33207184  -0.00199205  1
  Sb  Sb69  1  0.66295434  0.66458728  -0.00608305  1
  Sb  Sb70  1  0.50534747  0.49861348  0.33371099  1
  Sb  Sb71  1  0.49561153  0.50534360  0.66780335  1
  Sb  Sb72  1  0.33734397  0.33123901  0.33290862  1
  Sb  Sb73  1  0.50448477  -0.00014718  0.16992880  1
  Sb  Sb74  1  0.66931513  0.83073876  0.16821809  1
  Sb  Sb75  1  0.16533001  0.33495287  0.83534728  1
  Sb  Sb76  1  0.17432433  0.66735788  0.50597036  1
  Sb  Sb77  1  0.83235708  0.83660879  0.67399547  1
  Sb  Sb78  1  0.00184050  0.82975546  0.50164611  1
  Sb  Sb79  1  -0.00451926  0.49999358  0.16521267  1
  Sb  Sb80  1  0.32984341  0.83220210  0.16448633  1
  Sb  Sb81  1  0.16092363  0.00392936  0.16746250  1
  Sb  Sb82  1  0.16202814  0.49701344  0.33759897  1
  Sb  Sb83  1  0.83126041  0.33355336  0.50365964  1
  Sb  Sb84  1  0.33572430  0.50367109  0.50695752  1
  Sb  Sb85  1  0.16807840  0.33265288  0.49918581  1
  Sb  Sb86  1  0.83513094  0.49783779  0.67169484  1
  Sb  Sb87  1  0.83417821  0.83501162  0.32914938  1
  Sb  Sb88  1  0.82636859  -0.00010667  0.50010210  1
  Sb  Sb89  1  0.00432161  0.00052942  0.66490621  1
  Sb  Sb90  1  0.49886293  0.83702256  0.34091954  1
  Sb  Sb91  1  -0.00592747  -0.00135023  0.00179257  1
  Sb  Sb92  1  0.17600779  0.00044577  0.50041974  1
  Sb  Sb93  1  0.66242500  0.33806241  0.66795700  1
  Sb  Sb94  1  0.16789200  0.83677864  0.33379815  1
  Sb  Sb95  1  0.33818546  0.50020936  0.16165000  1
  Sb  Sb96  1  0.32878008  0.16417765  0.82607075  1
  Sb  Sb97  1  0.67111323  0.16834454  0.83265706  1
  Sb  Sb98  1  0.66966928  0.17033976  0.16886361  1
  Sb  Sb99  1  0.50018323  0.33205596  0.49812136  1
  Sb  Sb100  1  0.17007701  0.66348250  0.16281134  1
  Sb  Sb101  1  0.00244801  0.66918700  -0.00148098  1
  Sb  Sb102  1  0.33791585  -0.00113549  -0.00407879  1
  Sb  Sb103  1  0.83116705  0.32966834  0.16324247  1
  Sb  Sb104  1  0.66101157  0.16562180  0.49825395  1
  Sb  Sb105  1  0.82810801  0.66521438  0.50495107  1
  Sb  Sb106  1  0.49914879  0.83179522  -0.00767870  1
  Sb  Sb107  1  0.83056576  0.66890122  0.16314910  1
  Te  Te108  1  0.16244766  0.16896728  0.16766356  1
  Te  Te109  1  0.17168139  0.16716096  0.50217739  1
  Te  Te110  1  0.16107992  0.16672112  0.83301072  1
  Te  Te111  1  0.16537669  0.49320516  0.16677455  1
  Te  Te112  1  0.16172398  0.49989876  0.50643599  1
  Te  Te113  1  0.16467724  0.50222739  0.83024346  1
  Te  Te114  1  0.16054174  0.83212339  0.16146294  1
  Te  Te115  1  0.17131110  0.83280848  0.50691106  1
  Te  Te116  1  0.16593120  0.83260091  0.83400091  1
  Te  Te117  1  0.49946867  0.16931279  0.17056203  1
  Te  Te118  1  0.49620648  0.16496110  0.49942566  1
  Te  Te119  1  0.50123024  0.16226084  0.82954871  1
  Te  Te120  1  0.50544252  0.49902822  0.16704927  1
  Te  Te121  1  0.50596555  0.50432951  0.50044416  1
  Te  Te122  1  0.49985224  0.50379236  0.83267080  1
  Te  Te123  1  0.49967040  0.82820880  0.16577363  1
  Te  Te124  1  0.49924492  0.83367569  0.50254359  1
  Te  Te125  1  0.49928974  0.83266090  0.82856643  1
  Te  Te126  1  0.83876925  0.16256000  0.17008392  1
  Te  Te127  1  0.83437344  0.16679843  0.49697713  1
  Te  Te128  1  0.83721553  0.16284127  0.83280463  1
  Te  Te129  1  0.82888410  0.50007827  0.16712077  1
  Te  Te130  1  0.83236167  0.50009345  0.49762889  1
  Te  Te131  1  0.83435976  0.50012496  0.83260786  1
  Te  Te132  1  0.83773873  0.83698430  0.16067670  1
  Te  Te133  1  0.82945048  0.83256041  0.50219185  1
  Te  Te134  1  0.83371084  0.83641363  0.83669405  1
  Te  Te135  1  0.16900805  0.00078989  0.00039264  1
  Te  Te136  1  0.16872991  0.00489018  0.33290191  1
  Te  Te137  1  0.17220122  0.00420841  0.66716604  1
  Te  Te138  1  0.17011981  0.33107491  0.00299172  1
  Te  Te139  1  0.16703170  0.32806129  0.32829336  1
  Te  Te140  1  0.17216362  0.32841909  0.66657759  1
  Te  Te141  1  0.17210347  0.66881111  -0.00436600  1
  Te  Te142  1  0.16683359  0.66617670  0.33259086  1
  Te  Te143  1  0.16955818  0.66707756  0.67130417  1
  Te  Te144  1  0.50775795  0.00007771  -0.00148804  1
  Te  Te145  1  0.50026678  0.00422452  0.33431442  1
  Te  Te146  1  0.49897424  -0.00031978  0.66653400  1
  Te  Te147  1  0.49991583  0.33274744  0.00408912  1
  Te  Te148  1  0.50518118  0.32819570  0.32915276  1
  Te  Te149  1  0.49470979  0.32530202  0.66699981  1
  Te  Te150  1  0.49359182  0.66705356  0.00001297  1
  Te  Te151  1  0.49749911  0.66660611  0.33174995  1
  Te  Te152  1  0.49834662  0.66718445  0.66740222  1
  Te  Te153  1  0.82889963  -0.00065406  -0.00136144  1
  Te  Te154  1  0.83147570  0.00165175  0.33331864  1
  Te  Te155  1  0.83263028  0.00517478  0.66959325  1
  Te  Te156  1  0.82868415  0.33555341  -0.00396289  1
  Te  Te157  1  0.82784821  0.33240276  0.33320879  1
  Te  Te158  1  0.83154837  0.32614208  0.67326972  1
  Te  Te159  1  0.83299246  0.66781264  -0.00429425  1
  Te  Te160  1  0.83577687  0.66457459  0.33294692  1
  Te  Te161  1  0.83140077  0.66702182  0.67356882  1
  Te  Te162  1  0.00591649  0.16529934  -0.00073406  1
  Te  Te163  1  -0.00006112  0.16394019  0.33396236  1
  Te  Te164  1  -0.00057486  0.16596149  0.66849672  1
  Te  Te165  1  -0.00747194  0.50047219  -0.00499503  1
  Te  Te166  1  -0.00563781  0.50197387  0.33380355  1
  Te  Te167  1  0.00478970  0.49975451  0.66901030  1
  Te  Te168  1  0.00034608  0.83343455  -0.00185483  1
  Te  Te169  1  0.00149955  0.83396134  0.33271224  1
  Te  Te170  1  0.00451442  0.83436979  0.67187961  1
  Te  Te171  1  0.32772396  0.16909709  -0.00045741  1
  Te  Te172  1  0.33241080  0.16644493  0.33743758  1
  Te  Te173  1  0.33339227  0.16676149  0.66561337  1
  Te  Te174  1  0.33263306  0.49985319  -0.00547113  1
  Te  Te175  1  0.33193666  0.50324794  0.33425289  1
  Te  Te176  1  0.32974108  0.49502552  0.67013678  1
  Te  Te177  1  0.33036883  0.83116615  -0.00329984  1
  Te  Te178  1  0.33177994  0.83385865  0.33379743  1
  Te  Te179  1  0.33451112  0.83592029  0.66766967  1
  Te  Te180  1  0.66527306  0.16879313  0.00102936  1
  Te  Te181  1  0.66905941  0.16662910  0.33390911  1
  Te  Te182  1  0.66998327  0.16889848  0.66454633  1
  Te  Te183  1  0.67081040  0.49818192  -0.00214416  1
  Te  Te184  1  0.67076202  0.49881423  0.33299358  1
  Te  Te185  1  0.66730131  0.50315887  0.66741872  1
  Te  Te186  1  0.67181051  0.83752500  0.00050841  1
  Te  Te187  1  0.66720264  0.83810576  0.33758779  1
  Te  Te188  1  0.66507597  0.82846123  0.66195009  1
  Te  Te189  1  -0.00430387  -0.00009019  0.16954980  1
  Te  Te190  1  -0.00205886  -0.00173966  0.49163343  1
  Te  Te191  1  -0.00415367  -0.00062634  0.83221299  1
  Te  Te192  1  0.00354551  0.32804809  0.16599402  1
  Te  Te193  1  -0.00051262  0.34281290  0.50028860  1
  Te  Te194  1  -0.00543144  0.33123776  0.83329494  1
  Te  Te195  1  0.00063567  0.66996132  0.17185377  1
  Te  Te196  1  -0.00063739  0.66338939  0.49522465  1
  Te  Te197  1  -0.00474621  0.66789940  0.83379726  1
  Te  Te198  1  0.33460518  -0.00087200  0.17290342  1
  Te  Te199  1  0.33773026  -0.00140134  0.50030538  1
  Te  Te200  1  0.33835385  -0.00334591  0.83081021  1
  Te  Te201  1  0.33634412  0.33454763  0.16262510  1
  Te  Te202  1  0.33418260  0.33222747  0.50495783  1
  Te  Te203  1  0.33348993  0.33441460  0.83502629  1
  Te  Te204  1  0.33811671  0.66586333  0.17507336  1
  Te  Te205  1  0.33860502  0.66868991  0.49800803  1
  Te  Te206  1  0.33226920  0.66676482  0.82956231  1
  Te  Te207  1  0.67216636  -0.00075158  0.16807483  1
  Te  Te208  1  0.65914782  -0.00309298  0.49603260  1
  Te  Te209  1  0.66680429  -0.00022069  0.83507446  1
  Te  Te210  1  0.66520554  0.33642746  0.16540577  1
  Te  Te211  1  0.66607932  0.34116910  0.49518539  1
  Te  Te212  1  0.66892503  0.33902564  0.83620574  1
  Te  Te213  1  0.66118847  0.66204541  0.16618338  1
  Te  Te214  1  0.66180371  0.66659692  0.50391699  1
  Te  Te215  1  0.66969234  0.66288346  0.83009936  1
