# generated using pymatgen
data_AgSbTe2
_symmetry_space_group_name_H-M   'P 1'
_cell_length_a   18.33435969
_cell_length_b   18.34121875
_cell_length_c   18.33863047
_cell_angle_alpha   89.99983144
_cell_angle_beta   89.99644275
_cell_angle_gamma   89.99800365
_symmetry_Int_Tables_number   1
_chemical_formula_structural   AgSbTe2
_chemical_formula_sum   'Ag54 Sb54 Te108'
_cell_volume   6166.81380873
_cell_formula_units_Z   54
loop_
 _symmetry_equiv_pos_site_id
 _symmetry_equiv_pos_as_xyz
  1  'x, y, z'
loop_
 _atom_site_type_symbol
 _atom_site_label
 _atom_site_symmetry_multiplicity
 _atom_site_fract_x
 _atom_site_fract_y
 _atom_site_fract_z
 _atom_site_occupancy
  Ag  Ag0  1  0.33756707  0.50387779  0.15679154  1
  Ag  Ag1  1  0.16726593  0.16013065  0.33585173  1
  Ag  Ag2  1  0.33280401  0.17047667  0.49976969  1
  Ag  Ag3  1  0.00947229  0.82768812  0.83047623  1
  Ag  Ag4  1  0.65743890  0.83424160  0.15869379  1
  Ag  Ag5  1  0.32691583  0.34583414  0.67076569  1
  Ag  Ag6  1  0.00085350  -0.00261422  -0.00945389  1
  Ag  Ag7  1  0.66217878  0.33640267  0.00183202  1
  Ag  Ag8  1  0.33657070  0.83183019  0.15820445  1
  Ag  Ag9  1  0.32599354  0.66131523  0.67028745  1
  Ag  Ag10  1  0.00683376  0.66663593  0.34232431  1
  Ag  Ag11  1  0.65948432  0.49616651  0.15384315  1
  Ag  Ag12  1  0.66578495  0.82933252  0.83641942  1
  Ag  Ag13  1  0.49355818  0.82739095  0.67268067  1
  Ag  Ag14  1  0.00296219  0.50484235  0.51404361  1
  Ag  Ag15  1  0.33449767  0.66121216  -0.01215029  1
  Ag  Ag16  1  0.17138463  -0.00116134  0.16613257  1
  Ag  Ag17  1  0.65995005  0.16927121  0.15741165  1
  Ag  Ag18  1  0.84227328  0.17119865  0.67214657  1
  Ag  Ag19  1  0.66965841  0.33378910  0.32515853  1
  Ag  Ag20  1  0.16400605  -0.00739115  0.82855728  1
  Ag  Ag21  1  0.16698406  0.67109574  0.82936994  1
  Ag  Ag22  1  0.00594713  -0.00470375  0.33557636  1
  Ag  Ag23  1  0.00548770  0.66112691  0.66876998  1
  Ag  Ag24  1  0.82202838  0.50534550  -0.00930526  1
  Ag  Ag25  1  0.49769501  0.66995563  0.50442383  1
  Ag  Ag26  1  0.32779881  0.82572421  0.83448235  1
  Ag  Ag27  1  0.66912875  0.50415114  0.83587641  1
  Ag  Ag28  1  0.16485282  0.16508808  0.66686873  1
  Ag  Ag29  1  0.66189970  0.83053673  0.50738428  1
  Ag  Ag30  1  0.84004125  0.66446648  0.83028367  1
  Ag  Ag31  1  0.66924999  0.17042950  0.84144003  1
  Ag  Ag32  1  0.48064682  0.50918793  0.67378057  1
  Ag  Ag33  1  0.16620238  0.50848203  0.66944922  1
  Ag  Ag34  1  0.50108522  0.50154624  -0.00577600  1
  Ag  Ag35  1  0.16607810  0.83524489  0.33550290  1
  Ag  Ag36  1  0.00351102  -0.00316965  0.66963941  1
  Ag  Ag37  1  0.50118644  0.83227524  -0.00408903  1
  Ag  Ag38  1  0.33451510  0.50774804  0.82923841  1
  Ag  Ag39  1  0.34154281  0.34311762  -0.00257485  1
  Ag  Ag40  1  0.82437106  0.82873410  -0.00463150  1
  Ag  Ag41  1  0.50438692  0.16686539  0.00169655  1
  Ag  Ag42  1  0.33249285  0.50249278  0.51483928  1
  Ag  Ag43  1  0.85137533  0.50304018  0.67351346  1
  Ag  Ag44  1  0.82180954  0.16774102  -0.00764650  1
  Ag  Ag45  1  0.33673691  0.16145495  0.16540465  1
  Ag  Ag46  1  0.00741421  0.34738057  0.66541687  1
  Ag  Ag47  1  -0.00432643  0.50869023  0.82534959  1
  Ag  Ag48  1  0.00112014  0.33705574  0.33955061  1
  Ag  Ag49  1  0.49837428  -0.00891910  0.50009040  1
  Ag  Ag50  1  0.16964482  0.82799640  0.67281822  1
  Ag  Ag51  1  0.49458792  -0.00223734  0.16599358  1
  Ag  Ag52  1  0.83439337  0.66584820  0.51059519  1
  Ag  Ag53  1  0.32831183  0.66610036  0.33624633  1
  Sb  Sb54  1  0.66520564  0.50442200  0.50448193  1
  Sb  Sb55  1  0.83010544  0.33363502  0.16463914  1
  Sb  Sb56  1  0.50003177  0.33745678  0.83484006  1
  Sb  Sb57  1  0.33691889  0.82820486  0.50278839  1
  Sb  Sb58  1  0.16940713  0.32895830  0.16721769  1
  Sb  Sb59  1  0.17001489  -0.00042575  0.50170947  1
  Sb  Sb60  1  0.83247278  0.66662614  0.16144574  1
  Sb  Sb61  1  0.00314191  0.83475935  0.16129326  1
  Sb  Sb62  1  0.33564853  0.16677561  0.83504363  1
  Sb  Sb63  1  0.66555332  0.66533286  0.66997140  1
  Sb  Sb64  1  0.50025193  0.32975701  0.16356273  1
  Sb  Sb65  1  0.49533462  0.83242696  0.33242580  1
  Sb  Sb66  1  0.33154904  0.33606443  0.33322985  1
  Sb  Sb67  1  0.17101673  0.67174449  0.16438888  1
  Sb  Sb68  1  0.83288900  0.34184103  0.83330722  1
  Sb  Sb69  1  0.66663744  0.33663595  0.67132194  1
  Sb  Sb70  1  0.32786627  -0.00488442  0.33186587  1
  Sb  Sb71  1  0.17326430  0.50087589  -0.00764630  1
  Sb  Sb72  1  0.33116118  -0.00254660  0.00235286  1
  Sb  Sb73  1  0.83419990  0.33959022  0.50334478  1
  Sb  Sb74  1  0.49837858  0.50090764  0.33124266  1
  Sb  Sb75  1  0.16939628  0.16407962  -0.00230130  1
  Sb  Sb76  1  -0.00415773  0.16527119  0.83002490  1
  Sb  Sb77  1  0.83767143  0.16778558  0.33347746  1
  Sb  Sb78  1  0.83167309  -0.00525577  0.50347991  1
  Sb  Sb79  1  -0.00209155  0.82722083  0.50624482  1
  Sb  Sb80  1  0.83363286  -0.00071560  0.16293159  1
  Sb  Sb81  1  0.16747365  0.33528211  0.82929333  1
  Sb  Sb82  1  0.65960429  0.66415926  -0.00313021  1
  Sb  Sb83  1  0.49558160  -0.00463216  0.83546222  1
  Sb  Sb84  1  0.66112405  0.16322293  0.50013833  1
  Sb  Sb85  1  0.83858594  -0.00491021  0.83420684  1
  Sb  Sb86  1  0.00135371  0.50153847  0.16372803  1
  Sb  Sb87  1  0.66997949  0.00200956  0.33018052  1
  Sb  Sb88  1  0.66801093  0.00071303  0.00022045  1
  Sb  Sb89  1  0.00117630  0.16400684  0.16729291  1
  Sb  Sb90  1  0.32875016  -0.00355358  0.66632364  1
  Sb  Sb91  1  0.00318058  0.66982021  -0.00698863  1
  Sb  Sb92  1  0.49648655  0.67034555  0.16752308  1
  Sb  Sb93  1  0.00482216  0.17032370  0.50267727  1
  Sb  Sb94  1  0.16840587  0.66718916  0.50772325  1
  Sb  Sb95  1  0.16766364  0.50295589  0.33791750  1
  Sb  Sb96  1  0.49879535  0.33746811  0.50253214  1
  Sb  Sb97  1  0.16707949  0.33392484  0.50285036  1
  Sb  Sb98  1  0.49440591  0.16545692  0.32774498  1
  Sb  Sb99  1  0.83486038  0.82747263  0.67363588  1
  Sb  Sb100  1  0.83772171  0.83113241  0.33019069  1
  Sb  Sb101  1  0.66595749  0.66438147  0.33394378  1
  Sb  Sb102  1  0.49596957  0.66704904  0.82862805  1
  Sb  Sb103  1  0.66936958  -0.00169425  0.66860118  1
  Sb  Sb104  1  -0.00272512  0.33278125  -0.00389764  1
  Sb  Sb105  1  0.17074303  0.83485017  -0.00482059  1
  Sb  Sb106  1  0.49692688  0.16557024  0.67087392  1
  Sb  Sb107  1  0.83425458  0.50167300  0.33426934  1
  Te  Te108  1  0.17017405  0.16130597  0.16775002  1
  Te  Te109  1  0.17284274  0.16559873  0.50124288  1
  Te  Te110  1  0.16726807  0.16045704  0.82894362  1
  Te  Te111  1  0.17280052  0.49955963  0.16583450  1
  Te  Te112  1  0.16763891  0.50053973  0.50488824  1
  Te  Te113  1  0.17048068  0.50108940  0.82922477  1
  Te  Te114  1  0.17088443  0.83828881  0.16862263  1
  Te  Te115  1  0.16669863  0.83427576  0.49746252  1
  Te  Te116  1  0.16804941  0.83286785  0.83199284  1
  Te  Te117  1  0.49885406  0.16137852  0.16305987  1
  Te  Te118  1  0.49420943  0.16393826  0.50050039  1
  Te  Te119  1  0.50544978  0.16309140  0.83990720  1
  Te  Te120  1  0.49983897  0.50209675  0.16319992  1
  Te  Te121  1  0.49639696  0.50485462  0.50407250  1
  Te  Te122  1  0.49945822  0.50219585  0.83266072  1
  Te  Te123  1  0.49703553  0.83599894  0.16595515  1
  Te  Te124  1  0.50170556  0.83211453  0.49977432  1
  Te  Te125  1  0.50181566  0.83280492  0.83361322  1
  Te  Te126  1  0.82689060  0.16576098  0.16366953  1
  Te  Te127  1  0.83107001  0.16465779  0.50569761  1
  Te  Te128  1  0.82942617  0.16357586  0.83298359  1
  Te  Te129  1  0.82798598  0.50132477  0.16038505  1
  Te  Te130  1  0.83527282  0.50643625  0.50410106  1
  Te  Te131  1  0.83223908  0.50279469  0.83225092  1
  Te  Te132  1  0.82954479  0.83295265  0.15831665  1
  Te  Te133  1  0.82631743  0.82720616  0.49936752  1
  Te  Te134  1  0.82824094  0.82980486  0.83666808  1
  Te  Te135  1  0.16035165  0.00087902  0.00290338  1
  Te  Te136  1  0.16409652  -0.00025888  0.33348101  1
  Te  Te137  1  0.16377703  -0.00117351  0.66733860  1
  Te  Te138  1  0.17146071  0.33186479  -0.00083018  1
  Te  Te139  1  0.16229084  0.32886282  0.33330664  1
  Te  Te140  1  0.16706665  0.32615810  0.66724453  1
  Te  Te141  1  0.17353254  0.66722120  -0.00673565  1
  Te  Te142  1  0.16690920  0.66914859  0.33207138  1
  Te  Te143  1  0.16582374  0.66925628  0.66934630  1
  Te  Te144  1  0.49866662  -0.00366789  0.00384973  1
  Te  Te145  1  0.50090553  -0.00005461  0.33227313  1
  Te  Te146  1  0.50075766  -0.00473986  0.66293093  1
  Te  Te147  1  0.50126504  0.33502470  0.00011187  1
  Te  Te148  1  0.50680351  0.33295525  0.33458985  1
  Te  Te149  1  0.49391660  0.33749302  0.66710243  1
  Te  Te150  1  0.49224092  0.66856319  0.00155780  1
  Te  Te151  1  0.49534851  0.66594045  0.34282646  1
  Te  Te152  1  0.49942697  0.66746457  0.66351510  1
  Te  Te153  1  0.84149996  0.00028169  0.00038423  1
  Te  Te154  1  0.84408875  0.00044871  0.33402891  1
  Te  Te155  1  0.83956054  0.00551434  0.66643787  1
  Te  Te156  1  0.82903088  0.33026726  -0.00028230  1
  Te  Te157  1  0.83613290  0.33347911  0.33435899  1
  Te  Te158  1  0.83666209  0.33221796  0.66669358  1
  Te  Te159  1  0.83585928  0.66634425  -0.00505954  1
  Te  Te160  1  0.83860932  0.66632648  0.33596492  1
  Te  Te161  1  0.83578563  0.66392351  0.66892452  1
  Te  Te162  1  -0.00442402  0.16528139  -0.00094063  1
  Te  Te163  1  0.00547196  0.16959564  0.33491528  1
  Te  Te164  1  0.00153630  0.16190359  0.66568424  1
  Te  Te165  1  -0.00444504  0.49808058  -0.00377587  1
  Te  Te166  1  0.00053538  0.50017464  0.33223803  1
  Te  Te167  1  0.00622515  0.50267942  0.66963963  1
  Te  Te168  1  -0.00182072  0.83597536  -0.00622873  1
  Te  Te169  1  0.00428433  0.83132396  0.33274308  1
  Te  Te170  1  0.00136271  0.83495066  0.67042752  1
  Te  Te171  1  0.33760545  0.16863962  0.00340247  1
  Te  Te172  1  0.32771680  0.16903726  0.33152587  1
  Te  Te173  1  0.33132696  0.16721545  0.66621345  1
  Te  Te174  1  0.33555269  0.50090427  -0.00213855  1
  Te  Te175  1  0.33255514  0.50393460  0.32778127  1
  Te  Te176  1  0.32652088  0.50136209  0.66986092  1
  Te  Te177  1  0.33661738  0.83246829  -0.00092349  1
  Te  Te178  1  0.32749373  0.82832222  0.33284635  1
  Te  Te179  1  0.33301145  0.83105669  0.66874784  1
  Te  Te180  1  0.66544884  0.16439504  0.00110077  1
  Te  Te181  1  0.66779375  0.17087982  0.32993919  1
  Te  Te182  1  0.66790550  0.16809027  0.67002138  1
  Te  Te183  1  0.66405379  0.50133893  -0.00260258  1
  Te  Te184  1  0.66695314  0.49515259  0.33104015  1
  Te  Te185  1  0.66746342  0.49752068  0.67292118  1
  Te  Te186  1  0.66425647  0.83247202  -0.00037198  1
  Te  Te187  1  0.66844838  0.83311115  0.32793085  1
  Te  Te188  1  0.66395935  0.83264190  0.66830009  1
  Te  Te189  1  0.00563768  -0.00041072  0.17212755  1
  Te  Te190  1  -0.00040404  -0.00058041  0.49926506  1
  Te  Te191  1  0.00394530  -0.00098502  0.83169076  1
  Te  Te192  1  0.00068157  0.33337891  0.17141339  1
  Te  Te193  1  -0.00065766  0.34004439  0.50209060  1
  Te  Te194  1  0.00075973  0.34049917  0.82736939  1
  Te  Te195  1  0.00098659  0.66695688  0.17546819  1
  Te  Te196  1  -0.00209355  0.66419431  0.50245596  1
  Te  Te197  1  0.00250515  0.66796027  0.83239540  1
  Te  Te198  1  0.33316338  0.00021029  0.16749702  1
  Te  Te199  1  0.33883667  0.00464978  0.49856264  1
  Te  Te200  1  0.32625179  -0.00423756  0.83435428  1
  Te  Te201  1  0.33377370  0.33514931  0.16379192  1
  Te  Te202  1  0.33431777  0.33614339  0.50248013  1
  Te  Te203  1  0.33359208  0.33460058  0.83419867  1
  Te  Te204  1  0.33314819  0.66837552  0.17148154  1
  Te  Te205  1  0.33487900  0.66386234  0.50275066  1
  Te  Te206  1  0.33314413  0.66789559  0.83008808  1
  Te  Te207  1  0.66279432  -0.00190576  0.16769177  1
  Te  Te208  1  0.66092290  -0.00619537  0.49798592  1
  Te  Te209  1  0.66618072  -0.00531922  0.83311772  1
  Te  Te210  1  0.66566034  0.33433924  0.16312335  1
  Te  Te211  1  0.66670850  0.33300242  0.49412774  1
  Te  Te212  1  0.66647857  0.33165584  0.83934079  1
  Te  Te213  1  0.66601202  0.66859741  0.16858247  1
  Te  Te214  1  0.66731833  0.67075270  0.49856756  1
  Te  Te215  1  0.67482888  0.66670447  0.83403505  1
