# generated using pymatgen
data_AgSbTe2
_symmetry_space_group_name_H-M   'P 1'
_cell_length_a   18.33452864
_cell_length_b   18.33401041
_cell_length_c   18.33431455
_cell_angle_alpha   89.99999949
_cell_angle_beta   89.99644577
_cell_angle_gamma   89.99859444
_symmetry_Int_Tables_number   1
_chemical_formula_structural   AgSbTe2
_chemical_formula_sum   'Ag54 Sb54 Te108'
_cell_volume   6162.99619795
_cell_formula_units_Z   54
loop_
 _symmetry_equiv_pos_site_id
 _symmetry_equiv_pos_as_xyz
  1  'x, y, z'
loop_
 _atom_site_type_symbol
 _atom_site_label
 _atom_site_symmetry_multiplicity
 _atom_site_fract_x
 _atom_site_fract_y
 _atom_site_fract_z
 _atom_site_occupancy
  Ag  Ag0  1  0.66772669  0.66425558  0.34010564  1
  Ag  Ag1  1  0.49753226  0.32632496  0.84468003  1
  Ag  Ag2  1  0.50235720  0.16027969  0.00258962  1
  Ag  Ag3  1  0.66410530  -0.00537179  -0.00396793  1
  Ag  Ag4  1  0.82516313  0.66818864  0.50403368  1
  Ag  Ag5  1  0.50577007  0.51142292  0.66724367  1
  Ag  Ag6  1  0.50775648  0.66621171  0.16753408  1
  Ag  Ag7  1  0.16914706  0.16496604  0.32311886  1
  Ag  Ag8  1  0.50517609  0.84150368  -0.00122403  1
  Ag  Ag9  1  0.83465995  0.66957893  0.82604461  1
  Ag  Ag10  1  0.66817546  0.33178356  0.00648321  1
  Ag  Ag11  1  0.66353347  0.82501563  0.15800136  1
  Ag  Ag12  1  0.83611715  0.16001672  0.67327438  1
  Ag  Ag13  1  0.66747591  0.34193480  0.32423989  1
  Ag  Ag14  1  0.82537137  0.82903907  0.33302553  1
  Ag  Ag15  1  -0.01247108  0.67264669  0.66697912  1
  Ag  Ag16  1  0.66911227  0.51439114  0.49087815  1
  Ag  Ag17  1  0.16583895  0.83674196  0.32779532  1
  Ag  Ag18  1  -0.00153875  0.16527711  0.50557152  1
  Ag  Ag19  1  0.66876973  0.82668291  0.50359281  1
  Ag  Ag20  1  0.67035522  0.67352934  0.65352836  1
  Ag  Ag21  1  0.82817057  0.83089664  0.66812860  1
  Ag  Ag22  1  0.83800721  0.16346138  -0.00253711  1
  Ag  Ag23  1  0.33181154  -0.00238075  -0.00123102  1
  Ag  Ag24  1  0.33392680  0.16792576  0.16376494  1
  Ag  Ag25  1  0.16903163  0.32669110  0.84386544  1
  Ag  Ag26  1  0.16661337  -0.00115134  0.83777392  1
  Ag  Ag27  1  0.00467569  0.32627236  0.00135558  1
  Ag  Ag28  1  0.67322595  -0.01024160  0.67181878  1
  Ag  Ag29  1  0.83144749  0.33731622  0.49216665  1
  Ag  Ag30  1  0.50471584  0.33390409  0.16251055  1
  Ag  Ag31  1  0.50967854  0.83031415  0.67381388  1
  Ag  Ag32  1  0.34149321  0.32986111  0.32838122  1
  Ag  Ag33  1  0.00663936  0.00503238  -0.00614716  1
  Ag  Ag34  1  0.16780210  0.33148318  0.16238549  1
  Ag  Ag35  1  0.16140432  0.67576785  0.83533336  1
  Ag  Ag36  1  0.33885860  0.83651856  0.15974878  1
  Ag  Ag37  1  0.66838966  0.50377277  0.16934107  1
  Ag  Ag38  1  0.66801225  0.67641314  0.00329101  1
  Ag  Ag39  1  0.16965576  0.83915026  0.00078985  1
  Ag  Ag40  1  0.16078106  0.16636754  0.00152210  1
  Ag  Ag41  1  -0.00983096  0.49679671  0.16449820  1
  Ag  Ag42  1  0.00150089  0.16570397  0.83771481  1
  Ag  Ag43  1  0.16288986  -0.00483044  0.50392014  1
  Ag  Ag44  1  0.49764344  -0.00084406  0.83898682  1
  Ag  Ag45  1  -0.00549131  -0.00165172  0.67332083  1
  Ag  Ag46  1  0.49681018  0.17117810  0.32117282  1
  Ag  Ag47  1  0.33257033  0.83534027  0.84205650  1
  Ag  Ag48  1  0.16279850  0.67168208  0.50232196  1
  Ag  Ag49  1  0.82311590  0.83707646  0.00053381  1
  Ag  Ag50  1  0.82286548  0.33534539  0.16603797  1
  Ag  Ag51  1  0.51312393  0.66868205  0.49855719  1
  Ag  Ag52  1  0.16335847  0.48483230  0.00091166  1
  Ag  Ag53  1  0.82771580  0.50354565  0.33226410  1
  Sb  Sb54  1  -0.00319266  0.66893841  -0.00415534  1
  Sb  Sb55  1  0.00243206  0.00163670  0.33265170  1
  Sb  Sb56  1  0.16814143  0.50371466  0.67170749  1
  Sb  Sb57  1  0.15975062  0.33168728  0.49642212  1
  Sb  Sb58  1  -0.00258664  0.33143445  0.67200117  1
  Sb  Sb59  1  -0.00187118  0.82867821  0.16406819  1
  Sb  Sb60  1  0.33235465  -0.00167423  0.67418029  1
  Sb  Sb61  1  0.16492558  0.83296493  0.66819715  1
  Sb  Sb62  1  0.82643256  0.66411939  0.16848166  1
  Sb  Sb63  1  0.00101682  0.49759215  0.83838744  1
  Sb  Sb64  1  0.33971728  0.50142604  0.49838831  1
  Sb  Sb65  1  0.50849069  0.16172728  0.67351318  1
  Sb  Sb66  1  0.67193252  0.16534366  0.83854963  1
  Sb  Sb67  1  0.82784920  0.50570290  0.66106667  1
  Sb  Sb68  1  0.50768758  0.33746655  0.49600594  1
  Sb  Sb69  1  0.32888185  0.16218566  0.84171081  1
  Sb  Sb70  1  0.83373249  0.16760264  0.33007811  1
  Sb  Sb71  1  0.50305272  0.67136993  0.83396361  1
  Sb  Sb72  1  0.50241362  0.83576782  0.32761912  1
  Sb  Sb73  1  -0.00710806  0.49849640  0.49684241  1
  Sb  Sb74  1  0.33344470  0.50372219  0.83606879  1
  Sb  Sb75  1  0.49883011  0.49922413  -0.00188695  1
  Sb  Sb76  1  0.32902804  0.16574145  0.49089110  1
  Sb  Sb77  1  0.00378710  0.83866883  0.83396307  1
  Sb  Sb78  1  0.83666846  -0.00314144  0.50388906  1
  Sb  Sb79  1  0.66176925  0.17032645  0.16397701  1
  Sb  Sb80  1  0.33754838  0.67626682  0.00006643  1
  Sb  Sb81  1  0.50790908  0.49734732  0.33354027  1
  Sb  Sb82  1  0.33758067  0.49739074  0.16574756  1
  Sb  Sb83  1  0.49791002  -0.00461327  0.50640866  1
  Sb  Sb84  1  -0.00696653  0.66780223  0.33762169  1
  Sb  Sb85  1  0.33201787  0.00230152  0.32630565  1
  Sb  Sb86  1  0.66819838  0.33479089  0.66784471  1
  Sb  Sb87  1  0.33545049  0.83340970  0.49817137  1
  Sb  Sb88  1  0.83163070  0.00322108  0.16099162  1
  Sb  Sb89  1  0.17085454  0.66535400  0.16224640  1
  Sb  Sb90  1  0.16109531  0.49979297  0.32825095  1
  Sb  Sb91  1  0.16014904  0.16445738  0.67148618  1
  Sb  Sb92  1  0.16725035  0.00382482  0.15907060  1
  Sb  Sb93  1  0.83500327  -0.00606503  0.83412332  1
  Sb  Sb94  1  0.66589797  -0.00336283  0.33116321  1
  Sb  Sb95  1  0.33814926  0.66962932  0.66731368  1
  Sb  Sb96  1  0.33768427  0.66450982  0.33146357  1
  Sb  Sb97  1  0.50019543  0.00101265  0.15838397  1
  Sb  Sb98  1  0.83278487  0.33464020  0.83883907  1
  Sb  Sb99  1  0.67068020  0.16433372  0.49932619  1
  Sb  Sb100  1  0.66321693  0.83366026  0.83336266  1
  Sb  Sb101  1  0.00384845  0.17176139  0.16089918  1
  Sb  Sb102  1  0.33557435  0.33130708  0.66531968  1
  Sb  Sb103  1  -0.00464060  0.83527714  0.50164343  1
  Sb  Sb104  1  -0.00411285  0.33183541  0.32467299  1
  Sb  Sb105  1  0.83397839  0.50016051  0.00557782  1
  Sb  Sb106  1  0.33268919  0.32628664  0.00523930  1
  Sb  Sb107  1  0.66642274  0.50138966  0.83660305  1
  Te  Te108  1  0.16947668  0.16966678  0.16477901  1
  Te  Te109  1  0.16167222  0.16614704  0.50075986  1
  Te  Te110  1  0.16392682  0.16560658  0.83762222  1
  Te  Te111  1  0.16863447  0.49641068  0.16237152  1
  Te  Te112  1  0.16604928  0.50312546  0.49980031  1
  Te  Te113  1  0.16720312  0.49723470  0.83938124  1
  Te  Te114  1  0.16644780  0.83231544  0.16687346  1
  Te  Te115  1  0.16723604  0.83330404  0.50040484  1
  Te  Te116  1  0.17019982  0.83576071  0.83354296  1
  Te  Te117  1  0.49674427  0.16944728  0.16378711  1
  Te  Te118  1  0.49882150  0.16639538  0.50034848  1
  Te  Te119  1  0.49856993  0.16597555  0.83883834  1
  Te  Te120  1  0.50457506  0.50006394  0.16610406  1
  Te  Te121  1  0.50634018  0.50578527  0.50378115  1
  Te  Te122  1  0.49887471  0.49615477  0.82913344  1
  Te  Te123  1  0.50092071  0.83227946  0.16403538  1
  Te  Te124  1  0.50354217  0.82937646  0.49931913  1
  Te  Te125  1  0.49447687  0.83361104  0.83786251  1
  Te  Te126  1  0.83455281  0.17394123  0.16114711  1
  Te  Te127  1  0.83744988  0.16746326  0.49794245  1
  Te  Te128  1  0.83928058  0.16839132  0.83694049  1
  Te  Te129  1  0.82983467  0.49654802  0.17039503  1
  Te  Te130  1  0.82897630  0.50065023  0.49499550  1
  Te  Te131  1  0.83407413  0.50735016  0.83275979  1
  Te  Te132  1  0.83068551  0.83354840  0.16436807  1
  Te  Te133  1  0.83015379  0.83064531  0.49994473  1
  Te  Te134  1  0.83688856  0.82818288  0.83590113  1
  Te  Te135  1  0.16620360  0.00068666  -0.00214388  1
  Te  Te136  1  0.16664509  -0.00000877  0.33792888  1
  Te  Te137  1  0.16131086  -0.00075525  0.66951943  1
  Te  Te138  1  0.16972428  0.32820860  0.00131077  1
  Te  Te139  1  0.16503002  0.33030458  0.33002684  1
  Te  Te140  1  0.16708088  0.33494497  0.67175840  1
  Te  Te141  1  0.16522270  0.67766807  -0.00399594  1
  Te  Te142  1  0.16714273  0.66971046  0.33357521  1
  Te  Te143  1  0.16680737  0.66650335  0.66915928  1
  Te  Te144  1  0.50304905  0.00039441  -0.00302686  1
  Te  Te145  1  0.49927891  0.00982924  0.33726410  1
  Te  Te146  1  0.50385725  -0.00573204  0.67347300  1
  Te  Te147  1  0.49842797  0.33417787  0.00200221  1
  Te  Te148  1  0.50390912  0.33115577  0.33146196  1
  Te  Te149  1  0.50062632  0.33153534  0.66824704  1
  Te  Te150  1  0.50527667  0.66657485  0.00222867  1
  Te  Te151  1  0.50452408  0.66730749  0.33419968  1
  Te  Te152  1  0.50434479  0.67051497  0.66622714  1
  Te  Te153  1  0.82810127  0.00000236  -0.00199378  1
  Te  Te154  1  0.83404590  -0.00773905  0.33254411  1
  Te  Te155  1  0.83394800  -0.00159833  0.66817836  1
  Te  Te156  1  0.83075742  0.33292094  0.00173829  1
  Te  Te157  1  0.82926415  0.33179813  0.33083110  1
  Te  Te158  1  0.83337896  0.32924979  0.66769162  1
  Te  Te159  1  0.83096909  0.66970412  -0.00102850  1
  Te  Te160  1  0.82891704  0.66943693  0.33587768  1
  Te  Te161  1  0.83016872  0.66870728  0.66518566  1
  Te  Te162  1  -0.00019102  0.16655175  -0.00013974  1
  Te  Te163  1  0.00553169  0.16585036  0.33793965  1
  Te  Te164  1  -0.00480612  0.16436217  0.66725477  1
  Te  Te165  1  0.00323785  0.49780470  0.00488019  1
  Te  Te166  1  -0.00810657  0.50003833  0.32694071  1
  Te  Te167  1  -0.00029400  0.50597801  0.66568242  1
  Te  Te168  1  0.00325528  0.83783468  0.00065682  1
  Te  Te169  1  0.00456897  0.83405559  0.33239292  1
  Te  Te170  1  -0.00463942  0.83374189  0.66694471  1
  Te  Te171  1  0.33652815  0.16029470  0.00421487  1
  Te  Te172  1  0.33059263  0.16893226  0.32597677  1
  Te  Te173  1  0.33543234  0.16525803  0.66520805  1
  Te  Te174  1  0.32333346  0.50394884  0.00109281  1
  Te  Te175  1  0.33141722  0.49176414  0.33311881  1
  Te  Te176  1  0.34335874  0.49961050  0.66631202  1
  Te  Te177  1  0.33200719  0.83692459  0.00210416  1
  Te  Te178  1  0.32937413  0.83353090  0.32876747  1
  Te  Te179  1  0.34165911  0.83496988  0.66723764  1
  Te  Te180  1  0.66470119  0.16956723  0.00118607  1
  Te  Te181  1  0.66378830  0.16690501  0.33209359  1
  Te  Te182  1  0.67580779  0.16354324  0.66753890  1
  Te  Te183  1  0.66601261  0.49291720  0.00500385  1
  Te  Te184  1  0.66882679  0.50094376  0.33223865  1
  Te  Te185  1  0.66377678  0.50277300  0.66508239  1
  Te  Te186  1  0.66580277  0.83413920  -0.00203345  1
  Te  Te187  1  0.66681370  0.83183603  0.33465135  1
  Te  Te188  1  0.66784785  0.83218640  0.66928663  1
  Te  Te189  1  -0.00096781  -0.00100167  0.15786068  1
  Te  Te190  1  0.00390905  0.00313422  0.50253979  1
  Te  Te191  1  0.00160281  0.00460529  0.83304249  1
  Te  Te192  1  0.00468398  0.33701662  0.16048318  1
  Te  Te193  1  -0.00682228  0.33004607  0.50193738  1
  Te  Te194  1  0.00302478  0.32931142  0.83928773  1
  Te  Te195  1  0.00096014  0.65829647  0.16641896  1
  Te  Te196  1  0.00301332  0.66616646  0.50464593  1
  Te  Te197  1  0.00083190  0.66465289  0.82876268  1
  Te  Te198  1  0.33363178  -0.00192198  0.15995865  1
  Te  Te199  1  0.32437769  -0.00020603  0.50124190  1
  Te  Te200  1  0.33185982  -0.00356138  0.83830792  1
  Te  Te201  1  0.33544261  0.33157474  0.17017655  1
  Te  Te202  1  0.33282128  0.33361209  0.49225626  1
  Te  Te203  1  0.33340159  0.33348170  0.83270627  1
  Te  Te204  1  0.34295691  0.67083662  0.16754823  1
  Te  Te205  1  0.32365860  0.66647980  0.49916649  1
  Te  Te206  1  0.32555335  0.67232801  0.83311352  1
  Te  Te207  1  0.66691284  -0.01027443  0.16247889  1
  Te  Te208  1  0.66637013  -0.00443438  0.50437950  1
  Te  Te209  1  0.66197616  0.00139096  0.83368111  1
  Te  Te210  1  0.66413627  0.33226944  0.16672605  1
  Te  Te211  1  0.67320417  0.33206453  0.49918063  1
  Te  Te212  1  0.66086717  0.33337559  0.83817909  1
  Te  Te213  1  0.66548933  0.66568270  0.16316400  1
  Te  Te214  1  0.66892919  0.66960176  0.49762626  1
  Te  Te215  1  0.66979130  0.66523049  0.84195146  1
