# generated using pymatgen
data_AgSbTe2
_symmetry_space_group_name_H-M   'P 1'
_cell_length_a   18.35645972
_cell_length_b   18.34845824
_cell_length_c   18.35506359
_cell_angle_alpha   90.00223949
_cell_angle_beta   89.99958131
_cell_angle_gamma   90.00185580
_symmetry_Int_Tables_number   1
_chemical_formula_structural   AgSbTe2
_chemical_formula_sum   'Ag54 Sb54 Te108'
_cell_volume   6182.21915309
_cell_formula_units_Z   54
loop_
 _symmetry_equiv_pos_site_id
 _symmetry_equiv_pos_as_xyz
  1  'x, y, z'
loop_
 _atom_site_type_symbol
 _atom_site_label
 _atom_site_symmetry_multiplicity
 _atom_site_fract_x
 _atom_site_fract_y
 _atom_site_fract_z
 _atom_site_occupancy
  Ag  Ag0  1  0.66070717  0.33199063  0.34641606  1
  Ag  Ag1  1  0.17399161  0.31819762  0.51003052  1
  Ag  Ag2  1  0.66442189  0.49223815  0.50129228  1
  Ag  Ag3  1  0.32629010  0.66016236  0.66635321  1
  Ag  Ag4  1  0.51158742  0.83356228  -0.00376450  1
  Ag  Ag5  1  0.32890003  0.49293973  0.82369192  1
  Ag  Ag6  1  0.16575697  0.83583530  -0.01621555  1
  Ag  Ag7  1  0.00705478  0.83727132  0.50258819  1
  Ag  Ag8  1  0.00267177  0.66948945  0.33849909  1
  Ag  Ag9  1  0.32715332  0.00963439  0.33729365  1
  Ag  Ag10  1  0.16372650  0.67845742  0.83204313  1
  Ag  Ag11  1  0.00979564  0.16379626  0.49930681  1
  Ag  Ag12  1  0.32569243  0.49404989  0.50391892  1
  Ag  Ag13  1  0.83532156  0.33828980  0.82956757  1
  Ag  Ag14  1  0.49631743  0.33108380  0.16043341  1
  Ag  Ag15  1  0.16725950  0.84051190  0.34222880  1
  Ag  Ag16  1  0.32395522  0.83377892  0.50838776  1
  Ag  Ag17  1  0.67394009  0.83364218  0.15226362  1
  Ag  Ag18  1  0.32293363  0.17544267  0.49813385  1
  Ag  Ag19  1  0.83217487  0.66830635  0.82888528  1
  Ag  Ag20  1  0.66964343  0.17363843  0.50877844  1
  Ag  Ag21  1  0.83858451  0.17206013  0.66475887  1
  Ag  Ag22  1  0.49427399  -0.00177808  0.83555749  1
  Ag  Ag23  1  0.66652905  0.66495539  0.66583580  1
  Ag  Ag24  1  0.01141455  0.33031219  0.66909208  1
  Ag  Ag25  1  0.17059399  0.33159164  0.82242408  1
  Ag  Ag26  1  0.16981162  -0.00542601  0.82811217  1
  Ag  Ag27  1  0.32975518  0.33043742  0.34305908  1
  Ag  Ag28  1  0.84650914  -0.00222294  0.50054782  1
  Ag  Ag29  1  0.66779781  0.67659528  -0.01596533  1
  Ag  Ag30  1  0.48948307  0.32869552  0.83304203  1
  Ag  Ag31  1  0.66642870  0.83740633  0.83672876  1
  Ag  Ag32  1  0.01126925  0.32957393  -0.01267246  1
  Ag  Ag33  1  0.00655285  0.16373761  0.17509947  1
  Ag  Ag34  1  0.16760208  -0.00062141  0.17920668  1
  Ag  Ag35  1  0.32360226  0.16945282  0.17727804  1
  Ag  Ag36  1  0.00983867  0.83186212  0.83420404  1
  Ag  Ag37  1  0.82478874  0.83320009  -0.00605650  1
  Ag  Ag38  1  0.32553889  0.33821899  0.66623178  1
  Ag  Ag39  1  0.84119078  0.49894879  0.33807381  1
  Ag  Ag40  1  0.16643263  0.83340425  0.66597426  1
  Ag  Ag41  1  0.16830580  0.16425137  0.34583688  1
  Ag  Ag42  1  0.16591877  0.49285106  0.34249741  1
  Ag  Ag43  1  0.66725005  -0.00999139  -0.00543576  1
  Ag  Ag44  1  0.00400116  0.83701152  0.16036298  1
  Ag  Ag45  1  0.16995767  0.49164841  0.66214230  1
  Ag  Ag46  1  0.32928234  0.33286073  -0.01551887  1
  Ag  Ag47  1  0.66832847  0.16506692  0.82696743  1
  Ag  Ag48  1  0.83210523  0.66912622  0.50726767  1
  Ag  Ag49  1  0.66682467  0.33469972  0.66650375  1
  Ag  Ag50  1  0.16680824  0.00333087  0.50125589  1
  Ag  Ag51  1  0.16392438  0.17695456  0.66058815  1
  Ag  Ag52  1  0.32501212  0.83192193  0.82916694  1
  Ag  Ag53  1  0.49903216  0.66727843  0.50120443  1
  Sb  Sb54  1  0.00330819  0.66483059  0.66498957  1
  Sb  Sb55  1  0.66437474  0.33394800  -0.00746798  1
  Sb  Sb56  1  0.49664460  0.16934949  0.66649817  1
  Sb  Sb57  1  0.50172915  0.66583827  0.16870176  1
  Sb  Sb58  1  -0.00090465  0.16629341  0.82839903  1
  Sb  Sb59  1  0.33617119  0.66748205  -0.00925608  1
  Sb  Sb60  1  0.00570968  0.49950695  0.83163299  1
  Sb  Sb61  1  0.00371825  0.33444576  0.33758775  1
  Sb  Sb62  1  0.49541633  0.83104180  0.67156157  1
  Sb  Sb63  1  0.33176813  0.49122825  0.17041506  1
  Sb  Sb64  1  0.17011142  0.32630527  0.17015951  1
  Sb  Sb65  1  0.49868252  0.16512266  -0.00215312  1
  Sb  Sb66  1  0.83949452  0.82989076  0.33293971  1
  Sb  Sb67  1  0.32820556  0.00177328  0.66340837  1
  Sb  Sb68  1  0.49322407  -0.00222097  0.50529884  1
  Sb  Sb69  1  0.66623049  0.50310380  0.17276596  1
  Sb  Sb70  1  0.00304785  0.00439070  0.66511596  1
  Sb  Sb71  1  0.49086272  0.16987704  0.33408761  1
  Sb  Sb72  1  0.49627559  0.49816941  0.33746513  1
  Sb  Sb73  1  0.66182561  0.49854686  0.82571600  1
  Sb  Sb74  1  0.00218914  0.49996938  0.16897899  1
  Sb  Sb75  1  0.49528366  0.83319252  0.33181440  1
  Sb  Sb76  1  0.83806583  0.16986537  0.34136640  1
  Sb  Sb77  1  0.16797056  0.50158933  -0.00307131  1
  Sb  Sb78  1  0.83703622  0.83559163  0.67006912  1
  Sb  Sb79  1  0.49235259  0.49979981  0.66525347  1
  Sb  Sb80  1  0.49944446  0.50204302  -0.00273155  1
  Sb  Sb81  1  -0.00293813  0.66922922  -0.00017116  1
  Sb  Sb82  1  0.83706819  -0.00162929  0.16991050  1
  Sb  Sb83  1  0.32618279  0.66346181  0.34350523  1
  Sb  Sb84  1  0.67235704  0.66351468  0.33971239  1
  Sb  Sb85  1  0.33378258  0.16738500  0.82905458  1
  Sb  Sb86  1  0.16626295  0.66993607  0.50660985  1
  Sb  Sb87  1  0.49654041  0.00277177  0.16183271  1
  Sb  Sb88  1  0.66699482  0.00072129  0.67088549  1
  Sb  Sb89  1  0.33259785  0.00212205  0.00086306  1
  Sb  Sb90  1  0.16674631  0.67510786  0.16420845  1
  Sb  Sb91  1  0.83348300  0.66882362  0.16623385  1
  Sb  Sb92  1  0.66770650  0.83342008  0.50304781  1
  Sb  Sb93  1  0.83404063  0.16389433  -0.00575341  1
  Sb  Sb94  1  0.00839620  -0.00545487  0.33478179  1
  Sb  Sb95  1  0.66741847  0.16491866  0.16632861  1
  Sb  Sb96  1  0.83517371  0.33298047  0.50481074  1
  Sb  Sb97  1  0.16669078  0.16416588  -0.00371216  1
  Sb  Sb98  1  0.83524368  -0.00233747  0.82965974  1
  Sb  Sb99  1  0.49559546  0.33536005  0.50440083  1
  Sb  Sb100  1  0.49966628  0.66930705  0.82830380  1
  Sb  Sb101  1  0.32783966  0.83839386  0.16435183  1
  Sb  Sb102  1  -0.00081550  -0.00026034  -0.00047496  1
  Sb  Sb103  1  0.83577669  0.49662920  0.66360389  1
  Sb  Sb104  1  0.00242751  0.50026806  0.50043960  1
  Sb  Sb105  1  0.66182380  0.00437026  0.33280265  1
  Sb  Sb106  1  0.83306210  0.50348040  0.00015300  1
  Sb  Sb107  1  0.83195553  0.33224029  0.16412894  1
  Te  Te108  1  0.16549627  0.16033685  0.16079754  1
  Te  Te109  1  0.16726906  0.16336758  0.50100804  1
  Te  Te110  1  0.16596067  0.17109277  0.82763621  1
  Te  Te111  1  0.16655028  0.50346393  0.17120745  1
  Te  Te112  1  0.16821834  0.50519037  0.50069095  1
  Te  Te113  1  0.17148328  0.48997974  0.83231459  1
  Te  Te114  1  0.16284013  0.83911188  0.17615609  1
  Te  Te115  1  0.16620600  0.82940157  0.50045782  1
  Te  Te116  1  0.16722184  0.83532754  0.82811166  1
  Te  Te117  1  0.49887732  0.17156066  0.16683881  1
  Te  Te118  1  0.50962260  0.16449372  0.49977748  1
  Te  Te119  1  0.50415486  0.16521142  0.83297917  1
  Te  Te120  1  0.50022806  0.49207370  0.16698130  1
  Te  Te121  1  0.50436822  0.50551750  0.49993250  1
  Te  Te122  1  0.49179248  0.49364100  0.83349766  1
  Te  Te123  1  0.49953548  0.83365341  0.16039828  1
  Te  Te124  1  0.49660736  0.82875081  0.49938908  1
  Te  Te125  1  0.50721676  0.83389910  0.83689664  1
  Te  Te126  1  0.84080799  0.16539744  0.16738641  1
  Te  Te127  1  0.82754037  0.16676457  0.50471045  1
  Te  Te128  1  0.83119106  0.16714977  0.82758682  1
  Te  Te129  1  0.83354314  0.50061332  0.17504992  1
  Te  Te130  1  0.83300535  0.50310829  0.49731379  1
  Te  Te131  1  0.83249825  0.50248936  0.83482424  1
  Te  Te132  1  0.83674968  0.83478475  0.16388782  1
  Te  Te133  1  0.83629271  0.83455391  0.50093177  1
  Te  Te134  1  0.82651455  0.83122928  0.83471180  1
  Te  Te135  1  0.16606649  -0.00380277  -0.00972977  1
  Te  Te136  1  0.16862503  0.00196055  0.33740666  1
  Te  Te137  1  0.16675338  -0.00586452  0.66623197  1
  Te  Te138  1  0.16900889  0.33362833  0.00301350  1
  Te  Te139  1  0.16896255  0.33265756  0.33426272  1
  Te  Te140  1  0.16866743  0.33477709  0.66492132  1
  Te  Te141  1  0.16658929  0.66972904  -0.00748062  1
  Te  Te142  1  0.16197272  0.66661488  0.32980709  1
  Te  Te143  1  0.16788376  0.67178700  0.67307519  1
  Te  Te144  1  0.50269218  -0.00424709  -0.00402163  1
  Te  Te145  1  0.48979407  -0.00027214  0.33178168  1
  Te  Te146  1  0.49866181  -0.00092779  0.67615176  1
  Te  Te147  1  0.49460212  0.33432418  -0.00312887  1
  Te  Te148  1  0.50100488  0.33393605  0.33342383  1
  Te  Te149  1  0.50838135  0.33417871  0.67283542  1
  Te  Te150  1  0.50533634  0.67219224  0.00122584  1
  Te  Te151  1  0.50001037  0.66558763  0.33898241  1
  Te  Te152  1  0.50378555  0.66617102  0.66135241  1
  Te  Te153  1  0.82885704  -0.00500896  0.00241355  1
  Te  Te154  1  0.82894375  0.00103887  0.34217535  1
  Te  Te155  1  0.83395752  0.00697782  0.65930623  1
  Te  Te156  1  0.83446995  0.33333167  -0.00612449  1
  Te  Te157  1  0.83137247  0.33807666  0.33176840  1
  Te  Te158  1  0.82538052  0.33152386  0.66947330  1
  Te  Te159  1  0.82959947  0.67064426  -0.00284382  1
  Te  Te160  1  0.83810147  0.66233510  0.33448088  1
  Te  Te161  1  0.83318689  0.66605835  0.66724413  1
  Te  Te162  1  -0.00168224  0.17166435  0.00106258  1
  Te  Te163  1  0.00572854  0.16730216  0.33646576  1
  Te  Te164  1  0.00026045  0.17022785  0.66261188  1
  Te  Te165  1  -0.00027996  0.49002861  0.00151015  1
  Te  Te166  1  0.00234046  0.50448542  0.33307229  1
  Te  Te167  1  0.00632357  0.49267167  0.66711646  1
  Te  Te168  1  0.00678081  0.83302957  -0.00144696  1
  Te  Te169  1  0.00189712  0.82966626  0.33745177  1
  Te  Te170  1  0.00273060  0.83174148  0.66694868  1
  Te  Te171  1  0.33388146  0.17272261  0.00197330  1
  Te  Te172  1  0.32918076  0.16939150  0.33684107  1
  Te  Te173  1  0.32908019  0.17177736  0.65991201  1
  Te  Te174  1  0.33364435  0.49514518  -0.00120222  1
  Te  Te175  1  0.32738093  0.49582909  0.34008278  1
  Te  Te176  1  0.33002232  0.50098665  0.66573765  1
  Te  Te177  1  0.32425300  0.83405377  -0.00561140  1
  Te  Te178  1  0.32832044  0.83144281  0.33284722  1
  Te  Te179  1  0.33182442  0.83504697  0.66811634  1
  Te  Te180  1  0.66686527  0.16373265  -0.00338207  1
  Te  Te181  1  0.66949758  0.17268420  0.33202128  1
  Te  Te182  1  0.66292182  0.16599281  0.66885586  1
  Te  Te183  1  0.66711039  0.50733991  0.00262487  1
  Te  Te184  1  0.66633970  0.49570182  0.33885574  1
  Te  Te185  1  0.67015815  0.50328029  0.66114841  1
  Te  Te186  1  0.66836883  0.83175647  -0.00256572  1
  Te  Te187  1  0.66497227  0.83414432  0.33267493  1
  Te  Te188  1  0.66670154  0.82905802  0.67132852  1
  Te  Te189  1  0.00408943  0.00021036  0.16648398  1
  Te  Te190  1  0.00325292  -0.00011371  0.49972326  1
  Te  Te191  1  0.00433511  -0.00614788  0.83363355  1
  Te  Te192  1  -0.00086164  0.32910460  0.16652993  1
  Te  Te193  1  0.00447205  0.32981953  0.50415937  1
  Te  Te194  1  -0.00250641  0.33298011  0.83042893  1
  Te  Te195  1  -0.00014070  0.67179018  0.16854612  1
  Te  Te196  1  -0.00625296  0.66790730  0.49904683  1
  Te  Te197  1  -0.00124275  0.67064236  0.83451581  1
  Te  Te198  1  0.32873355  0.00675691  0.16920516  1
  Te  Te199  1  0.33043776  -0.00489875  0.49681350  1
  Te  Te200  1  0.33335950  -0.00255912  0.83356643  1
  Te  Te201  1  0.33610281  0.32893897  0.17299315  1
  Te  Te202  1  0.33501176  0.33440165  0.50360868  1
  Te  Te203  1  0.33210967  0.32917005  0.82826628  1
  Te  Te204  1  0.33592856  0.66334581  0.16493493  1
  Te  Te205  1  0.33481597  0.66963233  0.50519358  1
  Te  Te206  1  0.33274070  0.67117691  0.82818433  1
  Te  Te207  1  0.66582562  -0.00484881  0.16391750  1
  Te  Te208  1  0.66194636  0.00322992  0.49880942  1
  Te  Te209  1  0.67158406  0.00129212  0.83629925  1
  Te  Te210  1  0.66192392  0.33350289  0.16328290  1
  Te  Te211  1  0.66565735  0.33424989  0.50303787  1
  Te  Te212  1  0.67215729  0.33208561  0.83012757  1
  Te  Te213  1  0.66596414  0.67356421  0.16986940  1
  Te  Te214  1  0.67138361  0.66735405  0.50348253  1
  Te  Te215  1  0.66672821  0.66340908  0.82824313  1
