# generated using pymatgen
data_AgSbTe2
_symmetry_space_group_name_H-M   'P 1'
_cell_length_a   18.33736218
_cell_length_b   18.33352784
_cell_length_c   18.33600121
_cell_angle_alpha   90.00296381
_cell_angle_beta   89.99972453
_cell_angle_gamma   89.99915659
_symmetry_Int_Tables_number   1
_chemical_formula_structural   AgSbTe2
_chemical_formula_sum   'Ag54 Sb54 Te108'
_cell_volume   6164.35346557
_cell_formula_units_Z   54
loop_
 _symmetry_equiv_pos_site_id
 _symmetry_equiv_pos_as_xyz
  1  'x, y, z'
loop_
 _atom_site_type_symbol
 _atom_site_label
 _atom_site_symmetry_multiplicity
 _atom_site_fract_x
 _atom_site_fract_y
 _atom_site_fract_z
 _atom_site_occupancy
  Ag  Ag0  1  0.66234251  0.16373879  0.50169270  1
  Ag  Ag1  1  0.83280863  0.65798767  0.83678811  1
  Ag  Ag2  1  0.66327373  0.16132747  0.84069341  1
  Ag  Ag3  1  0.34172610  0.83547460  0.15627770  1
  Ag  Ag4  1  0.34130366  0.66958537  -0.00636755  1
  Ag  Ag5  1  0.50137136  0.66779977  0.50307497  1
  Ag  Ag6  1  0.66311913  0.00796763  0.33759237  1
  Ag  Ag7  1  0.50878030  0.16057295  -0.00712129  1
  Ag  Ag8  1  0.50231705  0.00590609  0.50409574  1
  Ag  Ag9  1  0.34042705  -0.00052634  -0.00572451  1
  Ag  Ag10  1  -0.00181531  0.16528434  0.15196140  1
  Ag  Ag11  1  0.66806520  0.49585930  0.84461030  1
  Ag  Ag12  1  0.50382658  0.00344971  0.83589890  1
  Ag  Ag13  1  -0.00190469  0.66573886  0.67254504  1
  Ag  Ag14  1  0.82598667  0.49295148  0.00008459  1
  Ag  Ag15  1  0.82920730  0.65804570  0.15351780  1
  Ag  Ag16  1  0.16904065  0.00738899  0.50261016  1
  Ag  Ag17  1  0.49981008  0.84474737  0.66772423  1
  Ag  Ag18  1  0.34022688  0.16422912  0.50759535  1
  Ag  Ag19  1  0.50389049  0.00157982  0.15510591  1
  Ag  Ag20  1  0.66472173  0.65298345  0.00019141  1
  Ag  Ag21  1  0.33641545  0.66416480  0.67610230  1
  Ag  Ag22  1  0.00726404  0.16433925  0.50397105  1
  Ag  Ag23  1  0.16813414  0.84484994  0.33293126  1
  Ag  Ag24  1  0.82834021  0.33713647  0.16092283  1
  Ag  Ag25  1  0.67074261  0.33757983  0.00208091  1
  Ag  Ag26  1  0.16517103  0.49869418  -0.00403965  1
  Ag  Ag27  1  0.50291405  0.16358949  0.33700321  1
  Ag  Ag28  1  0.81937173  0.00413540  0.50530079  1
  Ag  Ag29  1  0.66933366  0.50115054  0.15889817  1
  Ag  Ag30  1  0.50206219  0.16167796  0.66749770  1
  Ag  Ag31  1  0.33254417  0.84087797  0.83651434  1
  Ag  Ag32  1  -0.01331714  0.50026379  0.83653450  1
  Ag  Ag33  1  0.17058645  0.00218223  0.83274745  1
  Ag  Ag34  1  0.66582496  0.49208171  0.49439264  1
  Ag  Ag35  1  0.66209437  0.00627645  -0.00394879  1
  Ag  Ag36  1  0.33670309  0.50335700  0.83568807  1
  Ag  Ag37  1  -0.01098562  0.32577453  -0.00213205  1
  Ag  Ag38  1  0.00198275  0.84358548  0.83446832  1
  Ag  Ag39  1  0.33442704  0.33042772  0.66818143  1
  Ag  Ag40  1  0.66257777  0.00318458  0.67002143  1
  Ag  Ag41  1  0.66281456  0.83500744  0.16439754  1
  Ag  Ag42  1  0.82463874  0.17005541  -0.00254608  1
  Ag  Ag43  1  0.82373174  0.49907724  0.32715725  1
  Ag  Ag44  1  0.83003388  0.50155547  0.68363040  1
  Ag  Ag45  1  0.51173664  0.49698432  -0.00119139  1
  Ag  Ag46  1  0.50805266  0.49532273  0.33223525  1
  Ag  Ag47  1  -0.00635808  0.01003042  -0.00624080  1
  Ag  Ag48  1  0.82835039  0.00157208  0.83580832  1
  Ag  Ag49  1  0.16612340  0.32387708  0.49920701  1
  Ag  Ag50  1  0.66654660  0.33309036  0.32951957  1
  Ag  Ag51  1  -0.00476420  0.16021180  0.83651370  1
  Ag  Ag52  1  0.34369126  0.15770389  0.83157080  1
  Ag  Ag53  1  0.17027952  0.16377529  0.34109527  1
  Sb  Sb54  1  0.66403031  0.32993416  0.66863610  1
  Sb  Sb55  1  0.83274949  0.83209240  0.33111538  1
  Sb  Sb56  1  -0.00344357  0.00321642  0.33161331  1
  Sb  Sb57  1  -0.00590646  0.32986258  0.32886073  1
  Sb  Sb58  1  0.66523994  0.83936068  0.49702596  1
  Sb  Sb59  1  -0.00228880  0.83842415  0.15974132  1
  Sb  Sb60  1  0.16551178  0.16764313  -0.00131798  1
  Sb  Sb61  1  0.16601901  0.66922088  0.83446914  1
  Sb  Sb62  1  0.83038526  0.83457323  -0.00216591  1
  Sb  Sb63  1  -0.00564557  -0.00083706  0.67404572  1
  Sb  Sb64  1  0.17066805  0.00101689  0.16445978  1
  Sb  Sb65  1  0.50470396  0.49810194  0.67082028  1
  Sb  Sb66  1  0.82828733  0.16885125  0.32977667  1
  Sb  Sb67  1  0.83356530  0.32744898  0.49569834  1
  Sb  Sb68  1  0.66497529  0.83809792  0.83783177  1
  Sb  Sb69  1  0.49945408  0.83788539  -0.00476360  1
  Sb  Sb70  1  -0.00702912  0.49514362  0.50606160  1
  Sb  Sb71  1  0.33844136  0.00113947  0.33138583  1
  Sb  Sb72  1  0.82562910  0.00236826  0.16135936  1
  Sb  Sb73  1  0.34279432  0.00175552  0.67397364  1
  Sb  Sb74  1  0.33292501  0.16297532  0.16308329  1
  Sb  Sb75  1  0.16753338  0.32830100  0.83140551  1
  Sb  Sb76  1  0.50076265  0.32563464  0.83490871  1
  Sb  Sb77  1  0.50598766  0.67127733  0.16602081  1
  Sb  Sb78  1  0.16519536  0.49944947  0.67304155  1
  Sb  Sb79  1  -0.01092257  0.49487015  0.15711256  1
  Sb  Sb80  1  0.00206942  0.84087002  0.50683859  1
  Sb  Sb81  1  0.66621166  0.66129657  0.32820945  1
  Sb  Sb82  1  0.83258181  0.33360131  0.84013629  1
  Sb  Sb83  1  0.16983317  0.83245736  0.00099884  1
  Sb  Sb84  1  -0.00480353  0.66503895  -0.00626443  1
  Sb  Sb85  1  0.00123895  0.33316597  0.67258363  1
  Sb  Sb86  1  0.33644411  0.66860860  0.33190689  1
  Sb  Sb87  1  0.66465797  0.66801757  0.67242143  1
  Sb  Sb88  1  0.34281504  0.50629758  0.15651475  1
  Sb  Sb89  1  0.16023519  0.33072933  0.16761716  1
  Sb  Sb90  1  0.50048078  0.66985899  0.83306399  1
  Sb  Sb91  1  0.16373054  0.66675207  0.16317940  1
  Sb  Sb92  1  0.33564523  0.83977089  0.50409593  1
  Sb  Sb93  1  0.49850567  0.83792412  0.33566754  1
  Sb  Sb94  1  0.50015872  0.32674779  0.49963540  1
  Sb  Sb95  1  0.82872637  0.83262817  0.66972938  1
  Sb  Sb96  1  0.34008745  0.49504281  0.50576308  1
  Sb  Sb97  1  0.82689617  0.66590381  0.50452621  1
  Sb  Sb98  1  0.82784157  0.16962504  0.67299692  1
  Sb  Sb99  1  0.17182807  0.83645580  0.66683298  1
  Sb  Sb100  1  0.33967441  0.33012376  0.33792730  1
  Sb  Sb101  1  0.17178870  0.66853865  0.50193471  1
  Sb  Sb102  1  0.16879191  0.49501238  0.33062104  1
  Sb  Sb103  1  0.66879352  0.16728597  0.16243574  1
  Sb  Sb104  1  0.50590690  0.32848552  0.16589824  1
  Sb  Sb105  1  0.17341514  0.16530602  0.66287616  1
  Sb  Sb106  1  0.33671713  0.33205025  -0.00583443  1
  Sb  Sb107  1  -0.00215846  0.66593704  0.33737918  1
  Te  Te108  1  0.16128912  0.16633748  0.17533113  1
  Te  Te109  1  0.16851955  0.16365440  0.50103955  1
  Te  Te110  1  0.16439152  0.16195184  0.83196727  1
  Te  Te111  1  0.16745761  0.49967404  0.16215169  1
  Te  Te112  1  0.16553010  0.49802835  0.49832702  1
  Te  Te113  1  0.17340386  0.49933907  0.83699835  1
  Te  Te114  1  0.16769169  0.83328117  0.17218697  1
  Te  Te115  1  0.16773401  0.83754160  0.49440715  1
  Te  Te116  1  0.16825544  0.83985981  0.83378649  1
  Te  Te117  1  0.49765647  0.16100325  0.17081062  1
  Te  Te118  1  0.50087779  0.16562889  0.49907686  1
  Te  Te119  1  0.50223468  0.16329370  0.83435498  1
  Te  Te120  1  0.50694103  0.50112534  0.16665741  1
  Te  Te121  1  0.50429518  0.50027814  0.49968233  1
  Te  Te122  1  0.50289020  0.50195578  0.83685130  1
  Te  Te123  1  0.50035378  0.83835964  0.16839716  1
  Te  Te124  1  0.49906231  0.83330652  0.50430638  1
  Te  Te125  1  0.49584680  0.83788801  0.82849839  1
  Te  Te126  1  0.83875236  0.16890187  0.16192680  1
  Te  Te127  1  0.82610824  0.16258202  0.50060048  1
  Te  Te128  1  0.83207903  0.16357833  0.83654192  1
  Te  Te129  1  0.82936976  0.49887087  0.16346677  1
  Te  Te130  1  0.82809388  0.49981605  0.49018774  1
  Te  Te131  1  0.82967081  0.49824284  0.83945056  1
  Te  Te132  1  0.82936819  0.82802928  0.16691216  1
  Te  Te133  1  0.83538919  0.84183089  0.49996700  1
  Te  Te134  1  0.83723780  0.83846925  0.83248975  1
  Te  Te135  1  0.16893590  -0.00009769  -0.00391348  1
  Te  Te136  1  0.16620983  0.00430183  0.33442863  1
  Te  Te137  1  0.16409861  -0.00073699  0.66614417  1
  Te  Te138  1  0.16591220  0.33838972  0.00013744  1
  Te  Te139  1  0.16643630  0.32879701  0.33759333  1
  Te  Te140  1  0.17175365  0.33429323  0.66006475  1
  Te  Te141  1  0.17288199  0.66113778  0.00012091  1
  Te  Te142  1  0.16673597  0.66709756  0.33320017  1
  Te  Te143  1  0.16983478  0.66768090  0.66631542  1
  Te  Te144  1  0.50003513  0.00103160  -0.00262254  1
  Te  Te145  1  0.50378181  0.00215649  0.33997811  1
  Te  Te146  1  0.50257451  0.00279916  0.66628162  1
  Te  Te147  1  0.50482050  0.33419108  0.00165013  1
  Te  Te148  1  0.50639234  0.33367424  0.33223164  1
  Te  Te149  1  0.49419990  0.32732181  0.66676713  1
  Te  Te150  1  0.50138908  0.66288260  0.00043702  1
  Te  Te151  1  0.49998125  0.66348439  0.33888210  1
  Te  Te152  1  0.49731072  0.66488399  0.66431879  1
  Te  Te153  1  0.83343616  0.00248981  -0.00227916  1
  Te  Te154  1  0.82680598  -0.00032894  0.33543085  1
  Te  Te155  1  0.82708863  0.00094788  0.66816374  1
  Te  Te156  1  0.83230716  0.33166153  0.00144364  1
  Te  Te157  1  0.82738576  0.33764384  0.32736902  1
  Te  Te158  1  0.83333237  0.34341058  0.66313746  1
  Te  Te159  1  0.83033244  0.66779653  -0.00399972  1
  Te  Te160  1  0.83377044  0.66128727  0.33438818  1
  Te  Te161  1  0.83405558  0.66338500  0.67174913  1
  Te  Te162  1  0.00479682  0.16650394  -0.00401570  1
  Te  Te163  1  0.00061197  0.16688938  0.34397101  1
  Te  Te164  1  -0.00316584  0.16772175  0.66731754  1
  Te  Te165  1  0.00027788  0.50004447  -0.00472679  1
  Te  Te166  1  -0.00125886  0.49893161  0.33220304  1
  Te  Te167  1  -0.00392422  0.50225440  0.67307495  1
  Te  Te168  1  0.00173782  0.83594936  -0.00630607  1
  Te  Te169  1  0.00538460  0.83403390  0.33245452  1
  Te  Te170  1  0.00059797  0.82762147  0.67387626  1
  Te  Te171  1  0.33551371  0.16341080  -0.00478174  1
  Te  Te172  1  0.33591644  0.16673753  0.33451742  1
  Te  Te173  1  0.33875078  0.16686264  0.66926659  1
  Te  Te174  1  0.33357908  0.49994967  -0.00445194  1
  Te  Te175  1  0.33884669  0.49941616  0.33181447  1
  Te  Te176  1  0.33401196  0.50167010  0.67221052  1
  Te  Te177  1  0.33406823  0.83365798  -0.00218233  1
  Te  Te178  1  0.32897570  0.83332707  0.33079006  1
  Te  Te179  1  0.33775535  0.82753880  0.67075989  1
  Te  Te180  1  0.66578372  0.16632267  0.00026574  1
  Te  Te181  1  0.66474692  0.16764320  0.33161942  1
  Te  Te182  1  0.66290075  0.16506773  0.66601472  1
  Te  Te183  1  0.66780169  0.49793550  0.00005780  1
  Te  Te184  1  0.66500966  0.50042964  0.33646389  1
  Te  Te185  1  0.67035603  0.49926647  0.66367191  1
  Te  Te186  1  0.66514757  0.83954627  0.00529934  1
  Te  Te187  1  0.66683292  0.83793690  0.32644986  1
  Te  Te188  1  0.66052901  0.83793596  0.66618226  1
  Te  Te189  1  -0.00086188  0.00408783  0.15995090  1
  Te  Te190  1  0.00560884  0.00475819  0.50028893  1
  Te  Te191  1  -0.00261896  0.00126717  0.83462451  1
  Te  Te192  1  -0.00661867  0.32749768  0.16078348  1
  Te  Te193  1  0.00352455  0.32738891  0.50062456  1
  Te  Te194  1  0.00240578  0.33448277  0.83793197  1
  Te  Te195  1  -0.00813320  0.66841420  0.16754420  1
  Te  Te196  1  -0.00011982  0.66705279  0.50863899  1
  Te  Te197  1  -0.00116682  0.66135516  0.83089787  1
  Te  Te198  1  0.33819596  -0.00482575  0.16124308  1
  Te  Te199  1  0.33355126  0.00489802  0.49900454  1
  Te  Te200  1  0.33391688  0.00038191  0.83385827  1
  Te  Te201  1  0.33076932  0.33511305  0.16727302  1
  Te  Te202  1  0.32861701  0.32794474  0.50464998  1
  Te  Te203  1  0.33274539  0.33511864  0.82837907  1
  Te  Te204  1  0.33348156  0.67438240  0.16097410  1
  Te  Te205  1  0.33901391  0.66610849  0.50224670  1
  Te  Te206  1  0.33304446  0.66598966  0.83509749  1
  Te  Te207  1  0.66379423  0.00010229  0.16317145  1
  Te  Te208  1  0.66302493  0.00158637  0.49946130  1
  Te  Te209  1  0.66588591  -0.00040008  0.83425311  1
  Te  Te210  1  0.66889500  0.33605074  0.16589467  1
  Te  Te211  1  0.66719072  0.33106195  0.49804779  1
  Te  Te212  1  0.66608585  0.33325132  0.83680164  1
  Te  Te213  1  0.66988566  0.66577693  0.16227206  1
  Te  Te214  1  0.66254006  0.66727834  0.50137477  1
  Te  Te215  1  0.67013297  0.66783518  0.83807142  1
