# generated using pymatgen
data_AgSbTe2
_symmetry_space_group_name_H-M   'P 1'
_cell_length_a   18.32492004
_cell_length_b   18.32067319
_cell_length_c   18.31756026
_cell_angle_alpha   90.00010462
_cell_angle_beta   89.99962479
_cell_angle_gamma   89.99735519
_symmetry_Int_Tables_number   1
_chemical_formula_structural   AgSbTe2
_chemical_formula_sum   'Ag54 Sb54 Te108'
_cell_volume   6149.66055402
_cell_formula_units_Z   54
loop_
 _symmetry_equiv_pos_site_id
 _symmetry_equiv_pos_as_xyz
  1  'x, y, z'
loop_
 _atom_site_type_symbol
 _atom_site_label
 _atom_site_symmetry_multiplicity
 _atom_site_fract_x
 _atom_site_fract_y
 _atom_site_fract_z
 _atom_site_occupancy
  Ag  Ag0  1  -0.00328024  0.83150850  0.83591568  1
  Ag  Ag1  1  0.00616217  0.66655803  0.66969706  1
  Ag  Ag2  1  0.17010109  0.65682562  0.16841759  1
  Ag  Ag3  1  -0.00614041  0.00311625  -0.00077104  1
  Ag  Ag4  1  0.83387239  0.33352194  0.16534568  1
  Ag  Ag5  1  0.49587216  0.65816442  0.16274209  1
  Ag  Ag6  1  0.50049485  0.33721980  0.16739200  1
  Ag  Ag7  1  0.83094318  0.16882233  0.32919725  1
  Ag  Ag8  1  0.66582943  0.32342165  0.67409554  1
  Ag  Ag9  1  0.82187591  0.16687577  0.67930834  1
  Ag  Ag10  1  0.67366316  0.00344469  -0.00656388  1
  Ag  Ag11  1  0.51011614  0.16609555  0.65706158  1
  Ag  Ag12  1  0.33106697  0.50118437  0.16215968  1
  Ag  Ag13  1  0.83643233  0.16198404  -0.00420344  1
  Ag  Ag14  1  0.66243911  0.49949036  0.16379441  1
  Ag  Ag15  1  -0.00764684  0.16244921  0.83903956  1
  Ag  Ag16  1  0.83338310  0.67311380  0.83507576  1
  Ag  Ag17  1  0.66350180  0.01107490  0.67457305  1
  Ag  Ag18  1  0.34380420  0.16464483  0.50388833  1
  Ag  Ag19  1  0.50183785  0.32388268  0.49460259  1
  Ag  Ag20  1  0.66620219  0.66561530  0.00101108  1
  Ag  Ag21  1  0.50615408  0.16454837  0.34419404  1
  Ag  Ag22  1  0.33836967  0.00354056  0.66868630  1
  Ag  Ag23  1  0.50062869  0.01119587  0.50158412  1
  Ag  Ag24  1  0.32715867  0.50607931  0.83636801  1
  Ag  Ag25  1  0.16658563  0.33782503  0.16075960  1
  Ag  Ag26  1  0.16731466  0.17159964  0.67416706  1
  Ag  Ag27  1  0.83149594  0.00023031  0.83674741  1
  Ag  Ag28  1  0.15665295  0.16513645  -0.00319329  1
  Ag  Ag29  1  0.50073079  0.83511014  0.33126431  1
  Ag  Ag30  1  0.00172876  0.17227871  0.15854631  1
  Ag  Ag31  1  0.00481884  0.50336364  0.83920311  1
  Ag  Ag32  1  0.65465976  0.16582242  0.51449253  1
  Ag  Ag33  1  0.16664153  0.50005212  0.67106270  1
  Ag  Ag34  1  0.33351472  0.82545316  0.15991788  1
  Ag  Ag35  1  0.16107457  0.50335704  0.31951568  1
  Ag  Ag36  1  0.33246763  0.82722341  0.83625801  1
  Ag  Ag37  1  0.66907852  0.66546335  0.32566745  1
  Ag  Ag38  1  0.50303757  0.50223329  0.00366302  1
  Ag  Ag39  1  -0.00234571  -0.00202117  0.32616739  1
  Ag  Ag40  1  0.83873781  0.49905001  0.32696997  1
  Ag  Ag41  1  0.67532190  0.84026639  0.83674574  1
  Ag  Ag42  1  0.16560511  0.33219017  0.83901621  1
  Ag  Ag43  1  0.16165451  0.83574864  -0.00113432  1
  Ag  Ag44  1  0.00506624  0.49670718  0.16360127  1
  Ag  Ag45  1  -0.00105546  0.66738035  0.33254275  1
  Ag  Ag46  1  0.00081128  0.83054207  0.50324385  1
  Ag  Ag47  1  0.66714294  0.32953641  -0.00072298  1
  Ag  Ag48  1  0.33108637  0.17235951  0.16768136  1
  Ag  Ag49  1  0.16437419  0.66534461  0.49886755  1
  Ag  Ag50  1  0.50268091  0.66700448  0.83978477  1
  Ag  Ag51  1  0.67425263  0.16033322  0.82587792  1
  Ag  Ag52  1  0.83514949  0.84149238  -0.00364461  1
  Ag  Ag53  1  0.32706258  0.66820097  0.67123425  1
  Sb  Sb54  1  0.83411054  0.83803026  0.67643593  1
  Sb  Sb55  1  0.33232350  0.49683185  0.49992047  1
  Sb  Sb56  1  0.66570655  0.33550998  0.32876580  1
  Sb  Sb57  1  0.00266173  0.50561533  0.49708224  1
  Sb  Sb58  1  0.16146779  0.00418679  0.83393225  1
  Sb  Sb59  1  0.49838286  0.33668610  0.83632198  1
  Sb  Sb60  1  -0.00116046  -0.00126169  0.67110985  1
  Sb  Sb61  1  0.50359581  0.17020120  -0.00019043  1
  Sb  Sb62  1  0.66949585  -0.00006113  0.33243669  1
  Sb  Sb63  1  0.82780592  0.32952572  0.49648795  1
  Sb  Sb64  1  0.00462472  0.83132645  0.16174064  1
  Sb  Sb65  1  0.66179340  0.82605439  0.15958485  1
  Sb  Sb66  1  0.50639845  -0.00351416  0.82963478  1
  Sb  Sb67  1  0.83783212  0.49605295  0.66664134  1
  Sb  Sb68  1  0.83312416  0.66061930  0.16274479  1
  Sb  Sb69  1  0.16616255  0.00300557  0.16577042  1
  Sb  Sb70  1  0.33407871  -0.00077846  -0.00405772  1
  Sb  Sb71  1  0.00030499  0.16084215  0.50101385  1
  Sb  Sb72  1  0.49854648  0.83827780  0.66551550  1
  Sb  Sb73  1  0.66660571  0.66661338  0.67189879  1
  Sb  Sb74  1  0.33657684  0.66597875  -0.00241008  1
  Sb  Sb75  1  0.16572590  0.83096784  0.67242853  1
  Sb  Sb76  1  0.83450135  0.00805231  0.15919644  1
  Sb  Sb77  1  0.83792450  0.66743246  0.50303756  1
  Sb  Sb78  1  0.66516864  0.49500059  0.49456387  1
  Sb  Sb79  1  0.83097212  0.49740520  0.00403507  1
  Sb  Sb80  1  -0.00334237  0.67030262  -0.00144886  1
  Sb  Sb81  1  0.66791900  0.49971940  0.83893221  1
  Sb  Sb82  1  0.66958703  0.83748845  0.50417994  1
  Sb  Sb83  1  0.16820990  0.82814126  0.32783894  1
  Sb  Sb84  1  0.16624033  0.66336917  0.83617155  1
  Sb  Sb85  1  0.33620461  0.33048483  0.66854453  1
  Sb  Sb86  1  0.33078176  0.83573318  0.50142505  1
  Sb  Sb87  1  0.49969815  0.49979857  0.32498900  1
  Sb  Sb88  1  0.16470430  0.17170789  0.32963211  1
  Sb  Sb89  1  0.33132729  0.00158135  0.33552812  1
  Sb  Sb90  1  0.16820460  0.49851811  0.00021544  1
  Sb  Sb91  1  0.16862509  -0.00283191  0.50201689  1
  Sb  Sb92  1  -0.00194250  0.33431873  0.67012540  1
  Sb  Sb93  1  0.83027086  0.00219097  0.50537822  1
  Sb  Sb94  1  0.33465512  0.33250953  0.32943657  1
  Sb  Sb95  1  0.83206541  0.83322553  0.32603694  1
  Sb  Sb96  1  -0.00358791  0.32693559  0.00123569  1
  Sb  Sb97  1  0.50016176  0.00250395  0.16982854  1
  Sb  Sb98  1  0.33540808  0.33298794  0.00164131  1
  Sb  Sb99  1  0.49631935  0.49648713  0.67260620  1
  Sb  Sb100  1  0.49597739  0.66520745  0.49796263  1
  Sb  Sb101  1  0.33280231  0.16537525  0.83265700  1
  Sb  Sb102  1  0.17153458  0.33597922  0.50012632  1
  Sb  Sb103  1  0.33225403  0.66638922  0.33105945  1
  Sb  Sb104  1  0.50190374  0.82928233  0.00075475  1
  Sb  Sb105  1  0.83499394  0.33043599  0.83920815  1
  Sb  Sb106  1  0.66848876  0.17349959  0.16320815  1
  Sb  Sb107  1  -0.00147376  0.33580910  0.32923745  1
  Te  Te108  1  0.16544871  0.17014659  0.16552967  1
  Te  Te109  1  0.17024123  0.16711353  0.50116456  1
  Te  Te110  1  0.16767902  0.17037707  0.83558436  1
  Te  Te111  1  0.16683465  0.49877291  0.16222494  1
  Te  Te112  1  0.16808992  0.50411849  0.50727784  1
  Te  Te113  1  0.16580775  0.49714701  0.83471598  1
  Te  Te114  1  0.17250917  0.83192903  0.16157837  1
  Te  Te115  1  0.16252902  0.82774875  0.49951410  1
  Te  Te116  1  0.16582037  0.83444450  0.83844466  1
  Te  Te117  1  0.49664337  0.17055631  0.16623350  1
  Te  Te118  1  0.49947120  0.16768741  0.50053543  1
  Te  Te119  1  0.50223660  0.16722455  0.83067943  1
  Te  Te120  1  0.49771618  0.49946574  0.16559444  1
  Te  Te121  1  0.49866567  0.49374388  0.49896616  1
  Te  Te122  1  0.49702554  0.50530503  0.83866829  1
  Te  Te123  1  0.49486468  0.83189087  0.16965512  1
  Te  Te124  1  0.50014530  0.83422279  0.49373337  1
  Te  Te125  1  0.49458181  0.82706435  0.83315044  1
  Te  Te126  1  0.83573132  0.17163152  0.16770308  1
  Te  Te127  1  0.83189058  0.16631510  0.49314958  1
  Te  Te128  1  0.83381920  0.16859051  0.83517669  1
  Te  Te129  1  0.83784528  0.49544323  0.16866515  1
  Te  Te130  1  0.83403366  0.49861524  0.49107770  1
  Te  Te131  1  0.83990463  0.50158820  0.83268436  1
  Te  Te132  1  0.83299954  0.83311989  0.15734038  1
  Te  Te133  1  0.83968251  0.83415638  0.49906913  1
  Te  Te134  1  0.83415614  0.83301255  0.83671774  1
  Te  Te135  1  0.16388039  0.00108439  -0.00027379  1
  Te  Te136  1  0.15801176  -0.00064189  0.33441719  1
  Te  Te137  1  0.17120209  0.00498188  0.66670449  1
  Te  Te138  1  0.16626847  0.32796618  0.00118908  1
  Te  Te139  1  0.16632029  0.34170930  0.32934570  1
  Te  Te140  1  0.16637247  0.33529171  0.66753835  1
  Te  Te141  1  0.16511381  0.67143561  0.00678008  1
  Te  Te142  1  0.16450619  0.66376966  0.33095315  1
  Te  Te143  1  0.16615684  0.66514031  0.66863986  1
  Te  Te144  1  0.50739077  -0.00040192  0.00029358  1
  Te  Te145  1  0.50060180  0.00216051  0.33743375  1
  Te  Te146  1  0.50063481  0.00404684  0.66384155  1
  Te  Te147  1  0.50600466  0.33802588  0.00419097  1
  Te  Te148  1  0.50084556  0.32836375  0.33062155  1
  Te  Te149  1  0.50420879  0.32883802  0.66853213  1
  Te  Te150  1  0.50412742  0.66444566  0.00143833  1
  Te  Te151  1  0.50288510  0.66794497  0.33063897  1
  Te  Te152  1  0.49662964  0.66591196  0.66836596  1
  Te  Te153  1  0.83322398  0.00123619  -0.00310960  1
  Te  Te154  1  0.83757324  0.00225353  0.33346012  1
  Te  Te155  1  0.82983927  0.00685235  0.67273668  1
  Te  Te156  1  0.82664562  0.32803357  0.00574559  1
  Te  Te157  1  0.83230963  0.33259390  0.32765356  1
  Te  Te158  1  0.82786585  0.32753770  0.66524176  1
  Te  Te159  1  0.82801899  0.66705788  -0.00462529  1
  Te  Te160  1  0.83362963  0.66600372  0.33398321  1
  Te  Te161  1  0.83710457  0.66538806  0.67204018  1
  Te  Te162  1  -0.00119674  0.16430831  -0.00019780  1
  Te  Te163  1  -0.00301458  0.16397645  0.33273068  1
  Te  Te164  1  0.00738240  0.16581939  0.67015064  1
  Te  Te165  1  -0.00023860  0.50100394  0.00000332  1
  Te  Te166  1  0.00016982  0.50427440  0.33091647  1
  Te  Te167  1  0.00365307  0.50397468  0.66877774  1
  Te  Te168  1  -0.00079634  0.83748409  -0.00336771  1
  Te  Te169  1  -0.00019177  0.83129534  0.33062443  1
  Te  Te170  1  -0.00002346  0.82932608  0.67081515  1
  Te  Te171  1  0.33047451  0.16471044  0.00480648  1
  Te  Te172  1  0.33507969  0.16535444  0.32997432  1
  Te  Te173  1  0.32822245  0.16495549  0.66742801  1
  Te  Te174  1  0.33782653  0.49949306  0.00048991  1
  Te  Te175  1  0.32679547  0.50058298  0.32836590  1
  Te  Te176  1  0.32934794  0.50244227  0.66950604  1
  Te  Te177  1  0.33016324  0.83478764  -0.00102715  1
  Te  Te178  1  0.33825455  0.83471087  0.32995362  1
  Te  Te179  1  0.33243992  0.83259502  0.67004083  1
  Te  Te180  1  0.66940646  0.16639400  -0.00138924  1
  Te  Te181  1  0.66762627  0.16567193  0.33120917  1
  Te  Te182  1  0.66630083  0.16693660  0.66921725  1
  Te  Te183  1  0.66440548  0.50214143  0.00318240  1
  Te  Te184  1  0.66964795  0.50447969  0.32772791  1
  Te  Te185  1  0.66761564  0.49590870  0.66519999  1
  Te  Te186  1  0.66821450  0.83127944  -0.00512744  1
  Te  Te187  1  0.66411903  0.83017266  0.33427393  1
  Te  Te188  1  0.66646630  0.83651936  0.67390690  1
  Te  Te189  1  0.00023663  0.00363697  0.16456348  1
  Te  Te190  1  0.00018500  -0.00806635  0.49920622  1
  Te  Te191  1  -0.00464995  0.00092168  0.83619143  1
  Te  Te192  1  0.00171419  0.33399952  0.16676968  1
  Te  Te193  1  0.00075600  0.33280284  0.50013230  1
  Te  Te194  1  0.00465407  0.33451405  0.83462228  1
  Te  Te195  1  0.00173537  0.66344374  0.16959516  1
  Te  Te196  1  0.00362520  0.67080318  0.49973443  1
  Te  Te197  1  -0.00033248  0.66718745  0.83264686  1
  Te  Te198  1  0.33385149  0.00155617  0.16594059  1
  Te  Te199  1  0.33713584  0.00317036  0.50445442  1
  Te  Te200  1  0.33419682  -0.00518870  0.82840302  1
  Te  Te201  1  0.33338386  0.33324374  0.16532544  1
  Te  Te202  1  0.34001907  0.32625887  0.49990796  1
  Te  Te203  1  0.32785649  0.34014632  0.83460705  1
  Te  Te204  1  0.33432236  0.66518385  0.16638718  1
  Te  Te205  1  0.32726855  0.66680180  0.50643495  1
  Te  Te206  1  0.33265596  0.66599666  0.83225538  1
  Te  Te207  1  0.66655778  -0.00287503  0.16078889  1
  Te  Te208  1  0.66289236  0.00368277  0.50217014  1
  Te  Te209  1  0.66854824  0.00030795  0.83372220  1
  Te  Te210  1  0.66418045  0.33902472  0.16342079  1
  Te  Te211  1  0.66132617  0.32793908  0.50183242  1
  Te  Te212  1  0.66666403  0.33183556  0.83562490  1
  Te  Te213  1  0.66622166  0.66147947  0.16616640  1
  Te  Te214  1  0.66664548  0.66715320  0.49765931  1
  Te  Te215  1  0.66554423  0.66656685  0.83555042  1
