# generated using pymatgen
data_AgSbTe2
_symmetry_space_group_name_H-M   'P 1'
_cell_length_a   18.30806443
_cell_length_b   18.31522569
_cell_length_c   18.30749985
_cell_angle_alpha   89.99886803
_cell_angle_beta   89.99864549
_cell_angle_gamma   89.99901223
_symmetry_Int_Tables_number   1
_chemical_formula_structural   AgSbTe2
_chemical_formula_sum   'Ag54 Sb54 Te108'
_cell_volume   6138.80369412
_cell_formula_units_Z   54
loop_
 _symmetry_equiv_pos_site_id
 _symmetry_equiv_pos_as_xyz
  1  'x, y, z'
loop_
 _atom_site_type_symbol
 _atom_site_label
 _atom_site_symmetry_multiplicity
 _atom_site_fract_x
 _atom_site_fract_y
 _atom_site_fract_z
 _atom_site_occupancy
  Ag  Ag0  1  0.34557048  0.16403727  0.82993763  1
  Ag  Ag1  1  0.82894102  0.50476819  0.00382437  1
  Ag  Ag2  1  0.66631345  0.49953519  0.84125995  1
  Ag  Ag3  1  0.83211800  0.34041920  0.16850326  1
  Ag  Ag4  1  -0.00010587  0.49564501  0.50411140  1
  Ag  Ag5  1  0.00090430  0.66755978  0.67083914  1
  Ag  Ag6  1  0.50638652  0.50620847  0.33154333  1
  Ag  Ag7  1  -0.00266918  0.49840559  0.83379241  1
  Ag  Ag8  1  0.82926291  0.49860646  0.32345233  1
  Ag  Ag9  1  0.50071730  0.16579963  0.66922881  1
  Ag  Ag10  1  0.83486149  0.65809137  0.16295550  1
  Ag  Ag11  1  0.00287146  0.66789080  -0.00419323  1
  Ag  Ag12  1  0.15908568  0.33556584  0.49949259  1
  Ag  Ag13  1  0.50130842  0.82771443  -0.00393398  1
  Ag  Ag14  1  -0.00222657  0.33481813  0.33835485  1
  Ag  Ag15  1  0.50963453  0.50624930  -0.00189087  1
  Ag  Ag16  1  0.82735904  0.00022786  0.15973433  1
  Ag  Ag17  1  0.50439169  0.00075199  0.16703898  1
  Ag  Ag18  1  0.16241392  0.82938574  0.67068233  1
  Ag  Ag19  1  0.16098153  0.34043827  0.16793709  1
  Ag  Ag20  1  -0.00479812  0.16733380  0.82877612  1
  Ag  Ag21  1  -0.00236785  0.17507892  0.50575833  1
  Ag  Ag22  1  0.66478978  0.83480105  0.83542396  1
  Ag  Ag23  1  0.66394143  0.16555006  0.83609480  1
  Ag  Ag24  1  0.16243206  0.50683596  -0.00215866  1
  Ag  Ag25  1  0.16300958  0.66116961  0.15957130  1
  Ag  Ag26  1  0.16340843  0.50342447  0.67178643  1
  Ag  Ag27  1  0.33602709  0.00299879  0.66808072  1
  Ag  Ag28  1  0.16366710  0.82525586  -0.00527744  1
  Ag  Ag29  1  0.50089931  0.00307643  0.83287872  1
  Ag  Ag30  1  0.33195428  0.66735975  0.00231376  1
  Ag  Ag31  1  0.49545724  -0.00021363  0.49491453  1
  Ag  Ag32  1  0.49733855  0.66753610  0.49375972  1
  Ag  Ag33  1  0.16541852  -0.00086696  0.83378818  1
  Ag  Ag34  1  0.50087079  0.16221448  0.34184706  1
  Ag  Ag35  1  0.34048942  -0.00570641  0.34011811  1
  Ag  Ag36  1  0.66999301  0.49709443  0.15977851  1
  Ag  Ag37  1  0.34033391  0.67002343  0.33036025  1
  Ag  Ag38  1  0.83439517  0.83015965  -0.00381364  1
  Ag  Ag39  1  0.33558773  0.32676460  0.66587625  1
  Ag  Ag40  1  0.83211512  0.16467195  0.67080436  1
  Ag  Ag41  1  0.65712771  0.66393351  0.33192935  1
  Ag  Ag42  1  0.83357660  -0.00039528  0.83690235  1
  Ag  Ag43  1  0.66687769  0.33823979  -0.00038086  1
  Ag  Ag44  1  0.66719409  0.17155408  0.16181752  1
  Ag  Ag45  1  0.84013167  0.83744827  0.67459558  1
  Ag  Ag46  1  0.49854776  0.83168804  0.33375077  1
  Ag  Ag47  1  -0.00261803  -0.00881133  -0.00457304  1
  Ag  Ag48  1  0.00342077  0.83146496  0.50471762  1
  Ag  Ag49  1  0.49900965  0.33157385  0.50223114  1
  Ag  Ag50  1  0.84261027  0.33490268  0.49674696  1
  Ag  Ag51  1  0.50234363  0.66660487  0.83847116  1
  Ag  Ag52  1  0.33491673  0.83546722  0.50007696  1
  Ag  Ag53  1  0.50264638  0.32895304  0.83055362  1
  Sb  Sb54  1  0.33514838  0.49807757  0.83447234  1
  Sb  Sb55  1  0.17080188  0.00127984  0.50602039  1
  Sb  Sb56  1  0.66630920  0.16877885  0.50153194  1
  Sb  Sb57  1  0.16482946  0.49991450  0.33076772  1
  Sb  Sb58  1  0.83129947  0.00292541  0.50294042  1
  Sb  Sb59  1  0.82828591  0.17157475  0.33501452  1
  Sb  Sb60  1  0.83195543  0.16482037  -0.00472253  1
  Sb  Sb61  1  0.00202822  0.00355397  0.33120209  1
  Sb  Sb62  1  0.83846355  0.49922625  0.66992041  1
  Sb  Sb63  1  0.33449613  0.16407001  0.50474481  1
  Sb  Sb64  1  0.50384197  0.33074616  0.16568905  1
  Sb  Sb65  1  0.16746192  -0.00094888  0.15945362  1
  Sb  Sb66  1  -0.00331910  0.33730964  0.00143410  1
  Sb  Sb67  1  0.66958865  0.66734521  0.66622610  1
  Sb  Sb68  1  0.82895824  0.82852440  0.33116538  1
  Sb  Sb69  1  0.65931701  -0.00291892  0.32996291  1
  Sb  Sb70  1  0.66970214  0.00116077  -0.00224490  1
  Sb  Sb71  1  0.33082712  0.66836637  0.66776312  1
  Sb  Sb72  1  0.66891209  0.33764326  0.32836280  1
  Sb  Sb73  1  0.50229647  0.16437961  -0.00547784  1
  Sb  Sb74  1  0.33308720  -0.00649772  -0.00350387  1
  Sb  Sb75  1  0.33682616  0.33891813  -0.00379292  1
  Sb  Sb76  1  0.66892952  0.49858709  0.49959206  1
  Sb  Sb77  1  0.16975120  0.33215932  0.83216177  1
  Sb  Sb78  1  0.33772029  0.50081363  0.16616683  1
  Sb  Sb79  1  0.66714463  0.66121941  0.00373064  1
  Sb  Sb80  1  -0.00686676  0.16903510  0.16481680  1
  Sb  Sb81  1  0.49871576  0.83762540  0.66839515  1
  Sb  Sb82  1  0.33551890  0.83202476  0.16948822  1
  Sb  Sb83  1  0.50172275  0.66885612  0.16705840  1
  Sb  Sb84  1  0.17144245  0.16812143  0.33492391  1
  Sb  Sb85  1  0.33971432  0.16591877  0.16342718  1
  Sb  Sb86  1  -0.00596431  0.49978712  0.16322709  1
  Sb  Sb87  1  0.33154729  0.50204948  0.49992465  1
  Sb  Sb88  1  0.16818490  0.66959325  0.83834532  1
  Sb  Sb89  1  0.33718495  0.83739990  0.83032580  1
  Sb  Sb90  1  0.00079828  0.66181410  0.33305611  1
  Sb  Sb91  1  0.83249614  0.66295589  0.49699884  1
  Sb  Sb92  1  0.00355118  -0.00342943  0.67252639  1
  Sb  Sb93  1  0.66588808  0.83074515  0.16110925  1
  Sb  Sb94  1  0.66260399  0.33270440  0.67244908  1
  Sb  Sb95  1  0.16806035  0.16645690  0.66844114  1
  Sb  Sb96  1  0.16890762  0.66424612  0.49875909  1
  Sb  Sb97  1  -0.00381399  0.83310248  0.83294792  1
  Sb  Sb98  1  0.00394903  0.33627430  0.66226736  1
  Sb  Sb99  1  0.66170083  0.00043500  0.67114489  1
  Sb  Sb100  1  0.82841096  0.33034950  0.83411432  1
  Sb  Sb101  1  0.49636562  0.49670439  0.66876043  1
  Sb  Sb102  1  -0.00091569  0.83217065  0.16566860  1
  Sb  Sb103  1  0.33428084  0.33480220  0.33800383  1
  Sb  Sb104  1  0.66377237  0.83279186  0.50391533  1
  Sb  Sb105  1  0.16520111  0.16808158  -0.00183182  1
  Sb  Sb106  1  0.17221750  0.83109780  0.33414945  1
  Sb  Sb107  1  0.82996035  0.66965106  0.83882594  1
  Te  Te108  1  0.16611571  0.17174583  0.16662387  1
  Te  Te109  1  0.16025627  0.17242273  0.50056212  1
  Te  Te110  1  0.15927650  0.16173272  0.83373791  1
  Te  Te111  1  0.16653929  0.49968910  0.16351110  1
  Te  Te112  1  0.16253399  0.49657896  0.50052714  1
  Te  Te113  1  0.16389712  0.50039856  0.83417724  1
  Te  Te114  1  0.16695480  0.82985875  0.16083533  1
  Te  Te115  1  0.16648882  0.83290876  0.50308455  1
  Te  Te116  1  0.16775076  0.83688220  0.83357586  1
  Te  Te117  1  0.50544427  0.16280312  0.16594347  1
  Te  Te118  1  0.49980889  0.16722739  0.50279021  1
  Te  Te119  1  0.50330869  0.16619506  0.83217690  1
  Te  Te120  1  0.50579526  0.49936168  0.16499318  1
  Te  Te121  1  0.50030275  0.50025349  0.49898386  1
  Te  Te122  1  0.50140678  0.49968653  0.83523009  1
  Te  Te123  1  0.50124713  0.83879319  0.16513544  1
  Te  Te124  1  0.49877559  0.83311117  0.50020156  1
  Te  Te125  1  0.50337156  0.83454471  0.83432866  1
  Te  Te126  1  0.82739768  0.16564133  0.16638837  1
  Te  Te127  1  0.83594755  0.17018090  0.50429005  1
  Te  Te128  1  0.83216450  0.16366862  0.82988011  1
  Te  Te129  1  0.83140778  0.49879796  0.16523329  1
  Te  Te130  1  0.83701832  0.49585577  0.50033805  1
  Te  Te131  1  0.83314373  0.49932960  0.83818294  1
  Te  Te132  1  0.83204972  0.83813151  0.16245976  1
  Te  Te133  1  0.83548567  0.83320627  0.50213835  1
  Te  Te134  1  0.82998609  0.83620422  0.83493887  1
  Te  Te135  1  0.16305051  -0.00379379  -0.00463470  1
  Te  Te136  1  0.17423732  -0.00040140  0.33095996  1
  Te  Te137  1  0.17248957  -0.00427020  0.67228662  1
  Te  Te138  1  0.16685862  0.33948698  0.00277175  1
  Te  Te139  1  0.16412823  0.33428844  0.33494492  1
  Te  Te140  1  0.17210883  0.33715757  0.66413349  1
  Te  Te141  1  0.16482425  0.66715883  -0.00043739  1
  Te  Te142  1  0.17243438  0.66598474  0.32556657  1
  Te  Te143  1  0.16298634  0.66741443  0.66673589  1
  Te  Te144  1  0.49957486  -0.00486557  -0.00162178  1
  Te  Te145  1  0.49811192  -0.00188386  0.33441276  1
  Te  Te146  1  0.49591290  0.00293254  0.67057105  1
  Te  Te147  1  0.50161162  0.33917343  -0.00249398  1
  Te  Te148  1  0.50049391  0.33497456  0.33517785  1
  Te  Te149  1  0.49685230  0.33046212  0.66730352  1
  Te  Te150  1  0.49880826  0.66687404  0.00063236  1
  Te  Te151  1  0.49792737  0.66682295  0.33031194  1
  Te  Te152  1  0.50000085  0.66679766  0.66543593  1
  Te  Te153  1  0.83548077  -0.00187484  -0.00149900  1
  Te  Te154  1  0.83364013  -0.00068728  0.32922530  1
  Te  Te155  1  0.83363847  -0.00000978  0.66840901  1
  Te  Te156  1  0.83084824  0.33745597  0.00370999  1
  Te  Te157  1  0.83498766  0.33640275  0.33410142  1
  Te  Te158  1  0.83236930  0.32938231  0.66137111  1
  Te  Te159  1  0.83587900  0.66718300  0.00258104  1
  Te  Te160  1  0.83274087  0.66160379  0.32844775  1
  Te  Te161  1  0.83875083  0.67073218  0.66598575  1
  Te  Te162  1  -0.00053667  0.16419029  -0.00544410  1
  Te  Te163  1  -0.00011618  0.17104669  0.33758092  1
  Te  Te164  1  -0.00213683  0.16545945  0.66696696  1
  Te  Te165  1  0.00040134  0.50235178  -0.00321212  1
  Te  Te166  1  -0.00308379  0.49631454  0.33845638  1
  Te  Te167  1  0.00299803  0.50339812  0.66811259  1
  Te  Te168  1  -0.00188029  0.83058539  -0.00024865  1
  Te  Te169  1  -0.00041017  0.83373386  0.34117504  1
  Te  Te170  1  0.00050438  0.83115421  0.66623956  1
  Te  Te171  1  0.33317692  0.16705627  -0.00842063  1
  Te  Te172  1  0.34140928  0.16346959  0.33235775  1
  Te  Te173  1  0.33494703  0.16545270  0.67050205  1
  Te  Te174  1  0.32997794  0.50653274  0.00038416  1
  Te  Te175  1  0.34038077  0.50488827  0.33322372  1
  Te  Te176  1  0.32464356  0.49785117  0.66670551  1
  Te  Te177  1  0.33518007  0.82748095  -0.00046888  1
  Te  Te178  1  0.33748699  0.83261725  0.33739658  1
  Te  Te179  1  0.32849434  0.83574543  0.66211263  1
  Te  Te180  1  0.66662919  0.17482828  -0.00082740  1
  Te  Te181  1  0.66001868  0.16672010  0.32946273  1
  Te  Te182  1  0.66674315  0.16683117  0.67167790  1
  Te  Te183  1  0.66714358  0.49968008  -0.00051977  1
  Te  Te184  1  0.66703987  0.50305410  0.33329459  1
  Te  Te185  1  0.66788189  0.50068845  0.67675562  1
  Te  Te186  1  0.66626963  0.83186629  -0.00542275  1
  Te  Te187  1  0.66020682  0.82646609  0.33400124  1
  Te  Te188  1  0.67534626  0.83272846  0.67342309  1
  Te  Te189  1  -0.00340444  0.00125781  0.16131727  1
  Te  Te190  1  0.00115167  -0.00155986  0.49909361  1
  Te  Te191  1  -0.00288597  0.00047269  0.83594886  1
  Te  Te192  1  -0.00120534  0.33275044  0.17183904  1
  Te  Te193  1  0.00008884  0.33421508  0.50032302  1
  Te  Te194  1  0.00021374  0.33331944  0.83214222  1
  Te  Te195  1  -0.00141145  0.66657515  0.16363534  1
  Te  Te196  1  0.00030559  0.66710670  0.50192181  1
  Te  Te197  1  -0.00033626  0.66154369  0.83368353  1
  Te  Te198  1  0.33844987  0.00098668  0.16904422  1
  Te  Te199  1  0.33571790  -0.00199971  0.50082900  1
  Te  Te200  1  0.33626575  0.00321093  0.83143400  1
  Te  Te201  1  0.32501062  0.33221796  0.16745712  1
  Te  Te202  1  0.33769148  0.33223123  0.50455926  1
  Te  Te203  1  0.33766662  0.32784158  0.82888393  1
  Te  Te204  1  0.32918147  0.66638339  0.16520221  1
  Te  Te205  1  0.33691907  0.67116706  0.49852665  1
  Te  Te206  1  0.34172832  0.66729965  0.83689488  1
  Te  Te207  1  0.66687107  0.00310032  0.16429616  1
  Te  Te208  1  0.65763634  0.00049047  0.49929451  1
  Te  Te209  1  0.66616780  0.00224090  0.83439754  1
  Te  Te210  1  0.67019842  0.33464091  0.16250314  1
  Te  Te211  1  0.65996662  0.33357033  0.50006030  1
  Te  Te212  1  0.66288203  0.33310953  0.83771743  1
  Te  Te213  1  0.67234589  0.66307362  0.17146946  1
  Te  Te214  1  0.66024921  0.66582563  0.49452887  1
  Te  Te215  1  0.66103119  0.66532610  0.83306413  1
