# generated using pymatgen
data_AgSbTe2
_symmetry_space_group_name_H-M   'P 1'
_cell_length_a   18.32951479
_cell_length_b   18.33378892
_cell_length_c   18.32935956
_cell_angle_alpha   89.99733729
_cell_angle_beta   90.00141817
_cell_angle_gamma   89.99803430
_symmetry_Int_Tables_number   1
_chemical_formula_structural   AgSbTe2
_chemical_formula_sum   'Ag54 Sb54 Te108'
_cell_volume   6159.57128400
_cell_formula_units_Z   54
loop_
 _symmetry_equiv_pos_site_id
 _symmetry_equiv_pos_as_xyz
  1  'x, y, z'
loop_
 _atom_site_type_symbol
 _atom_site_label
 _atom_site_symmetry_multiplicity
 _atom_site_fract_x
 _atom_site_fract_y
 _atom_site_fract_z
 _atom_site_occupancy
  Ag  Ag0  1  0.32513979  0.51226975  0.50350738  1
  Ag  Ag1  1  0.00008059  0.32976988  0.00295581  1
  Ag  Ag2  1  0.00272593  0.51175743  0.50293535  1
  Ag  Ag3  1  0.16391534  0.66927504  0.49911461  1
  Ag  Ag4  1  0.00112504  0.83594323  0.16825480  1
  Ag  Ag5  1  -0.00380851  0.16186177  0.83922394  1
  Ag  Ag6  1  0.67075815  0.33448458  0.66636609  1
  Ag  Ag7  1  0.84775742  0.66430972  0.49662721  1
  Ag  Ag8  1  0.84418951  0.83214384  0.00388830  1
  Ag  Ag9  1  0.83527946  0.49696092  0.33608789  1
  Ag  Ag10  1  0.66612238  -0.00050618  0.67077131  1
  Ag  Ag11  1  0.83390204  0.33751270  0.49045824  1
  Ag  Ag12  1  0.83774844  0.16893716  0.33073829  1
  Ag  Ag13  1  0.32447109  0.83033088  0.49239109  1
  Ag  Ag14  1  0.83868344  0.00369954  0.16972724  1
  Ag  Ag15  1  0.16397483  0.83036727  0.00123785  1
  Ag  Ag16  1  0.32939188  0.15431193  0.49687234  1
  Ag  Ag17  1  0.84002091  0.83303923  0.32961717  1
  Ag  Ag18  1  0.50237289  0.33721620  0.16611171  1
  Ag  Ag19  1  -0.00339455  0.15683694  0.16798814  1
  Ag  Ag20  1  0.67133570  0.66652591  0.67211548  1
  Ag  Ag21  1  0.16522492  0.66762643  0.83225077  1
  Ag  Ag22  1  0.67491713  0.16370892  0.83168566  1
  Ag  Ag23  1  0.15752402  0.16398866  0.33267762  1
  Ag  Ag24  1  0.16866418  -0.01323117  0.49738765  1
  Ag  Ag25  1  0.32399424  0.82988457  0.16733321  1
  Ag  Ag26  1  0.00117585  0.83080346  0.83902369  1
  Ag  Ag27  1  0.00373861  0.67362825  0.34236758  1
  Ag  Ag28  1  0.49565501  0.82843302  -0.00139369  1
  Ag  Ag29  1  0.32939049  0.51113183  0.82955957  1
  Ag  Ag30  1  0.32541960  0.67103137  0.33659973  1
  Ag  Ag31  1  0.65863526  0.66972840  -0.00585079  1
  Ag  Ag32  1  0.00403926  0.82386311  0.48737743  1
  Ag  Ag33  1  0.66668772  0.51151880  0.83314261  1
  Ag  Ag34  1  -0.00131652  -0.00750412  0.00884583  1
  Ag  Ag35  1  0.32318746  -0.01218961  0.33958891  1
  Ag  Ag36  1  0.00203275  0.51340799  0.83030091  1
  Ag  Ag37  1  0.48637897  0.66647945  0.49632601  1
  Ag  Ag38  1  0.15723192  0.33606494  0.16684832  1
  Ag  Ag39  1  0.17027451  0.66951405  0.16864729  1
  Ag  Ag40  1  0.33361371  -0.00231112  0.65891637  1
  Ag  Ag41  1  0.67892205  0.16952402  0.16558942  1
  Ag  Ag42  1  0.50015821  0.51127691  -0.00077645  1
  Ag  Ag43  1  -0.00058778  0.66632227  0.65517854  1
  Ag  Ag44  1  0.33709123  0.67070482  0.00591277  1
  Ag  Ag45  1  0.33080598  0.82885948  0.83866714  1
  Ag  Ag46  1  0.16518587  0.50361546  0.66586257  1
  Ag  Ag47  1  0.00176087  -0.00768545  0.32950130  1
  Ag  Ag48  1  0.67489615  0.33253996  0.33228198  1
  Ag  Ag49  1  0.83229254  0.16744610  0.66127845  1
  Ag  Ag50  1  0.83427132  0.32471701  0.17185267  1
  Ag  Ag51  1  0.66690199  0.82930701  0.83606176  1
  Ag  Ag52  1  0.49315930  0.66752633  0.16055157  1
  Ag  Ag53  1  0.50175233  -0.00468462  0.83382243  1
  Sb  Sb54  1  0.50255636  0.33334178  0.83854590  1
  Sb  Sb55  1  -0.00457553  0.33802880  0.66997136  1
  Sb  Sb56  1  0.16127262  0.16987403  0.66270076  1
  Sb  Sb57  1  0.16090851  0.83353441  0.33088759  1
  Sb  Sb58  1  0.33759041  0.33173989  0.66470085  1
  Sb  Sb59  1  0.00030592  0.50325600  0.16758445  1
  Sb  Sb60  1  0.66811787  0.83069825  0.50486852  1
  Sb  Sb61  1  0.33455403  0.33656432  0.33228303  1
  Sb  Sb62  1  0.66682630  0.16746049  0.50119479  1
  Sb  Sb63  1  0.67054265  0.00304499  0.33608369  1
  Sb  Sb64  1  0.83410874  0.83453379  0.66605034  1
  Sb  Sb65  1  0.00231935  0.67140556  0.00097685  1
  Sb  Sb66  1  0.49204231  -0.00685222  0.50403544  1
  Sb  Sb67  1  0.32777880  -0.01015528  0.00157136  1
  Sb  Sb68  1  0.83903243  -0.00193650  0.49580324  1
  Sb  Sb69  1  0.50685818  0.16509457  0.66669021  1
  Sb  Sb70  1  0.83534547  0.16283375  0.00411208  1
  Sb  Sb71  1  0.32894886  0.16036084  0.17178862  1
  Sb  Sb72  1  0.49896350  0.83126434  0.67207136  1
  Sb  Sb73  1  0.67105811  0.83503475  0.16053089  1
  Sb  Sb74  1  0.33105216  0.16115479  0.82872335  1
  Sb  Sb75  1  0.16032188  -0.00436715  0.17349283  1
  Sb  Sb76  1  -0.00540447  0.33314383  0.32883499  1
  Sb  Sb77  1  0.16112741  0.33812821  0.49464319  1
  Sb  Sb78  1  0.16817643  -0.00816446  0.82859479  1
  Sb  Sb79  1  0.67104901  0.33604821  0.00113983  1
  Sb  Sb80  1  0.83294592  0.33237154  0.83499020  1
  Sb  Sb81  1  0.16830813  0.50981116  -0.00351302  1
  Sb  Sb82  1  0.50302769  -0.00355279  0.16278625  1
  Sb  Sb83  1  0.50011583  0.83126523  0.32895227  1
  Sb  Sb84  1  0.50399253  0.33912614  0.49556554  1
  Sb  Sb85  1  0.50208925  0.16478696  0.00087339  1
  Sb  Sb86  1  0.67139889  -0.00551405  -0.00466619  1
  Sb  Sb87  1  0.83247203  -0.00100877  0.83624190  1
  Sb  Sb88  1  0.66989326  0.66409657  0.33316152  1
  Sb  Sb89  1  0.16314726  0.34040265  0.83927278  1
  Sb  Sb90  1  0.83647655  0.49866603  0.66198385  1
  Sb  Sb91  1  0.33318716  0.51009324  0.16855287  1
  Sb  Sb92  1  0.83239441  0.50476510  0.00297501  1
  Sb  Sb93  1  0.83564301  0.66810834  0.83042205  1
  Sb  Sb94  1  0.50297209  0.50276205  0.33008353  1
  Sb  Sb95  1  0.00036313  -0.00508360  0.66503659  1
  Sb  Sb96  1  0.32960596  0.67157172  0.66450822  1
  Sb  Sb97  1  0.66939087  0.50246582  0.50538222  1
  Sb  Sb98  1  0.16210647  0.50151043  0.33674277  1
  Sb  Sb99  1  0.49684593  0.67112515  0.83566236  1
  Sb  Sb100  1  0.49781825  0.50443303  0.67121417  1
  Sb  Sb101  1  0.16266223  0.16049991  0.00455891  1
  Sb  Sb102  1  0.16644731  0.82708165  0.66697910  1
  Sb  Sb103  1  0.66633457  0.49712764  0.16324705  1
  Sb  Sb104  1  0.83607954  0.66935237  0.17099854  1
  Sb  Sb105  1  0.00137722  0.16541079  0.49565076  1
  Sb  Sb106  1  0.50127959  0.16711366  0.33273393  1
  Sb  Sb107  1  0.32966634  0.34369291  0.00316361  1
  Te  Te108  1  0.16155944  0.16811876  0.17117114  1
  Te  Te109  1  0.16957566  0.17138434  0.49514362  1
  Te  Te110  1  0.16106505  0.16659121  0.83244852  1
  Te  Te111  1  0.16796169  0.50008837  0.16610654  1
  Te  Te112  1  0.16444829  0.50250941  0.50228789  1
  Te  Te113  1  0.16565198  0.50529122  0.83047140  1
  Te  Te114  1  0.16501981  0.83078418  0.16527607  1
  Te  Te115  1  0.16469294  0.83014438  0.50155401  1
  Te  Te116  1  0.16660179  0.82860883  0.83442254  1
  Te  Te117  1  0.50212647  0.16798543  0.16611368  1
  Te  Te118  1  0.49137152  0.16827632  0.49947077  1
  Te  Te119  1  0.50098992  0.16060129  0.83367060  1
  Te  Te120  1  0.49921270  0.50210725  0.16095838  1
  Te  Te121  1  0.49459522  0.50490673  0.49992975  1
  Te  Te122  1  0.50080446  0.49889165  0.83825476  1
  Te  Te123  1  0.50121598  0.82969564  0.16107570  1
  Te  Te124  1  0.49687374  0.82655568  0.49893971  1
  Te  Te125  1  0.50049724  0.83517316  0.83730522  1
  Te  Te126  1  0.83655558  0.16580940  0.16708802  1
  Te  Te127  1  0.83343886  0.16806602  0.49730689  1
  Te  Te128  1  0.83476535  0.16577096  0.83272389  1
  Te  Te129  1  0.83344351  0.49749434  0.17277541  1
  Te  Te130  1  0.83575744  0.50077174  0.49726839  1
  Te  Te131  1  0.83409756  0.50032799  0.83400070  1
  Te  Te132  1  0.83685071  0.83492938  0.16665539  1
  Te  Te133  1  0.83751786  0.83004664  0.49690320  1
  Te  Te134  1  0.83299858  0.83331800  0.83734264  1
  Te  Te135  1  0.15996629  -0.00709224  -0.00233987  1
  Te  Te136  1  0.16562239  0.00284336  0.33670266  1
  Te  Te137  1  0.17012905  0.00382678  0.65911145  1
  Te  Te138  1  0.16255833  0.33178098  0.00737388  1
  Te  Te139  1  0.16657177  0.32964787  0.32663905  1
  Te  Te140  1  0.16756638  0.34051704  0.66675998  1
  Te  Te141  1  0.17045250  0.67138742  -0.00022561  1
  Te  Te142  1  0.16591811  0.66550898  0.33327617  1
  Te  Te143  1  0.16396839  0.66232097  0.66722098  1
  Te  Te144  1  0.49898224  -0.00503912  -0.00457712  1
  Te  Te145  1  0.49611255  -0.00020943  0.33335904  1
  Te  Te146  1  0.50046290  -0.00137560  0.67089978  1
  Te  Te147  1  0.49944093  0.33464489  0.00633553  1
  Te  Te148  1  0.50776491  0.33480516  0.32642974  1
  Te  Te149  1  0.51003108  0.33348380  0.66557707  1
  Te  Te150  1  0.49809623  0.66838566  -0.00128206  1
  Te  Te151  1  0.49795982  0.66603292  0.33185789  1
  Te  Te152  1  0.50934629  0.66639805  0.65965333  1
  Te  Te153  1  0.83842921  -0.00643901  0.00533506  1
  Te  Te154  1  0.83587359  0.00039141  0.33108592  1
  Te  Te155  1  0.83039890  0.00534838  0.66402103  1
  Te  Te156  1  0.83848727  0.33603033  0.00669488  1
  Te  Te157  1  0.83319418  0.33116916  0.33227765  1
  Te  Te158  1  0.82905328  0.32936993  0.66648422  1
  Te  Te159  1  0.82591178  0.67176812  0.00222126  1
  Te  Te160  1  0.83526464  0.66815684  0.33646880  1
  Te  Te161  1  0.83375921  0.66636602  0.66064307  1
  Te  Te162  1  0.00008457  0.16505289  0.00134390  1
  Te  Te163  1  -0.00166083  0.16681632  0.33053976  1
  Te  Te164  1  -0.00585354  0.16669354  0.66869457  1
  Te  Te165  1  -0.00015459  0.49825192  -0.00666055  1
  Te  Te166  1  -0.00425429  0.50499933  0.33647741  1
  Te  Te167  1  0.00179540  0.50360687  0.66937031  1
  Te  Te168  1  0.00152755  0.83232104  0.00045336  1
  Te  Te169  1  -0.00117006  0.83345788  0.33132051  1
  Te  Te170  1  -0.00101367  0.82847043  0.67504837  1
  Te  Te171  1  0.33201455  0.16674623  0.00004314  1
  Te  Te172  1  0.33251044  0.16726281  0.33700335  1
  Te  Te173  1  0.33221984  0.16235356  0.66159595  1
  Te  Te174  1  0.33687528  0.50804687  -0.00483622  1
  Te  Te175  1  0.33356754  0.50623403  0.33971347  1
  Te  Te176  1  0.33081123  0.49898047  0.66791264  1
  Te  Te177  1  0.33130530  0.83000331  -0.00073376  1
  Te  Te178  1  0.33563124  0.83062435  0.33296950  1
  Te  Te179  1  0.33343991  0.83846609  0.67003692  1
  Te  Te180  1  0.66767053  0.16668376  -0.00287260  1
  Te  Te181  1  0.67106053  0.17001593  0.33076955  1
  Te  Te182  1  0.67148143  0.16605346  0.66839483  1
  Te  Te183  1  0.66455602  0.50376641  -0.00630311  1
  Te  Te184  1  0.67317570  0.49531086  0.33418963  1
  Te  Te185  1  0.66740573  0.50075930  0.67304021  1
  Te  Te186  1  0.66270214  0.83039906  -0.00418323  1
  Te  Te187  1  0.67488936  0.83421940  0.33306686  1
  Te  Te188  1  0.66726436  0.83365012  0.67329063  1
  Te  Te189  1  -0.00051074  -0.00173532  0.16864052  1
  Te  Te190  1  0.00588059  -0.00301439  0.49606329  1
  Te  Te191  1  0.00022845  -0.00251971  0.83325704  1
  Te  Te192  1  -0.00143022  0.33661618  0.16409796  1
  Te  Te193  1  -0.00676781  0.33632675  0.50111738  1
  Te  Te194  1  -0.00045098  0.32681037  0.83868173  1
  Te  Te195  1  0.00398160  0.67067847  0.16878252  1
  Te  Te196  1  0.00383587  0.66779084  0.49977196  1
  Te  Te197  1  0.00162769  0.66947725  0.83581763  1
  Te  Te198  1  0.33397908  -0.00803236  0.17166596  1
  Te  Te199  1  0.33068915  -0.00507994  0.49883191  1
  Te  Te200  1  0.33642010  -0.00397008  0.83188275  1
  Te  Te201  1  0.33713459  0.33140921  0.16723279  1
  Te  Te202  1  0.33394501  0.33707218  0.49932570  1
  Te  Te203  1  0.33287131  0.33570621  0.83365241  1
  Te  Te204  1  0.33235218  0.67027572  0.16733179  1
  Te  Te205  1  0.32874899  0.66981613  0.50249715  1
  Te  Te206  1  0.33143794  0.66814586  0.82928728  1
  Te  Te207  1  0.67154147  0.00702554  0.16670822  1
  Te  Te208  1  0.66348509  -0.00024416  0.50745270  1
  Te  Te209  1  0.66621596  0.00115341  0.83054426  1
  Te  Te210  1  0.66924557  0.33025000  0.16660405  1
  Te  Te211  1  0.67158024  0.33444557  0.49966318  1
  Te  Te212  1  0.66639645  0.32695631  0.83103337  1
  Te  Te213  1  0.66229200  0.66611140  0.16436585  1
  Te  Te214  1  0.66479646  0.66693656  0.50268796  1
  Te  Te215  1  0.66779104  0.66842367  0.83279904  1
