# generated using pymatgen
data_AgSbTe2
_symmetry_space_group_name_H-M   'P 1'
_cell_length_a   18.35545536
_cell_length_b   18.35758147
_cell_length_c   18.35280367
_cell_angle_alpha   90.00216780
_cell_angle_beta   90.00074788
_cell_angle_gamma   90.00027898
_symmetry_Int_Tables_number   1
_chemical_formula_structural   AgSbTe2
_chemical_formula_sum   'Ag54 Sb54 Te108'
_cell_volume   6184.19315297
_cell_formula_units_Z   54
loop_
 _symmetry_equiv_pos_site_id
 _symmetry_equiv_pos_as_xyz
  1  'x, y, z'
loop_
 _atom_site_type_symbol
 _atom_site_label
 _atom_site_symmetry_multiplicity
 _atom_site_fract_x
 _atom_site_fract_y
 _atom_site_fract_z
 _atom_site_occupancy
  Ag  Ag0  1  0.16871502  0.50530985  0.33403454  1
  Ag  Ag1  1  0.33704316  0.17179013  0.16367642  1
  Ag  Ag2  1  0.67292739  0.34494754  0.67042970  1
  Ag  Ag3  1  0.16076361  0.66559721  0.82991856  1
  Ag  Ag4  1  -0.00095041  0.66712961  0.33553230  1
  Ag  Ag5  1  0.66938673  0.82358742  0.83001890  1
  Ag  Ag6  1  0.17190029  0.16754667  -0.00107610  1
  Ag  Ag7  1  0.34174452  0.50445226  0.83042740  1
  Ag  Ag8  1  0.84257461  0.66747243  0.15564469  1
  Ag  Ag9  1  0.83925231  0.66923774  0.51605874  1
  Ag  Ag10  1  0.33210150  -0.01445622  0.33008744  1
  Ag  Ag11  1  -0.00748648  0.82957404  0.49653965  1
  Ag  Ag12  1  0.50426585  0.82428803  0.00352582  1
  Ag  Ag13  1  0.49556592  0.15919468  0.33063034  1
  Ag  Ag14  1  0.82820732  0.50450947  0.67180670  1
  Ag  Ag15  1  0.16626071  0.66798133  0.50422033  1
  Ag  Ag16  1  0.00193907  -0.01528786  0.33672530  1
  Ag  Ag17  1  -0.00334105  0.16190100  0.50012091  1
  Ag  Ag18  1  -0.00996964  0.34557557  0.66736772  1
  Ag  Ag19  1  -0.00946925  0.66443821  0.66032364  1
  Ag  Ag20  1  0.50567480  0.50144587  0.67374762  1
  Ag  Ag21  1  0.33483348  0.50765429  0.50432374  1
  Ag  Ag22  1  -0.00833829  0.34626513  -0.00486386  1
  Ag  Ag23  1  0.67776069  0.83024381  0.50588315  1
  Ag  Ag24  1  0.66572976  0.50427036  0.83112000  1
  Ag  Ag25  1  0.33257747  0.82504962  0.49789534  1
  Ag  Ag26  1  0.49226336  0.66832859  0.50174445  1
  Ag  Ag27  1  0.15469491  0.82689546  0.66354027  1
  Ag  Ag28  1  0.33266994  0.50436247  0.16491755  1
  Ag  Ag29  1  0.83428652  0.81776978  0.65387954  1
  Ag  Ag30  1  0.34183864  0.34132493  0.66639237  1
  Ag  Ag31  1  0.49998174  0.17787412  0.66818927  1
  Ag  Ag32  1  0.82937722  0.66616002  0.83201260  1
  Ag  Ag33  1  0.34273476  0.66507165  0.00194467  1
  Ag  Ag34  1  0.84104780  0.82986463  0.34117818  1
  Ag  Ag35  1  0.83418159  0.34354267  0.51339408  1
  Ag  Ag36  1  0.67179462  0.33152363  -0.00789358  1
  Ag  Ag37  1  0.50032700  0.83004225  0.33274437  1
  Ag  Ag38  1  0.83206137  0.34638190  0.83087906  1
  Ag  Ag39  1  0.50201974  0.50647658  -0.00741372  1
  Ag  Ag40  1  0.82879925  0.50221048  -0.00954228  1
  Ag  Ag41  1  0.50003694  0.66587621  0.15526863  1
  Ag  Ag42  1  -0.00520813  0.82190853  0.17881754  1
  Ag  Ag43  1  0.83199692  0.17549075  0.00035585  1
  Ag  Ag44  1  0.50352095  0.66379515  0.83558267  1
  Ag  Ag45  1  -0.01200975  0.66544426  0.00541227  1
  Ag  Ag46  1  0.00026646  0.50568063  0.16385867  1
  Ag  Ag47  1  0.66323339  0.00081626  -0.00199839  1
  Ag  Ag48  1  0.83491910  -0.01601030  0.50010018  1
  Ag  Ag49  1  0.34090692  -0.01058603  0.00479881  1
  Ag  Ag50  1  0.82861419  0.82386740  -0.00054165  1
  Ag  Ag51  1  0.50034759  0.16643433  -0.00007130  1
  Ag  Ag52  1  0.67424572  0.66393351  0.66818856  1
  Ag  Ag53  1  0.33163304  0.66740324  0.34006878  1
  Sb  Sb54  1  -0.00331576  -0.00552028  0.65976866  1
  Sb  Sb55  1  0.16342226  -0.00725198  0.49857655  1
  Sb  Sb56  1  0.66217179  0.16682622  0.16246627  1
  Sb  Sb57  1  0.66947110  0.16347226  0.50221646  1
  Sb  Sb58  1  0.16503880  0.66555766  0.16741551  1
  Sb  Sb59  1  0.33474624  0.33960491  0.33693317  1
  Sb  Sb60  1  0.33111823  0.82849654  0.16856036  1
  Sb  Sb61  1  0.66682389  0.50519654  0.15492804  1
  Sb  Sb62  1  0.33826447  0.82407144  0.83255468  1
  Sb  Sb63  1  0.33602693  0.17273196  0.83867537  1
  Sb  Sb64  1  0.33324748  0.66274589  0.66437034  1
  Sb  Sb65  1  0.66620436  0.16974520  0.83421354  1
  Sb  Sb66  1  0.83454101  0.34031482  0.16059379  1
  Sb  Sb67  1  -0.00131898  -0.00591366  0.00595686  1
  Sb  Sb68  1  0.33294396  0.16763842  0.49667314  1
  Sb  Sb69  1  0.66749588  0.66926369  0.34298196  1
  Sb  Sb70  1  0.66722394  0.66799773  -0.01071393  1
  Sb  Sb71  1  0.00045266  0.50797212  0.49868941  1
  Sb  Sb72  1  0.66451057  0.50734547  0.50765019  1
  Sb  Sb73  1  0.50527131  0.82424617  0.66562920  1
  Sb  Sb74  1  0.16722753  0.16579397  0.66916544  1
  Sb  Sb75  1  -0.00626303  0.82737983  0.82966901  1
  Sb  Sb76  1  0.66615694  -0.00480204  0.33118352  1
  Sb  Sb77  1  0.49934818  -0.00535393  0.16469819  1
  Sb  Sb78  1  0.16625378  0.50652909  0.66517898  1
  Sb  Sb79  1  0.66726836  0.33201514  0.33845728  1
  Sb  Sb80  1  0.16457828  0.82445597  0.33820007  1
  Sb  Sb81  1  0.50303107  0.33677543  0.50380723  1
  Sb  Sb82  1  0.50143542  -0.00623064  0.83644475  1
  Sb  Sb83  1  0.83234280  0.16013515  0.33314747  1
  Sb  Sb84  1  0.49568107  0.50819104  0.33233415  1
  Sb  Sb85  1  0.66944901  0.82827726  0.16386985  1
  Sb  Sb86  1  0.16910574  -0.00705987  0.83559975  1
  Sb  Sb87  1  0.16704892  0.33437148  0.16332945  1
  Sb  Sb88  1  0.16301769  0.33853649  0.50245163  1
  Sb  Sb89  1  0.83284538  -0.00444789  0.83285030  1
  Sb  Sb90  1  -0.00535329  0.50510808  0.83651027  1
  Sb  Sb91  1  0.16689922  0.82924360  -0.00444459  1
  Sb  Sb92  1  0.16316506  0.34060450  0.83396297  1
  Sb  Sb93  1  0.33548954  0.34050470  -0.00374018  1
  Sb  Sb94  1  0.33546880  0.00043794  0.66570687  1
  Sb  Sb95  1  0.66708160  -0.00311798  0.66994911  1
  Sb  Sb96  1  0.00133620  0.16864389  0.16705209  1
  Sb  Sb97  1  0.83638389  0.50995262  0.33472331  1
  Sb  Sb98  1  0.16628693  0.50209894  0.00077271  1
  Sb  Sb99  1  0.83423966  -0.00765732  0.16731184  1
  Sb  Sb100  1  0.16880857  -0.00028225  0.16706262  1
  Sb  Sb101  1  -0.00235873  0.33949961  0.33541396  1
  Sb  Sb102  1  -0.00123758  0.17071887  0.83229548  1
  Sb  Sb103  1  0.83056746  0.17054727  0.66826313  1
  Sb  Sb104  1  0.50533583  0.34126012  0.83340072  1
  Sb  Sb105  1  0.16975009  0.16920132  0.33116684  1
  Sb  Sb106  1  0.49980791  0.33825939  0.16425752  1
  Sb  Sb107  1  0.50258124  -0.00637740  0.49899935  1
  Te  Te108  1  0.17165866  0.16778667  0.16124329  1
  Te  Te109  1  0.16011486  0.16762153  0.50055545  1
  Te  Te110  1  0.16713141  0.16547935  0.83880618  1
  Te  Te111  1  0.16821706  0.49891448  0.17011906  1
  Te  Te112  1  0.17139196  0.50468902  0.49715133  1
  Te  Te113  1  0.17757700  0.50737256  0.83318334  1
  Te  Te114  1  0.15523629  0.83408286  0.16435026  1
  Te  Te115  1  0.17233641  0.82846209  0.50384210  1
  Te  Te116  1  0.16852362  0.82583326  0.82571195  1
  Te  Te117  1  0.49550924  0.16781643  0.16558608  1
  Te  Te118  1  0.50031399  0.16623441  0.49968736  1
  Te  Te119  1  0.49943430  0.16522001  0.83519409  1
  Te  Te120  1  0.49675559  0.50511052  0.16505447  1
  Te  Te121  1  0.49656219  0.50370757  0.50009825  1
  Te  Te122  1  0.50150939  0.50137981  0.83417185  1
  Te  Te123  1  0.49825441  0.82641112  0.16670900  1
  Te  Te124  1  0.49211875  0.83077430  0.49893087  1
  Te  Te125  1  0.50512549  0.82736278  0.83636171  1
  Te  Te126  1  0.83256861  0.16754435  0.16264758  1
  Te  Te127  1  0.83713971  0.17047420  0.49886397  1
  Te  Te128  1  0.83312672  0.16357068  0.84000735  1
  Te  Te129  1  0.83609922  0.50711957  0.16782921  1
  Te  Te130  1  0.83205543  0.50271225  0.50296702  1
  Te  Te131  1  0.83374189  0.50202175  0.83255343  1
  Te  Te132  1  0.83563640  0.82841714  0.15885621  1
  Te  Te133  1  0.83495085  0.82843287  0.49769698  1
  Te  Te134  1  0.82820059  0.83188297  0.84097650  1
  Te  Te135  1  0.17144032  0.00426739  -0.00057178  1
  Te  Te136  1  0.17118013  0.00396130  0.33371990  1
  Te  Te137  1  0.16677731  -0.00786933  0.66785070  1
  Te  Te138  1  0.15976271  0.32786779  -0.00283065  1
  Te  Te139  1  0.16640509  0.34176461  0.33415106  1
  Te  Te140  1  0.15919739  0.33117218  0.66821319  1
  Te  Te141  1  0.16919912  0.66699434  -0.00580242  1
  Te  Te142  1  0.16814116  0.66405402  0.33420763  1
  Te  Te143  1  0.16704766  0.66987925  0.66618549  1
  Te  Te144  1  0.49874213  0.00412351  0.00038429  1
  Te  Te145  1  0.49518832  -0.00281014  0.33180576  1
  Te  Te146  1  0.50010458  0.01044834  0.66791979  1
  Te  Te147  1  0.50342032  0.33005830  -0.00034161  1
  Te  Te148  1  0.50178130  0.32614251  0.33432245  1
  Te  Te149  1  0.50035384  0.33833160  0.66774335  1
  Te  Te150  1  0.50234551  0.66522238  -0.00266673  1
  Te  Te151  1  0.49797846  0.67047270  0.34296120  1
  Te  Te152  1  0.49962048  0.66201506  0.66368350  1
  Te  Te153  1  0.83075559  0.00026762  0.00046075  1
  Te  Te154  1  0.83540391  -0.00655244  0.33589058  1
  Te  Te155  1  0.83199018  0.00057540  0.66153128  1
  Te  Te156  1  0.83335619  0.33655972  -0.00068592  1
  Te  Te157  1  0.83192752  0.33206845  0.33402677  1
  Te  Te158  1  0.83317149  0.33194219  0.66995562  1
  Te  Te159  1  0.83135284  0.66255708  -0.00172099  1
  Te  Te160  1  0.83495391  0.67194670  0.33058336  1
  Te  Te161  1  0.83490506  0.66515839  0.67292735  1
  Te  Te162  1  -0.00452797  0.16278062  0.00147307  1
  Te  Te163  1  0.00076858  0.16996822  0.33781243  1
  Te  Te164  1  0.00004478  0.16464970  0.66108818  1
  Te  Te165  1  0.00002047  0.50257522  0.00238591  1
  Te  Te166  1  0.00307033  0.50591206  0.32773857  1
  Te  Te167  1  -0.00336163  0.50292073  0.66661145  1
  Te  Te168  1  -0.00152532  0.82848958  -0.00197500  1
  Te  Te169  1  0.00165918  0.82895650  0.33540364  1
  Te  Te170  1  -0.00449254  0.82853465  0.66388266  1
  Te  Te171  1  0.33415180  0.17364969  0.00274195  1
  Te  Te172  1  0.33603511  0.17161160  0.32912205  1
  Te  Te173  1  0.33644264  0.16969735  0.66696833  1
  Te  Te174  1  0.33525943  0.50329601  0.00209692  1
  Te  Te175  1  0.33202047  0.50523282  0.33188050  1
  Te  Te176  1  0.33087378  0.49743649  0.66447917  1
  Te  Te177  1  0.33707992  0.83132906  -0.00009658  1
  Te  Te178  1  0.33178032  0.82933277  0.33318064  1
  Te  Te179  1  0.33693400  0.83713812  0.66253081  1
  Te  Te180  1  0.66748655  0.16800878  -0.00042710  1
  Te  Te181  1  0.65819724  0.16384029  0.33318504  1
  Te  Te182  1  0.66063866  0.16653184  0.66674860  1
  Te  Te183  1  0.66478019  0.49458843  -0.00586511  1
  Te  Te184  1  0.66639421  0.49646967  0.33191947  1
  Te  Te185  1  0.66675425  0.50214882  0.66846574  1
  Te  Te186  1  0.66405932  0.83508543  0.00085748  1
  Te  Te187  1  0.66032778  0.83529914  0.33644643  1
  Te  Te188  1  0.67090131  0.83134829  0.66727886  1
  Te  Te189  1  0.00038871  0.00038898  0.17584836  1
  Te  Te190  1  -0.00237531  -0.00284868  0.49510947  1
  Te  Te191  1  0.00196215  0.00119687  0.83380133  1
  Te  Te192  1  0.00049896  0.33778045  0.16177734  1
  Te  Te193  1  -0.00415158  0.33638707  0.50295096  1
  Te  Te194  1  -0.00423632  0.33423628  0.83315100  1
  Te  Te195  1  0.00127361  0.66511525  0.16440875  1
  Te  Te196  1  -0.00038900  0.66759535  0.49958965  1
  Te  Te197  1  0.00137596  0.66724383  0.83484665  1
  Te  Te198  1  0.33453140  0.00073654  0.16601775  1
  Te  Te199  1  0.33390167  -0.00080532  0.49404115  1
  Te  Te200  1  0.33335263  0.00075125  0.84139974  1
  Te  Te201  1  0.33340556  0.33597502  0.16698044  1
  Te  Te202  1  0.33310130  0.33631020  0.50622565  1
  Te  Te203  1  0.33105482  0.34118431  0.82790615  1
  Te  Te204  1  0.33335525  0.66522664  0.16303538  1
  Te  Te205  1  0.33153432  0.66456876  0.50126025  1
  Te  Te206  1  0.34108786  0.66338812  0.83706949  1
  Te  Te207  1  0.66703171  -0.00012689  0.15728874  1
  Te  Te208  1  0.67271666  -0.00653233  0.49952463  1
  Te  Te209  1  0.66625446  -0.00520380  0.83913817  1
  Te  Te210  1  0.66733918  0.33484111  0.16289674  1
  Te  Te211  1  0.67259793  0.33129390  0.50642937  1
  Te  Te212  1  0.67125104  0.33507946  0.83167340  1
  Te  Te213  1  0.65925639  0.66620217  0.17454826  1
  Te  Te214  1  0.67072834  0.67151631  0.50702178  1
  Te  Te215  1  0.66621624  0.66525895  0.82994934  1
