# generated using pymatgen
data_AgSbTe2
_symmetry_space_group_name_H-M   'P 1'
_cell_length_a   18.33987038
_cell_length_b   18.33248180
_cell_length_c   18.33098314
_cell_angle_alpha   89.99649252
_cell_angle_beta   90.00174016
_cell_angle_gamma   89.99685768
_symmetry_Int_Tables_number   1
_chemical_formula_structural   AgSbTe2
_chemical_formula_sum   'Ag54 Sb54 Te108'
_cell_volume   6163.15770384
_cell_formula_units_Z   54
loop_
 _symmetry_equiv_pos_site_id
 _symmetry_equiv_pos_as_xyz
  1  'x, y, z'
loop_
 _atom_site_type_symbol
 _atom_site_label
 _atom_site_symmetry_multiplicity
 _atom_site_fract_x
 _atom_site_fract_y
 _atom_site_fract_z
 _atom_site_occupancy
  Ag  Ag0  1  0.34027329  0.50743488  0.17175121  1
  Ag  Ag1  1  0.33862897  0.66518801  0.66875987  1
  Ag  Ag2  1  -0.01005649  -0.00072631  0.32790651  1
  Ag  Ag3  1  0.83825837  0.00437455  0.17115740  1
  Ag  Ag4  1  0.50631459  0.49937824  0.33463376  1
  Ag  Ag5  1  -0.00333927  0.82782248  0.50061432  1
  Ag  Ag6  1  0.83225675  0.17692538  0.66624262  1
  Ag  Ag7  1  -0.01164261  0.49820178  0.17346463  1
  Ag  Ag8  1  0.17162322  0.16039128  0.00054835  1
  Ag  Ag9  1  0.50458807  0.17215482  0.32720045  1
  Ag  Ag10  1  0.50613918  0.33710255  0.17157819  1
  Ag  Ag11  1  0.16488101  0.82792186  0.67207418  1
  Ag  Ag12  1  0.50151461  0.66120420  0.50037558  1
  Ag  Ag13  1  0.66212703  0.16856899  0.17105636  1
  Ag  Ag14  1  0.66695936  0.83132582  0.49222694  1
  Ag  Ag15  1  0.50434267  -0.00649717  0.49724766  1
  Ag  Ag16  1  0.17490348  0.67035579  0.16540813  1
  Ag  Ag17  1  0.82403356  0.66334022  0.16974533  1
  Ag  Ag18  1  0.16037352  -0.00406738  0.16497885  1
  Ag  Ag19  1  0.17215178  0.66692451  0.50265030  1
  Ag  Ag20  1  0.83519007  0.33248109  0.81967453  1
  Ag  Ag21  1  0.82699310  0.48961674  0.65508801  1
  Ag  Ag22  1  0.82629474  0.33684476  0.50835533  1
  Ag  Ag23  1  0.82671968  0.50272126  0.33203121  1
  Ag  Ag24  1  0.82501375  0.33454983  0.16811036  1
  Ag  Ag25  1  0.50632025  0.50339865  0.65318802  1
  Ag  Ag26  1  0.66502195  0.82732545  0.17314730  1
  Ag  Ag27  1  -0.00312919  0.16333064  0.16650149  1
  Ag  Ag28  1  0.82874185  0.82947490  0.33079629  1
  Ag  Ag29  1  0.34005151  0.82375467  0.16363698  1
  Ag  Ag30  1  0.66294559  0.16905407  0.82854034  1
  Ag  Ag31  1  0.33469141  0.16975563  0.84042578  1
  Ag  Ag32  1  0.66927027  -0.00541012  0.33141436  1
  Ag  Ag33  1  0.34295763  0.16700347  0.16161241  1
  Ag  Ag34  1  0.17369587  0.66864601  0.83070215  1
  Ag  Ag35  1  0.66433661  0.50512710  0.17098314  1
  Ag  Ag36  1  0.33412430  0.66949778  0.00644378  1
  Ag  Ag37  1  0.49468968  0.66613148  0.83184246  1
  Ag  Ag38  1  0.00347872  0.83208318  0.83037916  1
  Ag  Ag39  1  -0.01422014  0.33371232  0.66608344  1
  Ag  Ag40  1  0.66634188  0.66933262  0.33330266  1
  Ag  Ag41  1  0.16453978  0.16691409  0.67297140  1
  Ag  Ag42  1  0.67327017  0.33760809  0.66350448  1
  Ag  Ag43  1  -0.00206453  0.50357264  0.49600037  1
  Ag  Ag44  1  0.65971327  0.65885985  0.65793994  1
  Ag  Ag45  1  0.34501401  0.50367155  0.49691504  1
  Ag  Ag46  1  0.16955225  0.83427671  0.00333769  1
  Ag  Ag47  1  0.49390415  0.83239279  0.00590064  1
  Ag  Ag48  1  0.00396612  0.00020163  0.01110861  1
  Ag  Ag49  1  0.16218878  0.32856554  0.83089234  1
  Ag  Ag50  1  0.49571244  0.16258162  0.01063671  1
  Ag  Ag51  1  0.66247169  0.16815371  0.49708658  1
  Ag  Ag52  1  0.50027240  0.65969228  0.16920780  1
  Ag  Ag53  1  0.50771158  0.34003391  0.49601206  1
  Sb  Sb54  1  -0.00008259  0.50119265  0.83256514  1
  Sb  Sb55  1  0.33916320  -0.00088462  0.32985803  1
  Sb  Sb56  1  0.66933748  0.00161608  0.01051845  1
  Sb  Sb57  1  0.82531946  0.16855487  0.33300523  1
  Sb  Sb58  1  -0.00659708  0.66914872  0.33194804  1
  Sb  Sb59  1  0.65858886  0.66868896  0.00648253  1
  Sb  Sb60  1  0.83388560  0.00486247  0.83832144  1
  Sb  Sb61  1  0.33765747  0.33494119  0.33099425  1
  Sb  Sb62  1  0.50299600  0.00112625  0.17171628  1
  Sb  Sb63  1  0.33038173  -0.00179925  0.00430907  1
  Sb  Sb64  1  0.00026867  0.00291915  0.66400471  1
  Sb  Sb65  1  0.00790820  0.67249869  0.00353967  1
  Sb  Sb66  1  0.82917873  0.00314565  0.49353060  1
  Sb  Sb67  1  0.16791213  0.50365822  0.00190867  1
  Sb  Sb68  1  0.83533489  0.83390737  0.00742652  1
  Sb  Sb69  1  0.50255452  0.17340815  0.66479748  1
  Sb  Sb70  1  0.33342963  0.33307825  0.00071362  1
  Sb  Sb71  1  0.66661268  0.00267069  0.65876470  1
  Sb  Sb72  1  0.66601954  0.49978983  0.49469126  1
  Sb  Sb73  1  0.66679134  0.33510252  0.33659719  1
  Sb  Sb74  1  0.66870998  0.83397748  0.83285776  1
  Sb  Sb75  1  0.66597657  0.33110323  0.00111008  1
  Sb  Sb76  1  0.49695584  0.82381072  0.66731522  1
  Sb  Sb77  1  -0.00436718  0.16759164  0.49711415  1
  Sb  Sb78  1  -0.00165936  0.83546054  0.16838515  1
  Sb  Sb79  1  0.16614987  0.50245040  0.33292632  1
  Sb  Sb80  1  0.16456907  0.33740205  0.50747655  1
  Sb  Sb81  1  0.82907774  0.66084037  0.49552953  1
  Sb  Sb82  1  0.50118428  -0.00210073  0.83073972  1
  Sb  Sb83  1  0.50774729  0.83003059  0.32930969  1
  Sb  Sb84  1  0.33623406  0.33824815  0.66660462  1
  Sb  Sb85  1  0.32970949  0.83226563  0.83785900  1
  Sb  Sb86  1  0.16607585  -0.00129810  0.83941450  1
  Sb  Sb87  1  0.00086696  0.32879144  -0.00171466  1
  Sb  Sb88  1  0.33997394  0.17322801  0.49952490  1
  Sb  Sb89  1  0.83595811  0.83153817  0.65997825  1
  Sb  Sb90  1  0.49838732  0.50136708  0.00741107  1
  Sb  Sb91  1  0.16678062  0.50245148  0.66538870  1
  Sb  Sb92  1  0.83399535  0.50047810  0.00769858  1
  Sb  Sb93  1  0.33547413  0.82570605  0.49525836  1
  Sb  Sb94  1  0.15997275  0.83114829  0.32961129  1
  Sb  Sb95  1  0.83254613  0.16720666  0.00129408  1
  Sb  Sb96  1  0.50179411  0.33581955  0.83360930  1
  Sb  Sb97  1  0.33210840  -0.00368706  0.66601690  1
  Sb  Sb98  1  0.16975183  0.16431908  0.32828275  1
  Sb  Sb99  1  0.00107918  0.16444864  0.83633469  1
  Sb  Sb100  1  -0.00445855  0.33204926  0.33470717  1
  Sb  Sb101  1  -0.00034426  0.66228977  0.66414858  1
  Sb  Sb102  1  0.16839679  -0.00540000  0.49503597  1
  Sb  Sb103  1  0.16766499  0.33274671  0.16091637  1
  Sb  Sb104  1  0.66645233  0.49711225  0.83197618  1
  Sb  Sb105  1  0.33441499  0.50110788  0.83307777  1
  Sb  Sb106  1  0.34135581  0.66617301  0.33092020  1
  Sb  Sb107  1  0.83208845  0.66246009  0.83501240  1
  Te  Te108  1  0.16349457  0.16771703  0.16414287  1
  Te  Te109  1  0.16932109  0.16602980  0.50326437  1
  Te  Te110  1  0.16639918  0.16515947  0.83382693  1
  Te  Te111  1  0.17358023  0.50305191  0.16744908  1
  Te  Te112  1  0.16005009  0.50575579  0.50012793  1
  Te  Te113  1  0.16659569  0.50366652  0.83372869  1
  Te  Te114  1  0.16474584  0.83144679  0.16383021  1
  Te  Te115  1  0.16665013  0.82859615  0.50149812  1
  Te  Te116  1  0.16576957  0.83116672  0.83417958  1
  Te  Te117  1  0.50123188  0.16245422  0.16751475  1
  Te  Te118  1  0.50330255  0.17585774  0.49918093  1
  Te  Te119  1  0.50076803  0.16690685  0.83314200  1
  Te  Te120  1  0.50095280  0.49862243  0.16854271  1
  Te  Te121  1  0.50212398  0.50114279  0.49657689  1
  Te  Te122  1  0.49949664  0.50535241  0.83344819  1
  Te  Te123  1  0.50111115  0.83540764  0.16492891  1
  Te  Te124  1  0.50336650  0.82848913  0.49928740  1
  Te  Te125  1  0.50007611  0.82834670  0.83931404  1
  Te  Te126  1  0.83400585  0.16795529  0.16739124  1
  Te  Te127  1  0.82927009  0.17201025  0.50223947  1
  Te  Te128  1  0.83080545  0.17123831  0.83181562  1
  Te  Te129  1  0.83076275  0.50140084  0.16955751  1
  Te  Te130  1  0.83616925  0.49765754  0.49728505  1
  Te  Te131  1  0.83435852  0.49339013  0.83284512  1
  Te  Te132  1  0.83050203  0.83030530  0.17050863  1
  Te  Te133  1  0.83188842  0.83339926  0.49487064  1
  Te  Te134  1  0.83824566  0.83290538  0.83280303  1
  Te  Te135  1  0.16418585  -0.00083351  0.00480746  1
  Te  Te136  1  0.16335270  -0.00095425  0.32695630  1
  Te  Te137  1  0.16654557  0.00103605  0.66439471  1
  Te  Te138  1  0.16645075  0.32706715  -0.00864479  1
  Te  Te139  1  0.16527956  0.33284136  0.33597454  1
  Te  Te140  1  0.16894152  0.32994303  0.67249424  1
  Te  Te141  1  0.17223131  0.67035150  0.00097704  1
  Te  Te142  1  0.16519998  0.66704186  0.33203984  1
  Te  Te143  1  0.16575997  0.66794770  0.66712228  1
  Te  Te144  1  0.50093535  -0.00001959  -0.00174869  1
  Te  Te145  1  0.50554807  0.00327966  0.33847070  1
  Te  Te146  1  0.49912212  -0.00189419  0.65812817  1
  Te  Te147  1  0.49917433  0.32609303  0.00366456  1
  Te  Te148  1  0.50092825  0.33482357  0.33217752  1
  Te  Te149  1  0.50395085  0.34085583  0.66537276  1
  Te  Te150  1  0.49476121  0.66805375  0.00409836  1
  Te  Te151  1  0.50578376  0.66414131  0.33085560  1
  Te  Te152  1  0.49989251  0.66358464  0.66460543  1
  Te  Te153  1  0.84160810  0.00020694  0.00780335  1
  Te  Te154  1  0.83055608  0.00127645  0.32953260  1
  Te  Te155  1  0.83363822  0.00532276  0.66740513  1
  Te  Te156  1  0.83407799  0.33289187  0.00883005  1
  Te  Te157  1  0.83330701  0.33882429  0.32649387  1
  Te  Te158  1  0.82966467  0.33318409  0.66421433  1
  Te  Te159  1  0.83383843  0.66798219  0.00612165  1
  Te  Te160  1  0.82803734  0.66543106  0.32992044  1
  Te  Te161  1  0.82775590  0.66230471  0.66833305  1
  Te  Te162  1  0.00432005  0.16183439  0.00435146  1
  Te  Te163  1  0.00096464  0.16128044  0.32792214  1
  Te  Te164  1  0.00035819  0.17058454  0.66626851  1
  Te  Te165  1  0.00119825  0.50027235  0.00917333  1
  Te  Te166  1  -0.00369211  0.49946486  0.33357686  1
  Te  Te167  1  -0.00356233  0.49497027  0.66453548  1
  Te  Te168  1  0.00316869  0.83837028  -0.00269027  1
  Te  Te169  1  -0.00672213  0.83686194  0.33869691  1
  Te  Te170  1  0.00302571  0.83387719  0.66319208  1
  Te  Te171  1  0.33327119  0.16663794  0.00051978  1
  Te  Te172  1  0.34095577  0.16671370  0.32923243  1
  Te  Te173  1  0.32968693  0.16553443  0.66757063  1
  Te  Te174  1  0.33329025  0.50709732  0.00531810  1
  Te  Te175  1  0.33752162  0.50015912  0.33291578  1
  Te  Te176  1  0.33647157  0.50588298  0.66433441  1
  Te  Te177  1  0.33226472  0.83111330  0.00353710  1
  Te  Te178  1  0.33246586  0.83399638  0.32342105  1
  Te  Te179  1  0.32643489  0.82769799  0.66651237  1
  Te  Te180  1  0.66148620  0.16563831  0.00310233  1
  Te  Te181  1  0.66392131  0.16437659  0.33421845  1
  Te  Te182  1  0.66801161  0.16816379  0.66451225  1
  Te  Te183  1  0.66640202  0.50018486  0.00919527  1
  Te  Te184  1  0.66658951  0.50302981  0.32931698  1
  Te  Te185  1  0.66708609  0.49983387  0.66879056  1
  Te  Te186  1  0.66279129  0.83547116  0.00257587  1
  Te  Te187  1  0.66872819  0.83239692  0.33241714  1
  Te  Te188  1  0.66661919  0.83089352  0.66371033  1
  Te  Te189  1  -0.00066896  -0.00196901  0.16886974  1
  Te  Te190  1  0.00050470  -0.00346411  0.49438432  1
  Te  Te191  1  -0.00099428  -0.00655520  0.83403980  1
  Te  Te192  1  0.00001428  0.33506019  0.16663542  1
  Te  Te193  1  -0.00296480  0.33600003  0.50423840  1
  Te  Te194  1  -0.00086555  0.33365489  0.82981154  1
  Te  Te195  1  0.00234777  0.66231991  0.16694206  1
  Te  Te196  1  0.00187335  0.66673177  0.49910586  1
  Te  Te197  1  0.00283857  0.67012747  0.83394248  1
  Te  Te198  1  0.32604417  0.00698589  0.16769504  1
  Te  Te199  1  0.34136732  -0.00089599  0.49826080  1
  Te  Te200  1  0.33448622  0.00932350  0.83286438  1
  Te  Te201  1  0.33688972  0.32960694  0.16555234  1
  Te  Te202  1  0.33616156  0.34261722  0.49996220  1
  Te  Te203  1  0.33010842  0.33030595  0.83354733  1
  Te  Te204  1  0.33540986  0.66719097  0.16776870  1
  Te  Te205  1  0.33339012  0.66307737  0.50005419  1
  Te  Te206  1  0.33340474  0.66692462  0.83046317  1
  Te  Te207  1  0.67045479  0.00247954  0.17158934  1
  Te  Te208  1  0.66406606  -0.00013702  0.49412253  1
  Te  Te209  1  0.66746684  0.00734353  0.83348992  1
  Te  Te210  1  0.66474243  0.32923353  0.16600112  1
  Te  Te211  1  0.66659468  0.33139932  0.50205360  1
  Te  Te212  1  0.67005058  0.32957141  0.83013799  1
  Te  Te213  1  0.66384562  0.66780234  0.16791773  1
  Te  Te214  1  0.66488519  0.66856716  0.49902284  1
  Te  Te215  1  0.66252194  0.66710119  0.83138187  1
