# generated using pymatgen
data_AgSbTe2
_symmetry_space_group_name_H-M   'P 1'
_cell_length_a   18.30755719
_cell_length_b   18.31537086
_cell_length_c   18.31315662
_cell_angle_alpha   90.00023184
_cell_angle_beta   89.99983518
_cell_angle_gamma   89.99871233
_symmetry_Int_Tables_number   1
_chemical_formula_structural   AgSbTe2
_chemical_formula_sum   'Ag54 Sb54 Te108'
_cell_volume   6140.57904161
_cell_formula_units_Z   54
loop_
 _symmetry_equiv_pos_site_id
 _symmetry_equiv_pos_as_xyz
  1  'x, y, z'
loop_
 _atom_site_type_symbol
 _atom_site_label
 _atom_site_symmetry_multiplicity
 _atom_site_fract_x
 _atom_site_fract_y
 _atom_site_fract_z
 _atom_site_occupancy
  Ag  Ag0  1  0.66754132  0.82764262  0.83812772  1
  Ag  Ag1  1  0.66125895  0.33842657  -0.00352948  1
  Ag  Ag2  1  -0.00115041  0.66859309  -0.00255003  1
  Ag  Ag3  1  0.17150983  0.33724861  0.49593080  1
  Ag  Ag4  1  0.33948582  0.33044141  0.67388664  1
  Ag  Ag5  1  0.17443677  0.34122040  0.16916041  1
  Ag  Ag6  1  -0.00476163  0.50378994  0.83245947  1
  Ag  Ag7  1  0.34172167  0.66695576  0.00358323  1
  Ag  Ag8  1  0.00182366  -0.00292610  -0.00449349  1
  Ag  Ag9  1  0.16481458  0.50102457  0.33293716  1
  Ag  Ag10  1  0.33952088  0.82530263  0.16347098  1
  Ag  Ag11  1  0.17589390  0.66224707  0.16660137  1
  Ag  Ag12  1  0.66579776  0.17651472  0.50038445  1
  Ag  Ag13  1  0.16824282  0.16739078  -0.00076940  1
  Ag  Ag14  1  0.50204957  0.50363913  0.00031145  1
  Ag  Ag15  1  0.33895157  0.33347578  -0.00057379  1
  Ag  Ag16  1  0.83341738  0.50075393  0.33810915  1
  Ag  Ag17  1  0.33631431  0.00144154  0.66976701  1
  Ag  Ag18  1  0.33496638  0.00096426  -0.00179451  1
  Ag  Ag19  1  0.17686803  0.83289250  0.66716715  1
  Ag  Ag20  1  0.82519629  0.66824873  0.83572902  1
  Ag  Ag21  1  0.00298984  0.66385305  0.32947521  1
  Ag  Ag22  1  0.65698062  0.82606375  0.15811892  1
  Ag  Ag23  1  0.66048173  0.33759099  0.33161876  1
  Ag  Ag24  1  0.66478627  0.33849010  0.67209745  1
  Ag  Ag25  1  0.50755970  0.66867646  0.84094978  1
  Ag  Ag26  1  0.33743885  0.00285663  0.33258743  1
  Ag  Ag27  1  0.66019251  0.50024341  0.16549871  1
  Ag  Ag28  1  0.83204700  0.83413756  -0.00454092  1
  Ag  Ag29  1  0.49987905  0.83281539  0.32503158  1
  Ag  Ag30  1  0.66343005  0.66246607  0.67684284  1
  Ag  Ag31  1  0.49797370  -0.01073851  0.16040179  1
  Ag  Ag32  1  0.82591281  0.33237452  0.83262751  1
  Ag  Ag33  1  0.33800524  0.50437994  0.16409740  1
  Ag  Ag34  1  0.49717334  0.67071263  0.15912622  1
  Ag  Ag35  1  0.17502716  0.00052338  0.50107236  1
  Ag  Ag36  1  0.49497341  -0.00714914  0.50196956  1
  Ag  Ag37  1  -0.00621198  0.16507966  0.83669430  1
  Ag  Ag38  1  0.50505969  0.33394628  0.83485832  1
  Ag  Ag39  1  0.33273115  0.16649532  0.83620749  1
  Ag  Ag40  1  0.82875747  0.49658423  0.66877341  1
  Ag  Ag41  1  0.66515784  0.17489932  0.16358387  1
  Ag  Ag42  1  0.83037125  0.00260736  0.83595516  1
  Ag  Ag43  1  0.49916047  0.66980546  0.50058915  1
  Ag  Ag44  1  0.66052941  0.66367150  -0.00463730  1
  Ag  Ag45  1  0.83424720  0.16314793  -0.00757126  1
  Ag  Ag46  1  0.66836811  0.49636622  0.49817962  1
  Ag  Ag47  1  -0.00907972  0.83234826  0.83572800  1
  Ag  Ag48  1  0.49987283  -0.00262556  0.83534308  1
  Ag  Ag49  1  -0.00273468  0.50213476  0.50036796  1
  Ag  Ag50  1  0.83023447  0.17377460  0.67760710  1
  Ag  Ag51  1  0.49774568  0.83324080  0.66803047  1
  Ag  Ag52  1  0.33623743  0.33240526  0.32788784  1
  Ag  Ag53  1  0.17067339  0.66209964  0.49556210  1
  Sb  Sb54  1  0.17308532  0.82717372  0.33628981  1
  Sb  Sb55  1  0.82785996  0.66487732  0.15868101  1
  Sb  Sb56  1  0.16920072  -0.00051679  0.83234073  1
  Sb  Sb57  1  0.82802673  0.50077497  -0.00418616  1
  Sb  Sb58  1  0.16778273  0.66738817  0.83523541  1
  Sb  Sb59  1  0.66693445  0.66045510  0.33042828  1
  Sb  Sb60  1  -0.00318450  0.16655512  0.15789122  1
  Sb  Sb61  1  -0.00184955  0.33480299  0.66923068  1
  Sb  Sb62  1  0.17061777  0.49826562  0.00507979  1
  Sb  Sb63  1  0.33256347  0.49660045  0.83869715  1
  Sb  Sb64  1  0.00383395  0.82748540  0.50590074  1
  Sb  Sb65  1  0.00446930  -0.00147815  0.67430152  1
  Sb  Sb66  1  0.33716816  0.16503397  0.50499913  1
  Sb  Sb67  1  0.83094654  0.66366838  0.50559677  1
  Sb  Sb68  1  0.50563602  0.50402801  0.67220875  1
  Sb  Sb69  1  0.66051975  -0.00004892  0.66895244  1
  Sb  Sb70  1  0.33901621  0.66730956  0.67162415  1
  Sb  Sb71  1  0.50110869  0.17013515  -0.00100986  1
  Sb  Sb72  1  0.49960818  0.16297464  0.33226843  1
  Sb  Sb73  1  0.17624285  -0.00219570  0.16741600  1
  Sb  Sb74  1  0.49847081  0.33738375  0.16182061  1
  Sb  Sb75  1  0.00147992  0.82973486  0.15932971  1
  Sb  Sb76  1  0.67113483  0.50291196  0.83390820  1
  Sb  Sb77  1  0.66268981  0.82961825  0.50210361  1
  Sb  Sb78  1  0.16606189  0.16484989  0.67035556  1
  Sb  Sb79  1  -0.00004976  0.33549364  -0.00231114  1
  Sb  Sb80  1  0.33956931  0.83713475  0.83844233  1
  Sb  Sb81  1  0.00018027  0.50203869  0.16656414  1
  Sb  Sb82  1  0.16925142  0.33242897  0.83408661  1
  Sb  Sb83  1  0.16437527  0.83463871  -0.00406129  1
  Sb  Sb84  1  0.33239308  0.66527060  0.32542919  1
  Sb  Sb85  1  -0.00215862  0.17080905  0.50604141  1
  Sb  Sb86  1  0.83030977  0.33547884  0.16105148  1
  Sb  Sb87  1  0.82932758  0.17228964  0.33137879  1
  Sb  Sb88  1  0.00083605  0.34082274  0.33487767  1
  Sb  Sb89  1  0.33818700  0.16831763  0.15967519  1
  Sb  Sb90  1  0.33613705  0.83421285  0.49627809  1
  Sb  Sb91  1  0.49995112  0.50360394  0.32837969  1
  Sb  Sb92  1  0.83135423  0.33662195  0.50538613  1
  Sb  Sb93  1  0.50412945  0.16352476  0.66822611  1
  Sb  Sb94  1  0.82685988  0.82744133  0.32507597  1
  Sb  Sb95  1  0.66267285  -0.00154987  -0.00115317  1
  Sb  Sb96  1  0.16773925  0.17302880  0.32869183  1
  Sb  Sb97  1  0.66883598  0.16766591  0.83487006  1
  Sb  Sb98  1  0.49929505  0.33571584  0.50394289  1
  Sb  Sb99  1  0.33460577  0.49972496  0.49469344  1
  Sb  Sb100  1  0.50509100  0.82752684  0.00045792  1
  Sb  Sb101  1  0.82617973  -0.00027414  0.15828740  1
  Sb  Sb102  1  0.00751059  -0.00735550  0.32885349  1
  Sb  Sb103  1  0.83084916  0.00238605  0.50843971  1
  Sb  Sb104  1  0.66045870  0.00269859  0.33188397  1
  Sb  Sb105  1  0.82806325  0.83179943  0.67614496  1
  Sb  Sb106  1  -0.00371419  0.66565835  0.67184909  1
  Sb  Sb107  1  0.16469082  0.50271540  0.66107339  1
  Te  Te108  1  0.16562695  0.16815605  0.16053382  1
  Te  Te109  1  0.16541606  0.16717682  0.50029660  1
  Te  Te110  1  0.16614374  0.16670113  0.83813732  1
  Te  Te111  1  0.16724937  0.50136673  0.17049515  1
  Te  Te112  1  0.16683890  0.50134687  0.49599598  1
  Te  Te113  1  0.15677384  0.49990737  0.83095687  1
  Te  Te114  1  0.17155383  0.82778846  0.16735114  1
  Te  Te115  1  0.16744143  0.83228787  0.50439277  1
  Te  Te116  1  0.16219115  0.83311134  0.82682209  1
  Te  Te117  1  0.50659647  0.15986804  0.16625999  1
  Te  Te118  1  0.50613226  0.16226906  0.50045523  1
  Te  Te119  1  0.49654968  0.16536677  0.83287953  1
  Te  Te120  1  0.49988234  0.50369234  0.16291686  1
  Te  Te121  1  0.50387051  0.50535151  0.50031997  1
  Te  Te122  1  0.49808269  0.50063076  0.83914670  1
  Te  Te123  1  0.49996507  0.83161786  0.16517363  1
  Te  Te124  1  0.50083194  0.83242310  0.50396191  1
  Te  Te125  1  0.50316189  0.83293371  0.83145582  1
  Te  Te126  1  0.82622615  0.16695575  0.16170592  1
  Te  Te127  1  0.82850733  0.16778920  0.50365053  1
  Te  Te128  1  0.83129670  0.16559584  0.83489140  1
  Te  Te129  1  0.82811278  0.49976538  0.17343825  1
  Te  Te130  1  0.83297929  0.50013207  0.50025200  1
  Te  Te131  1  0.83653621  0.50010307  0.83051977  1
  Te  Te132  1  0.82663748  0.83348632  0.15812830  1
  Te  Te133  1  0.83351919  0.83412159  0.49887134  1
  Te  Te134  1  0.83138950  0.83195285  0.83576290  1
  Te  Te135  1  0.16875032  0.00413611  0.00129717  1
  Te  Te136  1  0.17321422  -0.00062569  0.33901135  1
  Te  Te137  1  0.17262024  -0.00224250  0.66161653  1
  Te  Te138  1  0.17056659  0.33034228  0.00200756  1
  Te  Te139  1  0.16812278  0.33811533  0.33289818  1
  Te  Te140  1  0.17305060  0.33334902  0.66276804  1
  Te  Te141  1  0.16592981  0.66673715  0.00376145  1
  Te  Te142  1  0.16610018  0.66319007  0.33464546  1
  Te  Te143  1  0.16881266  0.67112907  0.66168524  1
  Te  Te144  1  0.49552155  0.00127673  -0.00349669  1
  Te  Te145  1  0.49575452  -0.00348327  0.33643369  1
  Te  Te146  1  0.49560832  -0.00265444  0.66867680  1
  Te  Te147  1  0.50041093  0.33631727  -0.00346328  1
  Te  Te148  1  0.49925638  0.33324135  0.33414884  1
  Te  Te149  1  0.50018969  0.33343967  0.67137603  1
  Te  Te150  1  0.50109123  0.66429579  -0.00020696  1
  Te  Te151  1  0.49951074  0.67173013  0.33700936  1
  Te  Te152  1  0.50315241  0.67005944  0.66626532  1
  Te  Te153  1  0.83371075  0.00031534  -0.00453008  1
  Te  Te154  1  0.83659957  -0.00082946  0.33383309  1
  Te  Te155  1  0.83319476  0.00213858  0.67461416  1
  Te  Te156  1  0.82955652  0.33114938  -0.00539657  1
  Te  Te157  1  0.82937471  0.33955403  0.33264932  1
  Te  Te158  1  0.83068316  0.33497913  0.67092916  1
  Te  Te159  1  0.83450041  0.66767663  -0.00477606  1
  Te  Te160  1  0.83878933  0.66231916  0.33320297  1
  Te  Te161  1  0.82646248  0.66387724  0.67321805  1
  Te  Te162  1  -0.00245231  0.16652493  -0.00456356  1
  Te  Te163  1  -0.00175261  0.16357739  0.33414981  1
  Te  Te164  1  -0.00657483  0.16636645  0.67342936  1
  Te  Te165  1  -0.00043058  0.50461603  -0.00369021  1
  Te  Te166  1  -0.00009096  0.50476666  0.33496251  1
  Te  Te167  1  -0.00532081  0.50046503  0.66549762  1
  Te  Te168  1  -0.00305752  0.83252411  -0.00469813  1
  Te  Te169  1  -0.00234764  0.82558583  0.33276710  1
  Te  Te170  1  0.00153790  0.83309988  0.67418482  1
  Te  Te171  1  0.33293317  0.16802295  -0.00380829  1
  Te  Te172  1  0.33227412  0.16854785  0.33408254  1
  Te  Te173  1  0.33286409  0.16802743  0.67250251  1
  Te  Te174  1  0.33595371  0.49849094  0.00403497  1
  Te  Te175  1  0.33023384  0.49463378  0.32747187  1
  Te  Te176  1  0.33363697  0.49313897  0.66777204  1
  Te  Te177  1  0.33045388  0.83396199  0.00450894  1
  Te  Te178  1  0.33901077  0.83784483  0.32696696  1
  Te  Te179  1  0.33554188  0.83555898  0.66925489  1
  Te  Te180  1  0.67026829  0.16968196  0.00238682  1
  Te  Te181  1  0.66753629  0.17396091  0.33324523  1
  Te  Te182  1  0.67063875  0.17089314  0.66509013  1
  Te  Te183  1  0.66451721  0.50005589  0.00292447  1
  Te  Te184  1  0.66699362  0.49600698  0.33387064  1
  Te  Te185  1  0.66861528  0.49894887  0.66356874  1
  Te  Te186  1  0.67093129  0.83212934  -0.00069552  1
  Te  Te187  1  0.66130822  0.83352759  0.32911822  1
  Te  Te188  1  0.66107857  0.82840207  0.66967470  1
  Te  Te189  1  0.00059132  -0.00160950  0.15924571  1
  Te  Te190  1  0.00401216  0.00013751  0.49918564  1
  Te  Te191  1  0.00010826  0.00064871  0.83815651  1
  Te  Te192  1  0.00876610  0.33291906  0.16673948  1
  Te  Te193  1  0.00713075  0.33935501  0.50056962  1
  Te  Te194  1  -0.00435608  0.33168361  0.83378488  1
  Te  Te195  1  0.00333515  0.66705246  0.16389770  1
  Te  Te196  1  0.00210257  0.66141379  0.50039768  1
  Te  Te197  1  0.00087957  0.66690135  0.83677533  1
  Te  Te198  1  0.33869573  0.00155651  0.16428756  1
  Te  Te199  1  0.33475922  0.00025325  0.50169860  1
  Te  Te200  1  0.33574179  0.00229016  0.83473577  1
  Te  Te201  1  0.33304279  0.33426903  0.16454537  1
  Te  Te202  1  0.33135287  0.33197167  0.49804235  1
  Te  Te203  1  0.33596387  0.33112634  0.83618729  1
  Te  Te204  1  0.33552864  0.66509162  0.16450335  1
  Te  Te205  1  0.33503040  0.66677440  0.50179441  1
  Te  Te206  1  0.33759977  0.66632713  0.84114456  1
  Te  Te207  1  0.65934675  -0.00212041  0.16656004  1
  Te  Te208  1  0.66220907  0.00273579  0.50040441  1
  Te  Te209  1  0.66424074  -0.00509895  0.83291792  1
  Te  Te210  1  0.66552414  0.33597726  0.16404481  1
  Te  Te211  1  0.66575674  0.33536649  0.50171540  1
  Te  Te212  1  0.66536510  0.33418391  0.83388308  1
  Te  Te213  1  0.66253360  0.66497705  0.16377560  1
  Te  Te214  1  0.66314084  0.66210988  0.50054112  1
  Te  Te215  1  0.66502407  0.66669302  0.83543849  1
