# generated using pymatgen
data_AgSbTe2
_symmetry_space_group_name_H-M   'P 1'
_cell_length_a   18.32464720
_cell_length_b   18.32147484
_cell_length_c   18.32575672
_cell_angle_alpha   89.99615608
_cell_angle_beta   89.99668882
_cell_angle_gamma   90.00012218
_symmetry_Int_Tables_number   1
_chemical_formula_structural   AgSbTe2
_chemical_formula_sum   'Ag54 Sb54 Te108'
_cell_volume   6152.58989291
_cell_formula_units_Z   54
loop_
 _symmetry_equiv_pos_site_id
 _symmetry_equiv_pos_as_xyz
  1  'x, y, z'
loop_
 _atom_site_type_symbol
 _atom_site_label
 _atom_site_symmetry_multiplicity
 _atom_site_fract_x
 _atom_site_fract_y
 _atom_site_fract_z
 _atom_site_occupancy
  Ag  Ag0  1  0.33234629  0.33484480  -0.00267552  1
  Ag  Ag1  1  0.16920580  0.50666125  -0.00296382  1
  Ag  Ag2  1  0.17447353  0.50508011  0.67739703  1
  Ag  Ag3  1  0.16917042  0.82746732  0.00200652  1
  Ag  Ag4  1  0.33482895  0.49689638  0.50465212  1
  Ag  Ag5  1  0.17909656  -0.00280683  0.50292989  1
  Ag  Ag6  1  0.49466349  0.00068503  0.49382261  1
  Ag  Ag7  1  0.84468005  0.49952464  0.00437995  1
  Ag  Ag8  1  0.49306802  0.50113171  -0.00100265  1
  Ag  Ag9  1  0.49008138  0.50217716  0.66992509  1
  Ag  Ag10  1  0.83133034  0.83176920  0.66388430  1
  Ag  Ag11  1  0.83215228  -0.00788165  0.16974166  1
  Ag  Ag12  1  0.50077017  0.83740917  0.32795391  1
  Ag  Ag13  1  0.17257075  -0.00251283  0.83586551  1
  Ag  Ag14  1  0.65968546  0.67589897  0.33076034  1
  Ag  Ag15  1  0.83445663  0.49861150  0.32541889  1
  Ag  Ag16  1  -0.00238613  0.50807972  0.16284681  1
  Ag  Ag17  1  0.16519108  0.66830941  0.15972517  1
  Ag  Ag18  1  -0.00413988  0.83442308  0.49156312  1
  Ag  Ag19  1  0.65796175  -0.00637467  0.33050511  1
  Ag  Ag20  1  0.49428200  0.33921840  0.16634732  1
  Ag  Ag21  1  0.83112499  -0.00443287  0.48971871  1
  Ag  Ag22  1  0.65982234  -0.00668174  0.00919739  1
  Ag  Ag23  1  0.49437279  0.83146475  0.00941127  1
  Ag  Ag24  1  0.82792610  0.16412898  0.33166983  1
  Ag  Ag25  1  0.66728307  0.83479399  0.49067456  1
  Ag  Ag26  1  0.33184667  0.49667540  0.83329120  1
  Ag  Ag27  1  0.33610311  0.33110722  0.32769117  1
  Ag  Ag28  1  0.65921962  0.83319212  0.16936832  1
  Ag  Ag29  1  0.49736998  0.15747293  0.33334910  1
  Ag  Ag30  1  0.33982738  0.00354690  0.33386655  1
  Ag  Ag31  1  0.66397323  0.67078147  0.66405896  1
  Ag  Ag32  1  0.33885672  0.66808165  0.33071420  1
  Ag  Ag33  1  0.00497540  0.66485302  0.00460490  1
  Ag  Ag34  1  0.00987410  0.34543725  0.00467917  1
  Ag  Ag35  1  0.33336284  0.17519247  0.83540527  1
  Ag  Ag36  1  0.17431481  0.34475597  0.83802236  1
  Ag  Ag37  1  0.16862599  0.66289996  0.84093732  1
  Ag  Ag38  1  0.49070458  0.33701076  0.84029135  1
  Ag  Ag39  1  0.33617878  0.16501815  0.49286777  1
  Ag  Ag40  1  0.00490747  0.33485297  0.32614620  1
  Ag  Ag41  1  -0.00153828  0.82691470  0.16698796  1
  Ag  Ag42  1  0.34084137  0.83360652  0.16609353  1
  Ag  Ag43  1  0.33237887  0.66357132  0.66441867  1
  Ag  Ag44  1  0.49411914  0.33123837  0.49292841  1
  Ag  Ag45  1  0.83665670  0.67337066  0.16719628  1
  Ag  Ag46  1  0.83528280  0.33534297  0.83672594  1
  Ag  Ag47  1  0.33190621  -0.00093995  0.00300605  1
  Ag  Ag48  1  0.00544580  0.66892559  0.67182783  1
  Ag  Ag49  1  0.33621786  0.15903322  0.17179131  1
  Ag  Ag50  1  0.49693609  0.66985011  0.16704517  1
  Ag  Ag51  1  0.00480724  -0.00988874  0.00286493  1
  Ag  Ag52  1  0.66557610  0.83356553  0.84117045  1
  Ag  Ag53  1  0.33232259  -0.00587684  0.65884603  1
  Sb  Sb54  1  -0.00078537  0.66552210  0.32709160  1
  Sb  Sb55  1  0.00650511  0.16867620  0.83542225  1
  Sb  Sb56  1  0.49913844  -0.00569360  0.17172021  1
  Sb  Sb57  1  0.17455536  0.16555649  0.33321119  1
  Sb  Sb58  1  0.17052587  0.16576933  -0.00063860  1
  Sb  Sb59  1  0.83199714  0.33469857  0.16502358  1
  Sb  Sb60  1  0.17162388  0.33971273  0.16028722  1
  Sb  Sb61  1  0.33462297  0.83107579  0.83962778  1
  Sb  Sb62  1  0.66831751  0.67224099  0.00332983  1
  Sb  Sb63  1  0.83603021  0.66408823  0.83788971  1
  Sb  Sb64  1  0.66071538  0.50551490  0.49833562  1
  Sb  Sb65  1  0.16808207  -0.00754145  0.16326636  1
  Sb  Sb66  1  0.32830704  0.66564701  0.00350610  1
  Sb  Sb67  1  0.00883929  0.50081091  0.84305856  1
  Sb  Sb68  1  0.16660128  0.50110130  0.32935649  1
  Sb  Sb69  1  0.49449478  0.16503298  0.00733080  1
  Sb  Sb70  1  0.50140381  0.82835914  0.66573282  1
  Sb  Sb71  1  0.00546221  -0.00748034  0.66857224  1
  Sb  Sb72  1  0.49867487  0.66855668  0.49542811  1
  Sb  Sb73  1  0.17357775  0.83265339  0.32738166  1
  Sb  Sb74  1  0.66134614  0.50543574  0.83503268  1
  Sb  Sb75  1  0.83401919  0.50784640  0.66909548  1
  Sb  Sb76  1  0.65948643  0.16260275  0.83521827  1
  Sb  Sb77  1  -0.00122295  0.83201999  0.83854149  1
  Sb  Sb78  1  0.83407354  0.16942229  0.00437100  1
  Sb  Sb79  1  0.16839504  0.67106333  0.49995398  1
  Sb  Sb80  1  0.17393518  0.33143811  0.50244897  1
  Sb  Sb81  1  0.33190014  0.50346841  0.16448658  1
  Sb  Sb82  1  -0.00015849  0.00064555  0.32970009  1
  Sb  Sb83  1  0.49460504  0.66429643  0.83758184  1
  Sb  Sb84  1  0.65958933  0.15772412  0.49658450  1
  Sb  Sb85  1  0.00409756  0.16601817  0.16705526  1
  Sb  Sb86  1  0.83421188  0.83029121  0.00228134  1
  Sb  Sb87  1  0.66156705  0.33144207  0.00088261  1
  Sb  Sb88  1  0.82548743  0.83457902  0.33255182  1
  Sb  Sb89  1  0.83262773  0.67188557  0.49404049  1
  Sb  Sb90  1  0.50009340  0.50232047  0.33031616  1
  Sb  Sb91  1  0.83301583  0.15987842  0.66281784  1
  Sb  Sb92  1  0.83013227  0.32863083  0.49953223  1
  Sb  Sb93  1  0.66027146  0.15812072  0.16811999  1
  Sb  Sb94  1  0.66137482  -0.00927526  0.66317890  1
  Sb  Sb95  1  0.17175470  0.16877083  0.66845894  1
  Sb  Sb96  1  0.00215446  0.34363809  0.66980111  1
  Sb  Sb97  1  0.00468836  0.50463509  0.49492218  1
  Sb  Sb98  1  0.33405475  0.33951716  0.67054980  1
  Sb  Sb99  1  0.66150066  0.33319615  0.33203521  1
  Sb  Sb100  1  0.49296392  0.00163036  0.83160458  1
  Sb  Sb101  1  0.66318860  0.34261959  0.66802137  1
  Sb  Sb102  1  0.66987131  0.50835828  0.16689306  1
  Sb  Sb103  1  0.83615837  0.00050581  0.83741591  1
  Sb  Sb104  1  0.33451453  0.83591618  0.49420696  1
  Sb  Sb105  1  0.49468941  0.17078576  0.66146967  1
  Sb  Sb106  1  0.00539927  0.16085740  0.49520909  1
  Sb  Sb107  1  0.16499254  0.82810169  0.67131909  1
  Te  Te108  1  0.17642441  0.16748318  0.16713564  1
  Te  Te109  1  0.17390389  0.15987398  0.50134899  1
  Te  Te110  1  0.17392131  0.16156949  0.83275745  1
  Te  Te111  1  0.16118003  0.50635196  0.16195958  1
  Te  Te112  1  0.17272085  0.49977702  0.50209083  1
  Te  Te113  1  0.16991875  0.50246707  0.83606435  1
  Te  Te114  1  0.16370232  0.82852220  0.16181494  1
  Te  Te115  1  0.16236045  0.83862732  0.50084751  1
  Te  Te116  1  0.16662930  0.83331337  0.84013447  1
  Te  Te117  1  0.49461382  0.17372838  0.17300030  1
  Te  Te118  1  0.49450051  0.16706323  0.49530609  1
  Te  Te119  1  0.49378240  0.17327797  0.83215411  1
  Te  Te120  1  0.50146974  0.50192847  0.16189176  1
  Te  Te121  1  0.49560490  0.49790075  0.50214589  1
  Te  Te122  1  0.49598034  0.49778563  0.83657796  1
  Te  Te123  1  0.49968221  0.83190517  0.16669698  1
  Te  Te124  1  0.50317956  0.83669983  0.49683350  1
  Te  Te125  1  0.50555525  0.83308054  0.83783984  1
  Te  Te126  1  0.83260261  0.16439498  0.17247011  1
  Te  Te127  1  0.83359985  0.15964329  0.49454412  1
  Te  Te128  1  0.83175391  0.17251717  0.83176099  1
  Te  Te129  1  0.83556765  0.49959910  0.16494162  1
  Te  Te130  1  0.83401966  0.49789403  0.49740724  1
  Te  Te131  1  0.83061322  0.49561827  0.83692011  1
  Te  Te132  1  0.83704977  0.83314617  0.16650959  1
  Te  Te133  1  0.83364647  0.83592305  0.49960496  1
  Te  Te134  1  0.82778408  0.83262258  0.82887768  1
  Te  Te135  1  0.16903962  -0.00181949  -0.00078319  1
  Te  Te136  1  0.17062723  0.00002785  0.33783591  1
  Te  Te137  1  0.17199269  -0.00127878  0.66841323  1
  Te  Te138  1  0.16827805  0.33482177  -0.00357748  1
  Te  Te139  1  0.16836125  0.33311564  0.33329650  1
  Te  Te140  1  0.16520374  0.34110672  0.67399777  1
  Te  Te141  1  0.16612426  0.66681410  0.00011928  1
  Te  Te142  1  0.17330181  0.66644724  0.32818431  1
  Te  Te143  1  0.16919049  0.66376770  0.66616368  1
  Te  Te144  1  0.49742017  -0.00294765  -0.00089513  1
  Te  Te145  1  0.49957979  -0.00154761  0.33377062  1
  Te  Te146  1  0.49308855  -0.00014089  0.66103260  1
  Te  Te147  1  0.49676091  0.33311598  0.00086050  1
  Te  Te148  1  0.49635581  0.33571730  0.33305725  1
  Te  Te149  1  0.50078058  0.34050713  0.66696026  1
  Te  Te150  1  0.50048386  0.66812232  0.00472595  1
  Te  Te151  1  0.49963671  0.66816554  0.32942077  1
  Te  Te152  1  0.49736827  0.66258891  0.66739739  1
  Te  Te153  1  0.83794782  0.00100879  0.00350086  1
  Te  Te154  1  0.83559644  0.00143091  0.33096833  1
  Te  Te155  1  0.83433023  -0.00683853  0.66615499  1
  Te  Te156  1  0.83123628  0.33736599  -0.00264145  1
  Te  Te157  1  0.83193053  0.33392540  0.33380175  1
  Te  Te158  1  0.83287850  0.33273959  0.67108091  1
  Te  Te159  1  0.83766953  0.66079318  0.00482340  1
  Te  Te160  1  0.83219749  0.66206054  0.32739749  1
  Te  Te161  1  0.83248355  0.67105035  0.66718273  1
  Te  Te162  1  -0.00048333  0.16747296  0.00089389  1
  Te  Te163  1  -0.00493482  0.17419483  0.33237092  1
  Te  Te164  1  0.00027849  0.16827161  0.66555469  1
  Te  Te165  1  0.00188666  0.50160285  0.00321057  1
  Te  Te166  1  -0.00321840  0.49561116  0.32907746  1
  Te  Te167  1  0.00276852  0.50958653  0.66368142  1
  Te  Te168  1  0.00096895  0.83102168  0.00385965  1
  Te  Te169  1  0.00238871  0.83370992  0.33091261  1
  Te  Te170  1  -0.00327158  0.82775915  0.66633082  1
  Te  Te171  1  0.33419979  0.16798648  -0.00083823  1
  Te  Te172  1  0.33658792  0.16719846  0.33246749  1
  Te  Te173  1  0.33348345  0.15760047  0.66827972  1
  Te  Te174  1  0.33277172  0.49845091  -0.00102979  1
  Te  Te175  1  0.33365672  0.49841647  0.33635312  1
  Te  Te176  1  0.33372465  0.50081950  0.66690392  1
  Te  Te177  1  0.33369462  0.83315519  0.00436080  1
  Te  Te178  1  0.33833478  0.83193132  0.32806959  1
  Te  Te179  1  0.33377270  0.83264913  0.66706017  1
  Te  Te180  1  0.66566852  0.15366699  0.00012046  1
  Te  Te181  1  0.66496651  0.16163919  0.33333596  1
  Te  Te182  1  0.66628157  0.16656574  0.66635672  1
  Te  Te183  1  0.66082203  0.49988742  0.00004033  1
  Te  Te184  1  0.67356676  0.50435359  0.33429996  1
  Te  Te185  1  0.66395194  0.51088078  0.66621773  1
  Te  Te186  1  0.66730347  0.83626898  0.00388340  1
  Te  Te187  1  0.66447654  0.83348976  0.33100576  1
  Te  Te188  1  0.66770476  0.82842250  0.66378044  1
  Te  Te189  1  -0.00213466  -0.00049651  0.16226905  1
  Te  Te190  1  -0.00523500  -0.00520640  0.50035551  1
  Te  Te191  1  0.00544919  0.00079879  0.83934443  1
  Te  Te192  1  0.00039474  0.33390128  0.16493427  1
  Te  Te193  1  0.00092454  0.33316962  0.49571114  1
  Te  Te194  1  -0.00053275  0.33297453  0.83848014  1
  Te  Te195  1  -0.00074455  0.66687775  0.16628673  1
  Te  Te196  1  0.00011062  0.67321248  0.50072891  1
  Te  Te197  1  0.00416126  0.66696025  0.83408680  1
  Te  Te198  1  0.33253518  -0.00225558  0.16583117  1
  Te  Te199  1  0.33506402  -0.00184139  0.49624020  1
  Te  Te200  1  0.33088908  -0.00197613  0.84088314  1
  Te  Te201  1  0.33501238  0.33713206  0.16649829  1
  Te  Te202  1  0.33486194  0.33229691  0.50039062  1
  Te  Te203  1  0.33337550  0.33439672  0.83420806  1
  Te  Te204  1  0.33479356  0.66887165  0.16941348  1
  Te  Te205  1  0.33362349  0.66370488  0.49890943  1
  Te  Te206  1  0.32882120  0.66335323  0.82785462  1
  Te  Te207  1  0.66995903  -0.00483914  0.16839676  1
  Te  Te208  1  0.66868915  -0.00579948  0.49724725  1
  Te  Te209  1  0.66658495  -0.00538062  0.83398624  1
  Te  Te210  1  0.65809160  0.33134335  0.16656173  1
  Te  Te211  1  0.65879477  0.33289389  0.50044875  1
  Te  Te212  1  0.66532281  0.33171141  0.83372577  1
  Te  Te213  1  0.66613906  0.67258199  0.16972690  1
  Te  Te214  1  0.66614958  0.67283466  0.49732773  1
  Te  Te215  1  0.66733638  0.67316723  0.83112390  1
