# generated using pymatgen
data_AgSbTe2
_symmetry_space_group_name_H-M   'P 1'
_cell_length_a   18.31994544
_cell_length_b   18.31942858
_cell_length_c   18.32186622
_cell_angle_alpha   90.00159249
_cell_angle_beta   90.00126334
_cell_angle_gamma   89.99945755
_symmetry_Int_Tables_number   1
_chemical_formula_structural   AgSbTe2
_chemical_formula_sum   'Ag54 Sb54 Te108'
_cell_volume   6149.01859325
_cell_formula_units_Z   54
loop_
 _symmetry_equiv_pos_site_id
 _symmetry_equiv_pos_as_xyz
  1  'x, y, z'
loop_
 _atom_site_type_symbol
 _atom_site_label
 _atom_site_symmetry_multiplicity
 _atom_site_fract_x
 _atom_site_fract_y
 _atom_site_fract_z
 _atom_site_occupancy
  Ag  Ag0  1  0.82932711  0.00167944  0.16888637  1
  Ag  Ag1  1  0.00289972  0.16552443  0.83547838  1
  Ag  Ag2  1  0.00635501  0.00616320  0.00038412  1
  Ag  Ag3  1  0.66404829  0.83193921  0.83058349  1
  Ag  Ag4  1  0.65943131  0.83420987  0.49939948  1
  Ag  Ag5  1  0.00294320  0.49978625  0.49974666  1
  Ag  Ag6  1  0.50636058  0.83536432  0.66244395  1
  Ag  Ag7  1  0.33206815  0.50543782  0.17019275  1
  Ag  Ag8  1  0.16767474  -0.00128253  0.83533641  1
  Ag  Ag9  1  0.50527350  -0.00163068  0.17607845  1
  Ag  Ag10  1  0.83380115  0.66861180  0.49228166  1
  Ag  Ag11  1  0.33621764  0.67024992  0.00563475  1
  Ag  Ag12  1  0.16867307  0.83113407  0.33191203  1
  Ag  Ag13  1  -0.00181612  0.16863968  0.50814494  1
  Ag  Ag14  1  0.16109710  0.33419568  0.16555627  1
  Ag  Ag15  1  0.17069425  0.67326053  0.84099304  1
  Ag  Ag16  1  0.66093556  0.67247639  0.00359390  1
  Ag  Ag17  1  0.32657055  0.32447632  0.67044734  1
  Ag  Ag18  1  0.33465767  0.00116424  0.66717988  1
  Ag  Ag19  1  0.33314461  0.67209683  0.33174232  1
  Ag  Ag20  1  0.50052111  0.83227257  -0.00335829  1
  Ag  Ag21  1  0.83770026  0.33079386  0.83594288  1
  Ag  Ag22  1  -0.00416925  0.16190237  0.16447897  1
  Ag  Ag23  1  0.84158877  0.32167735  0.16501465  1
  Ag  Ag24  1  -0.00116471  0.67073563  0.65893513  1
  Ag  Ag25  1  0.32910963  0.50838365  0.49533786  1
  Ag  Ag26  1  0.83706390  0.67065434  0.17372098  1
  Ag  Ag27  1  0.66912993  -0.00499000  0.66137215  1
  Ag  Ag28  1  0.00196256  0.32113778  0.66761179  1
  Ag  Ag29  1  0.66122013  -0.00599790  0.32959776  1
  Ag  Ag30  1  0.34096099  0.83118617  0.49820734  1
  Ag  Ag31  1  0.82792470  0.83960841  0.66572841  1
  Ag  Ag32  1  0.67780507  0.15390451  0.16901878  1
  Ag  Ag33  1  0.66824855  0.51442487  0.83304954  1
  Ag  Ag34  1  0.67097850  0.83641462  0.17220280  1
  Ag  Ag35  1  0.83358486  0.16589030  0.32878094  1
  Ag  Ag36  1  -0.00866378  0.66846176  0.33502888  1
  Ag  Ag37  1  -0.00693055  0.83687286  0.16692357  1
  Ag  Ag38  1  0.83948263  0.16047899  0.66248820  1
  Ag  Ag39  1  -0.00516922  0.00330267  0.66939851  1
  Ag  Ag40  1  0.67260744  0.67611638  0.32909682  1
  Ag  Ag41  1  0.83355344  0.51067938  0.33263648  1
  Ag  Ag42  1  0.50073404  0.67737219  0.49961469  1
  Ag  Ag43  1  0.32641603  0.16295950  0.83432625  1
  Ag  Ag44  1  0.34230119  -0.00517328  0.33394166  1
  Ag  Ag45  1  0.50406865  0.15820226  0.33263841  1
  Ag  Ag46  1  0.16387157  0.33249649  0.49905073  1
  Ag  Ag47  1  0.32676054  0.32590107  -0.00169335  1
  Ag  Ag48  1  0.32915932  -0.00056769  -0.00100117  1
  Ag  Ag49  1  0.00562755  0.32471695  0.00226766  1
  Ag  Ag50  1  0.16639191  0.66713508  0.16761104  1
  Ag  Ag51  1  0.49851116  -0.00536741  0.49375974  1
  Ag  Ag52  1  0.16380653  0.16510661  -0.00036807  1
  Ag  Ag53  1  0.49970439  0.67187188  0.83134006  1
  Sb  Sb54  1  -0.00333509  0.49566183  0.82766059  1
  Sb  Sb55  1  0.49606357  -0.00602045  0.83229388  1
  Sb  Sb56  1  0.49246766  0.33144776  0.50181596  1
  Sb  Sb57  1  0.16434193  0.16226660  0.32861460  1
  Sb  Sb58  1  0.66521578  -0.00592985  0.00453424  1
  Sb  Sb59  1  0.32809874  0.16375653  0.50324410  1
  Sb  Sb60  1  0.49901474  0.50786744  0.00046533  1
  Sb  Sb61  1  0.82977858  -0.00490168  0.49850867  1
  Sb  Sb62  1  0.16380661  0.50617250  0.33310882  1
  Sb  Sb63  1  0.84076619  0.16604100  0.00372833  1
  Sb  Sb64  1  0.17072869  0.83633575  0.00408545  1
  Sb  Sb65  1  0.66783399  0.51122195  0.50282706  1
  Sb  Sb66  1  0.67096371  0.67635439  0.66577646  1
  Sb  Sb67  1  0.49848666  0.32582601  0.16540841  1
  Sb  Sb68  1  0.33116097  0.33380022  0.33174186  1
  Sb  Sb69  1  0.16316131  0.33041553  0.83549066  1
  Sb  Sb70  1  0.83269798  0.83358247  0.33340705  1
  Sb  Sb71  1  0.16531344  -0.00197893  0.16343756  1
  Sb  Sb72  1  0.83353022  0.50021646  0.00576096  1
  Sb  Sb73  1  0.50250580  0.50079462  0.33407390  1
  Sb  Sb74  1  0.66761206  0.33572090  0.00105054  1
  Sb  Sb75  1  0.83426664  0.50089539  0.66207657  1
  Sb  Sb76  1  0.83922921  0.33534073  0.49847890  1
  Sb  Sb77  1  0.16622498  0.49936082  0.66556667  1
  Sb  Sb78  1  -0.00332727  0.83787178  0.83593398  1
  Sb  Sb79  1  0.16602399  0.66506206  0.49584981  1
  Sb  Sb80  1  0.67037725  0.16074748  0.83757125  1
  Sb  Sb81  1  0.00196344  0.66841412  0.00404367  1
  Sb  Sb82  1  0.82889557  0.83388302  0.00090295  1
  Sb  Sb83  1  0.16750359  0.49625287  0.00158725  1
  Sb  Sb84  1  0.50092555  0.33759471  0.83346494  1
  Sb  Sb85  1  0.32981511  0.16658275  0.16377541  1
  Sb  Sb86  1  0.33554649  0.83190611  0.17066818  1
  Sb  Sb87  1  0.33699211  0.83707465  0.83019633  1
  Sb  Sb88  1  0.16015975  0.16576835  0.67225420  1
  Sb  Sb89  1  0.83780833  0.00350829  0.83359231  1
  Sb  Sb90  1  0.49999798  0.67545399  0.16899391  1
  Sb  Sb91  1  -0.00086426  0.83304846  0.49756787  1
  Sb  Sb92  1  0.33500509  0.49912362  0.83347347  1
  Sb  Sb93  1  0.66540725  0.50599154  0.16545625  1
  Sb  Sb94  1  0.49401822  0.15796973  0.00316724  1
  Sb  Sb95  1  0.66961631  0.33048566  0.33180065  1
  Sb  Sb96  1  -0.00181549  -0.00340249  0.33172344  1
  Sb  Sb97  1  0.00113141  0.49985281  0.17145674  1
  Sb  Sb98  1  0.67177366  0.15869319  0.49396933  1
  Sb  Sb99  1  0.83215799  0.66458469  0.83347070  1
  Sb  Sb100  1  0.50199999  0.15778802  0.66294786  1
  Sb  Sb101  1  0.49927038  0.83759411  0.33707023  1
  Sb  Sb102  1  0.32960419  0.67005965  0.66482635  1
  Sb  Sb103  1  0.49909749  0.50801521  0.66544831  1
  Sb  Sb104  1  0.67125992  0.32572359  0.66755756  1
  Sb  Sb105  1  0.16942493  0.00290674  0.50290993  1
  Sb  Sb106  1  0.16566485  0.83431943  0.66334933  1
  Sb  Sb107  1  -0.00047651  0.33459540  0.33335671  1
  Te  Te108  1  0.16063383  0.16968596  0.16207070  1
  Te  Te109  1  0.15950020  0.17174293  0.49714545  1
  Te  Te110  1  0.16584032  0.16452329  0.83828816  1
  Te  Te111  1  0.17151488  0.50098997  0.16759861  1
  Te  Te112  1  0.16691907  0.49489427  0.49910575  1
  Te  Te113  1  0.16659275  0.51122029  0.83376450  1
  Te  Te114  1  0.16390490  0.82871442  0.17015937  1
  Te  Te115  1  0.17122195  0.83401068  0.49445118  1
  Te  Te116  1  0.16606844  0.83368024  0.83346611  1
  Te  Te117  1  0.50136125  0.16008209  0.17068252  1
  Te  Te118  1  0.50120201  0.16239618  0.49480088  1
  Te  Te119  1  0.49668911  0.16774032  0.83305278  1
  Te  Te120  1  0.49273957  0.49603193  0.16770631  1
  Te  Te121  1  0.49465251  0.50357944  0.50031078  1
  Te  Te122  1  0.50652336  0.50849795  0.83268866  1
  Te  Te123  1  0.50430728  0.83911294  0.16081756  1
  Te  Te124  1  0.49944496  0.83434430  0.50101571  1
  Te  Te125  1  0.50307665  0.82938799  0.83238677  1
  Te  Te126  1  0.83521209  0.16499763  0.16731712  1
  Te  Te127  1  0.83820444  0.16710068  0.49970817  1
  Te  Te128  1  0.83607733  0.17046130  0.82935675  1
  Te  Te129  1  0.83244284  0.50596297  0.17313856  1
  Te  Te130  1  0.83579838  0.50480887  0.49453106  1
  Te  Te131  1  0.82856177  0.49479364  0.83312543  1
  Te  Te132  1  0.83276335  0.83197470  0.16630477  1
  Te  Te133  1  0.83215584  0.82835898  0.50520216  1
  Te  Te134  1  0.82782273  0.83332522  0.82765600  1
  Te  Te135  1  0.16767143  0.00225281  -0.00247196  1
  Te  Te136  1  0.17121175  -0.00565785  0.33320614  1
  Te  Te137  1  0.17014887  -0.00020975  0.67156274  1
  Te  Te138  1  0.16690271  0.33026892  0.00163355  1
  Te  Te139  1  0.16729150  0.33262959  0.32803142  1
  Te  Te140  1  0.16564320  0.33255351  0.66566953  1
  Te  Te141  1  0.17046801  0.66689345  0.00339149  1
  Te  Te142  1  0.17301301  0.66965533  0.32983848  1
  Te  Te143  1  0.16015019  0.66722537  0.67019103  1
  Te  Te144  1  0.49442510  -0.00594282  0.00133134  1
  Te  Te145  1  0.50001350  0.00091998  0.33357128  1
  Te  Te146  1  0.49794179  -0.00449702  0.66488605  1
  Te  Te147  1  0.49193983  0.33305464  -0.00078819  1
  Te  Te148  1  0.50091999  0.32424862  0.33367021  1
  Te  Te149  1  0.49433009  0.33217981  0.66737964  1
  Te  Te150  1  0.49885748  0.67174254  0.00056819  1
  Te  Te151  1  0.49671693  0.66413867  0.33820705  1
  Te  Te152  1  0.49936185  0.67402836  0.66536380  1
  Te  Te153  1  0.83865962  -0.00110591  0.00558938  1
  Te  Te154  1  0.83017467  0.00317663  0.33060638  1
  Te  Te155  1  0.83451913  0.00000550  0.66620767  1
  Te  Te156  1  0.83626866  0.33341442  0.00212033  1
  Te  Te157  1  0.83379113  0.32762130  0.32865834  1
  Te  Te158  1  0.83870759  0.32991771  0.66680841  1
  Te  Te159  1  0.83082470  0.66626190  0.00555924  1
  Te  Te160  1  0.83237402  0.66948167  0.33280910  1
  Te  Te161  1  0.83895499  0.66835840  0.66564290  1
  Te  Te162  1  0.00169291  0.16620517  0.00026011  1
  Te  Te163  1  -0.00291452  0.16483891  0.32733951  1
  Te  Te164  1  -0.00116787  0.16472255  0.66772908  1
  Te  Te165  1  -0.00014153  0.49149673  -0.00193879  1
  Te  Te166  1  -0.00340384  0.50658026  0.33881880  1
  Te  Te167  1  -0.00063532  0.50354515  0.65963716  1
  Te  Te168  1  0.00026490  0.83808764  0.00552262  1
  Te  Te169  1  0.00374079  0.82891705  0.32964632  1
  Te  Te170  1  -0.00272656  0.83591249  0.66681145  1
  Te  Te171  1  0.32907950  0.16431918  -0.00323015  1
  Te  Te172  1  0.33371067  0.16160958  0.33367953  1
  Te  Te173  1  0.33442241  0.16417625  0.67042401  1
  Te  Te174  1  0.33375025  0.50527202  0.00211272  1
  Te  Te175  1  0.33462410  0.50207491  0.33442379  1
  Te  Te176  1  0.33373245  0.49462598  0.66210072  1
  Te  Te177  1  0.33730343  0.83243291  -0.00021117  1
  Te  Te178  1  0.33244717  0.83351501  0.33551536  1
  Te  Te179  1  0.33457818  0.83838756  0.66184219  1
  Te  Te180  1  0.66311403  0.16689854  0.00773731  1
  Te  Te181  1  0.66943508  0.16399604  0.32882579  1
  Te  Te182  1  0.67270656  0.15735656  0.66707699  1
  Te  Te183  1  0.66608830  0.50707247  -0.00541419  1
  Te  Te184  1  0.67130063  0.50467349  0.33426871  1
  Te  Te185  1  0.66658567  0.49548906  0.67266648  1
  Te  Te186  1  0.66345895  0.83011928  -0.00003424  1
  Te  Te187  1  0.66683925  0.83372061  0.33293099  1
  Te  Te188  1  0.66732922  0.83693889  0.66418709  1
  Te  Te189  1  -0.00138237  -0.00087666  0.16630614  1
  Te  Te190  1  0.00022965  0.00369285  0.50397333  1
  Te  Te191  1  0.00342538  0.00402355  0.83302462  1
  Te  Te192  1  0.00001518  0.33478757  0.16625242  1
  Te  Te193  1  0.00276252  0.33275208  0.50113412  1
  Te  Te194  1  -0.00112005  0.32976935  0.83054523  1
  Te  Te195  1  0.00098598  0.66729987  0.16811943  1
  Te  Te196  1  -0.00036088  0.66693285  0.49811171  1
  Te  Te197  1  0.00217975  0.66560843  0.83431673  1
  Te  Te198  1  0.33423405  -0.00003140  0.16628420  1
  Te  Te199  1  0.33620303  -0.00079363  0.50021414  1
  Te  Te200  1  0.33021859  0.00226905  0.83485613  1
  Te  Te201  1  0.33015917  0.33563330  0.16232592  1
  Te  Te202  1  0.32730179  0.33427133  0.50294987  1
  Te  Te203  1  0.33210566  0.33090031  0.83383872  1
  Te  Te204  1  0.33341218  0.66666950  0.16763807  1
  Te  Te205  1  0.33290403  0.66780985  0.49972479  1
  Te  Te206  1  0.33382741  0.66653751  0.83389715  1
  Te  Te207  1  0.66761652  -0.00264263  0.16649633  1
  Te  Te208  1  0.66281617  -0.00481604  0.49915819  1
  Te  Te209  1  0.66718105  -0.00618975  0.83222147  1
  Te  Te210  1  0.67215855  0.33505086  0.16498522  1
  Te  Te211  1  0.66411262  0.33543343  0.50132419  1
  Te  Te212  1  0.67244092  0.33092364  0.83460449  1
  Te  Te213  1  0.66684699  0.66945678  0.16805534  1
  Te  Te214  1  0.66619031  0.67233461  0.49791687  1
  Te  Te215  1  0.66586083  0.67139561  0.83364089  1
