# generated using pymatgen
data_AgSbTe2
_symmetry_space_group_name_H-M   'P 1'
_cell_length_a   18.34020549
_cell_length_b   18.34889839
_cell_length_c   18.35363448
_cell_angle_alpha   89.99822967
_cell_angle_beta   89.99567708
_cell_angle_gamma   89.99897928
_symmetry_Int_Tables_number   1
_chemical_formula_structural   AgSbTe2
_chemical_formula_sum   'Ag54 Sb54 Te108'
_cell_volume   6176.41216788
_cell_formula_units_Z   54
loop_
 _symmetry_equiv_pos_site_id
 _symmetry_equiv_pos_as_xyz
  1  'x, y, z'
loop_
 _atom_site_type_symbol
 _atom_site_label
 _atom_site_symmetry_multiplicity
 _atom_site_fract_x
 _atom_site_fract_y
 _atom_site_fract_z
 _atom_site_occupancy
  Ag  Ag0  1  0.50219269  0.16868841  0.00324730  1
  Ag  Ag1  1  0.34548415  0.83025349  0.83244048  1
  Ag  Ag2  1  0.49985912  0.83347988  -0.00548879  1
  Ag  Ag3  1  0.83300938  0.17516950  0.66907965  1
  Ag  Ag4  1  0.49810425  0.00552720  0.49773687  1
  Ag  Ag5  1  0.49776191  0.50076511  0.68041149  1
  Ag  Ag6  1  0.50247222  0.01375599  0.16153096  1
  Ag  Ag7  1  0.33246307  0.65505707  0.33223520  1
  Ag  Ag8  1  0.83296408  0.16810854  0.32902844  1
  Ag  Ag9  1  0.82468240  0.00246071  0.16645835  1
  Ag  Ag10  1  0.50263055  -0.01168178  0.84394730  1
  Ag  Ag11  1  0.16738277  0.66935821  0.49725809  1
  Ag  Ag12  1  0.50021000  0.33207064  0.49873851  1
  Ag  Ag13  1  0.33954336  0.83052610  0.16616605  1
  Ag  Ag14  1  0.50008762  0.66358322  0.15822800  1
  Ag  Ag15  1  0.82518912  0.66204672  0.84016825  1
  Ag  Ag16  1  0.49635622  0.32828988  0.16125630  1
  Ag  Ag17  1  0.34358354  0.17391242  0.16248893  1
  Ag  Ag18  1  -0.00842412  0.33479104  0.66512933  1
  Ag  Ag19  1  0.50107952  0.33295794  0.83728007  1
  Ag  Ag20  1  0.34150317  0.50063080  0.83669997  1
  Ag  Ag21  1  0.34011063  0.33192519  0.00521718  1
  Ag  Ag22  1  0.65585292  0.16408508  0.15776452  1
  Ag  Ag23  1  0.33929188  0.49661733  0.17398059  1
  Ag  Ag24  1  0.17545016  0.17076690  0.32951643  1
  Ag  Ag25  1  0.50327906  0.67623491  0.84075080  1
  Ag  Ag26  1  0.18158560  0.49886493  0.33465199  1
  Ag  Ag27  1  0.49253883  0.49168590  0.32263985  1
  Ag  Ag28  1  0.82442414  0.33309206  0.83018826  1
  Ag  Ag29  1  0.33314431  0.82654408  0.50121720  1
  Ag  Ag30  1  -0.00920323  0.66659309  -0.00147013  1
  Ag  Ag31  1  0.00585291  0.83265827  0.50260923  1
  Ag  Ag32  1  0.17437303  0.82979299  0.66398065  1
  Ag  Ag33  1  0.50016389  0.49708953  -0.00180978  1
  Ag  Ag34  1  0.66256979  0.66973403  -0.00272139  1
  Ag  Ag35  1  0.82841853  0.66921670  0.15658418  1
  Ag  Ag36  1  0.49874890  0.82951079  0.68089505  1
  Ag  Ag37  1  0.83283823  0.83341370  0.66848145  1
  Ag  Ag38  1  0.34689219  0.17462158  0.84436319  1
  Ag  Ag39  1  0.00663195  0.66762345  0.33576726  1
  Ag  Ag40  1  0.66604662  0.33162658  0.67008250  1
  Ag  Ag41  1  0.65801904  0.83586077  0.83566374  1
  Ag  Ag42  1  0.83078869  0.32992656  0.51068252  1
  Ag  Ag43  1  0.66259175  0.00607520  -0.00061839  1
  Ag  Ag44  1  0.18348634  0.16717741  0.00579207  1
  Ag  Ag45  1  0.66218217  0.16533838  0.83996757  1
  Ag  Ag46  1  -0.00121363  0.00432574  0.33419430  1
  Ag  Ag47  1  0.82220739  0.17189693  -0.00007578  1
  Ag  Ag48  1  -0.00340271  0.16533487  0.49628291  1
  Ag  Ag49  1  0.49527850  0.17193366  0.31786710  1
  Ag  Ag50  1  0.82361413  0.50080559  -0.00130187  1
  Ag  Ag51  1  -0.00216155  0.66751559  0.66618213  1
  Ag  Ag52  1  0.33870917  0.34169002  0.32653095  1
  Ag  Ag53  1  0.33738746  0.50360796  0.48679187  1
  Sb  Sb54  1  0.66251308  0.83398395  0.50999146  1
  Sb  Sb55  1  0.65962670  0.49756480  0.83647906  1
  Sb  Sb56  1  0.33815684  -0.00198347  0.66652144  1
  Sb  Sb57  1  0.33358642  0.16897480  0.49738112  1
  Sb  Sb58  1  0.82895352  0.49760849  0.67249421  1
  Sb  Sb59  1  0.65882637  0.32961726  -0.00626835  1
  Sb  Sb60  1  -0.00309775  -0.00311477  0.66091869  1
  Sb  Sb61  1  0.17358950  0.49740574  0.00461902  1
  Sb  Sb62  1  0.82684683  0.82962044  -0.00346205  1
  Sb  Sb63  1  0.00261848  0.50293683  0.16673717  1
  Sb  Sb64  1  0.17658595  0.83567035  -0.00483319  1
  Sb  Sb65  1  0.33268845  0.00271629  0.33132867  1
  Sb  Sb66  1  0.16148020  0.16445498  0.66566742  1
  Sb  Sb67  1  0.65737014  0.49431294  0.16208793  1
  Sb  Sb68  1  0.49390247  0.66500337  0.49978477  1
  Sb  Sb69  1  0.82635511  0.00099618  0.83757647  1
  Sb  Sb70  1  0.83041040  0.00504022  0.49715286  1
  Sb  Sb71  1  0.66705952  0.00329929  0.32648251  1
  Sb  Sb72  1  0.17071066  0.66736072  0.83085973  1
  Sb  Sb73  1  0.17630698  0.33193450  0.16815028  1
  Sb  Sb74  1  0.00178102  0.83104204  0.17030643  1
  Sb  Sb75  1  0.17186325  0.66659606  0.17057503  1
  Sb  Sb76  1  -0.00220999  0.83107725  0.82767800  1
  Sb  Sb77  1  0.65775084  0.33093079  0.33642233  1
  Sb  Sb78  1  0.33890133  0.33491128  0.66723652  1
  Sb  Sb79  1  0.16959459  -0.00355283  0.49829714  1
  Sb  Sb80  1  0.17265158  0.50391019  0.66203201  1
  Sb  Sb81  1  0.82422742  0.33035640  0.16311173  1
  Sb  Sb82  1  0.66217990  0.66660293  0.32380695  1
  Sb  Sb83  1  -0.00140018  0.33501443  -0.00453150  1
  Sb  Sb84  1  0.50434421  0.16928143  0.67307008  1
  Sb  Sb85  1  0.33348883  0.66821304  0.66416338  1
  Sb  Sb86  1  0.33891292  0.66165601  0.00359026  1
  Sb  Sb87  1  0.34403647  0.00815581  0.00097887  1
  Sb  Sb88  1  0.66424824  0.00419526  0.67335543  1
  Sb  Sb89  1  0.16964023  0.33635582  0.50001361  1
  Sb  Sb90  1  0.00379945  0.33248591  0.33802775  1
  Sb  Sb91  1  0.49732946  0.83464229  0.33030016  1
  Sb  Sb92  1  0.00214892  0.50080203  0.83223878  1
  Sb  Sb93  1  -0.00897924  -0.00239851  0.00542466  1
  Sb  Sb94  1  0.66850413  0.16784234  0.50153584  1
  Sb  Sb95  1  0.17862361  0.00127359  0.83450592  1
  Sb  Sb96  1  0.65788245  0.49899084  0.50112173  1
  Sb  Sb97  1  -0.00190502  0.16565517  0.17041820  1
  Sb  Sb98  1  0.00431131  0.50031383  0.49967613  1
  Sb  Sb99  1  0.65968866  0.83724587  0.15778628  1
  Sb  Sb100  1  0.83207478  0.49594258  0.32847204  1
  Sb  Sb101  1  0.84039355  0.66262131  0.50142219  1
  Sb  Sb102  1  0.66793025  0.66405964  0.67430291  1
  Sb  Sb103  1  0.16874360  0.83142155  0.33791539  1
  Sb  Sb104  1  0.83665638  0.83585836  0.33655479  1
  Sb  Sb105  1  -0.00563891  0.16670686  0.83076518  1
  Sb  Sb106  1  0.17220285  0.33228201  0.83288205  1
  Sb  Sb107  1  0.17182477  0.00181828  0.16767244  1
  Te  Te108  1  0.16929633  0.16589484  0.16778539  1
  Te  Te109  1  0.16220646  0.16588806  0.49643185  1
  Te  Te110  1  0.16853535  0.16564205  0.83709067  1
  Te  Te111  1  0.17464881  0.49943472  0.17321979  1
  Te  Te112  1  0.17349341  0.50447124  0.49550197  1
  Te  Te113  1  0.17614515  0.50005445  0.83380310  1
  Te  Te114  1  0.17604214  0.83475926  0.16529532  1
  Te  Te115  1  0.16747085  0.83071330  0.50359556  1
  Te  Te116  1  0.17211679  0.83416792  0.82640811  1
  Te  Te117  1  0.49883885  0.16838874  0.16339226  1
  Te  Te118  1  0.49967040  0.16776737  0.50574006  1
  Te  Te119  1  0.50234854  0.17410616  0.83111897  1
  Te  Te120  1  0.49829892  0.50230168  0.16217431  1
  Te  Te121  1  0.49545150  0.49767938  0.49801858  1
  Te  Te122  1  0.49877809  0.49280975  0.83732205  1
  Te  Te123  1  0.49762127  0.82382832  0.16516809  1
  Te  Te124  1  0.49552213  0.83369487  0.49822789  1
  Te  Te125  1  0.50084311  0.83311603  0.83612347  1
  Te  Te126  1  0.83227604  0.16543841  0.16562556  1
  Te  Te127  1  0.83524052  0.16924199  0.50048973  1
  Te  Te128  1  0.82999391  0.16780129  0.83385191  1
  Te  Te129  1  0.83292386  0.50298859  0.16059512  1
  Te  Te130  1  0.83226848  0.49130069  0.49881110  1
  Te  Te131  1  0.83501154  0.50101216  0.83858488  1
  Te  Te132  1  0.83251753  0.83189300  0.16733915  1
  Te  Te133  1  0.83537190  0.83350900  0.50549516  1
  Te  Te134  1  0.83118152  0.83174187  0.82944805  1
  Te  Te135  1  0.16025733  0.00724534  0.00087434  1
  Te  Te136  1  0.15987525  0.00737662  0.33291794  1
  Te  Te137  1  0.16518457  -0.00877924  0.66671915  1
  Te  Te138  1  0.16873784  0.32733860  -0.00042678  1
  Te  Te139  1  0.17208720  0.33262622  0.33440239  1
  Te  Te140  1  0.15661775  0.33401126  0.66621910  1
  Te  Te141  1  0.15823144  0.66667169  -0.00013253  1
  Te  Te142  1  0.16837404  0.66535430  0.33562349  1
  Te  Te143  1  0.16077194  0.67010276  0.66346106  1
  Te  Te144  1  0.50277548  0.00165773  0.00188404  1
  Te  Te145  1  0.50033544  0.00604074  0.33095657  1
  Te  Te146  1  0.50188002  -0.00645380  0.66221618  1
  Te  Te147  1  0.49910658  0.33300611  -0.00018679  1
  Te  Te148  1  0.49779204  0.33118516  0.33663142  1
  Te  Te149  1  0.50161783  0.33583651  0.66476477  1
  Te  Te150  1  0.49852720  0.66577714  -0.00168052  1
  Te  Te151  1  0.49555247  0.66417339  0.33151878  1
  Te  Te152  1  0.50127777  0.66611553  0.66872153  1
  Te  Te153  1  0.82642137  0.00359973  0.00503631  1
  Te  Te154  1  0.83639750  0.00480182  0.32932428  1
  Te  Te155  1  0.83186533  -0.00224846  0.66668465  1
  Te  Te156  1  0.83344380  0.33460994  -0.00409791  1
  Te  Te157  1  0.83411340  0.32933110  0.33258072  1
  Te  Te158  1  0.83169125  0.33551196  0.66913722  1
  Te  Te159  1  0.83252774  0.66834258  -0.00122883  1
  Te  Te160  1  0.83422286  0.66471056  0.33132531  1
  Te  Te161  1  0.83599313  0.66612138  0.66985612  1
  Te  Te162  1  -0.00689376  0.16655636  -0.00000345  1
  Te  Te163  1  -0.00377854  0.16738831  0.33624632  1
  Te  Te164  1  -0.00511221  0.16714852  0.66174110  1
  Te  Te165  1  0.00282337  0.50518916  -0.00007064  1
  Te  Te166  1  0.00154204  0.50545972  0.33335561  1
  Te  Te167  1  0.00135501  0.50328687  0.66593987  1
  Te  Te168  1  0.00346095  0.82883428  0.00033755  1
  Te  Te169  1  0.00188374  0.82912316  0.33892868  1
  Te  Te170  1  -0.00527642  0.83052173  0.66291043  1
  Te  Te171  1  0.33903033  0.16929936  0.00086011  1
  Te  Te172  1  0.33506362  0.16839329  0.33270896  1
  Te  Te173  1  0.32774807  0.16638872  0.67106628  1
  Te  Te174  1  0.33564807  0.49501489  -0.00148036  1
  Te  Te175  1  0.33716988  0.49885624  0.33094638  1
  Te  Te176  1  0.33817882  0.50090378  0.67441467  1
  Te  Te177  1  0.33757289  0.83147361  -0.00079630  1
  Te  Te178  1  0.33233795  0.83271527  0.33532858  1
  Te  Te179  1  0.33704634  0.83230495  0.66521001  1
  Te  Te180  1  0.66451447  0.16844589  -0.00133803  1
  Te  Te181  1  0.66714912  0.16625914  0.33159955  1
  Te  Te182  1  0.67396983  0.17051669  0.67011193  1
  Te  Te183  1  0.66612082  0.50739988  0.00096125  1
  Te  Te184  1  0.65884207  0.50012772  0.33246364  1
  Te  Te185  1  0.65908096  0.49409037  0.66707837  1
  Te  Te186  1  0.66147378  0.83145572  -0.00525105  1
  Te  Te187  1  0.66789085  0.83378681  0.33597955  1
  Te  Te188  1  0.66565856  0.83246397  0.67428410  1
  Te  Te189  1  -0.00456618  -0.00208587  0.17360285  1
  Te  Te190  1  -0.00107967  -0.00086303  0.49495785  1
  Te  Te191  1  0.00134487  -0.00122525  0.83467346  1
  Te  Te192  1  -0.00077098  0.33530691  0.16613129  1
  Te  Te193  1  -0.00198832  0.33072359  0.50324805  1
  Te  Te194  1  -0.00460871  0.33388164  0.82683251  1
  Te  Te195  1  -0.00357748  0.66781068  0.16947261  1
  Te  Te196  1  0.00429775  0.66812151  0.49953236  1
  Te  Te197  1  -0.00103891  0.66665167  0.83190485  1
  Te  Te198  1  0.33961800  -0.00454438  0.16663564  1
  Te  Te199  1  0.33805178  -0.00378678  0.49902520  1
  Te  Te200  1  0.34329364  -0.00348458  0.83351727  1
  Te  Te201  1  0.33796705  0.33323185  0.16674879  1
  Te  Te202  1  0.33743653  0.33665910  0.49954499  1
  Te  Te203  1  0.33621363  0.33201554  0.83339493  1
  Te  Te204  1  0.33599555  0.66697812  0.16981930  1
  Te  Te205  1  0.32944126  0.66600126  0.49744211  1
  Te  Te206  1  0.33789072  0.66758738  0.83405410  1
  Te  Te207  1  0.66448757  0.00276014  0.16152035  1
  Te  Te208  1  0.65879323  -0.00059764  0.49969058  1
  Te  Te209  1  0.66180738  0.00196285  0.83836336  1
  Te  Te210  1  0.65824501  0.32540804  0.16894127  1
  Te  Te211  1  0.66587300  0.33315891  0.50598304  1
  Te  Te212  1  0.66637405  0.33019478  0.83065043  1
  Te  Te213  1  0.66669759  0.66728164  0.16003206  1
  Te  Te214  1  0.66917798  0.66756416  0.49896036  1
  Te  Te215  1  0.66560742  0.66752192  0.83654032  1
