# generated using pymatgen
data_AgSbTe2
_symmetry_space_group_name_H-M   'P 1'
_cell_length_a   18.31092229
_cell_length_b   18.31003906
_cell_length_c   18.31358570
_cell_angle_alpha   90.00089847
_cell_angle_beta   90.00180788
_cell_angle_gamma   90.00128835
_symmetry_Int_Tables_number   1
_chemical_formula_structural   AgSbTe2
_chemical_formula_sum   'Ag54 Sb54 Te108'
_cell_volume   6140.06367558
_cell_formula_units_Z   54
loop_
 _symmetry_equiv_pos_site_id
 _symmetry_equiv_pos_as_xyz
  1  'x, y, z'
loop_
 _atom_site_type_symbol
 _atom_site_label
 _atom_site_symmetry_multiplicity
 _atom_site_fract_x
 _atom_site_fract_y
 _atom_site_fract_z
 _atom_site_occupancy
  Ag  Ag0  1  0.66676574  0.00063642  0.33790146  1
  Ag  Ag1  1  -0.00453536  0.83679984  0.49916963  1
  Ag  Ag2  1  0.49589979  0.17597749  0.33170505  1
  Ag  Ag3  1  0.83292342  -0.00449672  0.83143957  1
  Ag  Ag4  1  -0.00001145  0.16630521  0.82865626  1
  Ag  Ag5  1  0.83005910  0.50377004  -0.00830569  1
  Ag  Ag6  1  -0.00492781  0.00050410  0.33647948  1
  Ag  Ag7  1  -0.00970652  0.66755717  -0.00263365  1
  Ag  Ag8  1  0.49531267  0.32886678  0.17932121  1
  Ag  Ag9  1  0.66883921  0.00184249  0.66445569  1
  Ag  Ag10  1  0.67371157  0.66005331  -0.00724774  1
  Ag  Ag11  1  0.83072588  0.83041142  0.34001178  1
  Ag  Ag12  1  0.67047160  0.83664114  0.49915630  1
  Ag  Ag13  1  0.33854600  0.83341721  0.49770309  1
  Ag  Ag14  1  0.66145305  0.33593480  0.66745834  1
  Ag  Ag15  1  0.50436069  0.83537427  0.33243357  1
  Ag  Ag16  1  -0.00575062  0.83302469  0.83203241  1
  Ag  Ag17  1  0.67100374  0.65648771  0.67250950  1
  Ag  Ag18  1  0.17650802  0.32842607  0.17455576  1
  Ag  Ag19  1  0.33170047  0.17149269  0.16648832  1
  Ag  Ag20  1  0.49921110  0.00409801  0.17074214  1
  Ag  Ag21  1  0.00629578  0.16622182  0.17544080  1
  Ag  Ag22  1  0.33423123  0.17566262  0.83805656  1
  Ag  Ag23  1  0.65709358  0.33179730  0.33840544  1
  Ag  Ag24  1  0.65917681  0.33934714  -0.01035369  1
  Ag  Ag25  1  0.50864828  0.49381539  0.66517611  1
  Ag  Ag26  1  0.50457226  0.48697086  0.33882498  1
  Ag  Ag27  1  0.34211202  0.49151392  0.83341031  1
  Ag  Ag28  1  0.16397460  0.17026753  0.66046806  1
  Ag  Ag29  1  -0.00331018  0.83709739  0.17052950  1
  Ag  Ag30  1  -0.00401009  0.48768095  0.50059452  1
  Ag  Ag31  1  0.33680183  0.00743142  -0.00007543  1
  Ag  Ag32  1  0.33570329  0.66390174  0.00043159  1
  Ag  Ag33  1  0.83378767  0.33695150  0.50161843  1
  Ag  Ag34  1  0.50025217  0.33366914  0.83113533  1
  Ag  Ag35  1  0.16529676  0.32712754  0.49872496  1
  Ag  Ag36  1  -0.00116494  0.33090821  0.66249940  1
  Ag  Ag37  1  0.16852150  0.16920109  0.33855233  1
  Ag  Ag38  1  0.82799363  0.50133191  0.33862122  1
  Ag  Ag39  1  0.66493094  0.49513832  0.82856303  1
  Ag  Ag40  1  0.34377268  0.33290941  0.33257566  1
  Ag  Ag41  1  0.66485300  0.17660641  0.83047397  1
  Ag  Ag42  1  0.49972074  0.83113686  0.00475318  1
  Ag  Ag43  1  0.16017478  0.66588122  0.83427669  1
  Ag  Ag44  1  0.82759979  0.50058246  0.66793334  1
  Ag  Ag45  1  0.16299895  0.00964211  0.49903920  1
  Ag  Ag46  1  0.33611362  0.66116942  0.32832581  1
  Ag  Ag47  1  0.00469432  0.16990778  0.49991164  1
  Ag  Ag48  1  0.83393042  0.66678037  0.83670929  1
  Ag  Ag49  1  0.50047981  0.33380024  0.49174155  1
  Ag  Ag50  1  0.34106735  0.33269915  -0.00232855  1
  Ag  Ag51  1  0.83402740  0.66692562  0.16205345  1
  Ag  Ag52  1  0.34101354  0.33302896  0.66765424  1
  Ag  Ag53  1  0.83125566  0.82831236  0.66240465  1
  Sb  Sb54  1  0.33644410  0.00480935  0.33076481  1
  Sb  Sb55  1  0.33112074  0.83280416  0.83168577  1
  Sb  Sb56  1  0.83295858  0.66441098  0.50153567  1
  Sb  Sb57  1  0.49799984  0.16918835  0.00509817  1
  Sb  Sb58  1  0.33232398  0.83682521  0.16883140  1
  Sb  Sb59  1  0.33800393  0.66068665  0.66873977  1
  Sb  Sb60  1  0.16825670  0.49241608  0.33514309  1
  Sb  Sb61  1  0.83149781  0.33685203  0.17179568  1
  Sb  Sb62  1  0.50361068  0.49957885  -0.00202295  1
  Sb  Sb63  1  0.67144551  0.83093414  0.82869214  1
  Sb  Sb64  1  0.82988136  0.82601864  -0.00141508  1
  Sb  Sb65  1  0.66459562  0.66445599  0.33526029  1
  Sb  Sb66  1  0.66914413  0.83247057  0.17131173  1
  Sb  Sb67  1  0.16430606  0.66364918  0.16322090  1
  Sb  Sb68  1  0.16573004  0.83891932  0.33582634  1
  Sb  Sb69  1  0.17317478  0.33399909  0.83019516  1
  Sb  Sb70  1  0.16879719  0.16867345  0.00078556  1
  Sb  Sb71  1  0.16034058  0.83735592  0.66494093  1
  Sb  Sb72  1  0.67083862  0.49786286  0.50558425  1
  Sb  Sb73  1  0.82659954  0.33638282  0.82686789  1
  Sb  Sb74  1  0.33797094  0.00610925  0.66854575  1
  Sb  Sb75  1  0.16495650  0.49333620  0.66695833  1
  Sb  Sb76  1  -0.00319898  0.49754705  0.17051486  1
  Sb  Sb77  1  -0.00594142  0.66337628  0.67058634  1
  Sb  Sb78  1  0.83193142  0.17347229  -0.00258637  1
  Sb  Sb79  1  -0.00092737  0.32886277  0.34065136  1
  Sb  Sb80  1  0.33632540  0.49167042  0.16337977  1
  Sb  Sb81  1  0.50738400  0.82931077  0.66393688  1
  Sb  Sb82  1  0.50409661  0.00743820  0.83660713  1
  Sb  Sb83  1  -0.00082152  0.33622284  -0.00340193  1
  Sb  Sb84  1  0.66267478  -0.00012944  -0.00101840  1
  Sb  Sb85  1  0.50307740  0.66484275  0.16684151  1
  Sb  Sb86  1  0.00068044  0.67094178  0.33080585  1
  Sb  Sb87  1  0.83146821  -0.00381843  0.16581908  1
  Sb  Sb88  1  0.16624901  0.66556459  0.50304545  1
  Sb  Sb89  1  0.33226937  0.49664963  0.50217098  1
  Sb  Sb90  1  0.00251660  -0.00340611  0.00203538  1
  Sb  Sb91  1  0.50422122  0.66124300  0.83464357  1
  Sb  Sb92  1  0.49849266  0.17527589  0.66228071  1
  Sb  Sb93  1  0.16916409  0.00653889  0.17217992  1
  Sb  Sb94  1  0.49850848  0.00412411  0.49449607  1
  Sb  Sb95  1  0.67062842  0.16843887  0.50292370  1
  Sb  Sb96  1  0.50084827  0.66189101  0.49817394  1
  Sb  Sb97  1  0.16908544  0.83177975  -0.00058567  1
  Sb  Sb98  1  0.83318137  0.16683542  0.33441427  1
  Sb  Sb99  1  0.16303757  0.00084266  0.82910782  1
  Sb  Sb100  1  0.32734363  0.16893295  0.49746713  1
  Sb  Sb101  1  0.83609577  0.00000979  0.50269103  1
  Sb  Sb102  1  0.66499871  0.16891647  0.16548296  1
  Sb  Sb103  1  -0.00597974  0.00449403  0.66260513  1
  Sb  Sb104  1  -0.00436088  0.49879241  0.82925088  1
  Sb  Sb105  1  0.66668673  0.49880933  0.16270306  1
  Sb  Sb106  1  0.16573712  0.49927675  -0.00236515  1
  Sb  Sb107  1  0.83546526  0.17062182  0.66734700  1
  Te  Te108  1  0.16682915  0.17009422  0.16906545  1
  Te  Te109  1  0.16570560  0.16833069  0.49942599  1
  Te  Te110  1  0.16524418  0.16582405  0.82918246  1
  Te  Te111  1  0.16521693  0.49059468  0.16653746  1
  Te  Te112  1  0.15813069  0.49492971  0.50097533  1
  Te  Te113  1  0.17012731  0.50619351  0.83220945  1
  Te  Te114  1  0.15746276  0.83379221  0.16751494  1
  Te  Te115  1  0.16115636  0.83386737  0.50104284  1
  Te  Te116  1  0.15933110  0.82895059  0.83155186  1
  Te  Te117  1  0.49878572  0.16706855  0.17085931  1
  Te  Te118  1  0.49987535  0.17207023  0.49301571  1
  Te  Te119  1  0.49920682  0.17166237  0.83286684  1
  Te  Te120  1  0.50056755  0.49416739  0.17677204  1
  Te  Te121  1  0.49927183  0.49461687  0.49987465  1
  Te  Te122  1  0.50191612  0.49580170  0.83182199  1
  Te  Te123  1  0.49872259  0.83508692  0.16849775  1
  Te  Te124  1  0.50050412  0.83394191  0.49703989  1
  Te  Te125  1  0.49949887  0.83518828  0.83556478  1
  Te  Te126  1  0.84172102  0.16609296  0.16536306  1
  Te  Te127  1  0.84197982  0.17322578  0.49992322  1
  Te  Te128  1  0.83569890  0.16432310  0.83317573  1
  Te  Te129  1  0.83310151  0.50532733  0.17262667  1
  Te  Te130  1  0.83572596  0.49868478  0.50025991  1
  Te  Te131  1  0.83027060  0.50273870  0.83075387  1
  Te  Te132  1  0.83788735  0.82951325  0.17088024  1
  Te  Te133  1  0.83306474  0.83388327  0.49996494  1
  Te  Te134  1  0.83593945  0.83075480  0.83217110  1
  Te  Te135  1  0.17532019  -0.00009160  -0.00056657  1
  Te  Te136  1  0.16330269  0.00651789  0.33852869  1
  Te  Te137  1  0.16847038  0.00624532  0.66077145  1
  Te  Te138  1  0.17111625  0.33394986  0.00440183  1
  Te  Te139  1  0.16636472  0.32906711  0.33548493  1
  Te  Te140  1  0.16599482  0.33015055  0.66360571  1
  Te  Te141  1  0.17180834  0.66562263  -0.00438506  1
  Te  Te142  1  0.17534505  0.66480074  0.33248225  1
  Te  Te143  1  0.16780909  0.66721568  0.67293275  1
  Te  Te144  1  0.49698625  -0.00401681  0.00431917  1
  Te  Te145  1  0.50343567  -0.00544748  0.33080138  1
  Te  Te146  1  0.50765651  -0.00022219  0.66666130  1
  Te  Te147  1  0.50092132  0.33519192  -0.00617782  1
  Te  Te148  1  0.50056619  0.33142734  0.33500741  1
  Te  Te149  1  0.50035674  0.33467302  0.67062344  1
  Te  Te150  1  0.49701560  0.66856814  0.00149291  1
  Te  Te151  1  0.49585701  0.67443219  0.33231723  1
  Te  Te152  1  0.50727749  0.65856828  0.66643225  1
  Te  Te153  1  0.83256387  -0.00060111  -0.00620088  1
  Te  Te154  1  0.83074378  -0.00457735  0.33260332  1
  Te  Te155  1  0.82807268  -0.00335437  0.66995110  1
  Te  Te156  1  0.82920714  0.34195560  0.00262709  1
  Te  Te157  1  0.83023314  0.33717743  0.33775124  1
  Te  Te158  1  0.83194338  0.33693053  0.66258857  1
  Te  Te159  1  0.83199420  0.66476125  -0.00072362  1
  Te  Te160  1  0.83276256  0.66701156  0.33037810  1
  Te  Te161  1  0.83011557  0.66610991  0.66866134  1
  Te  Te162  1  0.00057161  0.16589639  -0.00526390  1
  Te  Te163  1  -0.00036007  0.16251838  0.33413538  1
  Te  Te164  1  0.00145693  0.16948579  0.66692604  1
  Te  Te165  1  -0.00636572  0.50519755  0.00061160  1
  Te  Te166  1  -0.00428888  0.50207475  0.33902666  1
  Te  Te167  1  -0.00506480  0.49550794  0.66199133  1
  Te  Te168  1  0.00044396  0.82898787  -0.00286347  1
  Te  Te169  1  -0.00143816  0.83642986  0.33435912  1
  Te  Te170  1  -0.00675784  0.83441497  0.66800927  1
  Te  Te171  1  0.33396526  0.17066090  -0.00050623  1
  Te  Te172  1  0.33339686  0.17016554  0.33080010  1
  Te  Te173  1  0.33004584  0.17163855  0.67097413  1
  Te  Te174  1  0.33429336  0.49922763  -0.00533556  1
  Te  Te175  1  0.33663385  0.49820767  0.33369104  1
  Te  Te176  1  0.33593311  0.49465270  0.67101824  1
  Te  Te177  1  0.33754306  0.82919914  0.00018912  1
  Te  Te178  1  0.33359767  0.83425799  0.33634805  1
  Te  Te179  1  0.33437971  0.83341465  0.66079937  1
  Te  Te180  1  0.66584941  0.17146782  -0.00648854  1
  Te  Te181  1  0.66469893  0.16630577  0.33351475  1
  Te  Te182  1  0.66715542  0.16869699  0.67054433  1
  Te  Te183  1  0.66911410  0.49940628  -0.00348377  1
  Te  Te184  1  0.66702869  0.49849097  0.33551572  1
  Te  Te185  1  0.66800297  0.49733421  0.66705114  1
  Te  Te186  1  0.66020332  0.83055310  0.00070415  1
  Te  Te187  1  0.66844286  0.83182532  0.33689927  1
  Te  Te188  1  0.67086767  0.83655850  0.66211297  1
  Te  Te189  1  0.00020294  0.00121861  0.16994045  1
  Te  Te190  1  0.00140671  -0.00026324  0.49728383  1
  Te  Te191  1  -0.00439821  0.00005051  0.83334597  1
  Te  Te192  1  0.00076252  0.32772573  0.16415994  1
  Te  Te193  1  0.00035286  0.33052240  0.50159557  1
  Te  Te194  1  0.00103603  0.32927675  0.82882555  1
  Te  Te195  1  -0.00211262  0.66799458  0.16188854  1
  Te  Te196  1  0.00098050  0.67515109  0.50004622  1
  Te  Te197  1  -0.00250729  0.66571069  0.83624099  1
  Te  Te198  1  0.33659709  0.00453904  0.16218638  1
  Te  Te199  1  0.32880059  -0.00524478  0.50090404  1
  Te  Te200  1  0.33308837  0.00296423  0.83827296  1
  Te  Te201  1  0.33517394  0.33108018  0.16803992  1
  Te  Te202  1  0.33397039  0.33352414  0.50026775  1
  Te  Te203  1  0.33367055  0.33294936  0.83374752  1
  Te  Te204  1  0.33229923  0.66722726  0.16513576  1
  Te  Te205  1  0.33235630  0.67087426  0.49788617  1
  Te  Te206  1  0.33346124  0.66591574  0.83605330  1
  Te  Te207  1  0.66151379  0.00087072  0.17095813  1
  Te  Te208  1  0.66685268  -0.00087467  0.49877682  1
  Te  Te209  1  0.67155910  0.00197339  0.83121516  1
  Te  Te210  1  0.66249503  0.33202361  0.17070645  1
  Te  Te211  1  0.66618055  0.33238772  0.50036770  1
  Te  Te212  1  0.66601941  0.33395092  0.83166331  1
  Te  Te213  1  0.67181148  0.66623890  0.15904895  1
  Te  Te214  1  0.66663831  0.67499516  0.50550519  1
  Te  Te215  1  0.67015156  0.66419926  0.83262023  1
