# generated using pymatgen
data_AgSbTe2
_symmetry_space_group_name_H-M   'P 1'
_cell_length_a   18.33737941
_cell_length_b   18.33589876
_cell_length_c   18.33298117
_cell_angle_alpha   89.99657300
_cell_angle_beta   89.99922944
_cell_angle_gamma   90.00166071
_symmetry_Int_Tables_number   1
_chemical_formula_structural   AgSbTe2
_chemical_formula_sum   'Ag54 Sb54 Te108'
_cell_volume   6164.14100582
_cell_formula_units_Z   54
loop_
 _symmetry_equiv_pos_site_id
 _symmetry_equiv_pos_as_xyz
  1  'x, y, z'
loop_
 _atom_site_type_symbol
 _atom_site_label
 _atom_site_symmetry_multiplicity
 _atom_site_fract_x
 _atom_site_fract_y
 _atom_site_fract_z
 _atom_site_occupancy
  Ag  Ag0  1  0.84221906  -0.00194092  0.16776179  1
  Ag  Ag1  1  0.00363431  0.32326656  0.66515499  1
  Ag  Ag2  1  0.00786521  -0.00555899  0.32860976  1
  Ag  Ag3  1  0.16922040  0.51143206  0.33550141  1
  Ag  Ag4  1  0.50063770  0.82945116  0.65926979  1
  Ag  Ag5  1  0.16995683  0.49803107  0.00122337  1
  Ag  Ag6  1  -0.00138420  0.83610563  0.17119892  1
  Ag  Ag7  1  0.32476322  0.00266373  0.66509027  1
  Ag  Ag8  1  0.00779190  0.16534792  0.82940824  1
  Ag  Ag9  1  0.84564037  0.16506607  0.66363941  1
  Ag  Ag10  1  0.49477412  -0.00559696  0.49871573  1
  Ag  Ag11  1  0.49797190  0.67020705  0.16570588  1
  Ag  Ag12  1  0.33052028  0.67038758  0.00660133  1
  Ag  Ag13  1  0.66962136  -0.00809077  0.00730039  1
  Ag  Ag14  1  0.32191182  0.32899359  0.67271585  1
  Ag  Ag15  1  0.16938766  0.16655486  -0.00504612  1
  Ag  Ag16  1  0.66592544  0.67035987  0.00220786  1
  Ag  Ag17  1  0.83489641  0.83431098  0.01107432  1
  Ag  Ag18  1  0.48978572  0.51180460  0.33817670  1
  Ag  Ag19  1  0.17188967  0.49301757  0.66773070  1
  Ag  Ag20  1  0.33147317  0.83661248  0.17398220  1
  Ag  Ag21  1  0.48743375  0.83142766  0.33456849  1
  Ag  Ag22  1  0.83346813  0.32601995  0.16758475  1
  Ag  Ag23  1  0.00444832  0.83152281  0.48736638  1
  Ag  Ag24  1  0.66929263  0.33682503  0.67144457  1
  Ag  Ag25  1  0.66833508  -0.00207152  0.32624618  1
  Ag  Ag26  1  0.32666401  0.17072439  0.83761686  1
  Ag  Ag27  1  0.32708660  -0.01037183  0.32652009  1
  Ag  Ag28  1  0.49186265  0.50579393  0.66293752  1
  Ag  Ag29  1  0.00401496  -0.00481463  0.01258196  1
  Ag  Ag30  1  0.32624826  0.00127569  0.01062671  1
  Ag  Ag31  1  0.32894421  0.15419118  0.16150898  1
  Ag  Ag32  1  0.32593925  0.67809184  0.32746132  1
  Ag  Ag33  1  0.33129173  0.49491877  0.83242433  1
  Ag  Ag34  1  0.00449709  0.67683371  0.00640175  1
  Ag  Ag35  1  0.01007920  0.67806618  0.32819424  1
  Ag  Ag36  1  0.16437344  0.15460731  0.33115726  1
  Ag  Ag37  1  0.17219336  0.83431773  0.33230630  1
  Ag  Ag38  1  0.66616642  0.33354469  -0.00170511  1
  Ag  Ag39  1  0.00610686  0.00350131  0.66453356  1
  Ag  Ag40  1  0.32925381  0.83468316  0.48804832  1
  Ag  Ag41  1  0.83315439  0.83853073  0.66594797  1
  Ag  Ag42  1  0.49751743  0.66669408  0.83808001  1
  Ag  Ag43  1  0.67532893  0.83470160  0.16584676  1
  Ag  Ag44  1  0.83629352  0.33155640  0.50445070  1
  Ag  Ag45  1  0.84354648  0.16246647  0.33261131  1
  Ag  Ag46  1  0.17016429  0.32942357  0.83148587  1
  Ag  Ag47  1  0.16643101  0.00048430  0.16959197  1
  Ag  Ag48  1  0.32713449  0.32820830  -0.00531958  1
  Ag  Ag49  1  0.16409930  0.17082496  0.67411310  1
  Ag  Ag50  1  0.16517638  0.66611828  0.49404443  1
  Ag  Ag51  1  0.00428493  0.50589867  0.49993571  1
  Ag  Ag52  1  0.66271964  0.66683672  0.67077174  1
  Ag  Ag53  1  0.83321901  0.68104794  0.16486597  1
  Sb  Sb54  1  0.83734215  0.83849096  0.33011488  1
  Sb  Sb55  1  0.16423086  0.83544487  0.00703178  1
  Sb  Sb56  1  0.49487619  0.67146013  0.49751801  1
  Sb  Sb57  1  0.16244014  0.33857197  0.50655313  1
  Sb  Sb58  1  0.49569076  0.15926620  0.33223951  1
  Sb  Sb59  1  0.00382642  0.15951885  0.16470256  1
  Sb  Sb60  1  0.16838860  -0.00509336  0.49409590  1
  Sb  Sb61  1  0.00829271  0.49616511  0.83017342  1
  Sb  Sb62  1  0.16702599  0.67386379  0.17128200  1
  Sb  Sb63  1  0.66468971  0.67314962  0.32936603  1
  Sb  Sb64  1  0.50145862  0.34036703  0.16526167  1
  Sb  Sb65  1  0.32765567  0.50548399  0.50292879  1
  Sb  Sb66  1  0.66566337  0.16826191  0.83440214  1
  Sb  Sb67  1  0.66531743  0.83307042  0.83824256  1
  Sb  Sb68  1  0.33646776  0.66857490  0.66714161  1
  Sb  Sb69  1  0.83912333  0.66695077  0.49496848  1
  Sb  Sb70  1  0.16749453  0.83562473  0.65868561  1
  Sb  Sb71  1  0.49269682  0.50410170  -0.00152175  1
  Sb  Sb72  1  0.00186558  0.16268411  0.50360961  1
  Sb  Sb73  1  0.66685379  0.83389140  0.49545468  1
  Sb  Sb74  1  0.32945715  0.15977417  0.50048775  1
  Sb  Sb75  1  0.16687663  0.00626751  0.83823710  1
  Sb  Sb76  1  0.83418711  0.00135502  0.49493188  1
  Sb  Sb77  1  0.83529051  0.00071299  0.83770945  1
  Sb  Sb78  1  0.66856356  0.32898280  0.33156553  1
  Sb  Sb79  1  0.49499960  0.16590888  0.66762013  1
  Sb  Sb80  1  0.49703516  -0.00872330  0.17090528  1
  Sb  Sb81  1  0.49058101  0.16542624  0.00066856  1
  Sb  Sb82  1  0.83810191  0.33088116  0.83203843  1
  Sb  Sb83  1  0.49105572  0.33854768  0.83189085  1
  Sb  Sb84  1  0.33059187  0.33220957  0.33339197  1
  Sb  Sb85  1  0.83649753  0.49870438  0.66529905  1
  Sb  Sb86  1  0.00322247  0.33003118  -0.00271318  1
  Sb  Sb87  1  0.83949224  0.50454052  0.00249415  1
  Sb  Sb88  1  0.33403026  0.83370934  0.83567261  1
  Sb  Sb89  1  0.17154514  0.66059482  0.83313547  1
  Sb  Sb90  1  0.00227932  0.50721168  0.17133947  1
  Sb  Sb91  1  0.50163870  0.33187249  0.50271498  1
  Sb  Sb92  1  0.49622575  -0.00633470  0.83050182  1
  Sb  Sb93  1  0.83876467  0.16138027  0.00138764  1
  Sb  Sb94  1  0.83663878  0.49692162  0.33273726  1
  Sb  Sb95  1  0.66424257  0.16014702  0.16456716  1
  Sb  Sb96  1  0.16420895  0.32680673  0.16353836  1
  Sb  Sb97  1  0.00028338  0.83810729  0.83614869  1
  Sb  Sb98  1  0.83080946  0.66878677  0.83855392  1
  Sb  Sb99  1  0.66952133  0.16600482  0.50047381  1
  Sb  Sb100  1  -0.00201440  0.67005348  0.66672526  1
  Sb  Sb101  1  0.65809106  0.50029949  0.83309351  1
  Sb  Sb102  1  0.33092920  0.50386261  0.16422324  1
  Sb  Sb103  1  0.66839413  -0.00153218  0.66619587  1
  Sb  Sb104  1  0.00104386  0.33037724  0.33750967  1
  Sb  Sb105  1  0.66900858  0.50106488  0.50063931  1
  Sb  Sb106  1  0.50177011  0.83131550  0.00500400  1
  Sb  Sb107  1  0.66630680  0.50652578  0.16509537  1
  Te  Te108  1  0.16915882  0.16149654  0.16851437  1
  Te  Te109  1  0.16645919  0.16957360  0.49400963  1
  Te  Te110  1  0.16840786  0.16820914  0.83304045  1
  Te  Te111  1  0.16583703  0.49588545  0.16634499  1
  Te  Te112  1  0.16308016  0.50404451  0.49781541  1
  Te  Te113  1  0.17173995  0.49478891  0.83227721  1
  Te  Te114  1  0.16629117  0.83961605  0.17109122  1
  Te  Te115  1  0.16608939  0.82818580  0.49462256  1
  Te  Te116  1  0.16727142  0.83094131  0.83166749  1
  Te  Te117  1  0.49133015  0.17112630  0.16768437  1
  Te  Te118  1  0.50048793  0.15859578  0.49930698  1
  Te  Te119  1  0.49179544  0.16603034  0.83328801  1
  Te  Te120  1  0.49924617  0.50827170  0.17350770  1
  Te  Te121  1  0.50036488  0.50023148  0.50036674  1
  Te  Te122  1  0.49218015  0.50606235  0.82685048  1
  Te  Te123  1  0.49426974  0.82781666  0.17048814  1
  Te  Te124  1  0.50003290  0.83524465  0.49832987  1
  Te  Te125  1  0.49991921  0.82588829  0.82352131  1
  Te  Te126  1  0.83250982  0.16305684  0.16882716  1
  Te  Te127  1  0.83533278  0.17068027  0.50038876  1
  Te  Te128  1  0.83767955  0.16664068  0.82673092  1
  Te  Te129  1  0.83412810  0.49276875  0.16726866  1
  Te  Te130  1  0.84082823  0.49500680  0.49870559  1
  Te  Te131  1  0.83323978  0.49953664  0.83381278  1
  Te  Te132  1  0.83526067  0.83710747  0.16704225  1
  Te  Te133  1  0.83784202  0.83314328  0.50625514  1
  Te  Te134  1  0.83269763  0.83376934  0.82626634  1
  Te  Te135  1  0.16654494  0.00163451  0.00423423  1
  Te  Te136  1  0.16730652  -0.00321240  0.33256639  1
  Te  Te137  1  0.16636619  0.00274293  0.66590363  1
  Te  Te138  1  0.16834479  0.33179619  -0.00275248  1
  Te  Te139  1  0.16722600  0.33427225  0.33313370  1
  Te  Te140  1  0.16511931  0.33249033  0.66767015  1
  Te  Te141  1  0.16835862  0.66533585  0.00042126  1
  Te  Te142  1  0.16620581  0.66816729  0.33248536  1
  Te  Te143  1  0.16698366  0.66303000  0.66414892  1
  Te  Te144  1  0.50043009  -0.00111708  -0.00131857  1
  Te  Te145  1  0.49545483  -0.00348686  0.33671470  1
  Te  Te146  1  0.50069159  -0.00323524  0.66284274  1
  Te  Te147  1  0.50371351  0.33565749  -0.00050883  1
  Te  Te148  1  0.50071359  0.33824792  0.33469714  1
  Te  Te149  1  0.50682249  0.33669548  0.66615657  1
  Te  Te150  1  0.50001363  0.66643162  0.00119339  1
  Te  Te151  1  0.50044663  0.66957553  0.33157831  1
  Te  Te152  1  0.50121010  0.66672586  0.66351852  1
  Te  Te153  1  0.83520780  -0.00351216  0.00416706  1
  Te  Te154  1  0.83311662  0.00385334  0.33014010  1
  Te  Te155  1  0.83324707  0.00209160  0.66615432  1
  Te  Te156  1  0.83238879  0.33256385  0.00251262  1
  Te  Te157  1  0.83306439  0.32678337  0.33200184  1
  Te  Te158  1  0.83435145  0.33176317  0.66635625  1
  Te  Te159  1  0.83197121  0.67066753  0.00434526  1
  Te  Te160  1  0.83404097  0.66440090  0.32661633  1
  Te  Te161  1  0.82908593  0.66828688  0.66747548  1
  Te  Te162  1  0.00586714  0.16127195  -0.00490316  1
  Te  Te163  1  0.00199667  0.16189991  0.33331851  1
  Te  Te164  1  0.00253850  0.16536982  0.66579383  1
  Te  Te165  1  0.00782433  0.50181104  -0.00052030  1
  Te  Te166  1  0.00477308  0.50112408  0.33806348  1
  Te  Te167  1  0.00505779  0.50118835  0.66288105  1
  Te  Te168  1  -0.00250718  0.83573981  0.00150158  1
  Te  Te169  1  -0.00261644  0.83397319  0.33175340  1
  Te  Te170  1  -0.00197954  0.83698700  0.66858541  1
  Te  Te171  1  0.32974196  0.16476954  0.00014144  1
  Te  Te172  1  0.32826366  0.16441465  0.33044198  1
  Te  Te173  1  0.33015508  0.16596722  0.66697460  1
  Te  Te174  1  0.32963878  0.50092094  -0.00246820  1
  Te  Te175  1  0.33125249  0.50033160  0.33478333  1
  Te  Te176  1  0.33225103  0.50111317  0.66808311  1
  Te  Te177  1  0.33338021  0.83442590  0.00314126  1
  Te  Te178  1  0.33241777  0.83353695  0.33297283  1
  Te  Te179  1  0.33587351  0.83729039  0.66732849  1
  Te  Te180  1  0.66781792  0.16965490  -0.00052663  1
  Te  Te181  1  0.66782514  0.16000445  0.33232257  1
  Te  Te182  1  0.66806835  0.17025277  0.66850755  1
  Te  Te183  1  0.66680148  0.50130369  -0.00064111  1
  Te  Te184  1  0.66226290  0.49959302  0.33383058  1
  Te  Te185  1  0.66508022  0.49992002  0.66680499  1
  Te  Te186  1  0.66841589  0.83164639  0.00426535  1
  Te  Te187  1  0.66687209  0.83847970  0.32807179  1
  Te  Te188  1  0.66652143  0.83289529  0.66649364  1
  Te  Te189  1  0.00099872  -0.00159277  0.16893711  1
  Te  Te190  1  -0.00025573  -0.00676614  0.50075777  1
  Te  Te191  1  0.00076790  0.00526028  0.82502925  1
  Te  Te192  1  -0.00684550  0.33294403  0.16683638  1
  Te  Te193  1  -0.00368310  0.33608569  0.50460767  1
  Te  Te194  1  0.00578572  0.32875082  0.82826739  1
  Te  Te195  1  -0.00112476  0.67160197  0.16662612  1
  Te  Te196  1  0.00284069  0.66976422  0.49815031  1
  Te  Te197  1  -0.00015366  0.66531602  0.84245326  1
  Te  Te198  1  0.33440759  -0.00245119  0.16705644  1
  Te  Te199  1  0.33385859  -0.00521936  0.50319226  1
  Te  Te200  1  0.33333246  0.00356576  0.82971220  1
  Te  Te201  1  0.33363692  0.33221931  0.16021438  1
  Te  Te202  1  0.33511858  0.33307997  0.50852834  1
  Te  Te203  1  0.33073907  0.33343355  0.83317692  1
  Te  Te204  1  0.33394892  0.66934678  0.16693786  1
  Te  Te205  1  0.32824893  0.67294399  0.49549773  1
  Te  Te206  1  0.33707739  0.66509749  0.83875105  1
  Te  Te207  1  0.66305062  -0.00388774  0.16556315  1
  Te  Te208  1  0.66220540  -0.00040508  0.49458264  1
  Te  Te209  1  0.66500921  0.00154408  0.84500318  1
  Te  Te210  1  0.66953679  0.33285085  0.16270844  1
  Te  Te211  1  0.67317927  0.33345578  0.50414308  1
  Te  Te212  1  0.66639232  0.33347694  0.83455790  1
  Te  Te213  1  0.66874865  0.67173843  0.16338403  1
  Te  Te214  1  0.66996971  0.66699891  0.50752108  1
  Te  Te215  1  0.66136588  0.66664524  0.83401556  1
