# generated using pymatgen
data_AgSbTe2
_symmetry_space_group_name_H-M   'P 1'
_cell_length_a   18.32999265
_cell_length_b   18.33616675
_cell_length_c   18.33118490
_cell_angle_alpha   90.00239884
_cell_angle_beta   90.00297539
_cell_angle_gamma   89.99711393
_symmetry_Int_Tables_number   1
_chemical_formula_structural   AgSbTe2
_chemical_formula_sum   'Ag54 Sb54 Te108'
_cell_volume   6161.14425238
_cell_formula_units_Z   54
loop_
 _symmetry_equiv_pos_site_id
 _symmetry_equiv_pos_as_xyz
  1  'x, y, z'
loop_
 _atom_site_type_symbol
 _atom_site_label
 _atom_site_symmetry_multiplicity
 _atom_site_fract_x
 _atom_site_fract_y
 _atom_site_fract_z
 _atom_site_occupancy
  Ag  Ag0  1  0.33502985  0.83465401  0.15921886  1
  Ag  Ag1  1  0.67654912  -0.00002703  0.67450072  1
  Ag  Ag2  1  0.83103522  -0.00525682  0.15302594  1
  Ag  Ag3  1  0.83539286  0.50377837  -0.00397776  1
  Ag  Ag4  1  0.83017164  0.50198182  0.33389608  1
  Ag  Ag5  1  -0.00702791  -0.00599644  0.34516309  1
  Ag  Ag6  1  0.50200589  0.00231485  0.83412266  1
  Ag  Ag7  1  0.66090147  0.33335880  0.33580766  1
  Ag  Ag8  1  0.17023414  0.33173643  0.83105555  1
  Ag  Ag9  1  0.32707040  0.49906693  0.82944187  1
  Ag  Ag10  1  0.16511496  0.49879812  -0.00915631  1
  Ag  Ag11  1  0.50070313  0.49515622  0.33669488  1
  Ag  Ag12  1  0.32736920  -0.00406239  0.66994664  1
  Ag  Ag13  1  0.16568968  0.50188202  0.67189068  1
  Ag  Ag14  1  0.33073492  0.84336503  0.82657466  1
  Ag  Ag15  1  0.83148675  0.00007958  0.83808256  1
  Ag  Ag16  1  -0.00927489  -0.00194291  -0.00494555  1
  Ag  Ag17  1  0.16942062  0.83890098  0.66773762  1
  Ag  Ag18  1  0.00276555  0.32447887  0.66639801  1
  Ag  Ag19  1  0.32661495  0.16128660  0.83456431  1
  Ag  Ag20  1  0.16869550  0.16758052  -0.01093636  1
  Ag  Ag21  1  0.66404761  0.15913988  0.83322285  1
  Ag  Ag22  1  0.34033563  0.33862798  0.33357547  1
  Ag  Ag23  1  0.48625671  0.83782829  0.66568954  1
  Ag  Ag24  1  0.33410826  0.50948064  0.50373660  1
  Ag  Ag25  1  0.16460971  0.15687534  0.67083833  1
  Ag  Ag26  1  0.49162813  0.66439678  0.49831019  1
  Ag  Ag27  1  0.83870188  0.50410118  0.67109180  1
  Ag  Ag28  1  0.67633291  0.67182789  -0.00278731  1
  Ag  Ag29  1  0.33025326  0.66451430  0.33916199  1
  Ag  Ag30  1  -0.00223855  0.67261556  0.33405030  1
  Ag  Ag31  1  0.50215952  0.16306874  -0.00403877  1
  Ag  Ag32  1  0.17196656  0.00443302  0.82957732  1
  Ag  Ag33  1  0.83336601  0.15534277  0.33329816  1
  Ag  Ag34  1  0.83766568  0.84075760  0.66737930  1
  Ag  Ag35  1  0.17158684  0.66851452  0.50741931  1
  Ag  Ag36  1  -0.00377130  -0.00019279  0.66759234  1
  Ag  Ag37  1  0.67243372  0.16446239  0.50480094  1
  Ag  Ag38  1  0.33277116  0.33122728  -0.00290399  1
  Ag  Ag39  1  -0.00091474  0.83649349  0.50093049  1
  Ag  Ag40  1  0.32973534  0.82803738  0.50519297  1
  Ag  Ag41  1  0.83668727  -0.00094994  0.50235980  1
  Ag  Ag42  1  0.49857462  0.32922202  0.17315480  1
  Ag  Ag43  1  0.50467268  0.00276381  0.15956140  1
  Ag  Ag44  1  0.83279819  0.15422891  -0.00080845  1
  Ag  Ag45  1  0.67790430  0.00118832  -0.00722344  1
  Ag  Ag46  1  0.83526071  0.84120453  -0.00148151  1
  Ag  Ag47  1  0.66745799  0.49622145  0.83332235  1
  Ag  Ag48  1  0.83413864  0.67470038  0.16159109  1
  Ag  Ag49  1  -0.00671085  0.15465513  0.50333946  1
  Ag  Ag50  1  -0.00574291  0.67277543  0.00253757  1
  Ag  Ag51  1  0.83701917  0.84040304  0.33288721  1
  Ag  Ag52  1  0.16941775  0.66000409  0.82951780  1
  Ag  Ag53  1  0.49819451  0.33652906  0.49476869  1
  Sb  Sb54  1  0.33286026  0.00367437  -0.00949674  1
  Sb  Sb55  1  0.00376387  0.83672362  0.82767641  1
  Sb  Sb56  1  0.83725404  0.32980887  0.83331733  1
  Sb  Sb57  1  0.50287405  0.83988997  -0.00437587  1
  Sb  Sb58  1  0.33343620  0.16588456  0.50519567  1
  Sb  Sb59  1  0.66350288  0.49663621  0.50395505  1
  Sb  Sb60  1  0.33593270  0.16243579  0.16073314  1
  Sb  Sb61  1  0.00335275  0.50253070  0.83277861  1
  Sb  Sb62  1  0.00278180  0.67203544  0.66668043  1
  Sb  Sb63  1  0.15922287  -0.00535326  0.51019530  1
  Sb  Sb64  1  0.32998569  -0.00189779  0.33778454  1
  Sb  Sb65  1  0.67370487  0.00524536  0.33310373  1
  Sb  Sb66  1  0.33127211  0.66347138  0.00117002  1
  Sb  Sb67  1  0.00024700  0.83472800  0.16990473  1
  Sb  Sb68  1  0.00384057  0.33046007  -0.00647785  1
  Sb  Sb69  1  0.00261923  0.50408543  0.50214646  1
  Sb  Sb70  1  0.49939657  0.49599283  0.00167533  1
  Sb  Sb71  1  0.16141223  0.16621128  0.33856723  1
  Sb  Sb72  1  0.66751336  0.83512535  0.16565463  1
  Sb  Sb73  1  0.33446840  0.50250380  0.16886797  1
  Sb  Sb74  1  0.67026774  0.66206077  0.33088319  1
  Sb  Sb75  1  0.49643998  0.50404904  0.66336255  1
  Sb  Sb76  1  0.82882879  0.33107289  0.16769450  1
  Sb  Sb77  1  0.50357573  0.00015265  0.50342002  1
  Sb  Sb78  1  0.66397201  0.32876161  0.00165809  1
  Sb  Sb79  1  0.83785666  0.16090205  0.66902270  1
  Sb  Sb80  1  0.67060180  0.32797812  0.66476423  1
  Sb  Sb81  1  0.50305371  0.66808274  0.16996855  1
  Sb  Sb82  1  0.83533256  0.67116970  0.49646257  1
  Sb  Sb83  1  0.16215174  0.83367901  -0.00853514  1
  Sb  Sb84  1  0.16314441  0.66840714  0.16553070  1
  Sb  Sb85  1  -0.00173283  0.16316096  0.16821295  1
  Sb  Sb86  1  0.66905791  0.83817703  0.50238871  1
  Sb  Sb87  1  0.17105665  0.33742610  0.50669186  1
  Sb  Sb88  1  0.16252062  0.83311618  0.34158461  1
  Sb  Sb89  1  0.16523228  -0.00179109  0.15751082  1
  Sb  Sb90  1  0.49499797  0.32838484  0.83307741  1
  Sb  Sb91  1  0.66711027  0.16516192  0.16317347  1
  Sb  Sb92  1  0.66757326  0.49941466  0.16198238  1
  Sb  Sb93  1  -0.00203388  0.33296681  0.34120301  1
  Sb  Sb94  1  0.50167953  0.83075454  0.33747545  1
  Sb  Sb95  1  0.32950806  0.33076534  0.66921337  1
  Sb  Sb96  1  0.66533371  0.83838828  0.83308483  1
  Sb  Sb97  1  0.17330807  0.33323649  0.15929650  1
  Sb  Sb98  1  -0.00213986  0.50152527  0.16634363  1
  Sb  Sb99  1  0.49568913  0.67102483  0.83007704  1
  Sb  Sb100  1  0.33049351  0.67326070  0.66151109  1
  Sb  Sb101  1  0.00387307  0.16180423  0.82945575  1
  Sb  Sb102  1  0.16833157  0.50109858  0.33553583  1
  Sb  Sb103  1  0.83684667  0.67014715  0.83916630  1
  Sb  Sb104  1  0.83071775  0.32873843  0.50021013  1
  Sb  Sb105  1  0.50608481  0.17120486  0.33121649  1
  Sb  Sb106  1  0.49742510  0.16089675  0.67152701  1
  Sb  Sb107  1  0.66917226  0.67118818  0.67088307  1
  Te  Te108  1  0.16691497  0.16651000  0.15789591  1
  Te  Te109  1  0.16332597  0.16820323  0.50668641  1
  Te  Te110  1  0.16686855  0.16492721  0.83142735  1
  Te  Te111  1  0.16692308  0.50044735  0.15502501  1
  Te  Te112  1  0.17184405  0.50525786  0.50341175  1
  Te  Te113  1  0.16719050  0.50087333  0.83246118  1
  Te  Te114  1  0.17607700  0.83356997  0.16715863  1
  Te  Te115  1  0.16695253  0.82946215  0.50582607  1
  Te  Te116  1  0.17093069  0.83664877  0.82835955  1
  Te  Te117  1  0.50056489  0.16434490  0.16059611  1
  Te  Te118  1  0.50320452  0.16994936  0.50015708  1
  Te  Te119  1  0.50208555  0.16299623  0.83673649  1
  Te  Te120  1  0.50034512  0.49698212  0.17354270  1
  Te  Te121  1  0.49656175  0.50046395  0.49726688  1
  Te  Te122  1  0.49635021  0.50079393  0.83242058  1
  Te  Te123  1  0.49596202  0.83672024  0.16785481  1
  Te  Te124  1  0.49863979  0.83148965  0.50411089  1
  Te  Te125  1  0.49394151  0.83855518  0.82832738  1
  Te  Te126  1  0.83273423  0.16225116  0.16663435  1
  Te  Te127  1  0.83327537  0.16450973  0.50116998  1
  Te  Te128  1  0.82856871  0.16461473  0.83707229  1
  Te  Te129  1  0.83227592  0.50169154  0.16794019  1
  Te  Te130  1  0.83273768  0.50132013  0.49955513  1
  Te  Te131  1  0.83178079  0.49972105  0.83256589  1
  Te  Te132  1  0.83370832  0.83481122  0.16556340  1
  Te  Te133  1  0.83567809  0.83556510  0.50110363  1
  Te  Te134  1  0.83320701  0.83710899  0.83358166  1
  Te  Te135  1  0.16326701  0.00236223  -0.00746444  1
  Te  Te136  1  0.15708412  0.00207314  0.32895797  1
  Te  Te137  1  0.16462779  -0.00183200  0.67001122  1
  Te  Te138  1  0.16981777  0.33172160  -0.00598615  1
  Te  Te139  1  0.17201684  0.33330900  0.33169006  1
  Te  Te140  1  0.16437857  0.33845744  0.67074997  1
  Te  Te141  1  0.16239703  0.66454580  -0.00246559  1
  Te  Te142  1  0.16471311  0.66598163  0.33406245  1
  Te  Te143  1  0.16570265  0.66399346  0.66792907  1
  Te  Te144  1  0.49873660  0.00325172  -0.00165106  1
  Te  Te145  1  0.50051606  0.00063585  0.32856920  1
  Te  Te146  1  0.50064225  -0.00369055  0.66855717  1
  Te  Te147  1  0.49584220  0.32819587  0.00175693  1
  Te  Te148  1  0.49925108  0.33317812  0.33347877  1
  Te  Te149  1  0.50109628  0.33427190  0.66029105  1
  Te  Te150  1  0.50553852  0.66674539  0.00133116  1
  Te  Te151  1  0.49879584  0.66278569  0.33640084  1
  Te  Te152  1  0.50200312  0.67464836  0.66105096  1
  Te  Te153  1  0.83343580  -0.00169580  -0.00215901  1
  Te  Te154  1  0.83505384  -0.00023265  0.33979825  1
  Te  Te155  1  0.83517564  0.00103682  0.66577455  1
  Te  Te156  1  0.83423764  0.34248310  0.00166358  1
  Te  Te157  1  0.83166091  0.34081414  0.33265814  1
  Te  Te158  1  0.83889674  0.34189064  0.66725264  1
  Te  Te159  1  0.83448836  0.66310094  0.00010472  1
  Te  Te160  1  0.83490907  0.66391578  0.33028797  1
  Te  Te161  1  0.83465466  0.66376641  0.66771562  1
  Te  Te162  1  -0.00502442  0.16429551  0.00063900  1
  Te  Te163  1  -0.00585618  0.16484505  0.33979932  1
  Te  Te164  1  0.00291830  0.16357675  0.66330617  1
  Te  Te165  1  -0.00047090  0.49895836  -0.00033973  1
  Te  Te166  1  -0.00266742  0.50345438  0.33397134  1
  Te  Te167  1  0.00064070  0.50273005  0.66601593  1
  Te  Te168  1  -0.00378651  0.83326547  0.00157258  1
  Te  Te169  1  -0.00336464  0.83352118  0.33597580  1
  Te  Te170  1  -0.00186573  0.83685735  0.66199754  1
  Te  Te171  1  0.33116093  0.16932739  -0.00482267  1
  Te  Te172  1  0.33145989  0.16954345  0.33414084  1
  Te  Te173  1  0.32859271  0.16204723  0.67235271  1
  Te  Te174  1  0.33098851  0.49657566  -0.00191473  1
  Te  Te175  1  0.33322948  0.50056962  0.33575397  1
  Te  Te176  1  0.33044472  0.49848989  0.66611473  1
  Te  Te177  1  0.33376066  0.83208907  -0.00222724  1
  Te  Te178  1  0.33320566  0.83040848  0.34379297  1
  Te  Te179  1  0.32988268  0.83503261  0.66718222  1
  Te  Te180  1  0.66915441  0.16383682  -0.00355960  1
  Te  Te181  1  0.67310506  0.17117697  0.33758007  1
  Te  Te182  1  0.66634957  0.16201979  0.66921296  1
  Te  Te183  1  0.66794552  0.49740517  -0.00496373  1
  Te  Te184  1  0.66591825  0.49630073  0.33455468  1
  Te  Te185  1  0.66821606  0.49980248  0.67216292  1
  Te  Te186  1  0.67115783  0.83490636  -0.00082811  1
  Te  Te187  1  0.67485388  0.83244614  0.33415051  1
  Te  Te188  1  0.67800715  0.83850091  0.66730104  1
  Te  Te189  1  -0.00510814  -0.00051986  0.15990341  1
  Te  Te190  1  -0.00107641  -0.00230285  0.50215227  1
  Te  Te191  1  -0.00620340  -0.00079994  0.83320251  1
  Te  Te192  1  0.00123915  0.33243456  0.16947071  1
  Te  Te193  1  0.00141145  0.33198484  0.50662305  1
  Te  Te194  1  0.00725291  0.33235402  0.82588645  1
  Te  Te195  1  -0.00476480  0.66789937  0.16713731  1
  Te  Te196  1  0.00356664  0.67139338  0.49601053  1
  Te  Te197  1  0.00684055  0.66964545  0.84033776  1
  Te  Te198  1  0.33521767  -0.00521219  0.16989349  1
  Te  Te199  1  0.33420034  -0.00315884  0.50597990  1
  Te  Te200  1  0.33344278  0.00154504  0.83029685  1
  Te  Te201  1  0.33949366  0.33337559  0.16734888  1
  Te  Te202  1  0.33711218  0.33347210  0.49714847  1
  Te  Te203  1  0.33078622  0.33459772  0.83566941  1
  Te  Te204  1  0.33403504  0.67228559  0.17320912  1
  Te  Te205  1  0.33200387  0.66665327  0.49821987  1
  Te  Te206  1  0.32992718  0.66083105  0.83552966  1
  Te  Te207  1  0.66692040  -0.00000572  0.16251295  1
  Te  Te208  1  0.67086818  0.00549635  0.50192605  1
  Te  Te209  1  0.66617103  -0.00054917  0.83342527  1
  Te  Te210  1  0.65933399  0.33222486  0.17296185  1
  Te  Te211  1  0.66222181  0.32845255  0.49713453  1
  Te  Te212  1  0.66588675  0.33360592  0.83289409  1
  Te  Te213  1  0.67212128  0.66693516  0.15944751  1
  Te  Te214  1  0.66082834  0.66644463  0.50057828  1
  Te  Te215  1  0.66456515  0.66124036  0.83848089  1
