# generated using pymatgen
data_AgSbTe2
_symmetry_space_group_name_H-M   'P 1'
_cell_length_a   18.34428041
_cell_length_b   18.34554140
_cell_length_c   18.34694053
_cell_angle_alpha   89.99993952
_cell_angle_beta   89.99967103
_cell_angle_gamma   90.00379037
_symmetry_Int_Tables_number   1
_chemical_formula_structural   AgSbTe2
_chemical_formula_sum   'Ag54 Sb54 Te108'
_cell_volume   6174.40148194
_cell_formula_units_Z   54
loop_
 _symmetry_equiv_pos_site_id
 _symmetry_equiv_pos_as_xyz
  1  'x, y, z'
loop_
 _atom_site_type_symbol
 _atom_site_label
 _atom_site_symmetry_multiplicity
 _atom_site_fract_x
 _atom_site_fract_y
 _atom_site_fract_z
 _atom_site_occupancy
  Ag  Ag0  1  0.50870583  0.82988863  0.66386318  1
  Ag  Ag1  1  0.83676220  0.66877472  0.48827953  1
  Ag  Ag2  1  0.67639643  0.50717828  0.16261701  1
  Ag  Ag3  1  0.17043085  0.49885362  0.00539443  1
  Ag  Ag4  1  0.32803953  0.67102749  0.32794720  1
  Ag  Ag5  1  0.34186743  0.82119571  0.17205337  1
  Ag  Ag6  1  0.50373360  0.50616510  0.00246550  1
  Ag  Ag7  1  0.16680994  0.33598903  0.16616257  1
  Ag  Ag8  1  0.66287377  0.33064597  0.66633508  1
  Ag  Ag9  1  0.67184789  0.50010443  0.84507734  1
  Ag  Ag10  1  0.33242521  0.34433728  0.32977894  1
  Ag  Ag11  1  0.16359408  0.16187783  0.33323277  1
  Ag  Ag12  1  -0.00307103  -0.00865073  0.66262580  1
  Ag  Ag13  1  0.67240603  0.16839636  0.83348109  1
  Ag  Ag14  1  0.83376053  0.16345746  0.33011349  1
  Ag  Ag15  1  0.49836972  0.33625694  0.50086254  1
  Ag  Ag16  1  0.16631955  0.16637550  0.66447182  1
  Ag  Ag17  1  0.66867581  0.66728617  0.00551430  1
  Ag  Ag18  1  0.67053092  0.16591535  0.16786019  1
  Ag  Ag19  1  0.82846157  0.66365976  0.16641465  1
  Ag  Ag20  1  0.34152703  0.65947996  0.01257441  1
  Ag  Ag21  1  0.15825872  0.66720321  0.49543525  1
  Ag  Ag22  1  0.83243046  0.34884936  0.16895698  1
  Ag  Ag23  1  0.82551089  0.50568238  0.01158155  1
  Ag  Ag24  1  -0.00800574  0.50264191  0.84292755  1
  Ag  Ag25  1  0.83295867  0.66531160  0.84683889  1
  Ag  Ag26  1  0.50332768  0.66735024  0.16508938  1
  Ag  Ag27  1  0.50822682  0.82379832  0.01173851  1
  Ag  Ag28  1  0.33065500  0.34484084  0.01381689  1
  Ag  Ag29  1  0.33489933  0.49955330  0.48622138  1
  Ag  Ag30  1  0.82590561  0.82291558  0.01349415  1
  Ag  Ag31  1  0.66663057  0.00084902  0.66528266  1
  Ag  Ag32  1  0.49961540  0.83196010  0.32819508  1
  Ag  Ag33  1  0.66758954  0.16576415  0.49874075  1
  Ag  Ag34  1  0.66708246  -0.00896146  0.01225012  1
  Ag  Ag35  1  -0.00551185  0.67313678  0.65747321  1
  Ag  Ag36  1  0.33427788  0.50611491  0.16663446  1
  Ag  Ag37  1  0.16690575  0.17243834  0.00613989  1
  Ag  Ag38  1  0.66875582  0.82606770  0.16540729  1
  Ag  Ag39  1  0.67394538  -0.00102175  0.32720390  1
  Ag  Ag40  1  0.33127616  -0.00792893  0.33464497  1
  Ag  Ag41  1  -0.00298724  0.82904478  0.48772575  1
  Ag  Ag42  1  0.33473109  -0.00047955  0.66102559  1
  Ag  Ag43  1  0.15579714  0.83280847  0.33115614  1
  Ag  Ag44  1  0.50109840  0.50303145  0.66942769  1
  Ag  Ag45  1  -0.00313378  0.16744303  0.83196029  1
  Ag  Ag46  1  -0.00363981  -0.01196828  0.33429923  1
  Ag  Ag47  1  -0.01373982  0.82324340  0.17705912  1
  Ag  Ag48  1  0.83155527  0.82962543  0.66360923  1
  Ag  Ag49  1  -0.01209640  0.50599415  0.16400449  1
  Ag  Ag50  1  0.34043631  0.33519496  0.66206820  1
  Ag  Ag51  1  0.83315036  0.51211303  0.32361389  1
  Ag  Ag52  1  0.84350975  0.82835043  0.32972856  1
  Ag  Ag53  1  -0.00213472  0.67316919  0.33398364  1
  Sb  Sb54  1  -0.00344091  0.66456868  0.00536562  1
  Sb  Sb55  1  0.82915260  0.33793741  0.49499198  1
  Sb  Sb56  1  0.00261531  0.33507861  0.33142278  1
  Sb  Sb57  1  0.16449806  0.00174749  0.83077665  1
  Sb  Sb58  1  0.49934648  0.16891081  0.00166919  1
  Sb  Sb59  1  0.16615261  0.50251544  0.32649354  1
  Sb  Sb60  1  0.33084461  0.82802957  0.49147670  1
  Sb  Sb61  1  0.16691209  0.00344507  0.17019099  1
  Sb  Sb62  1  0.66345993  0.32904129  0.33389147  1
  Sb  Sb63  1  0.33234815  0.16781504  0.83121131  1
  Sb  Sb64  1  0.50350010  -0.00077747  0.83193014  1
  Sb  Sb65  1  0.67119260  0.83697281  0.49445446  1
  Sb  Sb66  1  0.16351774  0.83632405  0.65919836  1
  Sb  Sb67  1  0.33509522  0.16905591  0.16932625  1
  Sb  Sb68  1  0.50080317  0.16222061  0.33212913  1
  Sb  Sb69  1  0.83157016  -0.00407690  0.83186933  1
  Sb  Sb70  1  0.83352074  0.16866478  0.00454040  1
  Sb  Sb71  1  -0.00400871  0.83055587  0.83359253  1
  Sb  Sb72  1  0.33102672  0.66676064  0.66380874  1
  Sb  Sb73  1  0.50162840  0.50522022  0.32923188  1
  Sb  Sb74  1  -0.00288553  0.16733988  0.16609842  1
  Sb  Sb75  1  0.16709291  0.33353276  0.83895673  1
  Sb  Sb76  1  0.66382670  0.49807545  0.49695890  1
  Sb  Sb77  1  0.50064351  0.34136111  0.16938224  1
  Sb  Sb78  1  0.50236158  0.66518307  0.49519298  1
  Sb  Sb79  1  -0.00139478  0.33392862  0.66752453  1
  Sb  Sb80  1  0.67099367  0.66863576  0.67199789  1
  Sb  Sb81  1  0.66209438  0.33809028  -0.00015464  1
  Sb  Sb82  1  0.33593149  0.50006613  0.83968057  1
  Sb  Sb83  1  0.67086120  0.67351341  0.32585166  1
  Sb  Sb84  1  0.50161034  0.33654900  0.82912366  1
  Sb  Sb85  1  0.50625793  0.66540376  0.84225912  1
  Sb  Sb86  1  0.33591831  0.17145613  0.49834810  1
  Sb  Sb87  1  0.00362646  0.50835438  0.49637488  1
  Sb  Sb88  1  0.17321142  0.33786276  0.49515574  1
  Sb  Sb89  1  0.00434729  0.33733585  0.00234907  1
  Sb  Sb90  1  0.16670270  -0.00357459  0.49718534  1
  Sb  Sb91  1  0.16695752  0.82975536  0.01186109  1
  Sb  Sb92  1  0.83155928  0.33941666  0.83908466  1
  Sb  Sb93  1  0.83157846  -0.00723214  0.16931619  1
  Sb  Sb94  1  0.33796402  -0.00263675  0.00421836  1
  Sb  Sb95  1  0.50088095  0.00128398  0.49975163  1
  Sb  Sb96  1  0.50360097  -0.01108721  0.16879336  1
  Sb  Sb97  1  0.16651597  0.66135267  0.17103058  1
  Sb  Sb98  1  -0.00533636  -0.00148688  0.00240774  1
  Sb  Sb99  1  0.83290363  -0.00706028  0.49691012  1
  Sb  Sb100  1  0.17032674  0.49641994  0.67068647  1
  Sb  Sb101  1  0.50068523  0.16825961  0.66604081  1
  Sb  Sb102  1  0.15992967  0.66377825  0.83107703  1
  Sb  Sb103  1  0.82943222  0.50620323  0.66669301  1
  Sb  Sb104  1  0.66836644  0.83284271  0.83962492  1
  Sb  Sb105  1  0.83312941  0.16183189  0.66285610  1
  Sb  Sb106  1  -0.00321918  0.15937368  0.50064921  1
  Sb  Sb107  1  0.33565975  0.83205474  0.83763894  1
  Te  Te108  1  0.16515623  0.17300197  0.16803671  1
  Te  Te109  1  0.16505773  0.16886032  0.49761987  1
  Te  Te110  1  0.16321992  0.16778856  0.82958814  1
  Te  Te111  1  0.17610005  0.49473998  0.16333748  1
  Te  Te112  1  0.17337488  0.50557946  0.50192372  1
  Te  Te113  1  0.15766450  0.49911033  0.83996752  1
  Te  Te114  1  0.16942173  0.83616619  0.17249399  1
  Te  Te115  1  0.16241687  0.82731075  0.49248247  1
  Te  Te116  1  0.16602649  0.83299230  0.83656202  1
  Te  Te117  1  0.50910106  0.16840042  0.16605251  1
  Te  Te118  1  0.50659389  0.17337768  0.49925102  1
  Te  Te119  1  0.51043091  0.16760067  0.83445692  1
  Te  Te120  1  0.49365799  0.50544918  0.16350023  1
  Te  Te121  1  0.49639496  0.49790934  0.50257196  1
  Te  Te122  1  0.50700305  0.50108076  0.83350238  1
  Te  Te123  1  0.50167489  0.82795434  0.16737448  1
  Te  Te124  1  0.49999682  0.83268851  0.50558295  1
  Te  Te125  1  0.50084429  0.83186131  0.82177466  1
  Te  Te126  1  0.83088365  0.16629303  0.16982679  1
  Te  Te127  1  0.82880360  0.16956839  0.49387628  1
  Te  Te128  1  0.83366248  0.16853847  0.83449338  1
  Te  Te129  1  0.83240930  0.50389985  0.16732998  1
  Te  Te130  1  0.83414932  0.50588531  0.49433980  1
  Te  Te131  1  0.83221256  0.50379887  0.83344151  1
  Te  Te132  1  0.82972340  0.83007616  0.16975257  1
  Te  Te133  1  0.83647621  0.82789353  0.50049092  1
  Te  Te134  1  0.83291967  0.82632670  0.82604639  1
  Te  Te135  1  0.16741543  0.00506443  -0.00076133  1
  Te  Te136  1  0.16593837  0.00021412  0.33396367  1
  Te  Te137  1  0.16529085  0.00441779  0.66395365  1
  Te  Te138  1  0.17102714  0.33367807  0.00428807  1
  Te  Te139  1  0.17150189  0.33102592  0.32975466  1
  Te  Te140  1  0.16857185  0.32811001  0.66557641  1
  Te  Te141  1  0.17256271  0.66330302  -0.00224023  1
  Te  Te142  1  0.16686140  0.66774165  0.33651380  1
  Te  Te143  1  0.16121558  0.66698007  0.66150094  1
  Te  Te144  1  0.50632870  -0.00431364  -0.00087575  1
  Te  Te145  1  0.49786987  -0.00541450  0.33493134  1
  Te  Te146  1  0.50017720  -0.00266787  0.66533764  1
  Te  Te147  1  0.49139305  0.33729329  0.00014602  1
  Te  Te148  1  0.49277860  0.33329657  0.33726753  1
  Te  Te149  1  0.50073678  0.33451828  0.66363433  1
  Te  Te150  1  0.50138463  0.66665360  0.00276148  1
  Te  Te151  1  0.49578881  0.67050765  0.32952098  1
  Te  Te152  1  0.49991325  0.66543316  0.66629933  1
  Te  Te153  1  0.82622458  -0.00279146  -0.00174627  1
  Te  Te154  1  0.83349796  0.00140906  0.33405215  1
  Te  Te155  1  0.83502601  -0.00542436  0.66537425  1
  Te  Te156  1  0.83232942  0.33880489  0.00723051  1
  Te  Te157  1  0.83296623  0.32724286  0.32865519  1
  Te  Te158  1  0.82722014  0.33320754  0.66488268  1
  Te  Te159  1  0.83405862  0.66597831  0.00392150  1
  Te  Te160  1  0.83192323  0.67035781  0.32913704  1
  Te  Te161  1  0.83583320  0.66988102  0.66418178  1
  Te  Te162  1  0.00483267  0.16572735  -0.00388224  1
  Te  Te163  1  0.00087002  0.16530441  0.33321970  1
  Te  Te164  1  0.00166451  0.16469429  0.66850787  1
  Te  Te165  1  0.00002506  0.50069594  0.00267476  1
  Te  Te166  1  -0.00298102  0.50319033  0.32855746  1
  Te  Te167  1  0.00046165  0.50234022  0.66826649  1
  Te  Te168  1  -0.00363099  0.83440378  0.00477811  1
  Te  Te169  1  -0.00028089  0.83231106  0.33175595  1
  Te  Te170  1  -0.00122574  0.83263849  0.66814619  1
  Te  Te171  1  0.32808278  0.16671146  -0.00065820  1
  Te  Te172  1  0.32961581  0.15796639  0.33401825  1
  Te  Te173  1  0.33049218  0.16523429  0.66584250  1
  Te  Te174  1  0.33440685  0.50013033  -0.00076811  1
  Te  Te175  1  0.33391373  0.50203709  0.32989795  1
  Te  Te176  1  0.33744696  0.49745521  0.67268727  1
  Te  Te177  1  0.33703734  0.83311590  0.00579398  1
  Te  Te178  1  0.33876506  0.83169833  0.33205440  1
  Te  Te179  1  0.33170642  0.83660569  0.66629559  1
  Te  Te180  1  0.66639659  0.16647710  -0.00051730  1
  Te  Te181  1  0.66698242  0.16271092  0.33191300  1
  Te  Te182  1  0.66773171  0.16546861  0.66724782  1
  Te  Te183  1  0.66574720  0.49961473  0.00257507  1
  Te  Te184  1  0.67029144  0.49841228  0.32824895  1
  Te  Te185  1  0.66214658  0.49822025  0.66469194  1
  Te  Te186  1  0.66740617  0.83201928  0.00092919  1
  Te  Te187  1  0.66133793  0.83889222  0.33073893  1
  Te  Te188  1  0.66874846  0.83547028  0.66628376  1
  Te  Te189  1  0.00000595  -0.00363536  0.17174287  1
  Te  Te190  1  0.00002691  -0.00711058  0.50021410  1
  Te  Te191  1  -0.00134974  0.00470790  0.82977608  1
  Te  Te192  1  -0.00060011  0.33864273  0.16729548  1
  Te  Te193  1  -0.00018389  0.33379118  0.50070661  1
  Te  Te194  1  -0.00096760  0.33255425  0.83357063  1
  Te  Te195  1  0.00106024  0.66551550  0.16982204  1
  Te  Te196  1  -0.00163976  0.66876676  0.49679489  1
  Te  Te197  1  -0.00591561  0.66327465  0.83105125  1
  Te  Te198  1  0.33493222  -0.00029364  0.17194547  1
  Te  Te199  1  0.33382766  0.00067797  0.49995041  1
  Te  Te200  1  0.33374103  0.00047202  0.82536053  1
  Te  Te201  1  0.33332076  0.33294368  0.17022854  1
  Te  Te202  1  0.33725780  0.33805375  0.50074923  1
  Te  Te203  1  0.33408797  0.33257855  0.82305037  1
  Te  Te204  1  0.32921785  0.66632869  0.16743385  1
  Te  Te205  1  0.33395043  0.66098395  0.49670994  1
  Te  Te206  1  0.33163157  0.66694540  0.83689762  1
  Te  Te207  1  0.66629488  0.00246789  0.16843429  1
  Te  Te208  1  0.66673360  0.00551154  0.50334217  1
  Te  Te209  1  0.66766836  0.00552273  0.82456520  1
  Te  Te210  1  0.66860990  0.33404625  0.16690145  1
  Te  Te211  1  0.66223086  0.33033281  0.50371893  1
  Te  Te212  1  0.66750264  0.33423423  0.82876447  1
  Te  Te213  1  0.66560650  0.66655287  0.16527490  1
  Te  Te214  1  0.67164108  0.66724542  0.49999348  1
  Te  Te215  1  0.67248834  0.66213883  0.84011116  1
