# generated using pymatgen
data_AgSbTe2
_symmetry_space_group_name_H-M   'P 1'
_cell_length_a   18.31453992
_cell_length_b   18.31421135
_cell_length_c   18.31009645
_cell_angle_alpha   90.00007506
_cell_angle_beta   89.99685492
_cell_angle_gamma   89.99929336
_symmetry_Int_Tables_number   1
_chemical_formula_structural   AgSbTe2
_chemical_formula_sum   'Ag54 Sb54 Te108'
_cell_volume   6141.50579869
_cell_formula_units_Z   54
loop_
 _symmetry_equiv_pos_site_id
 _symmetry_equiv_pos_as_xyz
  1  'x, y, z'
loop_
 _atom_site_type_symbol
 _atom_site_label
 _atom_site_symmetry_multiplicity
 _atom_site_fract_x
 _atom_site_fract_y
 _atom_site_fract_z
 _atom_site_occupancy
  Ag  Ag0  1  0.83359567  0.33079812  0.83694634  1
  Ag  Ag1  1  0.17269219  0.83594843  0.00052910  1
  Ag  Ag2  1  0.49926671  0.66702608  0.50210209  1
  Ag  Ag3  1  0.33236257  0.32308340  0.66945528  1
  Ag  Ag4  1  0.66307836  0.83486942  0.83292291  1
  Ag  Ag5  1  0.49215957  0.83180831  -0.00966504  1
  Ag  Ag6  1  0.16755140  0.48935881  -0.00264521  1
  Ag  Ag7  1  0.16417238  0.16331304  0.33378515  1
  Ag  Ag8  1  0.84065244  0.00234044  0.15743057  1
  Ag  Ag9  1  0.50045168  0.83867749  0.67315511  1
  Ag  Ag10  1  0.00372235  0.16957304  0.16238096  1
  Ag  Ag11  1  -0.00048160  0.33055459  0.32890087  1
  Ag  Ag12  1  0.00500788  0.33182685  0.00406882  1
  Ag  Ag13  1  0.50066284  0.49675106  0.33516629  1
  Ag  Ag14  1  0.66996688  0.49872831  0.15654548  1
  Ag  Ag15  1  0.33172732  0.49311926  0.50538500  1
  Ag  Ag16  1  0.00894500  0.16570856  0.50910512  1
  Ag  Ag17  1  0.49253855  -0.00038804  0.51063647  1
  Ag  Ag18  1  0.49092668  0.16924805  -0.00262000  1
  Ag  Ag19  1  0.33185005  0.00495890  0.66664874  1
  Ag  Ag20  1  0.16515630  0.16709908  0.66586056  1
  Ag  Ag21  1  0.32726432  0.16847742  0.51049223  1
  Ag  Ag22  1  0.83351877  0.66090811  0.16007719  1
  Ag  Ag23  1  0.83370989  0.00130825  0.83284290  1
  Ag  Ag24  1  0.66976867  0.33517926  0.33248222  1
  Ag  Ag25  1  -0.00143673  0.84172145  0.83033943  1
  Ag  Ag26  1  0.16795447  0.00399383  0.50144837  1
  Ag  Ag27  1  0.83494750  0.82950918  -0.00281227  1
  Ag  Ag28  1  0.84436154  0.16742785  0.67100965  1
  Ag  Ag29  1  0.32666376  0.16342841  0.82926751  1
  Ag  Ag30  1  0.16257355  0.49196769  0.66750525  1
  Ag  Ag31  1  0.33834782  0.84154282  0.83608049  1
  Ag  Ag32  1  0.00575501  0.49448936  0.50665167  1
  Ag  Ag33  1  0.00076922  0.83738227  0.50913836  1
  Ag  Ag34  1  0.66355723  0.66399700  -0.00089463  1
  Ag  Ag35  1  0.66950846  0.50334245  0.83932763  1
  Ag  Ag36  1  -0.00037263  0.67203586  0.66630654  1
  Ag  Ag37  1  0.66424388  0.83500073  0.50858768  1
  Ag  Ag38  1  0.84102874  0.33327604  0.15843392  1
  Ag  Ag39  1  0.16043807  0.32549963  0.16151394  1
  Ag  Ag40  1  0.00159665  0.00311100  0.66650090  1
  Ag  Ag41  1  0.50119294  -0.00346939  0.82867417  1
  Ag  Ag42  1  0.16710685  0.16999226  0.00022458  1
  Ag  Ag43  1  0.82999622  0.50010196  -0.00254342  1
  Ag  Ag44  1  0.33729088  0.67029109  -0.00137694  1
  Ag  Ag45  1  0.32884932  0.83489290  0.15278614  1
  Ag  Ag46  1  0.00396332  0.16268708  0.82884681  1
  Ag  Ag47  1  0.50394782  0.50185178  -0.00030226  1
  Ag  Ag48  1  0.16569855  0.84258033  0.32970873  1
  Ag  Ag49  1  0.83908327  0.49439057  0.67400143  1
  Ag  Ag50  1  0.49489606  0.33363324  0.50084746  1
  Ag  Ag51  1  0.66023055  -0.00202088  0.66938956  1
  Ag  Ag52  1  0.16276686  0.00661244  0.16862816  1
  Ag  Ag53  1  0.32760585  0.33368121  -0.00415723  1
  Sb  Sb54  1  -0.00355554  0.49303664  0.16596235  1
  Sb  Sb55  1  0.16254533  0.66761873  0.16328604  1
  Sb  Sb56  1  0.32431035  0.16323383  0.16097340  1
  Sb  Sb57  1  0.00075012  0.66264579  0.33747862  1
  Sb  Sb58  1  0.49335526  0.15907723  0.67067109  1
  Sb  Sb59  1  0.49967366  0.50289639  0.66833477  1
  Sb  Sb60  1  0.66816375  0.33959987  0.00206374  1
  Sb  Sb61  1  0.83841574  0.83529776  0.32852708  1
  Sb  Sb62  1  0.33363341  0.66727237  0.33043837  1
  Sb  Sb63  1  0.33046381  0.00041470  0.34001415  1
  Sb  Sb64  1  0.83049374  0.49675718  0.33042157  1
  Sb  Sb65  1  0.66731787  0.00376337  0.33839024  1
  Sb  Sb66  1  0.83629038  0.00019489  0.50686433  1
  Sb  Sb67  1  0.16909643  0.32531001  0.49853891  1
  Sb  Sb68  1  0.50209427  0.32838921  0.83203416  1
  Sb  Sb69  1  0.84198955  0.16823158  0.33607445  1
  Sb  Sb70  1  0.49637682  -0.00111222  0.16186205  1
  Sb  Sb71  1  0.66448201  0.50279215  0.50229315  1
  Sb  Sb72  1  0.49985975  0.67393263  0.83289755  1
  Sb  Sb73  1  0.00306911  0.00467548  0.33845673  1
  Sb  Sb74  1  0.33033680  0.66857301  0.67058243  1
  Sb  Sb75  1  0.32991965  0.33265258  0.33404691  1
  Sb  Sb76  1  -0.00444184  0.49563651  0.83025213  1
  Sb  Sb77  1  0.00378865  0.84030667  0.16208514  1
  Sb  Sb78  1  0.66502599  0.66351426  0.32971135  1
  Sb  Sb79  1  0.67005820  0.67073617  0.67098138  1
  Sb  Sb80  1  0.49981098  0.33389540  0.16630097  1
  Sb  Sb81  1  0.33611691  0.49608351  0.83354768  1
  Sb  Sb82  1  0.49609743  0.83056557  0.33628178  1
  Sb  Sb83  1  0.00515602  0.32874660  0.66763324  1
  Sb  Sb84  1  0.33234952  0.83563333  0.50475095  1
  Sb  Sb85  1  0.50253571  0.66614369  0.16331915  1
  Sb  Sb86  1  0.66458863  0.16303382  0.50260154  1
  Sb  Sb87  1  0.33549900  0.50096242  0.16374455  1
  Sb  Sb88  1  0.00198654  0.00438566  -0.00639407  1
  Sb  Sb89  1  0.16896061  0.66980868  0.50210407  1
  Sb  Sb90  1  0.83826628  0.16954503  -0.00526455  1
  Sb  Sb91  1  0.83126888  0.66740925  0.49957388  1
  Sb  Sb92  1  0.16887854  0.49520112  0.33381869  1
  Sb  Sb93  1  0.16626551  0.00223709  0.83134114  1
  Sb  Sb94  1  0.16629908  0.83884845  0.66952408  1
  Sb  Sb95  1  -0.00023173  0.66466117  -0.00515445  1
  Sb  Sb96  1  0.16172682  0.32949807  0.83897527  1
  Sb  Sb97  1  0.67435255  0.17119991  0.16465156  1
  Sb  Sb98  1  0.16569978  0.66813422  0.83320009  1
  Sb  Sb99  1  0.83390131  0.33336560  0.50281909  1
  Sb  Sb100  1  0.66769175  -0.00551910  -0.00633556  1
  Sb  Sb101  1  0.66781461  0.16322500  0.83288615  1
  Sb  Sb102  1  0.83329825  0.66813889  0.83758262  1
  Sb  Sb103  1  0.66672712  0.83058397  0.16080640  1
  Sb  Sb104  1  0.49251977  0.17098575  0.33353733  1
  Sb  Sb105  1  0.66363416  0.32997531  0.66437249  1
  Sb  Sb106  1  0.83339000  0.83578186  0.67505302  1
  Sb  Sb107  1  0.33117647  0.00005355  -0.00798225  1
  Te  Te108  1  0.16433559  0.16547636  0.16313311  1
  Te  Te109  1  0.16700243  0.16506556  0.50364975  1
  Te  Te110  1  0.16587586  0.16660348  0.83414845  1
  Te  Te111  1  0.16684652  0.49699904  0.16309959  1
  Te  Te112  1  0.16707935  0.50055343  0.50025708  1
  Te  Te113  1  0.16632537  0.49893224  0.83563545  1
  Te  Te114  1  0.16816698  0.83384030  0.16308650  1
  Te  Te115  1  0.16326660  0.83777354  0.50063016  1
  Te  Te116  1  0.16478411  0.83532113  0.83820191  1
  Te  Te117  1  0.49874965  0.16534236  0.16081028  1
  Te  Te118  1  0.49608261  0.16577264  0.49923465  1
  Te  Te119  1  0.49799021  0.16117209  0.83813418  1
  Te  Te120  1  0.50400256  0.50054040  0.16329548  1
  Te  Te121  1  0.49897549  0.49787212  0.50248255  1
  Te  Te122  1  0.50461414  0.49926079  0.83843930  1
  Te  Te123  1  0.49509341  0.83358471  0.16471742  1
  Te  Te124  1  0.50032961  0.83729364  0.49991867  1
  Te  Te125  1  0.50136336  0.83614385  0.83334947  1
  Te  Te126  1  0.84071417  0.16778544  0.16579823  1
  Te  Te127  1  0.83858055  0.16672481  0.50588989  1
  Te  Te128  1  0.83458649  0.16377037  0.83062193  1
  Te  Te129  1  0.83067228  0.49573608  0.16382135  1
  Te  Te130  1  0.83657733  0.50072179  0.50389009  1
  Te  Te131  1  0.83189543  0.49976938  0.83555322  1
  Te  Te132  1  0.83465923  0.83861261  0.16073578  1
  Te  Te133  1  0.83619686  0.83300886  0.49759753  1
  Te  Te134  1  0.83316094  0.83623621  0.83814401  1
  Te  Te135  1  0.16575740  -0.00077122  0.00571211  1
  Te  Te136  1  0.16609430  0.00126963  0.33370138  1
  Te  Te137  1  0.16569939  0.00377854  0.66365048  1
  Te  Te138  1  0.16714717  0.33220241  0.00091067  1
  Te  Te139  1  0.16210738  0.32976149  0.32587237  1
  Te  Te140  1  0.17294314  0.33323218  0.66681920  1
  Te  Te141  1  0.16994972  0.67003621  -0.00018264  1
  Te  Te142  1  0.16641092  0.67363927  0.33223368  1
  Te  Te143  1  0.16077326  0.65846861  0.66634262  1
  Te  Te144  1  0.50061448  -0.00402723  -0.00413684  1
  Te  Te145  1  0.50099347  0.00086341  0.33910230  1
  Te  Te146  1  0.49998159  -0.00138902  0.66760976  1
  Te  Te147  1  0.49616503  0.33512137  -0.00102044  1
  Te  Te148  1  0.50132273  0.33647625  0.33618559  1
  Te  Te149  1  0.49477922  0.33341978  0.66241077  1
  Te  Te150  1  0.49943762  0.66639525  -0.00059557  1
  Te  Te151  1  0.49998152  0.66018691  0.33940635  1
  Te  Te152  1  0.50007619  0.67429152  0.66110215  1
  Te  Te153  1  0.83445791  -0.00079881  -0.00212608  1
  Te  Te154  1  0.83327264  0.00121158  0.32335546  1
  Te  Te155  1  0.83917396  0.00202681  0.67080592  1
  Te  Te156  1  0.83364402  0.33568155  -0.00115120  1
  Te  Te157  1  0.83414624  0.33266855  0.32990196  1
  Te  Te158  1  0.83162823  0.33352257  0.67019862  1
  Te  Te159  1  0.83338427  0.66439781  0.00252115  1
  Te  Te160  1  0.83301213  0.66625215  0.32357717  1
  Te  Te161  1  0.83902885  0.66015940  0.66552107  1
  Te  Te162  1  0.00319886  0.17066978  -0.00221612  1
  Te  Te163  1  0.00549611  0.17072392  0.33396049  1
  Te  Te164  1  0.00331661  0.16726020  0.66818758  1
  Te  Te165  1  0.00174303  0.49633019  -0.00131164  1
  Te  Te166  1  0.00026271  0.49457365  0.34145420  1
  Te  Te167  1  0.00105457  0.49493379  0.66550168  1
  Te  Te168  1  -0.00165062  0.83280870  -0.00440957  1
  Te  Te169  1  0.00586089  0.83204158  0.33692105  1
  Te  Te170  1  0.00046042  0.83550005  0.66832209  1
  Te  Te171  1  0.33044040  0.16773960  -0.00388043  1
  Te  Te172  1  0.32465457  0.16747121  0.34062264  1
  Te  Te173  1  0.33253183  0.16606239  0.66876730  1
  Te  Te174  1  0.33078753  0.49788116  -0.00081409  1
  Te  Te175  1  0.33883517  0.50014390  0.33785168  1
  Te  Te176  1  0.33068346  0.50049036  0.66527083  1
  Te  Te177  1  0.33326086  0.83546789  -0.00358823  1
  Te  Te178  1  0.32656794  0.83309848  0.33118555  1
  Te  Te179  1  0.33480470  0.83601290  0.67298072  1
  Te  Te180  1  0.65811917  0.16634414  0.00050293  1
  Te  Te181  1  0.66570003  0.17338512  0.33348481  1
  Te  Te182  1  0.67403424  0.16049819  0.66617916  1
  Te  Te183  1  0.66751387  0.50131696  -0.00072334  1
  Te  Te184  1  0.66182645  0.49642591  0.33365523  1
  Te  Te185  1  0.67092743  0.50019125  0.67234883  1
  Te  Te186  1  0.66860966  0.82847926  -0.00234289  1
  Te  Te187  1  0.66680357  0.83368868  0.33602251  1
  Te  Te188  1  0.66679942  0.83577313  0.66867322  1
  Te  Te189  1  0.00095769  0.00608495  0.16871365  1
  Te  Te190  1  0.00190174  0.00115251  0.50417610  1
  Te  Te191  1  -0.00166132  0.00181057  0.82858502  1
  Te  Te192  1  0.00013259  0.33184534  0.16514140  1
  Te  Te193  1  0.00006350  0.33172582  0.49688404  1
  Te  Te194  1  -0.00683804  0.32822212  0.83780399  1
  Te  Te195  1  -0.00715803  0.66689411  0.16793298  1
  Te  Te196  1  -0.00036434  0.66827423  0.50496561  1
  Te  Te197  1  -0.00057538  0.67547105  0.82672238  1
  Te  Te198  1  0.32873211  -0.00482273  0.16941251  1
  Te  Te199  1  0.33187219  0.00192229  0.50588775  1
  Te  Te200  1  0.33396008  0.00162250  0.82693133  1
  Te  Te201  1  0.32988314  0.33222662  0.16058869  1
  Te  Te202  1  0.33499682  0.33359684  0.49992111  1
  Te  Te203  1  0.33549354  0.32844054  0.83358361  1
  Te  Te204  1  0.33288359  0.67126592  0.16009527  1
  Te  Te205  1  0.33867856  0.66382560  0.50084116  1
  Te  Te206  1  0.33285247  0.67243105  0.83946520  1
  Te  Te207  1  0.67058179  0.00103332  0.16806857  1
  Te  Te208  1  0.66653711  -0.00484804  0.50555501  1
  Te  Te209  1  0.66826398  -0.00373052  0.82892302  1
  Te  Te210  1  0.66874337  0.33754917  0.17130200  1
  Te  Te211  1  0.66213324  0.33298287  0.49527719  1
  Te  Te212  1  0.67279607  0.33573088  0.83250534  1
  Te  Te213  1  0.67145888  0.66266150  0.16176881  1
  Te  Te214  1  0.66244296  0.67363562  0.49998111  1
  Te  Te215  1  0.66655325  0.66843624  0.83869915  1
