# generated using pymatgen
data_AgSbTe2
_symmetry_space_group_name_H-M   'P 1'
_cell_length_a   18.32412544
_cell_length_b   18.32486622
_cell_length_c   18.32888258
_cell_angle_alpha   90.00160880
_cell_angle_beta   89.99903125
_cell_angle_gamma   90.00009168
_symmetry_Int_Tables_number   1
_chemical_formula_structural   AgSbTe2
_chemical_formula_sum   'Ag54 Sb54 Te108'
_cell_volume   6154.60318968
_cell_formula_units_Z   54
loop_
 _symmetry_equiv_pos_site_id
 _symmetry_equiv_pos_as_xyz
  1  'x, y, z'
loop_
 _atom_site_type_symbol
 _atom_site_label
 _atom_site_symmetry_multiplicity
 _atom_site_fract_x
 _atom_site_fract_y
 _atom_site_fract_z
 _atom_site_occupancy
  Ag  Ag0  1  0.33818860  0.83102278  0.50189808  1
  Ag  Ag1  1  0.65539909  0.16292395  0.16244983  1
  Ag  Ag2  1  0.66639939  0.66613429  0.65666710  1
  Ag  Ag3  1  0.82875083  0.50025614  -0.00101528  1
  Ag  Ag4  1  0.33927359  0.50777918  0.49827687  1
  Ag  Ag5  1  0.83362254  -0.00436800  0.17046109  1
  Ag  Ag6  1  -0.00128186  0.83812391  0.16808141  1
  Ag  Ag7  1  0.82475745  0.50938768  0.33146432  1
  Ag  Ag8  1  0.66007927  0.00272864  0.00176834  1
  Ag  Ag9  1  0.83545375  0.67097915  0.17714923  1
  Ag  Ag10  1  0.82008635  0.67008961  0.49152051  1
  Ag  Ag11  1  0.66976529  0.66553306  0.34389121  1
  Ag  Ag12  1  0.66332569  0.16229325  0.83977363  1
  Ag  Ag13  1  0.16241126  0.34024064  0.84223085  1
  Ag  Ag14  1  -0.00552784  0.83362952  0.49980643  1
  Ag  Ag15  1  0.16770399  0.00852815  0.17057820  1
  Ag  Ag16  1  0.50075073  0.50178667  0.65954413  1
  Ag  Ag17  1  0.34037511  0.00048578  0.00726192  1
  Ag  Ag18  1  0.17512543  0.16647361  0.32590762  1
  Ag  Ag19  1  0.16876584  0.32554706  0.16399377  1
  Ag  Ag20  1  0.00633328  0.33337312  -0.00213949  1
  Ag  Ag21  1  0.66658077  0.50400215  0.83118628  1
  Ag  Ag22  1  0.17395280  -0.00533940  0.49293099  1
  Ag  Ag23  1  0.49554274  0.32244131  0.16816406  1
  Ag  Ag24  1  0.83155365  0.82839306  0.33757524  1
  Ag  Ag25  1  0.66481053  0.82496186  0.50387741  1
  Ag  Ag26  1  0.33333851  0.32733338  0.33358219  1
  Ag  Ag27  1  0.33572511  0.00325256  0.33184413  1
  Ag  Ag28  1  0.50197152  0.00053769  0.83704915  1
  Ag  Ag29  1  0.50235617  0.83311164  0.66208253  1
  Ag  Ag30  1  -0.00121792  0.83190486  0.83213901  1
  Ag  Ag31  1  0.16759171  0.33871482  0.49754178  1
  Ag  Ag32  1  0.82727130  -0.01303921  0.49123973  1
  Ag  Ag33  1  0.16768393  0.66654857  0.50022647  1
  Ag  Ag34  1  0.15997419  0.66649317  0.16833130  1
  Ag  Ag35  1  0.49989042  0.16451866  0.00575201  1
  Ag  Ag36  1  0.17079958  0.49967980  0.66834398  1
  Ag  Ag37  1  0.50107459  0.49482067  0.00002299  1
  Ag  Ag38  1  0.49612633  0.16674193  0.32449318  1
  Ag  Ag39  1  0.50933593  0.67007114  0.50114978  1
  Ag  Ag40  1  0.16185847  0.66125392  0.83218176  1
  Ag  Ag41  1  0.50052350  0.00432925  0.16326029  1
  Ag  Ag42  1  0.83676132  0.34356981  0.83607581  1
  Ag  Ag43  1  0.50235661  0.16218477  0.66599550  1
  Ag  Ag44  1  0.65848613  0.51052380  0.50316523  1
  Ag  Ag45  1  0.33971827  0.83373365  0.82771524  1
  Ag  Ag46  1  0.01035595  0.16259345  0.16514318  1
  Ag  Ag47  1  0.49810324  -0.00784265  0.49858865  1
  Ag  Ag48  1  0.16989182  0.17160018  0.00809988  1
  Ag  Ag49  1  0.50352228  0.49615250  0.34179610  1
  Ag  Ag50  1  0.66511891  0.82808857  0.82736740  1
  Ag  Ag51  1  0.82999738  0.66445495  0.83352074  1
  Ag  Ag52  1  0.00411211  0.33428682  0.67540001  1
  Ag  Ag53  1  0.16840158  0.49374949  -0.00367511  1
  Sb  Sb54  1  0.33891133  0.66690070  0.66388757  1
  Sb  Sb55  1  0.17251158  -0.00141763  0.83586882  1
  Sb  Sb56  1  0.83018614  0.16932057  0.00232515  1
  Sb  Sb57  1  0.83337573  0.82900964  0.00298798  1
  Sb  Sb58  1  0.00118054  0.50601470  0.50115168  1
  Sb  Sb59  1  0.66736360  0.33033023  -0.00099012  1
  Sb  Sb60  1  0.66686079  0.49750251  0.16628096  1
  Sb  Sb61  1  0.33618734  -0.00116540  0.66283100  1
  Sb  Sb62  1  0.00262093  0.16219268  0.49478340  1
  Sb  Sb63  1  0.50260256  0.66919610  0.82811087  1
  Sb  Sb64  1  0.66140322  -0.00346739  0.33079975  1
  Sb  Sb65  1  0.66248537  0.16374582  0.49896088  1
  Sb  Sb66  1  -0.00341018  0.16684780  0.83805160  1
  Sb  Sb67  1  0.83027189  0.50213918  0.66790871  1
  Sb  Sb68  1  0.66760831  0.66854919  -0.00067660  1
  Sb  Sb69  1  0.33011594  0.33575091  0.66149587  1
  Sb  Sb70  1  0.32959154  0.32987067  0.00477927  1
  Sb  Sb71  1  0.83839153  0.33907930  0.50249529  1
  Sb  Sb72  1  0.17084792  0.82698753  0.66446997  1
  Sb  Sb73  1  0.33252779  0.67006621  -0.00100868  1
  Sb  Sb74  1  0.82795384  0.83173537  0.66031969  1
  Sb  Sb75  1  -0.00259574  0.66442798  0.66657898  1
  Sb  Sb76  1  0.33408267  0.16374069  0.49677469  1
  Sb  Sb77  1  0.82733361  0.16747458  0.66815833  1
  Sb  Sb78  1  0.00075484  0.00402168  0.00313756  1
  Sb  Sb79  1  0.33881416  0.16197254  0.83613613  1
  Sb  Sb80  1  0.83539405  0.33364090  0.16309021  1
  Sb  Sb81  1  0.50300663  0.66737816  0.17261374  1
  Sb  Sb82  1  0.00095529  0.00136524  0.66499842  1
  Sb  Sb83  1  0.00086727  0.50058066  0.16546922  1
  Sb  Sb84  1  0.50387599  0.83595496  0.34049741  1
  Sb  Sb85  1  0.65999182  0.33782603  0.33300348  1
  Sb  Sb86  1  0.17092556  0.17252907  0.66644034  1
  Sb  Sb87  1  0.33351843  0.16484626  0.16737082  1
  Sb  Sb88  1  0.66720400  0.33880063  0.66896875  1
  Sb  Sb89  1  0.17088954  0.49661582  0.33450505  1
  Sb  Sb90  1  0.49918821  0.33123507  0.83704378  1
  Sb  Sb91  1  0.66251659  -0.00566824  0.66854343  1
  Sb  Sb92  1  0.33678737  0.66827683  0.33736986  1
  Sb  Sb93  1  0.00494656  -0.00036816  0.33183860  1
  Sb  Sb94  1  0.16639240  0.83398672  0.00029671  1
  Sb  Sb95  1  0.67060021  0.83768812  0.16783755  1
  Sb  Sb96  1  0.83046041  0.16456345  0.32977671  1
  Sb  Sb97  1  0.33348570  0.49979186  0.17095688  1
  Sb  Sb98  1  0.32928971  0.83742991  0.16963798  1
  Sb  Sb99  1  0.33442608  0.50403113  0.82984922  1
  Sb  Sb100  1  -0.00511930  0.66802059  0.33432527  1
  Sb  Sb101  1  0.49448429  0.33654063  0.49570741  1
  Sb  Sb102  1  -0.00259543  0.50155210  0.83342346  1
  Sb  Sb103  1  0.16349490  0.83661850  0.33543786  1
  Sb  Sb104  1  0.50116652  0.83829374  -0.00540955  1
  Sb  Sb105  1  0.00674743  0.33323938  0.33058365  1
  Sb  Sb106  1  0.00031981  0.66227382  -0.00034159  1
  Sb  Sb107  1  0.82555743  -0.00460144  0.83697851  1
  Te  Te108  1  0.16826275  0.16569492  0.16577706  1
  Te  Te109  1  0.16669636  0.16511023  0.49830983  1
  Te  Te110  1  0.16584933  0.16960225  0.83556262  1
  Te  Te111  1  0.16608153  0.50459341  0.16506101  1
  Te  Te112  1  0.16734694  0.50022216  0.49912556  1
  Te  Te113  1  0.16733639  0.50046183  0.83370873  1
  Te  Te114  1  0.16127945  0.82915267  0.16768035  1
  Te  Te115  1  0.16865849  0.83454161  0.50046165  1
  Te  Te116  1  0.16496328  0.83114286  0.83217325  1
  Te  Te117  1  0.49827410  0.16475731  0.16641227  1
  Te  Te118  1  0.50075672  0.16464273  0.50276518  1
  Te  Te119  1  0.50431527  0.16533241  0.83558899  1
  Te  Te120  1  0.50058469  0.50119017  0.16267463  1
  Te  Te121  1  0.49959422  0.49823607  0.49977586  1
  Te  Te122  1  0.50199884  0.50010612  0.83531613  1
  Te  Te123  1  0.49945116  0.83794109  0.16651826  1
  Te  Te124  1  0.50105906  0.83162953  0.50132901  1
  Te  Te125  1  0.50174314  0.83472836  0.82914064  1
  Te  Te126  1  0.83487723  0.16289426  0.16762865  1
  Te  Te127  1  0.83260611  0.16376693  0.49859747  1
  Te  Te128  1  0.82542014  0.16686805  0.83408164  1
  Te  Te129  1  0.83368492  0.50310437  0.16428700  1
  Te  Te130  1  0.83115925  0.50611551  0.49833781  1
  Te  Te131  1  0.83130632  0.50152157  0.83473257  1
  Te  Te132  1  0.83639378  0.83331416  0.16909032  1
  Te  Te133  1  0.83261197  0.83044301  0.49926095  1
  Te  Te134  1  0.83152031  0.83012003  0.83341355  1
  Te  Te135  1  0.16906331  0.00459683  0.00333661  1
  Te  Te136  1  0.17101680  0.00264632  0.33230815  1
  Te  Te137  1  0.16776340  0.00257325  0.66077863  1
  Te  Te138  1  0.16800963  0.33289095  0.00260690  1
  Te  Te139  1  0.17151631  0.33043247  0.33115324  1
  Te  Te140  1  0.16450022  0.33661431  0.66392751  1
  Te  Te141  1  0.16668465  0.66231421  -0.00095654  1
  Te  Te142  1  0.16742058  0.66566338  0.33285465  1
  Te  Te143  1  0.16479821  0.66087624  0.66760761  1
  Te  Te144  1  0.49984726  0.00100459  0.00065172  1
  Te  Te145  1  0.49721000  0.00231624  0.33445575  1
  Te  Te146  1  0.49997467  -0.00088503  0.66569491  1
  Te  Te147  1  0.49810041  0.33233256  0.00507670  1
  Te  Te148  1  0.49498943  0.33289849  0.32914248  1
  Te  Te149  1  0.49852309  0.33814731  0.66729053  1
  Te  Te150  1  0.49901975  0.65883793  0.00259801  1
  Te  Te151  1  0.50417949  0.66185901  0.33729025  1
  Te  Te152  1  0.50500441  0.66397692  0.66289734  1
  Te  Te153  1  0.82830721  0.00032476  0.00642745  1
  Te  Te154  1  0.83128217  -0.00180210  0.33199550  1
  Te  Te155  1  0.83317415  0.00161311  0.65863443  1
  Te  Te156  1  0.83703655  0.33873535  -0.00423048  1
  Te  Te157  1  0.83366448  0.33707529  0.33409501  1
  Te  Te158  1  0.84053819  0.33411270  0.67227759  1
  Te  Te159  1  0.83429845  0.65974347  -0.00552401  1
  Te  Te160  1  0.83161205  0.66701478  0.33364540  1
  Te  Te161  1  0.82891764  0.66602912  0.67143193  1
  Te  Te162  1  0.00330440  0.17105080  0.00395543  1
  Te  Te163  1  0.00471612  0.16719069  0.32616920  1
  Te  Te164  1  -0.00050863  0.17293136  0.66732152  1
  Te  Te165  1  0.00471395  0.49374153  -0.00024069  1
  Te  Te166  1  -0.01105722  0.49892582  0.33363771  1
  Te  Te167  1  0.00834253  0.49415848  0.66662573  1
  Te  Te168  1  -0.00000945  0.83408866  -0.00029724  1
  Te  Te169  1  -0.00709197  0.83398062  0.33372172  1
  Te  Te170  1  0.00146615  0.83362706  0.66727289  1
  Te  Te171  1  0.33463060  0.16093579  -0.00113708  1
  Te  Te172  1  0.33463465  0.16564693  0.33418571  1
  Te  Te173  1  0.34345352  0.16816997  0.66771674  1
  Te  Te174  1  0.33361522  0.50075519  -0.00083119  1
  Te  Te175  1  0.33901100  0.49905409  0.33826464  1
  Te  Te176  1  0.33425496  0.50087025  0.66063167  1
  Te  Te177  1  0.33347718  0.83985076  -0.00438114  1
  Te  Te178  1  0.33384543  0.83940302  0.33959566  1
  Te  Te179  1  0.33979325  0.83316853  0.66539406  1
  Te  Te180  1  0.66349465  0.16451315  0.00041898  1
  Te  Te181  1  0.65971911  0.16771153  0.32942582  1
  Te  Te182  1  0.66030696  0.16864638  0.67082926  1
  Te  Te183  1  0.66588324  0.49964972  -0.00351978  1
  Te  Te184  1  0.66451930  0.50323553  0.33308400  1
  Te  Te185  1  0.66369900  0.50392703  0.66819895  1
  Te  Te186  1  0.66691574  0.84004172  -0.00609524  1
  Te  Te187  1  0.67113441  0.82831852  0.33690821  1
  Te  Te188  1  0.66252590  0.82873969  0.66652628  1
  Te  Te189  1  0.00109728  -0.00100629  0.16618176  1
  Te  Te190  1  0.00030663  -0.00585364  0.49986303  1
  Te  Te191  1  -0.00136666  -0.00636361  0.83341961  1
  Te  Te192  1  0.00427651  0.32949352  0.16284470  1
  Te  Te193  1  0.00620435  0.33227589  0.50124738  1
  Te  Te194  1  0.00082237  0.33198667  0.83585237  1
  Te  Te195  1  -0.00223911  0.67159177  0.16633444  1
  Te  Te196  1  0.00814196  0.67378050  0.50115820  1
  Te  Te197  1  0.00089859  0.67192886  0.83302047  1
  Te  Te198  1  0.33174153  -0.00185401  0.16772839  1
  Te  Te199  1  0.33522144  -0.00262808  0.49718977  1
  Te  Te200  1  0.33906688  -0.00577822  0.83539919  1
  Te  Te201  1  0.33253401  0.33506363  0.17201738  1
  Te  Te202  1  0.32735291  0.33694939  0.49472279  1
  Te  Te203  1  0.32487258  0.33440658  0.83312837  1
  Te  Te204  1  0.32609969  0.66937536  0.16801039  1
  Te  Te205  1  0.32722254  0.66854432  0.49973043  1
  Te  Te206  1  0.32717511  0.67367513  0.83239931  1
  Te  Te207  1  0.66510399  0.00273466  0.16490396  1
  Te  Te208  1  0.66523946  -0.00356932  0.49990224  1
  Te  Te209  1  0.66244932  0.00001356  0.83535979  1
  Te  Te210  1  0.66316904  0.32568345  0.16616635  1
  Te  Te211  1  0.66960742  0.33851853  0.50122264  1
  Te  Te212  1  0.66948084  0.33907189  0.83337303  1
  Te  Te213  1  0.67297941  0.66869088  0.16800956  1
  Te  Te214  1  0.66529583  0.66541041  0.50044079  1
  Te  Te215  1  0.66808991  0.66630602  0.83454502  1
