# generated using pymatgen
data_AgSbTe2
_symmetry_space_group_name_H-M   'P 1'
_cell_length_a   18.31064662
_cell_length_b   18.31111592
_cell_length_c   18.31273019
_cell_angle_alpha   90.00200414
_cell_angle_beta   89.99851911
_cell_angle_gamma   90.00107908
_symmetry_Int_Tables_number   1
_chemical_formula_structural   AgSbTe2
_chemical_formula_sum   'Ag54 Sb54 Te108'
_cell_volume   6140.04550322
_cell_formula_units_Z   54
loop_
 _symmetry_equiv_pos_site_id
 _symmetry_equiv_pos_as_xyz
  1  'x, y, z'
loop_
 _atom_site_type_symbol
 _atom_site_label
 _atom_site_symmetry_multiplicity
 _atom_site_fract_x
 _atom_site_fract_y
 _atom_site_fract_z
 _atom_site_occupancy
  Ag  Ag0  1  0.50126218  0.16283299  0.33584852  1
  Ag  Ag1  1  0.16177376  0.83371216  -0.00337395  1
  Ag  Ag2  1  0.00247043  -0.00813610  -0.00191576  1
  Ag  Ag3  1  0.83456144  0.67561846  0.50522285  1
  Ag  Ag4  1  0.83171988  0.33050040  0.49954963  1
  Ag  Ag5  1  0.49512798  0.50708269  -0.00696571  1
  Ag  Ag6  1  -0.00337507  -0.00582981  0.33187323  1
  Ag  Ag7  1  0.67566052  0.83100066  0.49730131  1
  Ag  Ag8  1  0.50086477  -0.00387507  0.16641781  1
  Ag  Ag9  1  0.50029412  0.83413472  0.33054142  1
  Ag  Ag10  1  0.66904540  0.16576752  0.49949819  1
  Ag  Ag11  1  0.00298597  0.66883903  -0.00426849  1
  Ag  Ag12  1  0.15834314  0.15510766  -0.00256147  1
  Ag  Ag13  1  -0.00275113  -0.00967089  0.67103369  1
  Ag  Ag14  1  0.32886394  0.67099561  0.00041162  1
  Ag  Ag15  1  0.16166204  0.50820015  -0.00315064  1
  Ag  Ag16  1  0.84447525  0.83680657  0.00262137  1
  Ag  Ag17  1  0.67230927  0.17063842  0.83231555  1
  Ag  Ag18  1  0.49429148  0.82824703  0.00688160  1
  Ag  Ag19  1  0.15564282  -0.00134431  0.83867641  1
  Ag  Ag20  1  0.83228388  0.16482375  0.67253576  1
  Ag  Ag21  1  0.16645138  0.67088303  0.50279778  1
  Ag  Ag22  1  0.66721948  0.50193690  0.83751322  1
  Ag  Ag23  1  0.33812942  0.50077874  0.83340343  1
  Ag  Ag24  1  0.50429363  0.66208611  0.83562980  1
  Ag  Ag25  1  -0.00571405  0.50220691  0.15760580  1
  Ag  Ag26  1  0.67036958  0.49823214  0.15983317  1
  Ag  Ag27  1  0.83535886  0.33290829  0.16384658  1
  Ag  Ag28  1  0.33780931  0.66894629  0.33628240  1
  Ag  Ag29  1  0.33490567  0.49964387  0.50339169  1
  Ag  Ag30  1  -0.00354155  0.33152262  0.32962392  1
  Ag  Ag31  1  0.49705385  0.50238661  0.67294786  1
  Ag  Ag32  1  0.66417290  0.66997981  0.33944188  1
  Ag  Ag33  1  0.83405413  0.83241568  0.33795101  1
  Ag  Ag34  1  0.33241431  0.83287520  0.16302516  1
  Ag  Ag35  1  0.83317153  0.66556991  0.83006418  1
  Ag  Ag36  1  0.83748019  0.16357161  -0.00657036  1
  Ag  Ag37  1  -0.00525839  0.67167579  0.67091530  1
  Ag  Ag38  1  -0.00603946  0.83166471  0.49676846  1
  Ag  Ag39  1  0.83582313  -0.00706873  0.50389787  1
  Ag  Ag40  1  0.00005384  0.83221809  0.16035639  1
  Ag  Ag41  1  0.33266190  0.82881284  0.49382051  1
  Ag  Ag42  1  0.67450392  0.66666760  0.66422835  1
  Ag  Ag43  1  -0.00280550  0.50407648  0.84010936  1
  Ag  Ag44  1  0.49508076  0.33234417  0.49835370  1
  Ag  Ag45  1  0.32461801  -0.01180555  -0.00046848  1
  Ag  Ag46  1  0.16374360  0.83203051  0.66938849  1
  Ag  Ag47  1  -0.00292092  0.33988685  0.00338204  1
  Ag  Ag48  1  0.33879182  0.17502046  0.49919532  1
  Ag  Ag49  1  0.66802427  0.17028877  0.16784093  1
  Ag  Ag50  1  0.33497333  0.33689348  0.65732192  1
  Ag  Ag51  1  0.33472170  0.33787355  0.33937359  1
  Ag  Ag52  1  0.83354503  0.32907753  0.83614195  1
  Ag  Ag53  1  0.83818068  0.00124553  0.83312098  1
  Sb  Sb54  1  0.16568725  0.83269437  0.33262303  1
  Sb  Sb55  1  0.50583829  0.17167284  0.66175292  1
  Sb  Sb56  1  0.50342578  -0.00492267  0.84043076  1
  Sb  Sb57  1  0.16861310  0.33822644  0.50023158  1
  Sb  Sb58  1  -0.00079734  0.66913051  0.33278847  1
  Sb  Sb59  1  0.16689056  -0.00194518  0.15960692  1
  Sb  Sb60  1  0.17056100  0.50516678  0.67141680  1
  Sb  Sb61  1  0.67372717  -0.00375253  0.66553994  1
  Sb  Sb62  1  0.66734645  0.83140373  0.17040536  1
  Sb  Sb63  1  0.33133350  -0.00422162  0.33071494  1
  Sb  Sb64  1  0.32799636  0.33772465  0.00139335  1
  Sb  Sb65  1  0.50050818  0.67056741  0.16214826  1
  Sb  Sb66  1  0.83400455  0.66513634  0.16427025  1
  Sb  Sb67  1  0.50489395  0.34115412  0.83000282  1
  Sb  Sb68  1  0.33835668  0.17121946  0.83064851  1
  Sb  Sb69  1  0.66366877  0.50197083  0.50207168  1
  Sb  Sb70  1  0.83331091  0.50437476  0.33316101  1
  Sb  Sb71  1  0.17000734  0.16620844  0.33111367  1
  Sb  Sb72  1  0.33282451  0.82792549  0.83868547  1
  Sb  Sb73  1  -0.00099384  0.33580794  0.66792758  1
  Sb  Sb74  1  0.50098380  0.66485075  0.50253835  1
  Sb  Sb75  1  0.82932103  0.16370130  0.33446127  1
  Sb  Sb76  1  0.16625323  0.66816646  0.16535210  1
  Sb  Sb77  1  0.83017005  0.50121554  0.66962058  1
  Sb  Sb78  1  0.50316618  0.00221718  0.49600628  1
  Sb  Sb79  1  0.33428785  0.50429106  0.16466539  1
  Sb  Sb80  1  0.83181053  0.00169562  0.16480911  1
  Sb  Sb81  1  0.16066100  0.33172293  0.83586057  1
  Sb  Sb82  1  0.66833302  0.33543155  0.33472705  1
  Sb  Sb83  1  0.16081868  -0.00730601  0.50463395  1
  Sb  Sb84  1  -0.00831694  0.16592636  0.83652013  1
  Sb  Sb85  1  0.16649523  0.50199704  0.32959774  1
  Sb  Sb86  1  0.67044755  -0.00404356  0.33365752  1
  Sb  Sb87  1  -0.00546752  0.16561895  0.16304334  1
  Sb  Sb88  1  0.32776383  0.00043308  0.66999837  1
  Sb  Sb89  1  0.67295782  0.33412546  -0.00045949  1
  Sb  Sb90  1  0.33852496  0.16211166  0.16952346  1
  Sb  Sb91  1  0.49993041  0.50290994  0.33315843  1
  Sb  Sb92  1  0.33245721  0.66401436  0.66669805  1
  Sb  Sb93  1  0.16209400  0.16179373  0.67065475  1
  Sb  Sb94  1  0.49604672  0.82789470  0.66459360  1
  Sb  Sb95  1  0.50298455  0.16548583  0.00310923  1
  Sb  Sb96  1  0.67187316  -0.00118672  -0.00017313  1
  Sb  Sb97  1  0.66863867  0.66591189  -0.00308244  1
  Sb  Sb98  1  -0.00162918  0.83109903  0.83647636  1
  Sb  Sb99  1  0.83786771  0.49973014  -0.00305510  1
  Sb  Sb100  1  0.84070127  0.83434608  0.66407363  1
  Sb  Sb101  1  0.16344074  0.66917706  0.83299788  1
  Sb  Sb102  1  0.00276727  0.50496646  0.50087345  1
  Sb  Sb103  1  0.15958115  0.33469404  0.16493345  1
  Sb  Sb104  1  0.66982045  0.82911187  0.82928931  1
  Sb  Sb105  1  0.50418872  0.33140790  0.17067574  1
  Sb  Sb106  1  0.66591117  0.33753734  0.66633538  1
  Sb  Sb107  1  -0.00370345  0.16200061  0.49941070  1
  Te  Te108  1  0.16898491  0.16690532  0.15806131  1
  Te  Te109  1  0.17221662  0.16579583  0.50109342  1
  Te  Te110  1  0.16989420  0.16150716  0.83857450  1
  Te  Te111  1  0.16115702  0.50121590  0.15809266  1
  Te  Te112  1  0.17246819  0.50702137  0.50129700  1
  Te  Te113  1  0.16576059  0.49990916  0.83845002  1
  Te  Te114  1  0.16600357  0.83310767  0.16071836  1
  Te  Te115  1  0.16763186  0.83041580  0.49965301  1
  Te  Te116  1  0.16809852  0.83742411  0.83444964  1
  Te  Te117  1  0.50649698  0.16351431  0.17175065  1
  Te  Te118  1  0.50147563  0.16928546  0.49690028  1
  Te  Te119  1  0.50929013  0.16721698  0.83212248  1
  Te  Te120  1  0.50451551  0.49909768  0.16148892  1
  Te  Te121  1  0.49576420  0.49491716  0.50055772  1
  Te  Te122  1  0.50089014  0.50166066  0.83365660  1
  Te  Te123  1  0.50031299  0.83562097  0.16796666  1
  Te  Te124  1  0.49737016  0.83410765  0.49623367  1
  Te  Te125  1  0.50123749  0.82619519  0.83702540  1
  Te  Te126  1  0.82765275  0.17064750  0.16473704  1
  Te  Te127  1  0.83112561  0.16863866  0.49956566  1
  Te  Te128  1  0.83081279  0.16639618  0.83386684  1
  Te  Te129  1  0.83327185  0.49561261  0.16614414  1
  Te  Te130  1  0.83327008  0.49553536  0.50130420  1
  Te  Te131  1  0.83108125  0.50384567  0.83283816  1
  Te  Te132  1  0.83603963  0.83337199  0.16576994  1
  Te  Te133  1  0.83404927  0.83320329  0.50020279  1
  Te  Te134  1  0.83175455  0.83396017  0.83902999  1
  Te  Te135  1  0.16524588  -0.00312648  -0.00234656  1
  Te  Te136  1  0.15674531  0.00136060  0.33303513  1
  Te  Te137  1  0.15969115  -0.00471270  0.67457604  1
  Te  Te138  1  0.15865022  0.33502287  -0.00033751  1
  Te  Te139  1  0.16573248  0.33327659  0.33251478  1
  Te  Te140  1  0.17297578  0.33127820  0.66802899  1
  Te  Te141  1  0.16617562  0.66897478  -0.00120996  1
  Te  Te142  1  0.17371997  0.66623085  0.34113951  1
  Te  Te143  1  0.16109709  0.67143671  0.66421101  1
  Te  Te144  1  0.49628659  -0.00283648  0.00427495  1
  Te  Te145  1  0.49931094  -0.00282376  0.32934685  1
  Te  Te146  1  0.49883611  -0.00073015  0.66923997  1
  Te  Te147  1  0.49878770  0.33644657  0.00091430  1
  Te  Te148  1  0.49736056  0.33201780  0.33770998  1
  Te  Te149  1  0.49627896  0.33824170  0.66125619  1
  Te  Te150  1  0.50018049  0.66691755  -0.00317512  1
  Te  Te151  1  0.49873648  0.67120898  0.33356274  1
  Te  Te152  1  0.50262034  0.66308338  0.67265414  1
  Te  Te153  1  0.83781564  -0.00080916  -0.00192372  1
  Te  Te154  1  0.83754503  -0.00495615  0.33589553  1
  Te  Te155  1  0.83773722  0.00103757  0.66744930  1
  Te  Te156  1  0.83777232  0.33158842  -0.00147637  1
  Te  Te157  1  0.83635400  0.33328121  0.33506486  1
  Te  Te158  1  0.83373653  0.32908035  0.66583074  1
  Te  Te159  1  0.83672158  0.67189485  -0.00344608  1
  Te  Te160  1  0.83094549  0.67200694  0.33772646  1
  Te  Te161  1  0.83427187  0.66729381  0.66688909  1
  Te  Te162  1  -0.00120444  0.16566520  0.00005010  1
  Te  Te163  1  0.00101222  0.17001354  0.33130376  1
  Te  Te164  1  -0.00583888  0.16392126  0.66691414  1
  Te  Te165  1  -0.00062267  0.50256625  -0.00003387  1
  Te  Te166  1  0.00100435  0.49584583  0.32813186  1
  Te  Te167  1  0.00156660  0.50568066  0.67091146  1
  Te  Te168  1  0.00073434  0.83126825  0.00069042  1
  Te  Te169  1  -0.00157257  0.83350598  0.33420454  1
  Te  Te170  1  0.00311420  0.83174619  0.66300268  1
  Te  Te171  1  0.33190990  0.16724292  -0.00033732  1
  Te  Te172  1  0.33756966  0.16627562  0.33787454  1
  Te  Te173  1  0.33344146  0.16983063  0.66135919  1
  Te  Te174  1  0.33358700  0.50305836  -0.00097439  1
  Te  Te175  1  0.33313292  0.50182483  0.33405450  1
  Te  Te176  1  0.33572759  0.49798551  0.66694993  1
  Te  Te177  1  0.33470326  0.83068764  0.00047135  1
  Te  Te178  1  0.33398144  0.83162531  0.33215929  1
  Te  Te179  1  0.32685120  0.83347830  0.66163920  1
  Te  Te180  1  0.67106070  0.16654043  0.00001220  1
  Te  Te181  1  0.66149703  0.16634684  0.33580092  1
  Te  Te182  1  0.67278849  0.16646934  0.66397386  1
  Te  Te183  1  0.66251087  0.50036605  -0.00080128  1
  Te  Te184  1  0.66545464  0.50739872  0.32945645  1
  Te  Te185  1  0.66086619  0.50554198  0.67014289  1
  Te  Te186  1  0.66178460  0.83316833  0.00082596  1
  Te  Te187  1  0.66630633  0.83051280  0.33657372  1
  Te  Te188  1  0.66456551  0.82718886  0.65873574  1
  Te  Te189  1  -0.00064854  -0.00461865  0.16503258  1
  Te  Te190  1  -0.00396164  -0.00420279  0.50062443  1
  Te  Te191  1  -0.00276269  -0.00002016  0.83526954  1
  Te  Te192  1  -0.00523788  0.33382724  0.16589773  1
  Te  Te193  1  -0.00164920  0.33507214  0.49742569  1
  Te  Te194  1  -0.00621584  0.34003250  0.83522250  1
  Te  Te195  1  -0.00022433  0.66757097  0.16356175  1
  Te  Te196  1  -0.00394305  0.66904918  0.50018062  1
  Te  Te197  1  -0.00227842  0.66459366  0.83406025  1
  Te  Te198  1  0.33714209  -0.00510552  0.16257996  1
  Te  Te199  1  0.33271383  -0.00378985  0.50022095  1
  Te  Te200  1  0.33446150  0.00190433  0.83926261  1
  Te  Te201  1  0.33406314  0.33281790  0.17426724  1
  Te  Te202  1  0.33180936  0.33467868  0.49766834  1
  Te  Te203  1  0.33360557  0.33947669  0.83218337  1
  Te  Te204  1  0.33307850  0.67216221  0.16678579  1
  Te  Te205  1  0.33390481  0.66757345  0.50041634  1
  Te  Te206  1  0.33432272  0.66090519  0.83680088  1
  Te  Te207  1  0.66176954  0.00460832  0.16685245  1
  Te  Te208  1  0.67247767  0.00082329  0.49998726  1
  Te  Te209  1  0.67211692  0.00425039  0.83189342  1
  Te  Te210  1  0.67225304  0.33479056  0.16752708  1
  Te  Te211  1  0.67001249  0.33142997  0.50041007  1
  Te  Te212  1  0.67338301  0.33538492  0.83244191  1
  Te  Te213  1  0.66750630  0.66117507  0.17278414  1
  Te  Te214  1  0.66879686  0.66769480  0.50086666  1
  Te  Te215  1  0.67039196  0.66345605  0.83024284  1
