# generated using pymatgen
data_AgSbTe2
_symmetry_space_group_name_H-M   'P 1'
_cell_length_a   18.33303987
_cell_length_b   18.33766162
_cell_length_c   18.33974043
_cell_angle_alpha   89.99815150
_cell_angle_beta   90.00056528
_cell_angle_gamma   89.99697621
_symmetry_Int_Tables_number   1
_chemical_formula_structural   AgSbTe2
_chemical_formula_sum   'Ag54 Sb54 Te108'
_cell_volume   6165.54712086
_cell_formula_units_Z   54
loop_
 _symmetry_equiv_pos_site_id
 _symmetry_equiv_pos_as_xyz
  1  'x, y, z'
loop_
 _atom_site_type_symbol
 _atom_site_label
 _atom_site_symmetry_multiplicity
 _atom_site_fract_x
 _atom_site_fract_y
 _atom_site_fract_z
 _atom_site_occupancy
  Ag  Ag0  1  0.66478326  0.00196209  0.32838349  1
  Ag  Ag1  1  0.67332487  0.50027623  0.16673910  1
  Ag  Ag2  1  0.50166769  0.16693559  0.66197190  1
  Ag  Ag3  1  0.50700736  0.00101273  0.16730685  1
  Ag  Ag4  1  -0.00618064  -0.00467790  0.67039652  1
  Ag  Ag5  1  0.83079881  0.16895001  0.00236722  1
  Ag  Ag6  1  0.66582898  0.84036047  0.15674089  1
  Ag  Ag7  1  -0.00038624  0.33749357  0.33185254  1
  Ag  Ag8  1  0.82357003  0.16719430  0.32640091  1
  Ag  Ag9  1  0.67220278  0.67255118  -0.00701987  1
  Ag  Ag10  1  0.50511435  0.49375760  0.34141177  1
  Ag  Ag11  1  0.50569057  0.00647859  0.50658686  1
  Ag  Ag12  1  0.15639912  0.33216385  0.17560062  1
  Ag  Ag13  1  0.83068594  0.66812857  0.83505263  1
  Ag  Ag14  1  0.51387045  0.32963386  0.82356515  1
  Ag  Ag15  1  0.34469566  0.83860105  0.16759102  1
  Ag  Ag16  1  0.50840179  0.83757754  0.00111052  1
  Ag  Ag17  1  0.83126671  0.50516144  -0.00383360  1
  Ag  Ag18  1  0.66718230  -0.00140625  0.67295484  1
  Ag  Ag19  1  -0.00999187  0.49945184  0.17304760  1
  Ag  Ag20  1  -0.00087377  0.65905010  0.33716449  1
  Ag  Ag21  1  0.16117459  0.33433363  0.82169195  1
  Ag  Ag22  1  0.16755990  0.33384430  0.50266144  1
  Ag  Ag23  1  0.83053899  0.65726049  0.15526606  1
  Ag  Ag24  1  0.66967197  -0.00779010  -0.00659213  1
  Ag  Ag25  1  0.83325056  0.34017848  0.16316138  1
  Ag  Ag26  1  0.50203227  0.16717149  0.33760477  1
  Ag  Ag27  1  0.83090695  0.33813439  0.83475615  1
  Ag  Ag28  1  -0.00335332  0.50208870  0.49980697  1
  Ag  Ag29  1  0.16725600  0.00431679  0.50447606  1
  Ag  Ag30  1  0.16655626  0.16999492  0.33828043  1
  Ag  Ag31  1  -0.01152752  0.66946207  -0.00299996  1
  Ag  Ag32  1  0.66670685  0.83249594  0.51326141  1
  Ag  Ag33  1  -0.01117482  0.66431923  0.66669800  1
  Ag  Ag34  1  0.16949364  0.17014669  0.66038000  1
  Ag  Ag35  1  0.16195230  0.65787349  0.50022246  1
  Ag  Ag36  1  -0.01256561  0.83481045  0.83182893  1
  Ag  Ag37  1  0.66839395  0.50349253  0.51124590  1
  Ag  Ag38  1  0.82772954  0.50591153  0.67316974  1
  Ag  Ag39  1  0.33026280  0.66614365  0.33304935  1
  Ag  Ag40  1  0.67081388  0.83566549  0.83129143  1
  Ag  Ag41  1  0.51148597  0.00407046  0.82460321  1
  Ag  Ag42  1  0.82843598  -0.01021581  0.83316268  1
  Ag  Ag43  1  0.67046817  0.50458544  0.82318176  1
  Ag  Ag44  1  0.34485793  0.16345364  0.16898872  1
  Ag  Ag45  1  0.34745245  0.00142608  0.66650836  1
  Ag  Ag46  1  0.16257675  0.49222065  0.66342934  1
  Ag  Ag47  1  0.67222087  0.65914968  0.67159384  1
  Ag  Ag48  1  0.66682328  0.15917986  0.16962836  1
  Ag  Ag49  1  0.51485160  0.49034482  0.66153892  1
  Ag  Ag50  1  0.82925669  0.82238074  0.67275198  1
  Ag  Ag51  1  0.50282455  0.33083699  0.50467097  1
  Ag  Ag52  1  -0.01213366  -0.00643893  -0.00744428  1
  Ag  Ag53  1  0.66320390  0.34449083  0.66865813  1
  Sb  Sb54  1  0.33650494  0.66852660  0.00682233  1
  Sb  Sb55  1  0.34196493  0.49951883  0.83030403  1
  Sb  Sb56  1  0.33878191  0.83539542  0.49725572  1
  Sb  Sb57  1  0.33888603  0.00021585  -0.00152052  1
  Sb  Sb58  1  0.33453938  0.49936241  0.17051679  1
  Sb  Sb59  1  -0.00822185  0.82669020  0.16059218  1
  Sb  Sb60  1  0.66774478  0.16423662  0.83517988  1
  Sb  Sb61  1  0.33413749  0.67100794  0.66325077  1
  Sb  Sb62  1  0.50862872  0.16211804  0.00051599  1
  Sb  Sb63  1  0.83123309  0.33512634  0.50066221  1
  Sb  Sb64  1  0.17059496  0.00681042  0.17107281  1
  Sb  Sb65  1  0.15486670  0.49943664  -0.00396182  1
  Sb  Sb66  1  0.51216915  0.50332656  -0.00254114  1
  Sb  Sb67  1  0.33090931  0.33367666  0.33368596  1
  Sb  Sb68  1  0.50912553  0.67022480  0.16773964  1
  Sb  Sb69  1  0.34009098  -0.00052615  0.33624143  1
  Sb  Sb70  1  0.33332411  0.33250277  0.00109032  1
  Sb  Sb71  1  -0.00678302  0.17083424  0.16781759  1
  Sb  Sb72  1  -0.00470096  0.33546488  0.00251206  1
  Sb  Sb73  1  0.33847391  0.32733503  0.66663392  1
  Sb  Sb74  1  0.83009694  0.16824025  0.66894452  1
  Sb  Sb75  1  0.82586381  0.82896048  -0.00809985  1
  Sb  Sb76  1  0.34100402  0.83527862  0.83573372  1
  Sb  Sb77  1  0.15976170  0.16749305  0.00072767  1
  Sb  Sb78  1  0.16452635  0.49568075  0.33851241  1
  Sb  Sb79  1  0.33519328  0.50065852  0.50074945  1
  Sb  Sb80  1  0.33553060  0.16639578  0.83551433  1
  Sb  Sb81  1  0.16676990  0.83586351  0.33477128  1
  Sb  Sb82  1  0.00250371  0.17175516  0.50040755  1
  Sb  Sb83  1  0.82858376  0.00064709  0.50692884  1
  Sb  Sb84  1  0.33414635  0.16517939  0.49668263  1
  Sb  Sb85  1  0.50517432  0.32880237  0.16788281  1
  Sb  Sb86  1  0.82609021  0.00040230  0.15696330  1
  Sb  Sb87  1  -0.00473320  0.82876514  0.50562669  1
  Sb  Sb88  1  0.67043899  0.66796414  0.33450450  1
  Sb  Sb89  1  0.50361119  0.83642106  0.33079217  1
  Sb  Sb90  1  -0.00189051  0.33696005  0.66356708  1
  Sb  Sb91  1  0.83147153  0.49713922  0.33139211  1
  Sb  Sb92  1  0.15973995  0.66192765  0.17094205  1
  Sb  Sb93  1  -0.01096875  0.50307098  0.82893402  1
  Sb  Sb94  1  -0.00414416  0.00250593  0.33505299  1
  Sb  Sb95  1  0.66970687  0.33383042  -0.00443346  1
  Sb  Sb96  1  0.15512797  0.66134002  0.82514995  1
  Sb  Sb97  1  0.66988893  0.33128835  0.33635282  1
  Sb  Sb98  1  0.51123457  0.66788448  0.83057235  1
  Sb  Sb99  1  0.16190445  0.00378226  0.82534747  1
  Sb  Sb100  1  0.83097071  0.83578293  0.33679393  1
  Sb  Sb101  1  0.16724545  0.83429865  0.00020977  1
  Sb  Sb102  1  0.83560971  0.66413441  0.50337732  1
  Sb  Sb103  1  -0.00268938  0.16323220  0.83246751  1
  Sb  Sb104  1  0.51008668  0.83814972  0.66957174  1
  Sb  Sb105  1  0.66421207  0.16590356  0.49802440  1
  Sb  Sb106  1  0.50037667  0.66518166  0.49974185  1
  Sb  Sb107  1  0.15966942  0.83543820  0.66586759  1
  Te  Te108  1  0.16409399  0.17206772  0.16863800  1
  Te  Te109  1  0.16806919  0.16789313  0.50022579  1
  Te  Te110  1  0.16739683  0.17253973  0.83005580  1
  Te  Te111  1  0.16552053  0.49330057  0.16593009  1
  Te  Te112  1  0.16613815  0.49778957  0.50151488  1
  Te  Te113  1  0.16793590  0.49501592  0.82898312  1
  Te  Te114  1  0.16903616  0.83412774  0.16730341  1
  Te  Te115  1  0.16741545  0.83896738  0.49966947  1
  Te  Te116  1  0.16659789  0.83268797  0.83379122  1
  Te  Te117  1  0.50416206  0.16448902  0.16778631  1
  Te  Te118  1  0.49926200  0.16751785  0.49973991  1
  Te  Te119  1  0.49942683  0.16732168  0.83041131  1
  Te  Te120  1  0.50309815  0.49829706  0.16716276  1
  Te  Te121  1  0.50220987  0.49844607  0.50140431  1
  Te  Te122  1  0.50803723  0.49554924  0.82906301  1
  Te  Te123  1  0.50471902  0.83669455  0.16518927  1
  Te  Te124  1  0.50651906  0.83732934  0.49994638  1
  Te  Te125  1  0.50551063  0.83842462  0.83782052  1
  Te  Te126  1  0.82874311  0.16621183  0.16661420  1
  Te  Te127  1  0.83453682  0.16777023  0.48960967  1
  Te  Te128  1  0.83349113  0.17557961  0.83704058  1
  Te  Te129  1  0.83424619  0.49909964  0.16984903  1
  Te  Te130  1  0.83206547  0.49852446  0.50518668  1
  Te  Te131  1  0.82982281  0.49970958  0.83390507  1
  Te  Te132  1  0.82653152  0.82913380  0.16911120  1
  Te  Te133  1  0.82633698  0.83345077  0.50811738  1
  Te  Te134  1  0.83149871  0.83255632  0.82975057  1
  Te  Te135  1  0.16384423  0.00136539  -0.00116187  1
  Te  Te136  1  0.16624228  0.00642480  0.33918361  1
  Te  Te137  1  0.15876093  0.00298383  0.66368027  1
  Te  Te138  1  0.16453477  0.33297160  -0.00009516  1
  Te  Te139  1  0.16477179  0.33053277  0.33469104  1
  Te  Te140  1  0.16560581  0.33066942  0.66379371  1
  Te  Te141  1  0.16124653  0.66643490  -0.00055644  1
  Te  Te142  1  0.16290650  0.66613224  0.33742836  1
  Te  Te143  1  0.16659150  0.66581555  0.66043979  1
  Te  Te144  1  0.50377282  -0.00180755  0.00280279  1
  Te  Te145  1  0.50347327  0.00365959  0.33237362  1
  Te  Te146  1  0.50445195  0.00027041  0.66614765  1
  Te  Te147  1  0.50025795  0.33332811  -0.00884310  1
  Te  Te148  1  0.49981669  0.33147064  0.33605781  1
  Te  Te149  1  0.50002742  0.33134359  0.66568855  1
  Te  Te150  1  0.50544829  0.67191012  -0.00104505  1
  Te  Te151  1  0.49859569  0.66143636  0.33429212  1
  Te  Te152  1  0.50114653  0.65837144  0.66612371  1
  Te  Te153  1  0.83062772  0.00185452  -0.00539065  1
  Te  Te154  1  0.82951295  0.00501367  0.33421602  1
  Te  Te155  1  0.83311258  0.00466418  0.67240681  1
  Te  Te156  1  0.83345965  0.33273795  0.00064587  1
  Te  Te157  1  0.83723834  0.32870960  0.33033603  1
  Te  Te158  1  0.82944808  0.33463831  0.66928864  1
  Te  Te159  1  0.83177041  0.66584492  -0.00231971  1
  Te  Te160  1  0.83861897  0.66732491  0.33075805  1
  Te  Te161  1  0.83229169  0.66495731  0.66699390  1
  Te  Te162  1  -0.00788357  0.15927521  0.00031269  1
  Te  Te163  1  0.00582951  0.17019948  0.33375597  1
  Te  Te164  1  0.00303655  0.16218519  0.66546539  1
  Te  Te165  1  -0.00808853  0.50546532  0.00352363  1
  Te  Te166  1  -0.00059642  0.49882253  0.33526507  1
  Te  Te167  1  0.00234285  0.50202952  0.66374086  1
  Te  Te168  1  0.00238723  0.83265050  -0.00511854  1
  Te  Te169  1  -0.00064860  0.82748334  0.33258360  1
  Te  Te170  1  -0.00601735  0.83187511  0.67035844  1
  Te  Te171  1  0.33169294  0.16576082  0.01023801  1
  Te  Te172  1  0.33531479  0.16640531  0.32699282  1
  Te  Te173  1  0.33417822  0.16037244  0.66784818  1
  Te  Te174  1  0.33270795  0.50159239  0.00027515  1
  Te  Te175  1  0.34132780  0.50555376  0.33337210  1
  Te  Te176  1  0.32332439  0.50199089  0.66729535  1
  Te  Te177  1  0.33963838  0.83296979  0.00739378  1
  Te  Te178  1  0.33444730  0.82872776  0.32747495  1
  Te  Te179  1  0.33353986  0.83979136  0.66660871  1
  Te  Te180  1  0.67179667  0.16384085  0.00717357  1
  Te  Te181  1  0.66348660  0.16512022  0.33193586  1
  Te  Te182  1  0.66335788  0.15986812  0.66496525  1
  Te  Te183  1  0.67218704  0.50216208  0.00624988  1
  Te  Te184  1  0.66434224  0.49999377  0.32919392  1
  Te  Te185  1  0.66942760  0.50026273  0.66707722  1
  Te  Te186  1  0.66500825  0.83249693  -0.00199838  1
  Te  Te187  1  0.66754294  0.83792589  0.33258203  1
  Te  Te188  1  0.66891881  0.83691395  0.67058303  1
  Te  Te189  1  0.00088135  -0.00361043  0.16404377  1
  Te  Te190  1  0.00225841  -0.00221888  0.50358209  1
  Te  Te191  1  -0.00276802  -0.00326929  0.83265392  1
  Te  Te192  1  -0.00307866  0.33699406  0.16887682  1
  Te  Te193  1  0.00295292  0.33935310  0.49566790  1
  Te  Te194  1  -0.00099046  0.33448870  0.83378837  1
  Te  Te195  1  -0.00443381  0.66193421  0.16469745  1
  Te  Te196  1  0.00260357  0.66378876  0.50254494  1
  Te  Te197  1  -0.00684713  0.66967963  0.83092286  1
  Te  Te198  1  0.33784166  -0.00021152  0.16682558  1
  Te  Te199  1  0.33453032  -0.00125105  0.50450300  1
  Te  Te200  1  0.33726058  -0.00001605  0.82853646  1
  Te  Te201  1  0.33236967  0.32846814  0.16646711  1
  Te  Te202  1  0.33190616  0.33340857  0.49988127  1
  Te  Te203  1  0.32609286  0.33395417  0.83427731  1
  Te  Te204  1  0.33130881  0.66977010  0.17216479  1
  Te  Te205  1  0.32576323  0.66931762  0.49515455  1
  Te  Te206  1  0.33145072  0.66823580  0.83542983  1
  Te  Te207  1  0.66580131  -0.00049400  0.16719342  1
  Te  Te208  1  0.66447692  -0.00078164  0.50075996  1
  Te  Te209  1  0.66804167  0.00133682  0.83526962  1
  Te  Te210  1  0.67127468  0.33557023  0.16629978  1
  Te  Te211  1  0.66309182  0.33861247  0.50465870  1
  Te  Te212  1  0.66991060  0.33228287  0.83046773  1
  Te  Te213  1  0.67149972  0.66404971  0.16743928  1
  Te  Te214  1  0.66656707  0.66585575  0.50334571  1
  Te  Te215  1  0.67018965  0.66582544  0.83227545  1
