# generated using pymatgen
data_AgSbTe2
_symmetry_space_group_name_H-M   'P 1'
_cell_length_a   18.36353638
_cell_length_b   18.37653055
_cell_length_c   18.36490286
_cell_angle_alpha   89.99983750
_cell_angle_beta   89.99548860
_cell_angle_gamma   90.00144667
_symmetry_Int_Tables_number   1
_chemical_formula_structural   AgSbTe2
_chemical_formula_sum   'Ag54 Sb54 Te108'
_cell_volume   6197.38497247
_cell_formula_units_Z   54
loop_
 _symmetry_equiv_pos_site_id
 _symmetry_equiv_pos_as_xyz
  1  'x, y, z'
loop_
 _atom_site_type_symbol
 _atom_site_label
 _atom_site_symmetry_multiplicity
 _atom_site_fract_x
 _atom_site_fract_y
 _atom_site_fract_z
 _atom_site_occupancy
  Ag  Ag0  1  0.14935131  0.33091738  0.18090237  1
  Ag  Ag1  1  0.15802132  0.16750237  0.33449288  1
  Ag  Ag2  1  0.33631245  0.66920447  0.67157227  1
  Ag  Ag3  1  0.65976134  0.32942361  0.66478444  1
  Ag  Ag4  1  0.50454286  0.16864751  0.67430620  1
  Ag  Ag5  1  0.16864876  0.83608937  0.00332450  1
  Ag  Ag6  1  0.66625630  0.48444833  0.50096197  1
  Ag  Ag7  1  0.49387168  0.01436383  0.83015888  1
  Ag  Ag8  1  0.00724122  0.32413743  0.31243898  1
  Ag  Ag9  1  0.00106865  0.01203010  0.65938267  1
  Ag  Ag10  1  0.00129768  0.17396866  0.83127809  1
  Ag  Ag11  1  0.00077839  0.48670513  0.83673308  1
  Ag  Ag12  1  0.16449195  0.01085326  0.49549512  1
  Ag  Ag13  1  0.16313396  0.48111378  0.33464999  1
  Ag  Ag14  1  0.34167326  0.16957736  0.83451264  1
  Ag  Ag15  1  0.49703247  0.84909999  0.67023085  1
  Ag  Ag16  1  0.16112041  0.32999996  0.49081742  1
  Ag  Ag17  1  0.34447234  0.49084629  0.83233606  1
  Ag  Ag18  1  0.65532048  0.01497897  0.66735871  1
  Ag  Ag19  1  0.67023956  0.32948112  0.34354399  1
  Ag  Ag20  1  0.84066537  0.33170744  0.15950776  1
  Ag  Ag21  1  0.49975948  0.32816680  0.82667997  1
  Ag  Ag22  1  0.15563605  0.33220647  0.83268639  1
  Ag  Ag23  1  -0.00091532  0.33117120  -0.00120483  1
  Ag  Ag24  1  0.84490519  0.00708017  0.49886728  1
  Ag  Ag25  1  0.50036711  0.16942074  -0.01206878  1
  Ag  Ag26  1  0.33793958  0.00135487  0.67355553  1
  Ag  Ag27  1  0.16494863  0.66314752  0.49681926  1
  Ag  Ag28  1  0.16513775  0.84573784  0.33261081  1
  Ag  Ag29  1  0.33080116  0.16626418  0.16635803  1
  Ag  Ag30  1  0.84249449  0.33129414  0.83823210  1
  Ag  Ag31  1  0.49700859  0.65687964  0.82964090  1
  Ag  Ag32  1  0.31869006  0.32621742  0.33361411  1
  Ag  Ag33  1  0.33428992  0.00558632  -0.00871836  1
  Ag  Ag34  1  0.49877247  0.48667371  0.67620090  1
  Ag  Ag35  1  0.83615239  0.17096163  0.00303349  1
  Ag  Ag36  1  0.84393214  0.16846840  0.32710567  1
  Ag  Ag37  1  0.32404665  0.01030907  0.33367471  1
  Ag  Ag38  1  -0.00107514  0.32844832  0.68482046  1
  Ag  Ag39  1  0.49637065  0.00446514  0.16075904  1
  Ag  Ag40  1  0.83465042  0.01502705  0.17009310  1
  Ag  Ag41  1  0.51239135  0.33195934  0.50768906  1
  Ag  Ag42  1  0.50172023  0.48804080  -0.00764984  1
  Ag  Ag43  1  0.83302439  0.65586686  0.83735037  1
  Ag  Ag44  1  0.67134763  0.16842467  0.50633532  1
  Ag  Ag45  1  0.00532023  0.01451998  0.33817540  1
  Ag  Ag46  1  0.65396850  0.16906012  0.82517678  1
  Ag  Ag47  1  -0.00003695  0.17205796  0.17955456  1
  Ag  Ag48  1  0.00341708  0.66135542  0.33341986  1
  Ag  Ag49  1  0.83512859  0.48730102  -0.00179589  1
  Ag  Ag50  1  0.33567751  0.84937353  0.83124318  1
  Ag  Ag51  1  0.83785552  0.65903498  0.16263008  1
  Ag  Ag52  1  -0.00164093  0.48271115  0.16334511  1
  Ag  Ag53  1  -0.00313971  0.16847553  0.49395495  1
  Sb  Sb54  1  0.49089381  0.83732260  0.33907659  1
  Sb  Sb55  1  0.33512006  0.32861421  0.66654692  1
  Sb  Sb56  1  0.83474974  0.32608758  0.50072818  1
  Sb  Sb57  1  0.84028519  0.66871712  0.49982669  1
  Sb  Sb58  1  0.84044223  0.84120349  0.33199742  1
  Sb  Sb59  1  0.32857798  0.49081612  0.16227683  1
  Sb  Sb60  1  0.16072377  0.66028842  0.17346537  1
  Sb  Sb61  1  0.49513587  0.65778821  0.50750872  1
  Sb  Sb62  1  0.33134443  0.84446896  0.16156559  1
  Sb  Sb63  1  0.00645726  0.83513837  0.83217462  1
  Sb  Sb64  1  0.16894658  0.66187488  0.82953228  1
  Sb  Sb65  1  0.16559978  0.49862336  0.00091540  1
  Sb  Sb66  1  0.67012017  0.16852667  0.16766850  1
  Sb  Sb67  1  0.32547040  0.66541620  0.33815917  1
  Sb  Sb68  1  0.33067206  0.83643509  0.50628412  1
  Sb  Sb69  1  0.66029355  0.66180402  0.66812980  1
  Sb  Sb70  1  0.49746310  0.16845876  0.33394214  1
  Sb  Sb71  1  0.82873177  0.83738531  0.66940395  1
  Sb  Sb72  1  0.82968697  0.49555033  0.67133864  1
  Sb  Sb73  1  0.67339005  0.49515779  0.16934264  1
  Sb  Sb74  1  0.16724386  0.16745852  0.00266796  1
  Sb  Sb75  1  0.33090932  0.16790400  0.50016483  1
  Sb  Sb76  1  0.17219443  0.83633158  0.66566800  1
  Sb  Sb77  1  0.00280904  0.83984961  0.16829957  1
  Sb  Sb78  1  0.66514913  0.84149402  0.50227070  1
  Sb  Sb79  1  0.16632512  0.01008856  0.17191415  1
  Sb  Sb80  1  0.66910915  0.00845480  0.33916839  1
  Sb  Sb81  1  -0.00231670  0.48813869  0.49989105  1
  Sb  Sb82  1  0.65880686  0.83890734  0.83135545  1
  Sb  Sb83  1  0.83227081  0.16868757  0.66856731  1
  Sb  Sb84  1  0.33137713  0.32688036  -0.00211098  1
  Sb  Sb85  1  0.84017562  0.83658788  -0.00092071  1
  Sb  Sb86  1  0.49384711  0.84001182  -0.00922225  1
  Sb  Sb87  1  0.16621456  0.16741040  0.66250937  1
  Sb  Sb88  1  0.66863475  0.66266585  -0.00446024  1
  Sb  Sb89  1  0.67632326  0.65696454  0.33552431  1
  Sb  Sb90  1  0.17154530  0.00741569  0.82962566  1
  Sb  Sb91  1  0.67128784  0.33071146  -0.00536310  1
  Sb  Sb92  1  0.66797951  0.83716201  0.16841363  1
  Sb  Sb93  1  -0.00018095  0.65937513  0.00338982  1
  Sb  Sb94  1  0.00422400  0.00998612  0.00194609  1
  Sb  Sb95  1  0.50173181  0.32753213  0.16537718  1
  Sb  Sb96  1  0.00401466  0.84512271  0.49863241  1
  Sb  Sb97  1  0.00374682  0.66159382  0.66437917  1
  Sb  Sb98  1  0.49625409  0.00932038  0.50457430  1
  Sb  Sb99  1  0.33368626  0.66818057  -0.00731246  1
  Sb  Sb100  1  0.84306579  0.48801829  0.32823059  1
  Sb  Sb101  1  0.66208984  0.00506592  -0.00435029  1
  Sb  Sb102  1  0.66528005  0.48984796  0.82882797  1
  Sb  Sb103  1  0.50211217  0.66937462  0.16045004  1
  Sb  Sb104  1  0.83100674  0.00975136  0.83319415  1
  Sb  Sb105  1  0.33412195  0.49467881  0.50477346  1
  Sb  Sb106  1  0.17086192  0.49591416  0.66400667  1
  Sb  Sb107  1  0.49489397  0.49661153  0.33158435  1
  Te  Te108  1  0.16627961  0.17213817  0.16868843  1
  Te  Te109  1  0.16502372  0.16916072  0.49734453  1
  Te  Te110  1  0.16339705  0.17026247  0.83392499  1
  Te  Te111  1  0.16050113  0.49274129  0.16860694  1
  Te  Te112  1  0.16547617  0.49637054  0.49687381  1
  Te  Te113  1  0.16196700  0.49684229  0.83347564  1
  Te  Te114  1  0.16787475  0.83026800  0.16865351  1
  Te  Te115  1  0.16703924  0.83112996  0.49529138  1
  Te  Te116  1  0.17423294  0.83120923  0.83428023  1
  Te  Te117  1  0.49793352  0.16247820  0.16536001  1
  Te  Te118  1  0.50236180  0.17334736  0.50236430  1
  Te  Te119  1  0.49833682  0.16856227  0.83288086  1
  Te  Te120  1  0.49980895  0.50234861  0.15853185  1
  Te  Te121  1  0.50294192  0.49290241  0.49995648  1
  Te  Te122  1  0.50394668  0.49816336  0.83473752  1
  Te  Te123  1  0.50017311  0.83926272  0.16517907  1
  Te  Te124  1  0.49856214  0.83004682  0.50774703  1
  Te  Te125  1  0.49413592  0.82878570  0.82816280  1
  Te  Te126  1  0.83168688  0.17119935  0.16556412  1
  Te  Te127  1  0.83448767  0.16393859  0.49853043  1
  Te  Te128  1  0.84064235  0.16896180  0.83889050  1
  Te  Te129  1  0.83847008  0.49800336  0.16231388  1
  Te  Te130  1  0.82741920  0.50365138  0.49932386  1
  Te  Te131  1  0.83168954  0.49690540  0.83688405  1
  Te  Te132  1  0.83451913  0.82762863  0.16578596  1
  Te  Te133  1  0.83340052  0.84317684  0.50069804  1
  Te  Te134  1  0.83275430  0.83063902  0.83513764  1
  Te  Te135  1  0.17223667  -0.00264142  0.00086715  1
  Te  Te136  1  0.16488033  0.00508111  0.33330576  1
  Te  Te137  1  0.16353518  -0.00032352  0.66081733  1
  Te  Te138  1  0.16510718  0.33424875  -0.00800457  1
  Te  Te139  1  0.16394274  0.32625191  0.33485211  1
  Te  Te140  1  0.16355936  0.33336707  0.67364634  1
  Te  Te141  1  0.16757569  0.67163357  0.00148514  1
  Te  Te142  1  0.16322471  0.67082501  0.33752911  1
  Te  Te143  1  0.17224047  0.66704855  0.66083147  1
  Te  Te144  1  0.49557816  0.00444285  -0.00188264  1
  Te  Te145  1  0.49781210  -0.00075802  0.33169053  1
  Te  Te146  1  0.49694280  0.00656134  0.66675563  1
  Te  Te147  1  0.49990639  0.32997343  -0.00025488  1
  Te  Te148  1  0.50715190  0.33556979  0.33546607  1
  Te  Te149  1  0.49667947  0.32957268  0.66422336  1
  Te  Te150  1  0.50110112  0.66800448  -0.00701269  1
  Te  Te151  1  0.50041593  0.66756323  0.33173714  1
  Te  Te152  1  0.49555580  0.66006562  0.67036897  1
  Te  Te153  1  0.83299966  0.00435286  0.00596789  1
  Te  Te154  1  0.83501834  0.00449915  0.33201824  1
  Te  Te155  1  0.84162463  -0.00077341  0.66458042  1
  Te  Te156  1  0.83205668  0.33084944  -0.00120343  1
  Te  Te157  1  0.83513292  0.32825553  0.33448259  1
  Te  Te158  1  0.83704583  0.33469984  0.67447246  1
  Te  Te159  1  0.83467765  0.66752616  -0.00111283  1
  Te  Te160  1  0.84028525  0.66913820  0.33125254  1
  Te  Te161  1  0.83327360  0.66831157  0.67079501  1
  Te  Te162  1  -0.00022137  0.16949741  -0.00553031  1
  Te  Te163  1  -0.00088064  0.16926967  0.33496189  1
  Te  Te164  1  0.00059257  0.16952621  0.66843907  1
  Te  Te165  1  -0.00174637  0.49644644  -0.00011153  1
  Te  Te166  1  0.00434644  0.49929427  0.33290517  1
  Te  Te167  1  -0.00047155  0.49528014  0.67242084  1
  Te  Te168  1  0.00860634  0.83532783  -0.00015880  1
  Te  Te169  1  0.00569911  0.82662469  0.33424302  1
  Te  Te170  1  -0.00014844  0.83476199  0.66634389  1
  Te  Te171  1  0.33371900  0.16401287  0.00026518  1
  Te  Te172  1  0.33362808  0.16761726  0.33343466  1
  Te  Te173  1  0.33542422  0.16197439  0.66915030  1
  Te  Te174  1  0.33641603  0.49985061  -0.00611424  1
  Te  Te175  1  0.32540289  0.49644144  0.33155914  1
  Te  Te176  1  0.33794365  0.49992571  0.67167147  1
  Te  Te177  1  0.32876347  0.83862388  -0.00570591  1
  Te  Te178  1  0.32641076  0.83452780  0.33295597  1
  Te  Te179  1  0.33724209  0.83729538  0.67140624  1
  Te  Te180  1  0.66471213  0.16650759  -0.00365261  1
  Te  Te181  1  0.66773137  0.17027455  0.33838393  1
  Te  Te182  1  0.66845787  0.17005676  0.66700404  1
  Te  Te183  1  0.66675650  0.49825657  0.00150135  1
  Te  Te184  1  0.66623993  0.49302058  0.33835174  1
  Te  Te185  1  0.66068160  0.49495397  0.66162056  1
  Te  Te186  1  0.66708762  0.83425814  0.00012268  1
  Te  Te187  1  0.66477910  0.83196355  0.33521617  1
  Te  Te188  1  0.65904620  0.83692423  0.66681866  1
  Te  Te189  1  -0.00386308  0.00702821  0.17019470  1
  Te  Te190  1  0.00390423  0.00588569  0.49812154  1
  Te  Te191  1  0.00130941  0.00060231  0.83093239  1
  Te  Te192  1  -0.00365288  0.32759872  0.15796055  1
  Te  Te193  1  0.00099557  0.32892767  0.49964761  1
  Te  Te194  1  -0.00209535  0.33201762  0.83963061  1
  Te  Te195  1  -0.00354565  0.66929564  0.17027828  1
  Te  Te196  1  0.00410547  0.66459204  0.49793045  1
  Te  Te197  1  -0.00290055  0.66665815  0.83265333  1
  Te  Te198  1  0.33365121  0.00649923  0.17259592  1
  Te  Te199  1  0.32889693  0.00091078  0.49456731  1
  Te  Te200  1  0.33398284  0.00650188  0.83156552  1
  Te  Te201  1  0.33391840  0.32740997  0.17071333  1
  Te  Te202  1  0.32338135  0.33302915  0.49508360  1
  Te  Te203  1  0.34109821  0.33061668  0.83242131  1
  Te  Te204  1  0.33497741  0.66632534  0.16688708  1
  Te  Te205  1  0.32802398  0.66515507  0.50655437  1
  Te  Te206  1  0.33536177  0.65406705  0.83016186  1
  Te  Te207  1  0.66903128  0.00064909  0.16794182  1
  Te  Te208  1  0.66488730  0.00674009  0.50685173  1
  Te  Te209  1  0.66197793  0.00599679  0.82743642  1
  Te  Te210  1  0.67081193  0.33285719  0.17388025  1
  Te  Te211  1  0.67117288  0.32810651  0.50471860  1
  Te  Te212  1  0.65852736  0.32729712  0.82923394  1
  Te  Te213  1  0.67340623  0.66680127  0.16709828  1
  Te  Te214  1  0.66797895  0.66797096  0.50071781  1
  Te  Te215  1  0.66866812  0.66914151  0.83132905  1
