# generated using pymatgen
data_AgSbTe2
_symmetry_space_group_name_H-M   'P 1'
_cell_length_a   18.33268219
_cell_length_b   18.34052714
_cell_length_c   18.33725413
_cell_angle_alpha   89.99614108
_cell_angle_beta   89.99825185
_cell_angle_gamma   89.99762409
_symmetry_Int_Tables_number   1
_chemical_formula_structural   AgSbTe2
_chemical_formula_sum   'Ag54 Sb54 Te108'
_cell_volume   6165.55428171
_cell_formula_units_Z   54
loop_
 _symmetry_equiv_pos_site_id
 _symmetry_equiv_pos_as_xyz
  1  'x, y, z'
loop_
 _atom_site_type_symbol
 _atom_site_label
 _atom_site_symmetry_multiplicity
 _atom_site_fract_x
 _atom_site_fract_y
 _atom_site_fract_z
 _atom_site_occupancy
  Ag  Ag0  1  0.49618123  0.83042163  0.32869762  1
  Ag  Ag1  1  0.34049265  0.66511661  0.00109330  1
  Ag  Ag2  1  0.49597557  0.17069339  0.34330537  1
  Ag  Ag3  1  0.15989801  0.83541161  0.66092149  1
  Ag  Ag4  1  0.49890358  -0.00643440  0.16575984  1
  Ag  Ag5  1  0.00739971  0.49562848  0.49842287  1
  Ag  Ag6  1  0.65346039  0.16186920  0.50159224  1
  Ag  Ag7  1  0.17488444  0.49944734  0.00774072  1
  Ag  Ag8  1  0.00047820  0.66774149  0.66480893  1
  Ag  Ag9  1  0.17029348  0.16552285  0.66180398  1
  Ag  Ag10  1  0.49937397  0.49867922  0.66001915  1
  Ag  Ag11  1  -0.00004376  0.33499040  0.65974159  1
  Ag  Ag12  1  -0.00046759  0.00728953  0.34368912  1
  Ag  Ag13  1  0.17326771  0.16956458  -0.00352757  1
  Ag  Ag14  1  0.49174788  0.17209801  0.65851782  1
  Ag  Ag15  1  0.83283974  0.33822803  0.82889552  1
  Ag  Ag16  1  0.65383908  0.51008169  0.16611537  1
  Ag  Ag17  1  0.33174858  0.34494913  0.33906086  1
  Ag  Ag18  1  0.65901605  0.83628749  0.49875674  1
  Ag  Ag19  1  0.66836379  -0.00066327  0.66067388  1
  Ag  Ag20  1  0.49286449  0.16618495  -0.00036002  1
  Ag  Ag21  1  0.49095577  0.50341371  0.33575806  1
  Ag  Ag22  1  0.49382493  0.50908384  0.00656979  1
  Ag  Ag23  1  0.00588636  0.33315824  0.34288503  1
  Ag  Ag24  1  0.33798905  0.17358905  0.50203114  1
  Ag  Ag25  1  0.65613285  0.82791632  0.17054709  1
  Ag  Ag26  1  0.65473930  0.66753399  0.00362999  1
  Ag  Ag27  1  0.33795208  0.66714172  0.65733842  1
  Ag  Ag28  1  0.00304624  0.16801863  0.50063038  1
  Ag  Ag29  1  0.83116546  0.66291925  0.83314084  1
  Ag  Ag30  1  0.33870776  0.82447628  0.49712327  1
  Ag  Ag31  1  0.83814235  -0.00180262  0.50346478  1
  Ag  Ag32  1  0.49978256  0.66079008  0.83468465  1
  Ag  Ag33  1  -0.00228474  -0.00311060  0.65811737  1
  Ag  Ag34  1  0.00105617  0.66669037  -0.00258925  1
  Ag  Ag35  1  0.17816967  0.49708110  0.33160963  1
  Ag  Ag36  1  0.83260809  0.66537217  0.16028620  1
  Ag  Ag37  1  0.17099088  0.33377921  0.49960321  1
  Ag  Ag38  1  0.49556586  0.66098482  0.50338528  1
  Ag  Ag39  1  0.33916069  0.82431126  0.17184210  1
  Ag  Ag40  1  0.00500707  -0.00162197  0.00223978  1
  Ag  Ag41  1  0.33694427  0.49976478  0.49343555  1
  Ag  Ag42  1  0.33715873  0.16787344  0.82428904  1
  Ag  Ag43  1  0.49573731  0.82539816  0.00807696  1
  Ag  Ag44  1  0.33798979  0.50667377  0.18022651  1
  Ag  Ag45  1  0.84084086  0.82812629  0.66251653  1
  Ag  Ag46  1  0.49941636  0.33902463  0.82668160  1
  Ag  Ag47  1  0.00104495  0.83544871  0.50413856  1
  Ag  Ag48  1  0.33757913  0.65757905  0.33779402  1
  Ag  Ag49  1  0.00139459  0.16741758  0.17480058  1
  Ag  Ag50  1  0.49391560  0.33627552  0.50185768  1
  Ag  Ag51  1  0.33499006  -0.00048235  0.00300622  1
  Ag  Ag52  1  0.00371143  0.50051535  0.17246023  1
  Ag  Ag53  1  0.83590648  0.50553626  0.66579716  1
  Sb  Sb54  1  0.16734893  0.66376615  0.16539814  1
  Sb  Sb55  1  0.83587426  -0.00153544  0.82627428  1
  Sb  Sb56  1  0.66683366  -0.00134965  0.33935330  1
  Sb  Sb57  1  0.33339638  0.33625162  0.65887496  1
  Sb  Sb58  1  0.83101862  0.66950321  0.50287249  1
  Sb  Sb59  1  0.33129464  0.16794137  0.16936981  1
  Sb  Sb60  1  0.17023796  0.66443841  0.83196332  1
  Sb  Sb61  1  0.16151828  0.00491735  0.50034475  1
  Sb  Sb62  1  0.49912827  0.67024208  0.16402555  1
  Sb  Sb63  1  0.33594715  0.83375897  0.83198172  1
  Sb  Sb64  1  0.66466394  0.16410337  0.17094484  1
  Sb  Sb65  1  0.83150689  0.82998616  -0.00387907  1
  Sb  Sb66  1  0.66435266  0.50245995  0.83630921  1
  Sb  Sb67  1  0.17203094  0.82860220  0.33981070  1
  Sb  Sb68  1  0.83539179  0.16675960  0.66466507  1
  Sb  Sb69  1  0.00184494  0.83180442  0.17111335  1
  Sb  Sb70  1  0.33255027  -0.00078389  0.33112217  1
  Sb  Sb71  1  -0.00049687  0.50074032  0.82995053  1
  Sb  Sb72  1  -0.00073049  0.83123253  0.82541779  1
  Sb  Sb73  1  0.83008453  0.83175645  0.33939104  1
  Sb  Sb74  1  0.16875875  0.17198790  0.33756410  1
  Sb  Sb75  1  0.83205670  -0.00615088  0.17029188  1
  Sb  Sb76  1  0.66218676  0.33407265  0.33625455  1
  Sb  Sb77  1  0.49944584  0.83192910  0.66257467  1
  Sb  Sb78  1  0.17002694  0.00188774  0.16557653  1
  Sb  Sb79  1  0.83726975  0.33122139  0.50430846  1
  Sb  Sb80  1  0.16813723  0.49883235  0.66247254  1
  Sb  Sb81  1  0.66077286  0.50240353  0.49635861  1
  Sb  Sb82  1  0.49791060  0.33496517  0.17039242  1
  Sb  Sb83  1  0.66204439  0.33885259  0.00010984  1
  Sb  Sb84  1  0.65809955  0.16743482  0.82753025  1
  Sb  Sb85  1  0.17437124  0.66072559  0.50175341  1
  Sb  Sb86  1  0.16668153  0.33504743  0.17250615  1
  Sb  Sb87  1  0.66229110  -0.00544381  -0.00231488  1
  Sb  Sb88  1  0.83693022  0.34073380  0.16335336  1
  Sb  Sb89  1  0.66682757  0.33122262  0.66461274  1
  Sb  Sb90  1  0.33488607  0.33575654  0.00366375  1
  Sb  Sb91  1  0.83429945  0.50110207  0.33719808  1
  Sb  Sb92  1  0.17050798  0.33288507  0.82722955  1
  Sb  Sb93  1  0.83585210  0.16627977  -0.00095819  1
  Sb  Sb94  1  0.33710626  0.49742869  0.83136623  1
  Sb  Sb95  1  0.17153060  0.83183443  -0.00228144  1
  Sb  Sb96  1  0.00223732  0.33568927  -0.00176689  1
  Sb  Sb97  1  0.66454866  0.83104764  0.83103995  1
  Sb  Sb98  1  0.83276155  0.50415702  -0.00229023  1
  Sb  Sb99  1  0.50159561  0.00059464  0.49700979  1
  Sb  Sb100  1  0.65708091  0.66752279  0.32797704  1
  Sb  Sb101  1  0.83436122  0.16673047  0.33593969  1
  Sb  Sb102  1  0.49853521  -0.00019213  0.83669957  1
  Sb  Sb103  1  0.00442146  0.16770628  0.82860639  1
  Sb  Sb104  1  0.66535158  0.66944768  0.66846861  1
  Sb  Sb105  1  0.00542873  0.66356368  0.33763035  1
  Sb  Sb106  1  0.16736037  0.00142003  0.83272772  1
  Sb  Sb107  1  0.33236674  -0.00077749  0.66661379  1
  Te  Te108  1  0.16100278  0.16797707  0.16114067  1
  Te  Te109  1  0.16423222  0.17162617  0.50163004  1
  Te  Te110  1  0.17393640  0.16791124  0.83425282  1
  Te  Te111  1  0.16415467  0.49903231  0.16751994  1
  Te  Te112  1  0.16632158  0.49487829  0.49858163  1
  Te  Te113  1  0.16746393  0.49757404  0.84584105  1
  Te  Te114  1  0.17549027  0.83393044  0.16757637  1
  Te  Te115  1  0.16764218  0.83233704  0.50298457  1
  Te  Te116  1  0.16757742  0.83245585  0.82242232  1
  Te  Te117  1  0.50105222  0.16527462  0.16288156  1
  Te  Te118  1  0.49801379  0.16391461  0.50041663  1
  Te  Te119  1  0.49631289  0.16729189  0.83569072  1
  Te  Te120  1  0.49730361  0.49813196  0.16617648  1
  Te  Te121  1  0.49967227  0.49992038  0.49909622  1
  Te  Te122  1  0.50028172  0.49959018  0.83117726  1
  Te  Te123  1  0.49754101  0.83246619  0.16719993  1
  Te  Te124  1  0.49848637  0.83445304  0.49830549  1
  Te  Te125  1  0.50003595  0.82727016  0.84050232  1
  Te  Te126  1  0.83918056  0.16574595  0.16676972  1
  Te  Te127  1  0.83991604  0.16209533  0.50015565  1
  Te  Te128  1  0.83060846  0.17217226  0.83335697  1
  Te  Te129  1  0.84018702  0.50491158  0.16687045  1
  Te  Te130  1  0.83232580  0.50060815  0.50544064  1
  Te  Te131  1  0.83219907  0.50148633  0.82694678  1
  Te  Te132  1  0.83069106  0.82716120  0.16696150  1
  Te  Te133  1  0.83460529  0.83545490  0.50363407  1
  Te  Te134  1  0.83197363  0.82720911  0.82498895  1
  Te  Te135  1  0.16797013  0.00228575  -0.00055554  1
  Te  Te136  1  0.15851241  0.00031697  0.33169367  1
  Te  Te137  1  0.16222194  0.00265398  0.66690501  1
  Te  Te138  1  0.16714047  0.33205919  -0.00232553  1
  Te  Te139  1  0.16612253  0.33739486  0.33840629  1
  Te  Te140  1  0.16166853  0.33046725  0.66194921  1
  Te  Te141  1  0.16146699  0.66393207  -0.00157932  1
  Te  Te142  1  0.17548289  0.65856811  0.33320201  1
  Te  Te143  1  0.16409852  0.66797763  0.66792742  1
  Te  Te144  1  0.49843349  0.00237198  0.00336133  1
  Te  Te145  1  0.49967706  -0.00064131  0.32726984  1
  Te  Te146  1  0.50106476  0.00387269  0.66818799  1
  Te  Te147  1  0.49974882  0.32979371  -0.00434815  1
  Te  Te148  1  0.49721106  0.33243248  0.33719259  1
  Te  Te149  1  0.49994218  0.33279838  0.66481525  1
  Te  Te150  1  0.49876209  0.66516518  -0.00031132  1
  Te  Te151  1  0.49554184  0.66650288  0.33907457  1
  Te  Te152  1  0.49831472  0.66637823  0.66686624  1
  Te  Te153  1  0.83700765  -0.00158756  -0.00080267  1
  Te  Te154  1  0.84122922  -0.00088974  0.33836643  1
  Te  Te155  1  0.83685718  -0.00173895  0.66414338  1
  Te  Te156  1  0.83211373  0.33479688  -0.00982154  1
  Te  Te157  1  0.84178693  0.33396791  0.33229945  1
  Te  Te158  1  0.83710999  0.33752412  0.67002356  1
  Te  Te159  1  0.84134203  0.66680803  -0.00374903  1
  Te  Te160  1  0.83248180  0.66673418  0.32743302  1
  Te  Te161  1  0.83249238  0.66631161  0.66839694  1
  Te  Te162  1  0.00239553  0.16622036  -0.00151498  1
  Te  Te163  1  0.00158823  0.16813246  0.33473571  1
  Te  Te164  1  0.00229419  0.16385072  0.66448991  1
  Te  Te165  1  0.00036304  0.50232636  0.00316544  1
  Te  Te166  1  -0.00044799  0.49888086  0.33573397  1
  Te  Te167  1  0.00198281  0.50313183  0.66324064  1
  Te  Te168  1  0.00226358  0.83143075  0.00151806  1
  Te  Te169  1  0.00215391  0.83340419  0.34029566  1
  Te  Te170  1  0.00010407  0.83280172  0.66349078  1
  Te  Te171  1  0.33272094  0.16805824  0.00614214  1
  Te  Te172  1  0.33577741  0.16657659  0.33761116  1
  Te  Te173  1  0.33213654  0.16587429  0.66348409  1
  Te  Te174  1  0.33450018  0.50177372  -0.00243558  1
  Te  Te175  1  0.33527618  0.50090636  0.33557190  1
  Te  Te176  1  0.33615462  0.50568334  0.66382953  1
  Te  Te177  1  0.33454502  0.83242643  -0.00080018  1
  Te  Te178  1  0.33629606  0.83283252  0.33505371  1
  Te  Te179  1  0.33116661  0.83076536  0.66355770  1
  Te  Te180  1  0.66207721  0.16453234  0.00134481  1
  Te  Te181  1  0.65983805  0.16632490  0.33876766  1
  Te  Te182  1  0.66453385  0.16285665  0.66079263  1
  Te  Te183  1  0.66268263  0.50565817  0.00648723  1
  Te  Te184  1  0.66297123  0.49972158  0.32646021  1
  Te  Te185  1  0.66219393  0.50060436  0.66522388  1
  Te  Te186  1  0.66296694  0.82946511  0.00367839  1
  Te  Te187  1  0.66099715  0.83391598  0.33475808  1
  Te  Te188  1  0.66734283  0.83713533  0.66127256  1
  Te  Te189  1  -0.00184743  0.00035739  0.16152189  1
  Te  Te190  1  -0.00018881  -0.00044280  0.50148202  1
  Te  Te191  1  -0.00067625  -0.00014247  0.84157557  1
  Te  Te192  1  -0.00061105  0.33395368  0.16847376  1
  Te  Te193  1  -0.00267818  0.33435465  0.50171544  1
  Te  Te194  1  -0.00274848  0.33344875  0.82614004  1
  Te  Te195  1  -0.00275585  0.66501063  0.16766414  1
  Te  Te196  1  -0.00150645  0.66682993  0.50390033  1
  Te  Te197  1  -0.00302629  0.66627901  0.83156118  1
  Te  Te198  1  0.33768223  -0.00013728  0.16311879  1
  Te  Te199  1  0.33208048  -0.00069187  0.50002918  1
  Te  Te200  1  0.33386206  0.00703165  0.84158743  1
  Te  Te201  1  0.33330281  0.34174771  0.17626936  1
  Te  Te202  1  0.33427915  0.33376636  0.49896129  1
  Te  Te203  1  0.33884203  0.32752273  0.83305345  1
  Te  Te204  1  0.33282396  0.66552923  0.16159717  1
  Te  Te205  1  0.33580189  0.66551870  0.50036069  1
  Te  Te206  1  0.33799753  0.66620008  0.83826349  1
  Te  Te207  1  0.66364891  -0.00519240  0.16708012  1
  Te  Te208  1  0.66986952  -0.00064157  0.50232835  1
  Te  Te209  1  0.66865159  -0.00047152  0.82432178  1
  Te  Te210  1  0.67018319  0.33826521  0.16756342  1
  Te  Te211  1  0.66164714  0.32831598  0.49955385  1
  Te  Te212  1  0.66378301  0.33390203  0.83276560  1
  Te  Te213  1  0.66980351  0.66789603  0.16367915  1
  Te  Te214  1  0.66111154  0.67146422  0.49954950  1
  Te  Te215  1  0.66619919  0.66740093  0.84075654  1
