# generated using pymatgen
data_AgSbTe2
_symmetry_space_group_name_H-M   'P 1'
_cell_length_a   18.33233453
_cell_length_b   18.34019582
_cell_length_c   18.34017945
_cell_angle_alpha   89.99750458
_cell_angle_beta   90.00099136
_cell_angle_gamma   89.99845156
_symmetry_Int_Tables_number   1
_chemical_formula_structural   AgSbTe2
_chemical_formula_sum   'Ag54 Sb54 Te108'
_cell_volume   6166.30954193
_cell_formula_units_Z   54
loop_
 _symmetry_equiv_pos_site_id
 _symmetry_equiv_pos_as_xyz
  1  'x, y, z'
loop_
 _atom_site_type_symbol
 _atom_site_label
 _atom_site_symmetry_multiplicity
 _atom_site_fract_x
 _atom_site_fract_y
 _atom_site_fract_z
 _atom_site_occupancy
  Ag  Ag0  1  0.67741169  0.17058400  0.83601191  1
  Ag  Ag1  1  -0.00493688  0.33374275  0.67526300  1
  Ag  Ag2  1  0.83666052  0.32879895  0.49395017  1
  Ag  Ag3  1  -0.00357109  0.49436235  0.84000233  1
  Ag  Ag4  1  0.15397699  0.49181021  0.32649383  1
  Ag  Ag5  1  -0.00313841  0.33373686  -0.00339689  1
  Ag  Ag6  1  0.83273135  0.16955894  -0.00440805  1
  Ag  Ag7  1  0.15583517  0.01119229  0.49855750  1
  Ag  Ag8  1  0.67704000  0.32612717  0.68088733  1
  Ag  Ag9  1  0.32569838  0.66727833  0.67112393  1
  Ag  Ag10  1  0.50466984  0.33638169  0.16369257  1
  Ag  Ag11  1  0.15574352  0.17135126  -0.00508827  1
  Ag  Ag12  1  0.67738009  0.48854947  0.83796012  1
  Ag  Ag13  1  0.50313129  0.83143613  0.66931246  1
  Ag  Ag14  1  -0.00104880  0.49841700  0.50084194  1
  Ag  Ag15  1  0.66877244  0.00635936  0.67680324  1
  Ag  Ag16  1  -0.00090860  0.17024934  0.15733621  1
  Ag  Ag17  1  0.83358267  0.49042886  0.00197569  1
  Ag  Ag18  1  0.67435566  0.33113511  0.32294571  1
  Ag  Ag19  1  0.67477109  0.33285663  -0.00030077  1
  Ag  Ag20  1  0.66489436  0.83831147  0.16260664  1
  Ag  Ag21  1  0.51013962  0.17344740  -0.00001111  1
  Ag  Ag22  1  -0.00245383  0.17541326  0.83637656  1
  Ag  Ag23  1  0.15708970  0.33003733  0.49575767  1
  Ag  Ag24  1  0.15523106  0.17123050  0.67655010  1
  Ag  Ag25  1  0.00082155  0.65962811  0.67415382  1
  Ag  Ag26  1  0.83203763  0.00443679  0.83435167  1
  Ag  Ag27  1  0.33845829  0.49853355  0.16406857  1
  Ag  Ag28  1  0.16095379  0.33044070  0.84388709  1
  Ag  Ag29  1  0.50803680  0.49463570  0.00240773  1
  Ag  Ag30  1  0.83299794  0.83812385  -0.00001632  1
  Ag  Ag31  1  0.50096298  0.66685453  0.84227924  1
  Ag  Ag32  1  0.66841094  0.01001179  0.32450141  1
  Ag  Ag33  1  0.32734080  0.16349838  0.83812231  1
  Ag  Ag34  1  0.83338922  0.33076562  0.16577577  1
  Ag  Ag35  1  0.83665401  0.16859981  0.67740127  1
  Ag  Ag36  1  0.83565255  0.00935020  0.50504831  1
  Ag  Ag37  1  0.50286230  0.65585505  0.16042183  1
  Ag  Ag38  1  0.00155531  0.83029396  0.83213441  1
  Ag  Ag39  1  0.33140537  0.83729930  0.83424310  1
  Ag  Ag40  1  -0.00070510  0.66091151  0.32615705  1
  Ag  Ag41  1  -0.00701856  0.65266527  -0.00299886  1
  Ag  Ag42  1  0.66754363  0.00875754  -0.00099833  1
  Ag  Ag43  1  0.15464816  0.48948668  0.00365076  1
  Ag  Ag44  1  0.34230926  0.00384222  -0.00177691  1
  Ag  Ag45  1  0.15705473  0.17515761  0.33249221  1
  Ag  Ag46  1  -0.00101587  0.82767395  0.50956420  1
  Ag  Ag47  1  0.83630644  0.17250999  0.33147527  1
  Ag  Ag48  1  0.50351757  0.82619384  0.33017694  1
  Ag  Ag49  1  0.15667987  0.33235480  0.16310224  1
  Ag  Ag50  1  0.83468636  0.48954505  0.32691749  1
  Ag  Ag51  1  0.67021594  0.65568489  -0.00021355  1
  Ag  Ag52  1  0.50344355  0.00181277  0.16311581  1
  Ag  Ag53  1  0.50529955  0.50124116  0.32349346  1
  Sb  Sb54  1  0.67191341  0.16727012  0.15807794  1
  Sb  Sb55  1  0.16681860  0.83354107  0.33513031  1
  Sb  Sb56  1  0.66340875  0.49749881  0.15824459  1
  Sb  Sb57  1  0.16115462  0.83605250  -0.00131158  1
  Sb  Sb58  1  0.66845342  0.83626827  0.83907568  1
  Sb  Sb59  1  0.50030433  0.66555941  0.49958916  1
  Sb  Sb60  1  0.66927569  0.16711419  0.50428753  1
  Sb  Sb61  1  0.32687190  0.49887317  0.49565638  1
  Sb  Sb62  1  0.32668277  0.16637379  0.50563995  1
  Sb  Sb63  1  -0.00621040  0.83499829  0.16212403  1
  Sb  Sb64  1  0.50666452  0.16980404  0.32296696  1
  Sb  Sb65  1  0.82964033  0.83393853  0.33014247  1
  Sb  Sb66  1  0.83702513  0.49034043  0.67233157  1
  Sb  Sb67  1  -0.00413899  0.33513471  0.33110373  1
  Sb  Sb68  1  0.67065513  0.83612452  0.49782168  1
  Sb  Sb69  1  0.33002393  0.17160255  0.15989172  1
  Sb  Sb70  1  0.33178003  0.33344126  0.33016431  1
  Sb  Sb71  1  -0.00377592  0.00586797  0.66716596  1
  Sb  Sb72  1  0.33518725  0.66759570  -0.00311609  1
  Sb  Sb73  1  0.33024750  0.33015583  0.00155284  1
  Sb  Sb74  1  0.33637579  -0.00201317  0.67316145  1
  Sb  Sb75  1  0.83732130  0.32727485  0.83906997  1
  Sb  Sb76  1  -0.00461821  0.00063236  0.33585274  1
  Sb  Sb77  1  0.16804411  0.65763701  0.16469274  1
  Sb  Sb78  1  0.16228158  0.49370057  0.66911558  1
  Sb  Sb79  1  0.16182637  0.00774889  0.83251671  1
  Sb  Sb80  1  0.83099569  0.65898812  0.16212812  1
  Sb  Sb81  1  0.16517684  0.83803183  0.66786659  1
  Sb  Sb82  1  0.00111699  0.49324096  0.16426016  1
  Sb  Sb83  1  0.16179316  0.66317715  0.50017573  1
  Sb  Sb84  1  0.66847157  0.66241878  0.32542804  1
  Sb  Sb85  1  -0.00294989  0.17260246  0.50257300  1
  Sb  Sb86  1  0.33055040  0.49849231  0.83896355  1
  Sb  Sb87  1  0.33238654  0.66400533  0.33438238  1
  Sb  Sb88  1  0.50589970  0.33421850  0.49355631  1
  Sb  Sb89  1  0.50107571  0.33543767  0.83996406  1
  Sb  Sb90  1  0.34022065  0.83105904  0.16165447  1
  Sb  Sb91  1  0.67096403  0.66537814  0.67616253  1
  Sb  Sb92  1  0.50184934  0.50213542  0.67135106  1
  Sb  Sb93  1  0.50420342  0.16511131  0.67614925  1
  Sb  Sb94  1  0.50381626  0.00049230  0.49617267  1
  Sb  Sb95  1  0.50809376  0.83275104  0.00108852  1
  Sb  Sb96  1  0.33057300  0.33580571  0.66885745  1
  Sb  Sb97  1  0.16988861  0.00915153  0.16727312  1
  Sb  Sb98  1  0.82962273  0.00785312  0.16436940  1
  Sb  Sb99  1  0.67352650  0.49668766  0.50185930  1
  Sb  Sb100  1  0.16539755  0.66152057  0.83489868  1
  Sb  Sb101  1  0.83676794  0.66431214  0.49838020  1
  Sb  Sb102  1  0.33035931  0.83380154  0.50478286  1
  Sb  Sb103  1  -0.00530924  0.00802170  -0.00295733  1
  Sb  Sb104  1  0.83430173  0.66898602  0.83690196  1
  Sb  Sb105  1  0.50451935  -0.00197126  0.83913464  1
  Sb  Sb106  1  0.33822210  0.00256194  0.32878934  1
  Sb  Sb107  1  0.83198583  0.84003443  0.67026096  1
  Te  Te108  1  0.16318262  0.17157245  0.16590980  1
  Te  Te109  1  0.16395475  0.16782780  0.49605574  1
  Te  Te110  1  0.16098726  0.16788716  0.83417919  1
  Te  Te111  1  0.16993112  0.49471772  0.16564602  1
  Te  Te112  1  0.16074041  0.49494070  0.49553352  1
  Te  Te113  1  0.16210807  0.49348088  0.83786041  1
  Te  Te114  1  0.16839900  0.83410909  0.16690327  1
  Te  Te115  1  0.15971276  0.83600910  0.50025017  1
  Te  Te116  1  0.16499112  0.83533489  0.83327414  1
  Te  Te117  1  0.49751778  0.16869357  0.15896419  1
  Te  Te118  1  0.49617080  0.16792664  0.49926699  1
  Te  Te119  1  0.49784896  0.16794882  0.84095445  1
  Te  Te120  1  0.50073156  0.49910371  0.16484266  1
  Te  Te121  1  0.49827726  0.49870322  0.49470873  1
  Te  Te122  1  0.49870985  0.50446478  0.83740012  1
  Te  Te123  1  0.50284172  0.83659325  0.16943695  1
  Te  Te124  1  0.49923574  0.83333438  0.49801407  1
  Te  Te125  1  0.49853504  0.82958336  0.83038114  1
  Te  Te126  1  0.83786669  0.17062314  0.16881072  1
  Te  Te127  1  0.83232106  0.16689421  0.49423326  1
  Te  Te128  1  0.83582052  0.16553670  0.83477473  1
  Te  Te129  1  0.83166265  0.49292329  0.16554539  1
  Te  Te130  1  0.83940480  0.49629848  0.49663775  1
  Te  Te131  1  0.83389587  0.50320791  0.83929847  1
  Te  Te132  1  0.82704963  0.83517111  0.16143520  1
  Te  Te133  1  0.84036337  0.83563353  0.49867470  1
  Te  Te134  1  0.83803184  0.83841468  0.83683398  1
  Te  Te135  1  0.16621633  0.00641520  0.00078786  1
  Te  Te136  1  0.16706195  0.00268747  0.33699329  1
  Te  Te137  1  0.16865563  0.00804195  0.66186478  1
  Te  Te138  1  0.16722466  0.33230794  0.00232212  1
  Te  Te139  1  0.16676987  0.33372840  0.33116591  1
  Te  Te140  1  0.16600221  0.32929658  0.66318090  1
  Te  Te141  1  0.16130307  0.66406524  -0.00015526  1
  Te  Te142  1  0.16205401  0.66337595  0.33250405  1
  Te  Te143  1  0.16313066  0.66802751  0.66745870  1
  Te  Te144  1  0.50419945  -0.00139188  0.00252479  1
  Te  Te145  1  0.50676510  0.00173027  0.32857191  1
  Te  Te146  1  0.50635398  -0.00354852  0.66520488  1
  Te  Te147  1  0.50034804  0.33452749  0.00112116  1
  Te  Te148  1  0.50396992  0.33747707  0.32792278  1
  Te  Te149  1  0.50373255  0.33343168  0.66392946  1
  Te  Te150  1  0.50077938  0.66587978  0.00064099  1
  Te  Te151  1  0.49953828  0.66477318  0.32940786  1
  Te  Te152  1  0.50313178  0.66956316  0.66664608  1
  Te  Te153  1  0.82982339  0.00513520  -0.00110405  1
  Te  Te154  1  0.82698375  0.00182679  0.33332386  1
  Te  Te155  1  0.82918891  0.00550321  0.66563782  1
  Te  Te156  1  0.83499362  0.33141830  0.00077676  1
  Te  Te157  1  0.83380792  0.33299579  0.33195325  1
  Te  Te158  1  0.83352496  0.32960156  0.66229156  1
  Te  Te159  1  0.83320235  0.66371115  0.00048396  1
  Te  Te160  1  0.83903833  0.66531842  0.33069900  1
  Te  Te161  1  0.84052965  0.66689669  0.66635645  1
  Te  Te162  1  -0.00346508  0.16926744  -0.00200673  1
  Te  Te163  1  -0.00166175  0.16581861  0.33303389  1
  Te  Te164  1  -0.00226458  0.17014068  0.66926699  1
  Te  Te165  1  -0.00270516  0.49640235  0.00001279  1
  Te  Te166  1  -0.00317564  0.50244266  0.32976075  1
  Te  Te167  1  0.00002499  0.49864671  0.66949009  1
  Te  Te168  1  -0.00621134  0.83483491  -0.00299258  1
  Te  Te169  1  0.00003335  0.82870116  0.33146732  1
  Te  Te170  1  -0.00063210  0.83314033  0.66882100  1
  Te  Te171  1  0.33411543  0.16356796  -0.00241130  1
  Te  Te172  1  0.32764221  0.16523102  0.33452479  1
  Te  Te173  1  0.33492564  0.16695827  0.67610517  1
  Te  Te174  1  0.33604704  0.50165054  0.00403242  1
  Te  Te175  1  0.33822430  0.50020857  0.32840047  1
  Te  Te176  1  0.33360916  0.50654123  0.66598064  1
  Te  Te177  1  0.32857630  0.83823058  -0.00620932  1
  Te  Te178  1  0.34022578  0.83390140  0.33385192  1
  Te  Te179  1  0.33516625  0.83081033  0.67190846  1
  Te  Te180  1  0.66977108  0.16965990  -0.00212822  1
  Te  Te181  1  0.67089135  0.16947036  0.33629730  1
  Te  Te182  1  0.66907310  0.16706860  0.67133099  1
  Te  Te183  1  0.66811679  0.49637381  -0.00238992  1
  Te  Te184  1  0.67055290  0.49593173  0.33606138  1
  Te  Te185  1  0.66765224  0.49576308  0.67442264  1
  Te  Te186  1  0.67249215  0.83641491  0.00266371  1
  Te  Te187  1  0.66264357  0.83032093  0.32964098  1
  Te  Te188  1  0.66316791  0.83575391  0.66614712  1
  Te  Te189  1  0.00312490  0.00632487  0.16826449  1
  Te  Te190  1  -0.00190951  -0.00336199  0.50055128  1
  Te  Te191  1  -0.00615526  -0.00703046  0.83202748  1
  Te  Te192  1  -0.00226113  0.32952422  0.16250878  1
  Te  Te193  1  -0.00169674  0.33637618  0.50207529  1
  Te  Te194  1  -0.00027723  0.33496831  0.83370822  1
  Te  Te195  1  -0.00017606  0.66927705  0.16337252  1
  Te  Te196  1  0.00054754  0.66559722  0.50362603  1
  Te  Te197  1  0.00030120  0.66695514  0.83635369  1
  Te  Te198  1  0.33892263  -0.00045644  0.15936814  1
  Te  Te199  1  0.33044515  -0.00099437  0.50020087  1
  Te  Te200  1  0.33432367  0.00005524  0.83810454  1
  Te  Te201  1  0.34094741  0.33892402  0.16779757  1
  Te  Te202  1  0.32590114  0.33269025  0.49946033  1
  Te  Te203  1  0.32758214  0.32754530  0.83295129  1
  Te  Te204  1  0.33868850  0.66193775  0.16733810  1
  Te  Te205  1  0.33242014  0.66732531  0.50869988  1
  Te  Te206  1  0.33508804  0.66829952  0.83004081  1
  Te  Te207  1  0.66444710  0.00105972  0.16503542  1
  Te  Te208  1  0.67190566  -0.00037381  0.49915624  1
  Te  Te209  1  0.66989881  0.00312553  0.83554277  1
  Te  Te210  1  0.66752364  0.33201759  0.16349081  1
  Te  Te211  1  0.67353940  0.33423260  0.49865414  1
  Te  Te212  1  0.66576480  0.33204082  0.83629198  1
  Te  Te213  1  0.66442348  0.67312744  0.16031912  1
  Te  Te214  1  0.66751175  0.66620207  0.50171343  1
  Te  Te215  1  0.66341560  0.66582643  0.84037023  1
