# generated using pymatgen
data_AgSbTe2
_symmetry_space_group_name_H-M   'P 1'
_cell_length_a   18.34717175
_cell_length_b   18.34679236
_cell_length_c   18.34986579
_cell_angle_alpha   90.00208047
_cell_angle_beta   90.00344637
_cell_angle_gamma   89.99977524
_symmetry_Int_Tables_number   1
_chemical_formula_structural   AgSbTe2
_chemical_formula_sum   'Ag54 Sb54 Te108'
_cell_volume   6176.78043008
_cell_formula_units_Z   54
loop_
 _symmetry_equiv_pos_site_id
 _symmetry_equiv_pos_as_xyz
  1  'x, y, z'
loop_
 _atom_site_type_symbol
 _atom_site_label
 _atom_site_symmetry_multiplicity
 _atom_site_fract_x
 _atom_site_fract_y
 _atom_site_fract_z
 _atom_site_occupancy
  Ag  Ag0  1  -0.00230731  0.51326087  0.16578003  1
  Ag  Ag1  1  0.15364488  0.82684818  0.33713046  1
  Ag  Ag2  1  0.49887701  0.83031882  -0.00963016  1
  Ag  Ag3  1  0.49597199  0.67125095  0.49504819  1
  Ag  Ag4  1  0.33332143  0.16282725  0.83065728  1
  Ag  Ag5  1  0.33620606  0.83335160  0.50071107  1
  Ag  Ag6  1  0.67308527  0.83065157  0.50276205  1
  Ag  Ag7  1  -0.00409304  0.15738824  0.16454964  1
  Ag  Ag8  1  0.67388695  0.51108861  0.16492274  1
  Ag  Ag9  1  0.00525601  0.67826900  0.32313010  1
  Ag  Ag10  1  0.33197139  -0.00486525  -0.00635519  1
  Ag  Ag11  1  0.83234306  0.50320440  0.00529085  1
  Ag  Ag12  1  0.66439385  0.83180541  0.83121415  1
  Ag  Ag13  1  0.33248995  0.00175849  0.66977337  1
  Ag  Ag14  1  0.00146869  -0.00739027  0.00263407  1
  Ag  Ag15  1  0.49648448  0.32110626  0.83393970  1
  Ag  Ag16  1  -0.00260339  -0.00998766  0.32607335  1
  Ag  Ag17  1  0.49803744  0.67007639  0.16335163  1
  Ag  Ag18  1  0.84106443  0.32795130  0.16554389  1
  Ag  Ag19  1  0.66398971  0.67202442  0.66818909  1
  Ag  Ag20  1  0.50704358  0.83310472  0.66990134  1
  Ag  Ag21  1  0.49735141  -0.00476406  0.83143849  1
  Ag  Ag22  1  0.00179515  0.15584134  0.84167314  1
  Ag  Ag23  1  0.00264777  -0.00514957  0.67147983  1
  Ag  Ag24  1  0.83834883  0.16398472  0.00397946  1
  Ag  Ag25  1  0.15958725  0.33921681  0.16683181  1
  Ag  Ag26  1  0.00294934  0.67405745  0.00574949  1
  Ag  Ag27  1  0.83792484  -0.01354628  0.49163494  1
  Ag  Ag28  1  0.16833381  0.51194532  0.33094287  1
  Ag  Ag29  1  0.33397847  0.51565457  0.49774103  1
  Ag  Ag30  1  0.34051546  0.67106200  -0.00275744  1
  Ag  Ag31  1  0.17320585  0.16420756  0.66655928  1
  Ag  Ag32  1  0.49234501  0.15384688  0.67413069  1
  Ag  Ag33  1  0.50042638  0.67526012  0.84088149  1
  Ag  Ag34  1  0.16882523  0.67058785  0.49074257  1
  Ag  Ag35  1  0.16056224  0.16496013  0.33503372  1
  Ag  Ag36  1  0.83426231  0.67528664  0.50076282  1
  Ag  Ag37  1  0.84343254  0.15207265  0.32517235  1
  Ag  Ag38  1  0.82814652  0.83299582  0.65528048  1
  Ag  Ag39  1  0.67290718  0.82920252  0.16992841  1
  Ag  Ag40  1  -0.01449356  0.83447821  0.48525114  1
  Ag  Ag41  1  0.50133538  0.51310475  0.00334644  1
  Ag  Ag42  1  -0.00503321  0.83530856  0.83468188  1
  Ag  Ag43  1  0.49471979  0.51181150  0.32697657  1
  Ag  Ag44  1  0.50178945  0.82944524  0.33851308  1
  Ag  Ag45  1  0.84351117  0.83502268  0.34262124  1
  Ag  Ag46  1  0.65793497  0.15821793  0.83226073  1
  Ag  Ag47  1  0.15670580  0.66504027  0.17392159  1
  Ag  Ag48  1  0.83918198  -0.00181072  0.16994857  1
  Ag  Ag49  1  0.16420777  0.66703848  0.83553502  1
  Ag  Ag50  1  0.83486232  0.67299328  0.83412179  1
  Ag  Ag51  1  0.16796645  0.32914015  0.83723994  1
  Ag  Ag52  1  -0.00597705  0.83267566  0.17447371  1
  Ag  Ag53  1  0.33105607  0.15797557  0.51108047  1
  Sb  Sb54  1  0.50027661  0.34146271  0.16178206  1
  Sb  Sb55  1  0.83429054  -0.00615003  0.83449907  1
  Sb  Sb56  1  0.33140701  0.33434378  0.33252851  1
  Sb  Sb57  1  0.32446642  0.16386687  0.16407335  1
  Sb  Sb58  1  0.83579815  0.50761749  0.32780213  1
  Sb  Sb59  1  0.66560270  0.33564559  0.66995743  1
  Sb  Sb60  1  0.83469605  0.33227475  0.83871802  1
  Sb  Sb61  1  0.00444488  0.15658394  0.49682882  1
  Sb  Sb62  1  0.67509704  -0.00467153  0.33289485  1
  Sb  Sb63  1  0.00128545  0.32031289  0.67068248  1
  Sb  Sb64  1  0.66566104  0.66962966  -0.00229360  1
  Sb  Sb65  1  0.33192837  0.83089062  0.16906482  1
  Sb  Sb66  1  0.32686901  -0.00327449  0.33500335  1
  Sb  Sb67  1  0.67106416  -0.00314358  -0.00229682  1
  Sb  Sb68  1  0.16683070  0.50450197  0.00584498  1
  Sb  Sb69  1  0.66577823  -0.00918436  0.66855436  1
  Sb  Sb70  1  0.16744827  -0.00115071  0.83240422  1
  Sb  Sb71  1  0.83410793  0.15575028  0.66837697  1
  Sb  Sb72  1  0.66755135  0.33502612  0.33091919  1
  Sb  Sb73  1  0.66421837  0.50585801  0.83903499  1
  Sb  Sb74  1  0.16694702  0.33496003  0.49717125  1
  Sb  Sb75  1  0.33096651  0.66880759  0.33262666  1
  Sb  Sb76  1  0.66693679  0.33434266  -0.00030717  1
  Sb  Sb77  1  0.49692561  0.33851416  0.50533981  1
  Sb  Sb78  1  0.33089747  0.50442418  0.16880777  1
  Sb  Sb79  1  0.83416378  0.51189706  0.67215728  1
  Sb  Sb80  1  0.49849660  0.16286042  0.33837927  1
  Sb  Sb81  1  0.16185277  0.16563011  -0.00122560  1
  Sb  Sb82  1  0.66740744  0.67158808  0.33393804  1
  Sb  Sb83  1  0.66384220  0.15684076  0.50634696  1
  Sb  Sb84  1  0.33487849  0.83685275  0.83030463  1
  Sb  Sb85  1  0.16576244  0.83607285  0.66299741  1
  Sb  Sb86  1  0.67446332  0.16340330  0.16225125  1
  Sb  Sb87  1  0.33697872  0.67457372  0.66797735  1
  Sb  Sb88  1  0.33464736  0.49974442  0.83008844  1
  Sb  Sb89  1  0.16684741  0.82999118  0.00318694  1
  Sb  Sb90  1  0.00066585  0.50607337  0.84110075  1
  Sb  Sb91  1  0.49965670  0.50737506  0.66863812  1
  Sb  Sb92  1  0.66226190  0.51162625  0.49299964  1
  Sb  Sb93  1  0.83464005  0.67035956  0.16570451  1
  Sb  Sb94  1  0.00389566  0.51566434  0.49120432  1
  Sb  Sb95  1  0.15921309  -0.00473959  0.16802366  1
  Sb  Sb96  1  -0.00001754  0.33281756  0.00300077  1
  Sb  Sb97  1  0.00108708  0.33143922  0.32911760  1
  Sb  Sb98  1  0.50029767  -0.01114426  0.50524394  1
  Sb  Sb99  1  0.50569141  -0.00949712  0.16157350  1
  Sb  Sb100  1  0.16248471  -0.00769539  0.50013531  1
  Sb  Sb101  1  0.33363912  0.33431524  -0.00216480  1
  Sb  Sb102  1  0.83440730  0.83207277  0.00234407  1
  Sb  Sb103  1  0.16647478  0.49875702  0.66242035  1
  Sb  Sb104  1  0.50285508  0.16202990  -0.00558426  1
  Sb  Sb105  1  -0.00218747  0.67569896  0.66815593  1
  Sb  Sb106  1  0.33291947  0.32511833  0.66819117  1
  Sb  Sb107  1  0.83508061  0.33319900  0.49350823  1
  Te  Te108  1  0.16090344  0.16780169  0.16903152  1
  Te  Te109  1  0.17011663  0.16800684  0.50064291  1
  Te  Te110  1  0.16397698  0.16671334  0.83321705  1
  Te  Te111  1  0.16397365  0.50302916  0.17098389  1
  Te  Te112  1  0.17134809  0.50407322  0.49415769  1
  Te  Te113  1  0.16736186  0.49892777  0.83185075  1
  Te  Te114  1  0.16305267  0.82722630  0.17349736  1
  Te  Te115  1  0.17328546  0.82914268  0.49698024  1
  Te  Te116  1  0.16370521  0.82768887  0.83209820  1
  Te  Te117  1  0.50249206  0.16944664  0.16799231  1
  Te  Te118  1  0.49586314  0.16806625  0.50550776  1
  Te  Te119  1  0.49950697  0.16405461  0.83285293  1
  Te  Te120  1  0.49893884  0.50296386  0.16606855  1
  Te  Te121  1  0.49593807  0.50549832  0.49663296  1
  Te  Te122  1  0.49989475  0.50706654  0.83729749  1
  Te  Te123  1  0.49963372  0.82956356  0.16955529  1
  Te  Te124  1  0.49996533  0.83103907  0.50205554  1
  Te  Te125  1  0.49775059  0.83405603  0.83106221  1
  Te  Te126  1  0.83507473  0.16529487  0.16638020  1
  Te  Te127  1  0.83206373  0.16632157  0.49613804  1
  Te  Te128  1  0.83987749  0.16695231  0.83541162  1
  Te  Te129  1  0.83432373  0.50248472  0.16507511  1
  Te  Te130  1  0.83250487  0.50416239  0.49905661  1
  Te  Te131  1  0.83232425  0.50359009  0.84089618  1
  Te  Te132  1  0.83259748  0.83495786  0.16631190  1
  Te  Te133  1  0.83068932  0.83075948  0.49959338  1
  Te  Te134  1  0.83087625  0.83147392  0.83745461  1
  Te  Te135  1  0.16738798  -0.00200887  0.00054760  1
  Te  Te136  1  0.16014853  0.00376511  0.33378387  1
  Te  Te137  1  0.16776323  0.00464073  0.66584485  1
  Te  Te138  1  0.16783779  0.33574450  -0.00026317  1
  Te  Te139  1  0.16668466  0.32744234  0.32924839  1
  Te  Te140  1  0.16627374  0.32686616  0.67134931  1
  Te  Te141  1  0.16360298  0.66627336  -0.00331182  1
  Te  Te142  1  0.16723944  0.66859429  0.33279394  1
  Te  Te143  1  0.16805469  0.66487433  0.67182819  1
  Te  Te144  1  0.49735008  -0.00486193  -0.00465673  1
  Te  Te145  1  0.49889827  -0.00346645  0.33198100  1
  Te  Te146  1  0.49896722  -0.00315288  0.66910087  1
  Te  Te147  1  0.49936166  0.33577673  -0.00685999  1
  Te  Te148  1  0.49969349  0.33617401  0.33289406  1
  Te  Te149  1  0.50039107  0.33465856  0.67414260  1
  Te  Te150  1  0.50171205  0.67027121  -0.00021560  1
  Te  Te151  1  0.49853505  0.66826332  0.33423429  1
  Te  Te152  1  0.50192314  0.67144369  0.66650460  1
  Te  Te153  1  0.83921058  0.00290551  0.00210846  1
  Te  Te154  1  0.83728708  -0.00388680  0.33233901  1
  Te  Te155  1  0.83856474  -0.00667186  0.66524622  1
  Te  Te156  1  0.83336752  0.33688938  0.00560459  1
  Te  Te157  1  0.83335782  0.33229198  0.32618014  1
  Te  Te158  1  0.83317417  0.33433816  0.66550164  1
  Te  Te159  1  0.83800886  0.66531069  -0.00236264  1
  Te  Te160  1  0.83914117  0.67202641  0.33720002  1
  Te  Te161  1  0.83095949  0.67357534  0.66806512  1
  Te  Te162  1  -0.00222502  0.16566984  0.00154977  1
  Te  Te163  1  -0.00027782  0.16584875  0.33175911  1
  Te  Te164  1  0.00254406  0.15572752  0.66752376  1
  Te  Te165  1  -0.00217785  0.50508576  0.00640041  1
  Te  Te166  1  0.00391772  0.50226495  0.32602450  1
  Te  Te167  1  -0.00050103  0.49660052  0.66609865  1
  Te  Te168  1  0.00120292  0.83360555  -0.00446750  1
  Te  Te169  1  -0.00085795  0.83361582  0.33089340  1
  Te  Te170  1  -0.00019882  0.83773054  0.67619097  1
  Te  Te171  1  0.33378996  0.16240253  -0.00468063  1
  Te  Te172  1  0.32892069  0.16495287  0.33451489  1
  Te  Te173  1  0.33387674  0.16206777  0.66993927  1
  Te  Te174  1  0.33918125  0.50566385  -0.00191848  1
  Te  Te175  1  0.33321872  0.50066074  0.33752241  1
  Te  Te176  1  0.33347895  0.49832536  0.65723203  1
  Te  Te177  1  0.33580215  0.83307052  -0.00018068  1
  Te  Te178  1  0.34051465  0.83522471  0.33846360  1
  Te  Te179  1  0.33449205  0.84020167  0.66260168  1
  Te  Te180  1  0.67375904  0.16555513  -0.00673555  1
  Te  Te181  1  0.66874516  0.16636573  0.33524417  1
  Te  Te182  1  0.66310835  0.16685793  0.67232972  1
  Te  Te183  1  0.66600384  0.50043337  0.00613362  1
  Te  Te184  1  0.66225773  0.50188407  0.32519549  1
  Te  Te185  1  0.66742313  0.50838705  0.66504872  1
  Te  Te186  1  0.66069211  0.83487741  -0.00231793  1
  Te  Te187  1  0.66106512  0.83322313  0.32965876  1
  Te  Te188  1  0.66744047  0.83048715  0.67022940  1
  Te  Te189  1  -0.00119209  -0.00252596  0.16497002  1
  Te  Te190  1  -0.00276707  -0.00637553  0.49968012  1
  Te  Te191  1  0.00011299  -0.00175299  0.83653490  1
  Te  Te192  1  0.00063303  0.33004807  0.16629809  1
  Te  Te193  1  -0.00005030  0.33697004  0.50220363  1
  Te  Te194  1  0.00412323  0.33089644  0.83493027  1
  Te  Te195  1  -0.00189425  0.67074042  0.16607922  1
  Te  Te196  1  0.00237509  0.67521585  0.50153758  1
  Te  Te197  1  -0.00087565  0.66865911  0.83488038  1
  Te  Te198  1  0.33496923  -0.00006583  0.15934738  1
  Te  Te199  1  0.33345271  -0.00048501  0.50190887  1
  Te  Te200  1  0.33393788  0.00270768  0.83270476  1
  Te  Te201  1  0.32498497  0.33315201  0.16470238  1
  Te  Te202  1  0.33273332  0.32610957  0.50021211  1
  Te  Te203  1  0.33167237  0.32869128  0.83390587  1
  Te  Te204  1  0.33764456  0.66695226  0.15749083  1
  Te  Te205  1  0.33295450  0.67228049  0.50173897  1
  Te  Te206  1  0.33384785  0.66598531  0.83579391  1
  Te  Te207  1  0.67439714  -0.00621774  0.16522451  1
  Te  Te208  1  0.67469362  -0.00804275  0.50067461  1
  Te  Te209  1  0.66229794  -0.00156752  0.83333301  1
  Te  Te210  1  0.66985682  0.33543185  0.16621553  1
  Te  Te211  1  0.66688964  0.33400466  0.50046226  1
  Te  Te212  1  0.66323091  0.33095324  0.83284652  1
  Te  Te213  1  0.66253600  0.66916314  0.16670735  1
  Te  Te214  1  0.66581592  0.67246743  0.50241947  1
  Te  Te215  1  0.66574041  0.67000442  0.83048523  1
