# generated using pymatgen
data_AgSbTe2
_symmetry_space_group_name_H-M   'P 1'
_cell_length_a   18.32520130
_cell_length_b   18.32010024
_cell_length_c   18.32961384
_cell_angle_alpha   89.99942562
_cell_angle_beta   90.00042348
_cell_angle_gamma   89.99813304
_symmetry_Int_Tables_number   1
_chemical_formula_structural   AgSbTe2
_chemical_formula_sum   'Ag54 Sb54 Te108'
_cell_volume   6153.60924014
_cell_formula_units_Z   54
loop_
 _symmetry_equiv_pos_site_id
 _symmetry_equiv_pos_as_xyz
  1  'x, y, z'
loop_
 _atom_site_type_symbol
 _atom_site_label
 _atom_site_symmetry_multiplicity
 _atom_site_fract_x
 _atom_site_fract_y
 _atom_site_fract_z
 _atom_site_occupancy
  Ag  Ag0  1  0.33577372  0.83189561  0.16983259  1
  Ag  Ag1  1  0.33860788  0.66428645  0.00137734  1
  Ag  Ag2  1  0.33537188  0.83691099  0.83385223  1
  Ag  Ag3  1  0.66329285  0.01060442  0.00127203  1
  Ag  Ag4  1  0.33508777  0.83754941  0.49297995  1
  Ag  Ag5  1  0.49775529  0.33613289  0.50983932  1
  Ag  Ag6  1  0.49262706  -0.00142802  0.50337029  1
  Ag  Ag7  1  0.33130597  -0.00090562  0.66768672  1
  Ag  Ag8  1  0.33714588  0.67139191  0.32921570  1
  Ag  Ag9  1  0.17900899  0.00336354  0.82440276  1
  Ag  Ag10  1  0.49636672  0.66654099  0.49645085  1
  Ag  Ag11  1  0.66194344  0.49865693  0.50503585  1
  Ag  Ag12  1  0.17187575  0.16263378  0.66952780  1
  Ag  Ag13  1  0.83364680  0.50697749  0.33229416  1
  Ag  Ag14  1  0.66152188  0.33161443  0.67737499  1
  Ag  Ag15  1  0.32865856  -0.00794828  0.33891253  1
  Ag  Ag16  1  0.49722705  0.50104188  -0.00702703  1
  Ag  Ag17  1  -0.00481588  0.15959399  0.16160899  1
  Ag  Ag18  1  0.49648515  -0.00254435  0.16122807  1
  Ag  Ag19  1  0.00328975  0.50307993  0.16722655  1
  Ag  Ag20  1  -0.00545114  0.16503327  0.83334114  1
  Ag  Ag21  1  0.65790110  0.48801008  0.83141611  1
  Ag  Ag22  1  0.33405638  0.33429209  0.33293947  1
  Ag  Ag23  1  0.81863156  0.33002345  0.83406584  1
  Ag  Ag24  1  0.82863558  0.16625564  -0.00676762  1
  Ag  Ag25  1  0.17952492  0.32661931  0.50012308  1
  Ag  Ag26  1  0.00720065  -0.00442664  0.33434599  1
  Ag  Ag27  1  0.00372275  0.66844003  0.66797071  1
  Ag  Ag28  1  0.83923944  0.83211280  0.33304143  1
  Ag  Ag29  1  0.17074438  0.00040112  0.17393233  1
  Ag  Ag30  1  0.65974752  0.66532192  0.33278927  1
  Ag  Ag31  1  0.33526143  0.50750605  0.16268245  1
  Ag  Ag32  1  0.49377792  0.66885376  0.16870712  1
  Ag  Ag33  1  0.34168544  0.49869505  0.83833517  1
  Ag  Ag34  1  0.83484763  0.00000112  0.49530189  1
  Ag  Ag35  1  0.83240390  0.16494628  0.67650771  1
  Ag  Ag36  1  0.49574919  0.00869941  0.83028323  1
  Ag  Ag37  1  0.49913217  0.17019897  0.67140911  1
  Ag  Ag38  1  0.17106649  0.83699641  0.33281325  1
  Ag  Ag39  1  0.83341833  0.66329280  0.83278271  1
  Ag  Ag40  1  0.00940507  0.00389124  0.66341633  1
  Ag  Ag41  1  0.66631007  0.17461687  0.83657231  1
  Ag  Ag42  1  0.34490814  0.16005312  0.83215492  1
  Ag  Ag43  1  0.49941509  0.49282245  0.67389741  1
  Ag  Ag44  1  0.49683278  0.83053555  0.00032710  1
  Ag  Ag45  1  0.66887246  0.16276898  0.15546516  1
  Ag  Ag46  1  0.33450047  0.67194266  0.67104611  1
  Ag  Ag47  1  0.83527170  0.00214552  0.17211621  1
  Ag  Ag48  1  0.00194302  0.66438368  0.00355432  1
  Ag  Ag49  1  0.50337842  0.32992445  0.82977677  1
  Ag  Ag50  1  -0.00069664  0.67378771  0.33135894  1
  Ag  Ag51  1  0.65934882  0.32822228  -0.01084194  1
  Ag  Ag52  1  0.34132784  0.33982718  -0.00367555  1
  Ag  Ag53  1  0.17423491  0.00247231  0.50159914  1
  Sb  Sb54  1  0.17116000  0.84191630  0.66221652  1
  Sb  Sb55  1  0.82860220  0.49796048  0.66559839  1
  Sb  Sb56  1  0.00525616  0.83457526  0.16825304  1
  Sb  Sb57  1  0.83590573  0.83942198  0.66347402  1
  Sb  Sb58  1  0.34024595  0.50226590  0.50043964  1
  Sb  Sb59  1  0.49821059  0.16525771  0.33714974  1
  Sb  Sb60  1  0.34061696  -0.00172101  -0.00363960  1
  Sb  Sb61  1  0.00034040  0.16177896  0.50348105  1
  Sb  Sb62  1  0.17597176  0.50050354  0.00079198  1
  Sb  Sb63  1  0.66320574  0.49671014  0.16441532  1
  Sb  Sb64  1  0.00430634  0.33084232  0.33295800  1
  Sb  Sb65  1  0.66203771  0.33737293  0.33316920  1
  Sb  Sb66  1  0.66217152  0.00762898  0.67029461  1
  Sb  Sb67  1  0.49444617  0.83290485  0.32882770  1
  Sb  Sb68  1  -0.00064046  0.49909033  0.83678982  1
  Sb  Sb69  1  -0.00389897  -0.00131604  0.00103789  1
  Sb  Sb70  1  0.00489629  0.83771097  0.83355915  1
  Sb  Sb71  1  0.17515499  0.83502371  0.00411217  1
  Sb  Sb72  1  0.66461148  0.16957600  0.50362971  1
  Sb  Sb73  1  0.66486376  -0.00425338  0.33046218  1
  Sb  Sb74  1  0.16606673  0.50456258  0.33325083  1
  Sb  Sb75  1  0.00592007  0.83576084  0.49757579  1
  Sb  Sb76  1  0.82850134  0.32961966  0.50441021  1
  Sb  Sb77  1  0.17371901  0.67136157  0.16822529  1
  Sb  Sb78  1  0.34122086  0.32929314  0.66803503  1
  Sb  Sb79  1  0.66192462  0.65921620  0.66408571  1
  Sb  Sb80  1  0.50544506  0.16638482  -0.00760828  1
  Sb  Sb81  1  0.49552319  0.83521459  0.67123538  1
  Sb  Sb82  1  -0.00465839  0.50245600  0.49683252  1
  Sb  Sb83  1  0.82849193  0.83647382  0.00294359  1
  Sb  Sb84  1  0.82858221  0.49725086  0.00219409  1
  Sb  Sb85  1  0.17476936  0.32497870  0.82864423  1
  Sb  Sb86  1  0.17421388  0.67010216  0.49927996  1
  Sb  Sb87  1  0.49897080  0.66216568  0.83336419  1
  Sb  Sb88  1  0.83008108  0.00461405  0.83239361  1
  Sb  Sb89  1  0.66068182  0.83487226  0.83456681  1
  Sb  Sb90  1  0.83182371  0.67059204  0.16720841  1
  Sb  Sb91  1  0.50037841  0.50230412  0.33361302  1
  Sb  Sb92  1  0.66166365  0.66412616  0.00238577  1
  Sb  Sb93  1  0.16403008  0.16414307  -0.00548828  1
  Sb  Sb94  1  -0.00084737  0.33541370  -0.00104524  1
  Sb  Sb95  1  0.16780092  0.15838015  0.33701572  1
  Sb  Sb96  1  0.65925776  0.83090646  0.49676647  1
  Sb  Sb97  1  0.33511151  0.16221031  0.16037117  1
  Sb  Sb98  1  0.49802324  0.33115028  0.16196839  1
  Sb  Sb99  1  0.82942094  0.67161196  0.50020205  1
  Sb  Sb100  1  -0.00314109  0.32915456  0.66868147  1
  Sb  Sb101  1  0.16994300  0.32763704  0.17095867  1
  Sb  Sb102  1  0.17455069  0.49576927  0.66649631  1
  Sb  Sb103  1  0.83403687  0.16303730  0.33206501  1
  Sb  Sb104  1  0.83278244  0.32797386  0.16283040  1
  Sb  Sb105  1  0.33400993  0.16007402  0.50686898  1
  Sb  Sb106  1  0.66012952  0.83837847  0.16809018  1
  Sb  Sb107  1  0.16888711  0.67217479  0.83222456  1
  Te  Te108  1  0.16266828  0.16009127  0.16532925  1
  Te  Te109  1  0.16662683  0.16492838  0.50626726  1
  Te  Te110  1  0.16167354  0.16194358  0.82857700  1
  Te  Te111  1  0.16586032  0.49780920  0.16690423  1
  Te  Te112  1  0.16547597  0.49327243  0.50053305  1
  Te  Te113  1  0.17183617  0.49831730  0.83287861  1
  Te  Te114  1  0.17352903  0.84004326  0.17154576  1
  Te  Te115  1  0.17436412  0.83880501  0.49410519  1
  Te  Te116  1  0.17335201  0.84193068  0.83433009  1
  Te  Te117  1  0.50298808  0.16165742  0.16826377  1
  Te  Te118  1  0.50057551  0.16547036  0.50681627  1
  Te  Te119  1  0.50267908  0.16786858  0.83133763  1
  Te  Te120  1  0.49629656  0.50124775  0.16355707  1
  Te  Te121  1  0.50358641  0.50065200  0.49999920  1
  Te  Te122  1  0.49897121  0.50185609  0.83292534  1
  Te  Te123  1  0.49538890  0.83405219  0.16286156  1
  Te  Te124  1  0.49359643  0.83353472  0.50125763  1
  Te  Te125  1  0.49525656  0.83744450  0.83818002  1
  Te  Te126  1  0.83402907  0.16304087  0.16610222  1
  Te  Te127  1  0.83247995  0.16105330  0.50366862  1
  Te  Te128  1  0.83096859  0.16549670  0.83378466  1
  Te  Te129  1  0.83498732  0.50045574  0.17016696  1
  Te  Te130  1  0.82691074  0.49984471  0.49564195  1
  Te  Te131  1  0.83210862  0.49915598  0.83361689  1
  Te  Te132  1  0.83265201  0.83950333  0.17082789  1
  Te  Te133  1  0.83158648  0.83966167  0.49525688  1
  Te  Te134  1  0.83361944  0.82812302  0.83336688  1
  Te  Te135  1  0.16466023  -0.00090319  0.00223451  1
  Te  Te136  1  0.16804357  -0.00202287  0.33491758  1
  Te  Te137  1  0.16794890  0.00247792  0.66514159  1
  Te  Te138  1  0.17390090  0.33272787  0.00008028  1
  Te  Te139  1  0.17291214  0.33286996  0.33929490  1
  Te  Te140  1  0.16591062  0.32658144  0.66092997  1
  Te  Te141  1  0.16417569  0.66746702  0.00034782  1
  Te  Te142  1  0.16489536  0.67299311  0.33395459  1
  Te  Te143  1  0.16732493  0.66519449  0.66575652  1
  Te  Te144  1  0.50280474  -0.00061236  0.00201932  1
  Te  Te145  1  0.49537822  -0.00093454  0.33818215  1
  Te  Te146  1  0.49591435  0.00148462  0.66695799  1
  Te  Te147  1  0.49941243  0.33612934  -0.00230067  1
  Te  Te148  1  0.49394467  0.33390870  0.33739796  1
  Te  Te149  1  0.50088708  0.33315324  0.66787163  1
  Te  Te150  1  0.49777216  0.66588082  0.00123677  1
  Te  Te151  1  0.49781447  0.66731936  0.33277349  1
  Te  Te152  1  0.49534004  0.66506230  0.66319814  1
  Te  Te153  1  0.82829842  0.00291967  0.00497188  1
  Te  Te154  1  0.83258742  -0.00177147  0.33327873  1
  Te  Te155  1  0.83445605  0.00447309  0.66363236  1
  Te  Te156  1  0.83124003  0.32941021  -0.00474442  1
  Te  Te157  1  0.83362842  0.33827258  0.33433837  1
  Te  Te158  1  0.82904018  0.32932648  0.67094764  1
  Te  Te159  1  0.83366772  0.66700158  -0.00292239  1
  Te  Te160  1  0.83858840  0.66811141  0.33400987  1
  Te  Te161  1  0.83530514  0.66732833  0.66873365  1
  Te  Te162  1  -0.00594961  0.16725175  0.00017978  1
  Te  Te163  1  0.00026970  0.16123083  0.32679506  1
  Te  Te164  1  -0.00332881  0.16362935  0.66934588  1
  Te  Te165  1  -0.00113186  0.50434904  0.00521123  1
  Te  Te166  1  -0.00247686  0.50087951  0.32896182  1
  Te  Te167  1  0.00072158  0.50572646  0.66656421  1
  Te  Te168  1  -0.00198623  0.82451853  0.00034137  1
  Te  Te169  1  0.00032270  0.83555205  0.33282774  1
  Te  Te170  1  0.00192282  0.83121612  0.66632749  1
  Te  Te171  1  0.33140406  0.17283871  -0.00726692  1
  Te  Te172  1  0.33255803  0.16943938  0.32956585  1
  Te  Te173  1  0.33514444  0.16300460  0.67251165  1
  Te  Te174  1  0.33691544  0.50262543  0.00046550  1
  Te  Te175  1  0.33243088  0.50404689  0.32959811  1
  Te  Te176  1  0.33855061  0.50455910  0.66928143  1
  Te  Te177  1  0.33732290  0.82973010  -0.00005037  1
  Te  Te178  1  0.33371586  0.83325662  0.33199564  1
  Te  Te179  1  0.33297645  0.83327681  0.67040304  1
  Te  Te180  1  0.66835816  0.16823627  -0.00208405  1
  Te  Te181  1  0.66701431  0.16699416  0.32859868  1
  Te  Te182  1  0.66573057  0.17124948  0.67011508  1
  Te  Te183  1  0.66118833  0.49558172  -0.00427058  1
  Te  Te184  1  0.67069615  0.50395086  0.33263220  1
  Te  Te185  1  0.66226770  0.49473873  0.66849706  1
  Te  Te186  1  0.65970903  0.83600590  0.00065933  1
  Te  Te187  1  0.67583266  0.82558077  0.33359427  1
  Te  Te188  1  0.66713536  0.83260748  0.66589388  1
  Te  Te189  1  -0.00088256  0.00034096  0.16783547  1
  Te  Te190  1  -0.00047243  -0.00088674  0.49981766  1
  Te  Te191  1  -0.00060328  0.00415055  0.83128292  1
  Te  Te192  1  0.00141577  0.33447669  0.16637856  1
  Te  Te193  1  0.00202902  0.33283000  0.49951055  1
  Te  Te194  1  0.00056598  0.32810668  0.83404816  1
  Te  Te195  1  -0.00024457  0.66528522  0.16894651  1
  Te  Te196  1  0.00064574  0.66766533  0.49915663  1
  Te  Te197  1  -0.00086759  0.66705510  0.83131707  1
  Te  Te198  1  0.33520593  -0.00111016  0.16503217  1
  Te  Te199  1  0.33379147  -0.00059181  0.49934940  1
  Te  Te200  1  0.33528911  0.00086761  0.83386679  1
  Te  Te201  1  0.33307806  0.33567947  0.16691229  1
  Te  Te202  1  0.33701783  0.33397146  0.49799033  1
  Te  Te203  1  0.33794548  0.33630119  0.83461793  1
  Te  Te204  1  0.33410608  0.66702193  0.16639218  1
  Te  Te205  1  0.33661189  0.66958448  0.49879133  1
  Te  Te206  1  0.33291181  0.66765307  0.83350474  1
  Te  Te207  1  0.66287157  0.00319928  0.16514987  1
  Te  Te208  1  0.66307901  0.00004244  0.50046906  1
  Te  Te209  1  0.66130048  0.00211676  0.83752004  1
  Te  Te210  1  0.66641825  0.32643130  0.16416901  1
  Te  Te211  1  0.66066674  0.33780126  0.50009751  1
  Te  Te212  1  0.66450421  0.33304244  0.83360590  1
  Te  Te213  1  0.66021879  0.66597884  0.17130420  1
  Te  Te214  1  0.66104919  0.66244298  0.49590278  1
  Te  Te215  1  0.67181063  0.66662811  0.83308256  1
