# generated using pymatgen
data_AgSbTe2
_symmetry_space_group_name_H-M   'P 1'
_cell_length_a   18.33727275
_cell_length_b   18.33264652
_cell_length_c   18.33923309
_cell_angle_alpha   90.00102928
_cell_angle_beta   90.00080465
_cell_angle_gamma   89.99969292
_symmetry_Int_Tables_number   1
_chemical_formula_structural   AgSbTe2
_chemical_formula_sum   'Ag54 Sb54 Te108'
_cell_volume   6165.11354620
_cell_formula_units_Z   54
loop_
 _symmetry_equiv_pos_site_id
 _symmetry_equiv_pos_as_xyz
  1  'x, y, z'
loop_
 _atom_site_type_symbol
 _atom_site_label
 _atom_site_symmetry_multiplicity
 _atom_site_fract_x
 _atom_site_fract_y
 _atom_site_fract_z
 _atom_site_occupancy
  Ag  Ag0  1  0.82996051  -0.00153401  0.49969067  1
  Ag  Ag1  1  0.32954108  0.00729850  -0.00713548  1
  Ag  Ag2  1  0.32997054  0.65310531  0.34328307  1
  Ag  Ag3  1  0.83941982  0.83907015  0.34503267  1
  Ag  Ag4  1  -0.00726224  0.83644339  0.50643850  1
  Ag  Ag5  1  0.00292229  0.83539692  0.82442671  1
  Ag  Ag6  1  0.50470086  0.16203805  0.66370973  1
  Ag  Ag7  1  0.66807075  0.49323052  0.17700335  1
  Ag  Ag8  1  -0.00060666  0.50065857  0.83211394  1
  Ag  Ag9  1  -0.00768766  0.16364686  0.15868945  1
  Ag  Ag10  1  0.33482916  0.34085514  0.32725663  1
  Ag  Ag11  1  0.00020161  0.00223156  -0.00266542  1
  Ag  Ag12  1  0.66826030  0.49091212  0.49731397  1
  Ag  Ag13  1  0.82543058  0.32968226  0.49870416  1
  Ag  Ag14  1  0.66804508  0.32479980  0.66051963  1
  Ag  Ag15  1  0.16618695  0.67648325  0.82862385  1
  Ag  Ag16  1  0.66984121  0.33096989  -0.00207992  1
  Ag  Ag17  1  0.34698674  0.16922410  0.50066014  1
  Ag  Ag18  1  0.50767885  0.32909559  0.49777456  1
  Ag  Ag19  1  0.83085972  0.50036345  0.66333210  1
  Ag  Ag20  1  0.50136699  0.33430177  0.17279827  1
  Ag  Ag21  1  0.33690270  0.49333782  0.17870047  1
  Ag  Ag22  1  0.16631139  -0.00498846  0.82690370  1
  Ag  Ag23  1  0.49015823  0.49548894  0.33686459  1
  Ag  Ag24  1  0.67266805  0.84050407  0.82267431  1
  Ag  Ag25  1  0.17548755  0.33471265  0.16821712  1
  Ag  Ag26  1  0.16726213  -0.00325134  0.50690248  1
  Ag  Ag27  1  0.67427239  0.84567006  0.50678592  1
  Ag  Ag28  1  0.66454684  0.17047302  0.50642956  1
  Ag  Ag29  1  0.83206089  0.48802413  -0.00144101  1
  Ag  Ag30  1  0.83094462  0.33068365  0.16618342  1
  Ag  Ag31  1  0.83513339  0.01143327  0.17069706  1
  Ag  Ag32  1  0.34057237  0.33096175  0.00666377  1
  Ag  Ag33  1  0.83097336  0.33149024  0.83669765  1
  Ag  Ag34  1  0.83263222  0.49259507  0.33664108  1
  Ag  Ag35  1  0.34021085  0.49292932  0.49024512  1
  Ag  Ag36  1  0.83281822  0.83271200  0.66329945  1
  Ag  Ag37  1  0.16235188  0.83068514  0.34267197  1
  Ag  Ag38  1  -0.00237994  0.84012140  0.16890214  1
  Ag  Ag39  1  0.66286884  0.00223016  0.66395127  1
  Ag  Ag40  1  0.32922195  0.67321679  0.66571353  1
  Ag  Ag41  1  0.50236151  0.84109772  0.66480745  1
  Ag  Ag42  1  0.50479756  0.17042261  -0.00565095  1
  Ag  Ag43  1  0.17795822  0.50241170  0.33478260  1
  Ag  Ag44  1  0.83261549  0.17197987  0.33043861  1
  Ag  Ag45  1  0.32828540  0.50179229  0.83145772  1
  Ag  Ag46  1  0.50331744  0.00810524  0.50369974  1
  Ag  Ag47  1  0.33915304  -0.00721296  0.66744337  1
  Ag  Ag48  1  0.32406422  0.83406601  0.82649204  1
  Ag  Ag49  1  0.83074131  0.16966807  0.00306388  1
  Ag  Ag50  1  -0.00797954  0.16051462  0.83649488  1
  Ag  Ag51  1  0.16547604  0.83422059  0.66651381  1
  Ag  Ag52  1  0.67133892  0.16671907  0.82522391  1
  Ag  Ag53  1  0.00370142  0.67438883  0.66971320  1
  Sb  Sb54  1  0.66637155  0.33473701  0.33627283  1
  Sb  Sb55  1  0.83513797  0.66252916  0.16883406  1
  Sb  Sb56  1  0.49951275  0.84544725  -0.00819565  1
  Sb  Sb57  1  0.16251368  0.16650676  0.33369233  1
  Sb  Sb58  1  0.16296659  0.33142275  0.83749838  1
  Sb  Sb59  1  0.49449909  0.66814978  0.83010357  1
  Sb  Sb60  1  -0.00592279  0.32813953  0.00078527  1
  Sb  Sb61  1  0.50502288  0.33220873  0.83193685  1
  Sb  Sb62  1  0.49972930  0.82883718  0.34127523  1
  Sb  Sb63  1  0.16572067  0.50418673  0.66326626  1
  Sb  Sb64  1  -0.00063074  0.33469608  0.33185307  1
  Sb  Sb65  1  0.83707803  0.00396390  0.83003797  1
  Sb  Sb66  1  0.16630462  0.66346062  0.16595296  1
  Sb  Sb67  1  0.33277142  0.66320637  -0.00477434  1
  Sb  Sb68  1  0.67013790  0.00076252  0.34357081  1
  Sb  Sb69  1  0.00370487  0.66941405  0.33835580  1
  Sb  Sb70  1  0.16185538  0.00234857  0.16650689  1
  Sb  Sb71  1  0.33133218  0.00089840  0.33895765  1
  Sb  Sb72  1  0.16573949  0.83564829  -0.00570349  1
  Sb  Sb73  1  0.83280240  0.66947429  0.50112892  1
  Sb  Sb74  1  0.16913738  0.32965251  0.49698902  1
  Sb  Sb75  1  0.50439298  0.00747641  0.17070164  1
  Sb  Sb76  1  -0.00261168  -0.00177160  0.33008942  1
  Sb  Sb77  1  0.83435597  0.83895831  -0.00332296  1
  Sb  Sb78  1  0.50181215  0.49066964  0.00454948  1
  Sb  Sb79  1  0.66567491  0.67107157  0.66590682  1
  Sb  Sb80  1  0.33407003  0.83669113  0.50709244  1
  Sb  Sb81  1  0.33938215  0.33345326  0.66546356  1
  Sb  Sb82  1  0.49575897  0.00155306  0.82365735  1
  Sb  Sb83  1  0.66954073  0.49581937  0.82951401  1
  Sb  Sb84  1  0.49737729  0.65796343  0.16959172  1
  Sb  Sb85  1  0.67240948  0.17391822  0.16646716  1
  Sb  Sb86  1  0.66845025  0.00868560  -0.00766076  1
  Sb  Sb87  1  0.67337562  0.83216901  0.16887117  1
  Sb  Sb88  1  -0.00642929  0.16086638  0.50339436  1
  Sb  Sb89  1  -0.01010152  0.33652729  0.66861374  1
  Sb  Sb90  1  0.33089506  0.17277782  0.16932779  1
  Sb  Sb91  1  0.50246781  0.49816800  0.66149714  1
  Sb  Sb92  1  0.66506629  0.66230000  0.33542884  1
  Sb  Sb93  1  0.17171681  0.15787558  0.66631797  1
  Sb  Sb94  1  -0.00094346  0.67093156  -0.00596904  1
  Sb  Sb95  1  0.66825303  0.65957514  -0.00294170  1
  Sb  Sb96  1  0.33511924  0.16559533  0.83122161  1
  Sb  Sb97  1  0.16454373  0.49697122  0.00139221  1
  Sb  Sb98  1  0.50510107  0.17376432  0.33758985  1
  Sb  Sb99  1  0.49691876  0.66441780  0.50154031  1
  Sb  Sb100  1  -0.00291461  0.49734220  0.16322653  1
  Sb  Sb101  1  0.82743469  0.16610522  0.66599949  1
  Sb  Sb102  1  0.32913728  0.83003285  0.16458971  1
  Sb  Sb103  1  0.83834758  0.66277439  0.82991886  1
  Sb  Sb104  1  0.16842435  0.67227583  0.50458397  1
  Sb  Sb105  1  -0.00145524  -0.00486645  0.67011913  1
  Sb  Sb106  1  0.16399644  0.16717161  0.00038469  1
  Sb  Sb107  1  -0.00322386  0.50368145  0.50360797  1
  Te  Te108  1  0.15808735  0.17196079  0.16820827  1
  Te  Te109  1  0.16471887  0.15910607  0.49883180  1
  Te  Te110  1  0.16060903  0.16205923  0.83317364  1
  Te  Te111  1  0.16631693  0.49609684  0.17123709  1
  Te  Te112  1  0.16590494  0.49860950  0.49473059  1
  Te  Te113  1  0.16490438  0.49831365  0.83256672  1
  Te  Te114  1  0.16168004  0.83272920  0.17002143  1
  Te  Te115  1  0.16843228  0.83724699  0.50185111  1
  Te  Te116  1  0.16517831  0.83592644  0.83151856  1
  Te  Te117  1  0.50065839  0.17354192  0.16674789  1
  Te  Te118  1  0.50321074  0.16875558  0.49969494  1
  Te  Te119  1  0.50454179  0.16703210  0.83168255  1
  Te  Te120  1  0.50054423  0.49333935  0.17045832  1
  Te  Te121  1  0.50001908  0.49672956  0.49808278  1
  Te  Te122  1  0.49519249  0.50071502  0.83336042  1
  Te  Te123  1  0.50201982  0.83516745  0.16915227  1
  Te  Te124  1  0.50471438  0.83660159  0.50393234  1
  Te  Te125  1  0.50092057  0.83494648  0.82709190  1
  Te  Te126  1  0.83386638  0.16842150  0.16755288  1
  Te  Te127  1  0.83076527  0.16673696  0.49921204  1
  Te  Te128  1  0.83212887  0.16903543  0.83260025  1
  Te  Te129  1  0.83226831  0.49572991  0.16740174  1
  Te  Te130  1  0.83362963  0.49851701  0.50195258  1
  Te  Te131  1  0.83352073  0.49638225  0.83066656  1
  Te  Te132  1  0.83664375  0.83354162  0.16579790  1
  Te  Te133  1  0.83250906  0.83409596  0.50164783  1
  Te  Te134  1  0.83601598  0.83346051  0.83052533  1
  Te  Te135  1  0.16839074  0.00072795  -0.00150265  1
  Te  Te136  1  0.16600528  -0.00575645  0.33659548  1
  Te  Te137  1  0.16948627  -0.00521560  0.66672779  1
  Te  Te138  1  0.17526759  0.33331466  0.00617236  1
  Te  Te139  1  0.17007677  0.33584307  0.33014644  1
  Te  Te140  1  0.16565444  0.33253717  0.66680370  1
  Te  Te141  1  0.16673582  0.66558232  -0.00927147  1
  Te  Te142  1  0.17035723  0.66683703  0.33305792  1
  Te  Te143  1  0.16749562  0.67028053  0.66972427  1
  Te  Te144  1  0.49657892  0.01043347  0.00294992  1
  Te  Te145  1  0.49977668  -0.00074269  0.34007043  1
  Te  Te146  1  0.50019056  0.00072909  0.66264901  1
  Te  Te147  1  0.50137321  0.32815546  -0.00045662  1
  Te  Te148  1  0.49626046  0.33630009  0.33484105  1
  Te  Te149  1  0.50680744  0.32999663  0.66173864  1
  Te  Te150  1  0.50015903  0.66983617  0.00115280  1
  Te  Te151  1  0.49114809  0.65944753  0.33407519  1
  Te  Te152  1  0.49150754  0.67359981  0.66656606  1
  Te  Te153  1  0.83566446  0.00600552  0.00279122  1
  Te  Te154  1  0.83343110  -0.00285264  0.33350240  1
  Te  Te155  1  0.82899836  -0.00429364  0.66287047  1
  Te  Te156  1  0.83321507  0.33035101  0.00007228  1
  Te  Te157  1  0.83432744  0.33241895  0.33394390  1
  Te  Te158  1  0.82758243  0.33542080  0.66495569  1
  Te  Te159  1  0.83305860  0.65653492  -0.00007448  1
  Te  Te160  1  0.83469270  0.66747029  0.33334134  1
  Te  Te161  1  0.83694552  0.66719106  0.66706406  1
  Te  Te162  1  -0.00258962  0.16316929  -0.00216278  1
  Te  Te163  1  -0.00619457  0.16698342  0.33131672  1
  Te  Te164  1  0.00172867  0.16740997  0.67407794  1
  Te  Te165  1  -0.00499871  0.50162544  -0.00558356  1
  Te  Te166  1  -0.00819518  0.50278996  0.33292985  1
  Te  Te167  1  -0.00340869  0.50439277  0.67155358  1
  Te  Te168  1  -0.00095135  0.83883841  0.00111083  1
  Te  Te169  1  -0.00000640  0.83229013  0.33505320  1
  Te  Te170  1  0.00000959  0.83432581  0.66674129  1
  Te  Te171  1  0.33535984  0.16782488  0.00001979  1
  Te  Te172  1  0.33203758  0.16941932  0.33906130  1
  Te  Te173  1  0.33930352  0.16442331  0.66296553  1
  Te  Te174  1  0.33359408  0.49538509  -0.00614791  1
  Te  Te175  1  0.33368573  0.49751115  0.33408567  1
  Te  Te176  1  0.33393918  0.50156584  0.67174761  1
  Te  Te177  1  0.33449342  0.83711542  -0.00567530  1
  Te  Te178  1  0.33016049  0.83113163  0.33177239  1
  Te  Te179  1  0.33126506  0.83410158  0.66752275  1
  Te  Te180  1  0.66841107  0.17129922  -0.00142374  1
  Te  Te181  1  0.67322992  0.16597615  0.33973143  1
  Te  Te182  1  0.66568431  0.16564206  0.66695065  1
  Te  Te183  1  0.66990094  0.49282998  -0.00174767  1
  Te  Te184  1  0.67356852  0.50034545  0.33528111  1
  Te  Te185  1  0.66956705  0.50129797  0.66252307  1
  Te  Te186  1  0.66610348  0.83391018  -0.00295624  1
  Te  Te187  1  0.67130712  0.82999772  0.33807837  1
  Te  Te188  1  0.66839689  0.83175707  0.66563341  1
  Te  Te189  1  -0.00263476  0.00126102  0.16161606  1
  Te  Te190  1  -0.00089531  -0.00410647  0.50096410  1
  Te  Te191  1  0.00236570  -0.00095729  0.83599434  1
  Te  Te192  1  -0.00620058  0.32985253  0.16598620  1
  Te  Te193  1  -0.00503859  0.33182057  0.50051584  1
  Te  Te194  1  -0.00522262  0.33693203  0.83472230  1
  Te  Te195  1  0.00141187  0.67623595  0.16492628  1
  Te  Te196  1  0.00135552  0.67408369  0.50828808  1
  Te  Te197  1  0.00414746  0.66918800  0.82960503  1
  Te  Te198  1  0.33376942  0.00065088  0.16209437  1
  Te  Te199  1  0.33362386  0.00317189  0.50315261  1
  Te  Te200  1  0.32944453  0.00016504  0.83172776  1
  Te  Te201  1  0.33476440  0.33461574  0.16669825  1
  Te  Te202  1  0.33324803  0.33300399  0.50000455  1
  Te  Te203  1  0.33235672  0.33513344  0.83475195  1
  Te  Te204  1  0.33199897  0.65869137  0.16674202  1
  Te  Te205  1  0.33219887  0.65934746  0.50207987  1
  Te  Te206  1  0.32862513  0.66851101  0.83025845  1
  Te  Te207  1  0.67331142  -0.00096146  0.16525735  1
  Te  Te208  1  0.66849353  0.00211413  0.50428816  1
  Te  Te209  1  0.66777199  0.00041046  0.82745552  1
  Te  Te210  1  0.66837539  0.33537740  0.16377207  1
  Te  Te211  1  0.66788640  0.33271628  0.50015483  1
  Te  Te212  1  0.67109450  0.33118896  0.83396080  1
  Te  Te213  1  0.66582121  0.65713567  0.16567577  1
  Te  Te214  1  0.66497392  0.65830812  0.50046447  1
  Te  Te215  1  0.66566902  0.67568702  0.83339348  1
