# generated using pymatgen
data_AgSbTe2
_symmetry_space_group_name_H-M   'P 1'
_cell_length_a   18.35180291
_cell_length_b   18.35702258
_cell_length_c   18.35048713
_cell_angle_alpha   90.00140346
_cell_angle_beta   90.00077193
_cell_angle_gamma   89.99971974
_symmetry_Int_Tables_number   1
_chemical_formula_structural   AgSbTe2
_chemical_formula_sum   'Ag54 Sb54 Te108'
_cell_volume   6181.99395061
_cell_formula_units_Z   54
loop_
 _symmetry_equiv_pos_site_id
 _symmetry_equiv_pos_as_xyz
  1  'x, y, z'
loop_
 _atom_site_type_symbol
 _atom_site_label
 _atom_site_symmetry_multiplicity
 _atom_site_fract_x
 _atom_site_fract_y
 _atom_site_fract_z
 _atom_site_occupancy
  Ag  Ag0  1  0.32806030  0.16194691  0.50152743  1
  Ag  Ag1  1  0.00770361  0.16470867  0.50473888  1
  Ag  Ag2  1  0.66817735  0.15896721  0.83171763  1
  Ag  Ag3  1  0.16342117  0.00074245  0.82913351  1
  Ag  Ag4  1  0.16285860  0.34290417  0.83094446  1
  Ag  Ag5  1  0.33832341  0.67839596  0.67146566  1
  Ag  Ag6  1  0.32767369  0.16264448  0.16252945  1
  Ag  Ag7  1  0.00083516  0.32415779  0.66685958  1
  Ag  Ag8  1  0.65984012  0.84170245  0.50576432  1
  Ag  Ag9  1  0.66232250  -0.00343324  -0.00363272  1
  Ag  Ag10  1  0.66708981  0.49909338  0.50712391  1
  Ag  Ag11  1  0.65959585  0.66810276  0.67085495  1
  Ag  Ag12  1  0.32959440  -0.00326625  0.67002002  1
  Ag  Ag13  1  0.84308715  0.49471675  0.66989217  1
  Ag  Ag14  1  0.17294668  0.00423407  0.50909804  1
  Ag  Ag15  1  0.49781486  0.83249084  0.67198790  1
  Ag  Ag16  1  0.16077243  0.16113188  0.66590556  1
  Ag  Ag17  1  0.50238987  -0.00164333  0.15498187  1
  Ag  Ag18  1  -0.00559067  0.84454862  0.16193761  1
  Ag  Ag19  1  0.50110172  0.32069162  0.50210391  1
  Ag  Ag20  1  0.49945096  0.51041391  0.66804229  1
  Ag  Ag21  1  0.82195071  0.83850286  -0.00095404  1
  Ag  Ag22  1  0.00436081  0.16119514  0.17145281  1
  Ag  Ag23  1  -0.00221952  -0.00288428  -0.00100285  1
  Ag  Ag24  1  -0.00194095  0.67843390  -0.00080469  1
  Ag  Ag25  1  0.00162046  0.00205865  0.32771788  1
  Ag  Ag26  1  0.00924575  0.00655816  0.66855197  1
  Ag  Ag27  1  0.50931404  0.83888909  -0.00742738  1
  Ag  Ag28  1  0.66040193  0.83629600  0.83768610  1
  Ag  Ag29  1  0.33877411  0.83177318  0.83071820  1
  Ag  Ag30  1  0.66141634  0.32763780  -0.00405403  1
  Ag  Ag31  1  0.17240722  0.65468866  0.83206818  1
  Ag  Ag32  1  0.00939122  0.49905207  0.82990908  1
  Ag  Ag33  1  0.83694380  0.32802406  0.83032573  1
  Ag  Ag34  1  0.49384782  -0.00046908  0.49964227  1
  Ag  Ag35  1  0.00163713  0.31911382  0.34679778  1
  Ag  Ag36  1  0.34200376  0.84601698  0.51446994  1
  Ag  Ag37  1  0.16042807  0.49587057  0.67337363  1
  Ag  Ag38  1  -0.00056024  0.48881263  0.51332484  1
  Ag  Ag39  1  0.16508097  0.49929708  -0.01478391  1
  Ag  Ag40  1  0.66252620  0.16362831  0.50753586  1
  Ag  Ag41  1  0.50024868  0.83623028  0.34793282  1
  Ag  Ag42  1  0.50022710  0.15524064  -0.00148995  1
  Ag  Ag43  1  0.34229167  0.00242661  -0.00815446  1
  Ag  Ag44  1  0.49626539  0.67143541  0.82899886  1
  Ag  Ag45  1  0.83714213  0.00196137  0.83537356  1
  Ag  Ag46  1  0.33829102  0.32038670  -0.00420373  1
  Ag  Ag47  1  0.66893745  0.68191599  -0.01174770  1
  Ag  Ag48  1  0.66763876  0.83738923  0.15114887  1
  Ag  Ag49  1  0.32151146  0.50959284  0.82962160  1
  Ag  Ag50  1  0.00234250  0.66964114  0.33036061  1
  Ag  Ag51  1  0.84230479  0.16732299  0.66864553  1
  Ag  Ag52  1  0.84121013  -0.00202431  0.15419716  1
  Ag  Ag53  1  0.16227825  0.16421315  0.34556243  1
  Sb  Sb54  1  -0.00106245  0.49768486  0.16371540  1
  Sb  Sb55  1  0.83088546  0.83652456  0.32830431  1
  Sb  Sb56  1  0.50116190  0.32463374  0.16779238  1
  Sb  Sb57  1  0.00128747  0.66640813  0.67089350  1
  Sb  Sb58  1  0.83009180  0.15776263  -0.00799461  1
  Sb  Sb59  1  0.16504618  0.32935344  0.16006263  1
  Sb  Sb60  1  0.66809072  0.50307526  0.82813483  1
  Sb  Sb61  1  0.33642313  0.16255422  0.83229161  1
  Sb  Sb62  1  0.33378256  0.67169395  -0.00860686  1
  Sb  Sb63  1  0.66908160  0.67095805  0.33682513  1
  Sb  Sb64  1  0.16496010  0.00193557  0.16338792  1
  Sb  Sb65  1  -0.00170075  0.16584800  0.83014818  1
  Sb  Sb66  1  0.49977745  0.67730796  0.15658272  1
  Sb  Sb67  1  0.16789754  0.83361082  -0.00341567  1
  Sb  Sb68  1  0.66385400  -0.00289911  0.67182395  1
  Sb  Sb69  1  0.67177242  0.33113391  0.33410708  1
  Sb  Sb70  1  0.66533659  0.50683075  0.16597073  1
  Sb  Sb71  1  0.82700499  0.83539196  0.67263179  1
  Sb  Sb72  1  0.16721281  0.32595738  0.50827802  1
  Sb  Sb73  1  0.16869689  0.16702465  -0.00660297  1
  Sb  Sb74  1  0.50136715  0.67557400  0.50927558  1
  Sb  Sb75  1  0.66764308  0.15764638  0.16189107  1
  Sb  Sb76  1  0.49936134  -0.00613911  0.83307399  1
  Sb  Sb77  1  0.83508942  0.32145637  0.15713958  1
  Sb  Sb78  1  0.83330163  0.00188410  0.50490511  1
  Sb  Sb79  1  0.33407270  0.49432656  0.15296518  1
  Sb  Sb80  1  -0.00109616  0.83982501  0.49702786  1
  Sb  Sb81  1  0.66896932  -0.00067161  0.33181344  1
  Sb  Sb82  1  0.32934455  0.00035361  0.33672945  1
  Sb  Sb83  1  0.83473696  0.67360912  0.16319699  1
  Sb  Sb84  1  0.49578136  0.16017497  0.33400240  1
  Sb  Sb85  1  0.00033713  0.83424189  0.83665426  1
  Sb  Sb86  1  0.83716380  0.49958658  0.34209742  1
  Sb  Sb87  1  0.67034794  0.33514350  0.66992475  1
  Sb  Sb88  1  0.00029687  0.32886006  -0.00732716  1
  Sb  Sb89  1  0.32924086  0.32915844  0.67165633  1
  Sb  Sb90  1  0.33016634  0.66981197  0.34408079  1
  Sb  Sb91  1  0.83365567  0.66675070  0.50357516  1
  Sb  Sb92  1  0.83387699  0.33154144  0.50746733  1
  Sb  Sb93  1  0.16488364  0.67026199  0.50809112  1
  Sb  Sb94  1  0.83270316  0.66891913  0.83270144  1
  Sb  Sb95  1  0.16253021  0.49460089  0.34108742  1
  Sb  Sb96  1  0.33659422  0.84161459  0.16131376  1
  Sb  Sb97  1  0.32842145  0.32980234  0.33186828  1
  Sb  Sb98  1  0.49933597  0.50584241  0.34709283  1
  Sb  Sb99  1  0.83655474  0.50293319  -0.00769590  1
  Sb  Sb100  1  0.84064141  0.16491007  0.34023960  1
  Sb  Sb101  1  0.16754610  0.83968582  0.33497239  1
  Sb  Sb102  1  0.16602724  0.66704846  0.15920606  1
  Sb  Sb103  1  0.33192646  0.49741887  0.51175010  1
  Sb  Sb104  1  0.49957168  0.33750646  0.82960915  1
  Sb  Sb105  1  0.49933157  0.16220401  0.66910684  1
  Sb  Sb106  1  0.17146098  0.83733284  0.66887267  1
  Sb  Sb107  1  0.49784536  0.50267975  -0.00806272  1
  Te  Te108  1  0.16643300  0.16656252  0.16692800  1
  Te  Te109  1  0.16696266  0.16476488  0.50442551  1
  Te  Te110  1  0.16793196  0.16012754  0.82703945  1
  Te  Te111  1  0.16763183  0.49858630  0.16558574  1
  Te  Te112  1  0.16152488  0.50003948  0.50753410  1
  Te  Te113  1  0.16609488  0.49842338  0.82893297  1
  Te  Te114  1  0.16042070  0.83274935  0.16754127  1
  Te  Te115  1  0.17071208  0.84038651  0.49895295  1
  Te  Te116  1  0.17058106  0.84158395  0.83357550  1
  Te  Te117  1  0.49808636  0.15940962  0.16423016  1
  Te  Te118  1  0.50062749  0.16218977  0.49959241  1
  Te  Te119  1  0.50649488  0.17067570  0.83783150  1
  Te  Te120  1  0.49994791  0.50041152  0.17068096  1
  Te  Te121  1  0.50064475  0.49976816  0.50743620  1
  Te  Te122  1  0.49860228  0.50519930  0.82734951  1
  Te  Te123  1  0.50261815  0.84010353  0.15570851  1
  Te  Te124  1  0.49922656  0.83594836  0.50457990  1
  Te  Te125  1  0.50009718  0.83193715  0.83185545  1
  Te  Te126  1  0.83613061  0.15799181  0.16907337  1
  Te  Te127  1  0.82845380  0.16699810  0.50746212  1
  Te  Te128  1  0.83003012  0.16580987  0.82935195  1
  Te  Te129  1  0.83120611  0.49771667  0.16742304  1
  Te  Te130  1  0.83651787  0.49905037  0.50850543  1
  Te  Te131  1  0.83593334  0.49707261  0.82835925  1
  Te  Te132  1  0.83299299  0.83882748  0.16241523  1
  Te  Te133  1  0.82532314  0.83438718  0.50037739  1
  Te  Te134  1  0.82998139  0.83735249  0.83830821  1
  Te  Te135  1  0.16343133  0.00070230  -0.00460547  1
  Te  Te136  1  0.16121493  0.00465342  0.33551011  1
  Te  Te137  1  0.16820223  -0.00053093  0.66693199  1
  Te  Te138  1  0.16907247  0.33572392  -0.00716176  1
  Te  Te139  1  0.16022525  0.32757834  0.33268035  1
  Te  Te140  1  0.16287033  0.33370636  0.67094302  1
  Te  Te141  1  0.16437176  0.66316898  -0.00668865  1
  Te  Te142  1  0.16256530  0.66608926  0.33387969  1
  Te  Te143  1  0.16857215  0.66357644  0.67269008  1
  Te  Te144  1  0.50090902  -0.00083427  -0.00301346  1
  Te  Te145  1  0.50044320  -0.00488877  0.33802413  1
  Te  Te146  1  0.49632882  -0.00326311  0.65992202  1
  Te  Te147  1  0.49883296  0.33556167  0.00050966  1
  Te  Te148  1  0.50088146  0.33497042  0.33906971  1
  Te  Te149  1  0.50007935  0.33211174  0.66154077  1
  Te  Te150  1  0.50443517  0.67024897  -0.00808596  1
  Te  Te151  1  0.49885998  0.67364178  0.32982477  1
  Te  Te152  1  0.49884526  0.66994550  0.66977821  1
  Te  Te153  1  0.83460655  -0.00139914  -0.00307391  1
  Te  Te154  1  0.84010482  0.00027877  0.32934369  1
  Te  Te155  1  0.83298808  0.00292733  0.67259695  1
  Te  Te156  1  0.82980572  0.33352803  -0.00823723  1
  Te  Te157  1  0.84185116  0.33317949  0.33024761  1
  Te  Te158  1  0.83675922  0.33306763  0.67175281  1
  Te  Te159  1  0.83335857  0.67127815  -0.00076253  1
  Te  Te160  1  0.84169574  0.66756190  0.33203203  1
  Te  Te161  1  0.82838231  0.66337544  0.66743059  1
  Te  Te162  1  0.00012568  0.16209816  0.00514690  1
  Te  Te163  1  0.00217464  0.16284788  0.33703667  1
  Te  Te164  1  0.00082721  0.16598456  0.66665485  1
  Te  Te165  1  0.00389652  0.49724932  -0.00406602  1
  Te  Te166  1  0.00045857  0.50584883  0.33486907  1
  Te  Te167  1  -0.00003224  0.50589424  0.66912336  1
  Te  Te168  1  0.00230796  0.83551657  0.00183580  1
  Te  Te169  1  -0.00045792  0.83567222  0.32876926  1
  Te  Te170  1  -0.00359639  0.83757703  0.66560502  1
  Te  Te171  1  0.33517285  0.16261384  -0.00052304  1
  Te  Te172  1  0.32793036  0.16764913  0.33450535  1
  Te  Te173  1  0.33160038  0.16193704  0.66279589  1
  Te  Te174  1  0.32939465  0.50161371  -0.00907053  1
  Te  Te175  1  0.33173901  0.50012217  0.33134207  1
  Te  Te176  1  0.33578153  0.49638157  0.67109781  1
  Te  Te177  1  0.33573264  0.83900305  -0.00408364  1
  Te  Te178  1  0.33881405  0.83231047  0.33132935  1
  Te  Te179  1  0.33408767  0.83635218  0.67001816  1
  Te  Te180  1  0.66367216  0.16545250  -0.00156975  1
  Te  Te181  1  0.66635774  0.16775113  0.34062617  1
  Te  Te182  1  0.66667686  0.16679207  0.66849964  1
  Te  Te183  1  0.66705124  0.49846735  0.00118869  1
  Te  Te184  1  0.66826050  0.50096400  0.34083374  1
  Te  Te185  1  0.66178217  0.50130225  0.66495214  1
  Te  Te186  1  0.66652940  0.83675188  -0.00448471  1
  Te  Te187  1  0.66206983  0.83266031  0.34493587  1
  Te  Te188  1  0.66326804  0.83063618  0.66585432  1
  Te  Te189  1  0.00235829  0.00153699  0.16422099  1
  Te  Te190  1  -0.00078849  0.00345099  0.50587187  1
  Te  Te191  1  -0.00110681  -0.00069233  0.83212479  1
  Te  Te192  1  -0.00120321  0.32822431  0.16820604  1
  Te  Te193  1  0.00023867  0.33090680  0.50456462  1
  Te  Te194  1  0.00049170  0.33378943  0.82914112  1
  Te  Te195  1  0.00100820  0.66573183  0.16154700  1
  Te  Te196  1  0.00040502  0.67002132  0.49643675  1
  Te  Te197  1  0.00192079  0.66549971  0.83758885  1
  Te  Te198  1  0.33576544  0.00388883  0.16336723  1
  Te  Te199  1  0.33228532  0.00136896  0.49773446  1
  Te  Te200  1  0.33316344  -0.00119155  0.83207563  1
  Te  Te201  1  0.33387160  0.32608874  0.15919571  1
  Te  Te202  1  0.33795846  0.32872862  0.49904348  1
  Te  Te203  1  0.33179312  0.33149409  0.83707008  1
  Te  Te204  1  0.33301453  0.66498545  0.16723128  1
  Te  Te205  1  0.33224151  0.66885061  0.50978875  1
  Te  Te206  1  0.33247034  0.66871026  0.83124328  1
  Te  Te207  1  0.66393879  -0.00425773  0.16497102  1
  Te  Te208  1  0.66610610  0.00187228  0.50003236  1
  Te  Te209  1  0.66753780  -0.00067077  0.83533177  1
  Te  Te210  1  0.66723390  0.33373655  0.16123853  1
  Te  Te211  1  0.66462239  0.33280152  0.49933293  1
  Te  Te212  1  0.66756370  0.33340239  0.83677670  1
  Te  Te213  1  0.66692422  0.67517625  0.16487433  1
  Te  Te214  1  0.66726313  0.66000889  0.50363138  1
  Te  Te215  1  0.66697629  0.66889039  0.83157922  1
