# generated using pymatgen
data_AgSbTe2
_symmetry_space_group_name_H-M   'P 1'
_cell_length_a   18.32529944
_cell_length_b   18.32520134
_cell_length_c   18.31899440
_cell_angle_alpha   89.99810950
_cell_angle_beta   90.00002853
_cell_angle_gamma   90.00251025
_symmetry_Int_Tables_number   1
_chemical_formula_structural   AgSbTe2
_chemical_formula_sum   'Ag54 Sb54 Te108'
_cell_volume   6151.78946546
_cell_formula_units_Z   54
loop_
 _symmetry_equiv_pos_site_id
 _symmetry_equiv_pos_as_xyz
  1  'x, y, z'
loop_
 _atom_site_type_symbol
 _atom_site_label
 _atom_site_symmetry_multiplicity
 _atom_site_fract_x
 _atom_site_fract_y
 _atom_site_fract_z
 _atom_site_occupancy
  Ag  Ag0  1  0.16572714  0.67060837  0.17725364  1
  Ag  Ag1  1  0.16865472  0.50602236  0.33461129  1
  Ag  Ag2  1  0.33236884  0.32265293  0.33579322  1
  Ag  Ag3  1  0.49612447  0.50202293  0.33803994  1
  Ag  Ag4  1  0.83089929  -0.00583535  0.49442445  1
  Ag  Ag5  1  0.15905506  0.49760874  0.00183118  1
  Ag  Ag6  1  0.17765675  0.16877231  0.32739863  1
  Ag  Ag7  1  0.17079545  0.82004084  0.33076197  1
  Ag  Ag8  1  -0.00161786  0.50291736  0.49946274  1
  Ag  Ag9  1  0.33002951  0.66708381  0.01107813  1
  Ag  Ag10  1  0.66578394  0.17275373  0.83532866  1
  Ag  Ag11  1  -0.00074632  0.50330063  0.83174165  1
  Ag  Ag12  1  0.16655920  0.66278830  0.49004153  1
  Ag  Ag13  1  0.66741216  0.82133386  0.49372147  1
  Ag  Ag14  1  0.84120567  -0.00035898  0.16796177  1
  Ag  Ag15  1  0.16120636  0.00208174  0.16964146  1
  Ag  Ag16  1  -0.00293301  0.84001336  0.16464984  1
  Ag  Ag17  1  0.16322430  0.50003287  0.66006296  1
  Ag  Ag18  1  0.33233403  0.33590426  0.65521162  1
  Ag  Ag19  1  0.16580827  0.33652828  0.83531325  1
  Ag  Ag20  1  0.83197718  0.50424996  0.66546094  1
  Ag  Ag21  1  0.83756405  0.83401137  0.00231986  1
  Ag  Ag22  1  0.50982033  0.65939013  0.49617287  1
  Ag  Ag23  1  0.49565945  0.83268326  0.33591138  1
  Ag  Ag24  1  0.49084055  0.16432493  0.33552079  1
  Ag  Ag25  1  0.82276451  0.66831714  0.49956628  1
  Ag  Ag26  1  0.65596385  0.33942626  0.33487223  1
  Ag  Ag27  1  0.33548110  0.00959444  0.33191325  1
  Ag  Ag28  1  0.33460912  0.16793511  0.48725284  1
  Ag  Ag29  1  0.84194799  0.50078025  -0.00414278  1
  Ag  Ag30  1  0.16053432  0.17055209  0.01069179  1
  Ag  Ag31  1  0.67296185  0.49810229  0.82360947  1
  Ag  Ag32  1  0.66238678  0.66427897  0.34085045  1
  Ag  Ag33  1  0.01198602  0.66167741  0.33474595  1
  Ag  Ag34  1  -0.00125649  -0.00277335  0.66932553  1
  Ag  Ag35  1  0.84268032  0.16544322  0.00469044  1
  Ag  Ag36  1  0.50696971  0.50076742  0.65542286  1
  Ag  Ag37  1  0.32710673  0.66636332  0.33299115  1
  Ag  Ag38  1  0.83680226  0.32803827  0.16676987  1
  Ag  Ag39  1  0.00358776  0.16038316  0.16501080  1
  Ag  Ag40  1  0.00103503  0.83051898  0.84029266  1
  Ag  Ag41  1  -0.00150258  0.00373719  0.00459927  1
  Ag  Ag42  1  0.67298133  0.83378999  0.17681481  1
  Ag  Ag43  1  0.49481493  -0.00065907  0.17665634  1
  Ag  Ag44  1  0.00011798  0.33102572  0.00677354  1
  Ag  Ag45  1  0.49878009  0.34296341  0.49526770  1
  Ag  Ag46  1  0.50303701  -0.00127043  0.49402241  1
  Ag  Ag47  1  0.66871555  0.66294603  0.65375012  1
  Ag  Ag48  1  0.66545701  0.50933194  0.50255896  1
  Ag  Ag49  1  0.49937472  -0.00134784  0.83167048  1
  Ag  Ag50  1  0.31971544  0.16430316  0.17583177  1
  Ag  Ag51  1  0.32722227  0.83303853  0.83448373  1
  Ag  Ag52  1  0.00549813  0.33890478  0.32798725  1
  Ag  Ag53  1  0.83489283  0.82798574  0.66415121  1
  Sb  Sb54  1  0.00315470  0.66512798  0.00641969  1
  Sb  Sb55  1  0.83822210  0.66914626  0.17235754  1
  Sb  Sb56  1  0.33708241  0.49631793  0.49694732  1
  Sb  Sb57  1  0.17174603  0.34077618  0.49697976  1
  Sb  Sb58  1  0.67464716  0.33472976  0.00561141  1
  Sb  Sb59  1  0.66968566  0.16154719  0.16596740  1
  Sb  Sb60  1  0.83345467  0.66542123  0.82791528  1
  Sb  Sb61  1  0.83230183  0.83329751  0.33343222  1
  Sb  Sb62  1  0.16568203  0.66222363  0.83331608  1
  Sb  Sb63  1  0.83804588  0.33655082  0.83849857  1
  Sb  Sb64  1  0.67045956  -0.00490566  0.66505502  1
  Sb  Sb65  1  0.16546583  -0.00389333  0.49155892  1
  Sb  Sb66  1  0.00334516  0.33540501  0.66605208  1
  Sb  Sb67  1  0.82971837  0.33683467  0.49464297  1
  Sb  Sb68  1  0.32840527  -0.00310983  0.00680323  1
  Sb  Sb69  1  0.16144884  0.82821692  0.66193377  1
  Sb  Sb70  1  0.33024750  0.00270630  0.66161097  1
  Sb  Sb71  1  0.66970783  0.83128746  0.83146550  1
  Sb  Sb72  1  0.49967586  0.66915314  0.82777963  1
  Sb  Sb73  1  0.50401705  0.32726304  0.17682375  1
  Sb  Sb74  1  0.33014223  0.83668142  0.16965891  1
  Sb  Sb75  1  0.66300881  0.34154744  0.66147360  1
  Sb  Sb76  1  0.00468793  -0.00175445  0.32886028  1
  Sb  Sb77  1  0.16726415  0.00309333  0.83885779  1
  Sb  Sb78  1  0.66587298  0.66605590  0.00244352  1
  Sb  Sb79  1  -0.00583800  0.82807425  0.49582025  1
  Sb  Sb80  1  0.83265486  -0.00110935  0.83621868  1
  Sb  Sb81  1  -0.00429496  0.66583164  0.65917553  1
  Sb  Sb82  1  0.66278091  0.16722923  0.49933236  1
  Sb  Sb83  1  0.66905230  0.50500509  0.17352066  1
  Sb  Sb84  1  0.33589575  0.16361697  0.83592106  1
  Sb  Sb85  1  0.50220418  0.83419922  0.00541428  1
  Sb  Sb86  1  0.00063940  0.49821121  0.16804681  1
  Sb  Sb87  1  0.16069130  0.33023891  0.16866690  1
  Sb  Sb88  1  0.49961208  0.50041200  0.00023698  1
  Sb  Sb89  1  0.49686938  0.33142446  0.82728211  1
  Sb  Sb90  1  0.49471414  0.67287104  0.17875036  1
  Sb  Sb91  1  0.50050442  0.16965777  0.65951067  1
  Sb  Sb92  1  0.67294131  0.00008034  0.00092906  1
  Sb  Sb93  1  0.32441072  0.33649602  0.00477666  1
  Sb  Sb94  1  0.65872533  -0.00232315  0.33323269  1
  Sb  Sb95  1  0.33787916  0.83468926  0.49735279  1
  Sb  Sb96  1  0.33026481  0.49641676  0.17249850  1
  Sb  Sb97  1  0.83365954  0.16704631  0.32812050  1
  Sb  Sb98  1  -0.00201621  0.16791370  0.84205907  1
  Sb  Sb99  1  0.49814342  0.16467170  0.00620593  1
  Sb  Sb100  1  0.00434804  0.16965680  0.49155824  1
  Sb  Sb101  1  0.33548815  0.66210949  0.65984059  1
  Sb  Sb102  1  0.50479495  0.83016044  0.66019947  1
  Sb  Sb103  1  0.32980960  0.50297367  0.83199410  1
  Sb  Sb104  1  0.83554443  0.50117881  0.33588502  1
  Sb  Sb105  1  0.16218853  0.83175017  0.00651612  1
  Sb  Sb106  1  0.83422643  0.16621074  0.67088870  1
  Sb  Sb107  1  0.16597730  0.17162631  0.66432542  1
  Te  Te108  1  0.16349267  0.16695697  0.16685701  1
  Te  Te109  1  0.17193611  0.16552154  0.49534573  1
  Te  Te110  1  0.16720800  0.17218247  0.83513712  1
  Te  Te111  1  0.16640958  0.50467021  0.16829341  1
  Te  Te112  1  0.16362358  0.50159772  0.49747601  1
  Te  Te113  1  0.16355978  0.49737822  0.83664424  1
  Te  Te114  1  0.16398331  0.83491789  0.17058083  1
  Te  Te115  1  0.16603935  0.82740009  0.49333326  1
  Te  Te116  1  0.16274639  0.83419959  0.83186324  1
  Te  Te117  1  0.50247496  0.15975657  0.17264944  1
  Te  Te118  1  0.49757238  0.16124180  0.49556434  1
  Te  Te119  1  0.50340236  0.16283135  0.83374464  1
  Te  Te120  1  0.50086192  0.49996802  0.17131622  1
  Te  Te121  1  0.50090901  0.50058577  0.49773928  1
  Te  Te122  1  0.50293241  0.50009632  0.83053514  1
  Te  Te123  1  0.50285681  0.83934681  0.17153408  1
  Te  Te124  1  0.50425695  0.83694489  0.49687630  1
  Te  Te125  1  0.50018110  0.83765201  0.83287108  1
  Te  Te126  1  0.83559518  0.16310742  0.16223005  1
  Te  Te127  1  0.83387585  0.16127242  0.50171978  1
  Te  Te128  1  0.82782981  0.16748260  0.83966237  1
  Te  Te129  1  0.83319079  0.49855354  0.15889525  1
  Te  Te130  1  0.83442798  0.50080855  0.50274970  1
  Te  Te131  1  0.83628240  0.50018508  0.83307104  1
  Te  Te132  1  0.83515867  0.83505674  0.16563728  1
  Te  Te133  1  0.83015805  0.83395663  0.50118950  1
  Te  Te134  1  0.83852768  0.83264429  0.83337134  1
  Te  Te135  1  0.16107714  0.00236108  0.00598427  1
  Te  Te136  1  0.17153538  0.00648556  0.32924642  1
  Te  Te137  1  0.16075815  -0.00095494  0.66578985  1
  Te  Te138  1  0.16184733  0.33580054  0.00065073  1
  Te  Te139  1  0.16778974  0.33265356  0.33322012  1
  Te  Te140  1  0.17037960  0.33865189  0.66906185  1
  Te  Te141  1  0.17083839  0.66333958  0.00089689  1
  Te  Te142  1  0.16772152  0.66431572  0.33307123  1
  Te  Te143  1  0.16636003  0.65980323  0.66222104  1
  Te  Te144  1  0.49927336  -0.00011155  -0.00113206  1
  Te  Te145  1  0.49831371  -0.00203454  0.33393043  1
  Te  Te146  1  0.49891903  -0.00033294  0.66481929  1
  Te  Te147  1  0.49879137  0.33285356  -0.00004871  1
  Te  Te148  1  0.49689339  0.33708065  0.33575391  1
  Te  Te149  1  0.49441589  0.33840602  0.66034303  1
  Te  Te150  1  0.49227615  0.66690827  0.00088502  1
  Te  Te151  1  0.50267166  0.66586926  0.33683600  1
  Te  Te152  1  0.50355885  0.66194469  0.65982259  1
  Te  Te153  1  0.83838623  -0.00177379  0.00299937  1
  Te  Te154  1  0.83261764  0.00034722  0.33295666  1
  Te  Te155  1  0.83750163  -0.00209600  0.66547058  1
  Te  Te156  1  0.83913754  0.33469610  0.00422628  1
  Te  Te157  1  0.84093008  0.33364694  0.32776900  1
  Te  Te158  1  0.83304593  0.33925299  0.66551797  1
  Te  Te159  1  0.83330015  0.66569948  0.00180790  1
  Te  Te160  1  0.82574785  0.66728252  0.33945156  1
  Te  Te161  1  0.83058424  0.66536256  0.66157480  1
  Te  Te162  1  0.00045707  0.16738658  0.00213659  1
  Te  Te163  1  0.00135114  0.17105511  0.32730121  1
  Te  Te164  1  0.00001879  0.16106412  0.66563458  1
  Te  Te165  1  0.00063523  0.49925500  -0.00039377  1
  Te  Te166  1  0.00178252  0.50037470  0.33451497  1
  Te  Te167  1  0.00080477  0.49948183  0.66786793  1
  Te  Te168  1  -0.00230627  0.83212061  0.00084460  1
  Te  Te169  1  0.00391248  0.83080407  0.32877465  1
  Te  Te170  1  -0.00435260  0.83518700  0.66739377  1
  Te  Te171  1  0.32751915  0.16673530  0.00448598  1
  Te  Te172  1  0.33495622  0.16608772  0.33149174  1
  Te  Te173  1  0.33231658  0.17314710  0.66641525  1
  Te  Te174  1  0.32976025  0.50523091  0.00123130  1
  Te  Te175  1  0.33212587  0.50587828  0.33281920  1
  Te  Te176  1  0.32956753  0.49567144  0.66715768  1
  Te  Te177  1  0.33335092  0.82892014  -0.00364237  1
  Te  Te178  1  0.33404246  0.82733216  0.33306746  1
  Te  Te179  1  0.33203047  0.83361520  0.67227361  1
  Te  Te180  1  0.66913151  0.16807621  -0.00389773  1
  Te  Te181  1  0.66337065  0.17459422  0.33281411  1
  Te  Te182  1  0.66764347  0.16793514  0.67390247  1
  Te  Te183  1  0.66926845  0.50046309  -0.00341637  1
  Te  Te184  1  0.66751128  0.49971258  0.33740818  1
  Te  Te185  1  0.66724703  0.50167956  0.66438152  1
  Te  Te186  1  0.67370640  0.83196653  0.00121408  1
  Te  Te187  1  0.66475167  0.83267319  0.33505039  1
  Te  Te188  1  0.67297233  0.82745397  0.66403625  1
  Te  Te189  1  0.00050378  0.00022413  0.16619036  1
  Te  Te190  1  -0.00420496  0.00032227  0.50085642  1
  Te  Te191  1  0.00071543  -0.00286573  0.83615489  1
  Te  Te192  1  -0.00400116  0.33242618  0.16683995  1
  Te  Te193  1  -0.00102225  0.33840016  0.49634555  1
  Te  Te194  1  0.00490840  0.33705707  0.83429484  1
  Te  Te195  1  0.00428758  0.67173321  0.17368853  1
  Te  Te196  1  0.00344709  0.66261233  0.49513924  1
  Te  Te197  1  0.00026152  0.66579184  0.83303188  1
  Te  Te198  1  0.33379237  0.00239422  0.17042008  1
  Te  Te199  1  0.33575477  0.00375836  0.49538204  1
  Te  Te200  1  0.33630725  -0.00429703  0.83277051  1
  Te  Te201  1  0.33604830  0.32552315  0.17232094  1
  Te  Te202  1  0.33683805  0.32992906  0.49682531  1
  Te  Te203  1  0.32849908  0.33316256  0.83486292  1
  Te  Te204  1  0.32856213  0.66750474  0.16942125  1
  Te  Te205  1  0.33058486  0.66835429  0.49521989  1
  Te  Te206  1  0.33372836  0.67261211  0.83105363  1
  Te  Te207  1  0.66887115  -0.00625763  0.16652999  1
  Te  Te208  1  0.66874005  0.00006208  0.50047880  1
  Te  Te209  1  0.66079249  0.00102469  0.83281194  1
  Te  Te210  1  0.67359422  0.33412525  0.17350500  1
  Te  Te211  1  0.66171834  0.33460782  0.49416058  1
  Te  Te212  1  0.66596773  0.33652562  0.83419253  1
  Te  Te213  1  0.66646058  0.67322117  0.17078275  1
  Te  Te214  1  0.66658835  0.66569198  0.49834246  1
  Te  Te215  1  0.66507982  0.65955531  0.83260640  1
