# generated using pymatgen
data_AgSbTe2
_symmetry_space_group_name_H-M   'P 1'
_cell_length_a   18.32182953
_cell_length_b   18.32318789
_cell_length_c   18.31908322
_cell_angle_alpha   90.00236367
_cell_angle_beta   89.99693072
_cell_angle_gamma   89.99849842
_symmetry_Int_Tables_number   1
_chemical_formula_structural   AgSbTe2
_chemical_formula_sum   'Ag54 Sb54 Te108'
_cell_volume   6149.97864049
_cell_formula_units_Z   54
loop_
 _symmetry_equiv_pos_site_id
 _symmetry_equiv_pos_as_xyz
  1  'x, y, z'
loop_
 _atom_site_type_symbol
 _atom_site_label
 _atom_site_symmetry_multiplicity
 _atom_site_fract_x
 _atom_site_fract_y
 _atom_site_fract_z
 _atom_site_occupancy
  Ag  Ag0  1  0.83427864  0.66109104  0.17546138  1
  Ag  Ag1  1  0.66251567  0.16825734  0.83086556  1
  Ag  Ag2  1  0.49734112  0.32758488  0.83551866  1
  Ag  Ag3  1  0.66097552  0.16376101  0.49927232  1
  Ag  Ag4  1  0.17668915  0.83587790  -0.00664375  1
  Ag  Ag5  1  0.33764066  0.83742195  0.83396911  1
  Ag  Ag6  1  0.66616282  0.48945841  0.83405406  1
  Ag  Ag7  1  0.50096149  0.00503912  0.49541102  1
  Ag  Ag8  1  0.50091171  0.49780332  -0.00501354  1
  Ag  Ag9  1  0.83094377  0.32619401  0.83019937  1
  Ag  Ag10  1  0.83468868  0.66515100  0.49826302  1
  Ag  Ag11  1  0.16930180  0.33440775  0.50894888  1
  Ag  Ag12  1  0.33858103  0.66511488  0.34087388  1
  Ag  Ag13  1  -0.00505852  0.49611174  0.17393033  1
  Ag  Ag14  1  -0.00630954  0.82668890  0.50441041  1
  Ag  Ag15  1  0.49768356  0.66383824  0.83521777  1
  Ag  Ag16  1  0.17861636  0.17346659  0.67139975  1
  Ag  Ag17  1  0.49770049  0.00324426  0.16677875  1
  Ag  Ag18  1  0.66811522  0.83935465  0.50015909  1
  Ag  Ag19  1  0.66240743  0.83891604  0.83249816  1
  Ag  Ag20  1  0.66641278  0.16550247  0.17194215  1
  Ag  Ag21  1  0.33391328  0.01405098  0.67016873  1
  Ag  Ag22  1  0.83300456  0.00861510  0.83235403  1
  Ag  Ag23  1  0.33162678  0.66240003  0.66881764  1
  Ag  Ag24  1  -0.00814023  0.33469991  0.33435399  1
  Ag  Ag25  1  0.32981763  0.32732870  0.67020924  1
  Ag  Ag26  1  0.33868813  0.16978365  0.82692028  1
  Ag  Ag27  1  0.49774494  0.83643743  -0.00694772  1
  Ag  Ag28  1  0.83220772  0.49745833  0.33549760  1
  Ag  Ag29  1  0.17168295  0.00224311  0.15726581  1
  Ag  Ag30  1  0.16719355  0.00576140  0.83515005  1
  Ag  Ag31  1  -0.00106330  0.16552168  0.83207870  1
  Ag  Ag32  1  0.83773092  0.49607493  0.66618491  1
  Ag  Ag33  1  0.33783009  0.66483675  -0.00911238  1
  Ag  Ag34  1  0.67008463  0.32907332  0.33553244  1
  Ag  Ag35  1  0.83168446  0.17171642  0.67432914  1
  Ag  Ag36  1  0.16948552  0.49321401  0.66631862  1
  Ag  Ag37  1  0.00094189  0.83904674  0.82939138  1
  Ag  Ag38  1  0.34317434  0.17206757  0.51293038  1
  Ag  Ag39  1  -0.00227365  0.50248043  0.50099428  1
  Ag  Ag40  1  0.82675496  0.82964872  0.33851706  1
  Ag  Ag41  1  0.50550585  0.83627596  0.33376578  1
  Ag  Ag42  1  0.66258024  0.00318575  -0.00440728  1
  Ag  Ag43  1  0.17718972  0.32503249  0.82723276  1
  Ag  Ag44  1  0.82444049  0.17445290  0.33795119  1
  Ag  Ag45  1  0.82723903  0.50002393  -0.00653515  1
  Ag  Ag46  1  0.50527683  0.16775443  0.33777093  1
  Ag  Ag47  1  0.33106644  0.49647498  0.50377786  1
  Ag  Ag48  1  0.33665768  0.33564172  -0.01172365  1
  Ag  Ag49  1  -0.00553421  0.16936361  0.16472516  1
  Ag  Ag50  1  0.50165065  0.16546974  -0.00958529  1
  Ag  Ag51  1  0.49112832  0.16632509  0.67184736  1
  Ag  Ag52  1  0.00192386  0.66332877  0.66587326  1
  Ag  Ag53  1  0.50463924  0.49562712  0.33250918  1
  Sb  Sb54  1  0.66292705  0.32992782  -0.00254087  1
  Sb  Sb55  1  0.00165217  0.33309595  -0.00126284  1
  Sb  Sb56  1  0.16521754  0.32869728  0.16360075  1
  Sb  Sb57  1  0.82815624  -0.00052721  0.50495544  1
  Sb  Sb58  1  0.33638324  0.33534861  0.33861162  1
  Sb  Sb59  1  0.66609041  0.66593496  0.66773575  1
  Sb  Sb60  1  -0.00225734  0.00436305  0.33367206  1
  Sb  Sb61  1  0.49869274  0.49541173  0.66827955  1
  Sb  Sb62  1  0.66991383  0.49445242  0.16381538  1
  Sb  Sb63  1  0.16996567  0.50135361  -0.00694034  1
  Sb  Sb64  1  -0.00150162  0.16914206  0.50392752  1
  Sb  Sb65  1  0.66509444  0.83986708  0.16742785  1
  Sb  Sb66  1  0.16738089  0.83322226  0.33130024  1
  Sb  Sb67  1  0.66160590  0.66847602  -0.00187975  1
  Sb  Sb68  1  -0.00222131  0.00097188  -0.00260576  1
  Sb  Sb69  1  0.83345917  0.33521395  0.16643738  1
  Sb  Sb70  1  -0.00176375  0.66235459  0.33812412  1
  Sb  Sb71  1  0.33113257  0.50070071  0.16955417  1
  Sb  Sb72  1  0.66344791  0.32974091  0.66630963  1
  Sb  Sb73  1  0.33656220  0.16505038  0.16457821  1
  Sb  Sb74  1  0.33452665  0.83355587  0.16007606  1
  Sb  Sb75  1  0.16374153  0.66218007  0.50318220  1
  Sb  Sb76  1  0.00224330  0.66590834  -0.00554873  1
  Sb  Sb77  1  0.66521629  0.00672495  0.33112063  1
  Sb  Sb78  1  0.17077656  0.00511535  0.50530235  1
  Sb  Sb79  1  0.50000432  0.00413816  0.83483582  1
  Sb  Sb80  1  0.82921675  0.66523040  0.83016600  1
  Sb  Sb81  1  0.66791975  0.49721266  0.50212634  1
  Sb  Sb82  1  0.50322904  0.66937649  0.16411325  1
  Sb  Sb83  1  0.49614906  0.32699553  0.50414393  1
  Sb  Sb84  1  0.82733782  0.17123720  -0.00409650  1
  Sb  Sb85  1  0.00334181  -0.00006530  0.66904973  1
  Sb  Sb86  1  0.16736640  0.83510055  0.67220381  1
  Sb  Sb87  1  -0.00168880  0.83425021  0.16610869  1
  Sb  Sb88  1  0.50061660  0.32802363  0.16247338  1
  Sb  Sb89  1  0.82975899  0.82905361  -0.00034085  1
  Sb  Sb90  1  0.33857767  0.49655940  0.82784150  1
  Sb  Sb91  1  -0.00563159  0.49714489  0.82890925  1
  Sb  Sb92  1  0.49828239  0.83884161  0.66950732  1
  Sb  Sb93  1  0.83050668  0.00136941  0.16284974  1
  Sb  Sb94  1  0.50233786  0.66915418  0.50314024  1
  Sb  Sb95  1  0.17275448  0.66786806  0.83160885  1
  Sb  Sb96  1  0.17301204  0.16278966  -0.00863831  1
  Sb  Sb97  1  0.00647505  0.33646507  0.66478820  1
  Sb  Sb98  1  0.83687197  0.33568307  0.50230336  1
  Sb  Sb99  1  0.16470878  0.49802271  0.33944799  1
  Sb  Sb100  1  0.33779762  -0.00246180  0.33851190  1
  Sb  Sb101  1  0.33854746  0.00020332  -0.00830276  1
  Sb  Sb102  1  0.66580417  0.66425505  0.33355338  1
  Sb  Sb103  1  0.16355316  0.66835092  0.16558244  1
  Sb  Sb104  1  0.83385089  0.83310170  0.66506686  1
  Sb  Sb105  1  0.66122346  0.00439269  0.67195486  1
  Sb  Sb106  1  0.33504732  0.83273925  0.50556698  1
  Sb  Sb107  1  0.16821938  0.16769826  0.33686034  1
  Te  Te108  1  0.16362803  0.16151066  0.16694181  1
  Te  Te109  1  0.16768081  0.17056660  0.50581199  1
  Te  Te110  1  0.16586445  0.16609522  0.83183291  1
  Te  Te111  1  0.15768145  0.49894507  0.16499792  1
  Te  Te112  1  0.16677083  0.49624250  0.50477721  1
  Te  Te113  1  0.16338999  0.49471833  0.82771782  1
  Te  Te114  1  0.16507449  0.83915837  0.16031449  1
  Te  Te115  1  0.16096612  0.83521041  0.50025569  1
  Te  Te116  1  0.16632569  0.83437269  0.83564915  1
  Te  Te117  1  0.50246338  0.16314994  0.17054887  1
  Te  Te118  1  0.50079688  0.16673606  0.49893063  1
  Te  Te119  1  0.50021425  0.16600753  0.83159577  1
  Te  Te120  1  0.50098868  0.50045089  0.16838124  1
  Te  Te121  1  0.49876556  0.50035190  0.49569549  1
  Te  Te122  1  0.50486101  0.50004729  0.83416873  1
  Te  Te123  1  0.50091761  0.83802733  0.17044023  1
  Te  Te124  1  0.50298224  0.83711727  0.49807448  1
  Te  Te125  1  0.50017431  0.83533344  0.83420361  1
  Te  Te126  1  0.83324910  0.16656380  0.16868447  1
  Te  Te127  1  0.82969086  0.16632891  0.49666935  1
  Te  Te128  1  0.83279257  0.16720257  0.83528867  1
  Te  Te129  1  0.83505515  0.50066208  0.17242999  1
  Te  Te130  1  0.83339597  0.50206484  0.49907348  1
  Te  Te131  1  0.82866511  0.50021330  0.83210412  1
  Te  Te132  1  0.83321804  0.83037442  0.17187782  1
  Te  Te133  1  0.83205827  0.83301587  0.49838244  1
  Te  Te134  1  0.83211430  0.83412013  0.83357137  1
  Te  Te135  1  0.16724145  -0.00365313  -0.00289439  1
  Te  Te136  1  0.16734240  -0.00059457  0.32763299  1
  Te  Te137  1  0.17169667  0.00515745  0.67252989  1
  Te  Te138  1  0.17302094  0.33353580  -0.00739731  1
  Te  Te139  1  0.16511290  0.33280939  0.33507384  1
  Te  Te140  1  0.16829476  0.33347704  0.66889066  1
  Te  Te141  1  0.17389181  0.67218109  0.00015114  1
  Te  Te142  1  0.17699309  0.66655735  0.33212511  1
  Te  Te143  1  0.16636385  0.66077061  0.66664059  1
  Te  Te144  1  0.50104887  -0.00028649  0.00258989  1
  Te  Te145  1  0.50037036  -0.00065847  0.33268369  1
  Te  Te146  1  0.49497655  0.00539427  0.66030843  1
  Te  Te147  1  0.49794992  0.33509313  -0.00336561  1
  Te  Te148  1  0.50172099  0.33418312  0.33234660  1
  Te  Te149  1  0.49435005  0.32837354  0.67267179  1
  Te  Te150  1  0.49629904  0.66691490  -0.00172079  1
  Te  Te151  1  0.49850180  0.66696056  0.33268348  1
  Te  Te152  1  0.49663225  0.66538858  0.67196047  1
  Te  Te153  1  0.82673816  -0.00124850  -0.00563766  1
  Te  Te154  1  0.83314852  -0.00208431  0.33252581  1
  Te  Te155  1  0.83464913  0.00462819  0.67282442  1
  Te  Te156  1  0.83347673  0.34122420  -0.00594231  1
  Te  Te157  1  0.83293639  0.33350525  0.33418996  1
  Te  Te158  1  0.83304130  0.33423074  0.66896169  1
  Te  Te159  1  0.83358870  0.66012456  0.00167830  1
  Te  Te160  1  0.83314837  0.66508528  0.33609589  1
  Te  Te161  1  0.83528963  0.66315113  0.66235673  1
  Te  Te162  1  -0.00040859  0.16776407  -0.00076897  1
  Te  Te163  1  -0.00098005  0.17148750  0.33375690  1
  Te  Te164  1  -0.00863972  0.16692933  0.67074246  1
  Te  Te165  1  -0.00247811  0.50068895  0.00333386  1
  Te  Te166  1  -0.00239903  0.49795357  0.33631324  1
  Te  Te167  1  -0.00277153  0.50220937  0.66330277  1
  Te  Te168  1  0.00024491  0.83246197  -0.00622945  1
  Te  Te169  1  -0.00240315  0.83200876  0.33680708  1
  Te  Te170  1  0.00068834  0.82895290  0.66778511  1
  Te  Te171  1  0.34038571  0.16961107  -0.00361118  1
  Te  Te172  1  0.33911345  0.16644646  0.33587223  1
  Te  Te173  1  0.33435786  0.16999751  0.66822137  1
  Te  Te174  1  0.33737068  0.50074494  0.00161501  1
  Te  Te175  1  0.33572222  0.50294664  0.33722705  1
  Te  Te176  1  0.33322212  0.50235807  0.66284304  1
  Te  Te177  1  0.33683556  0.83263694  -0.00567609  1
  Te  Te178  1  0.33698030  0.82887374  0.33541264  1
  Te  Te179  1  0.33219881  0.82257676  0.67360390  1
  Te  Te180  1  0.66171492  0.16605367  -0.00607023  1
  Te  Te181  1  0.66627430  0.16731393  0.33583834  1
  Te  Te182  1  0.67285568  0.16763077  0.66850404  1
  Te  Te183  1  0.66396117  0.49888798  -0.00374803  1
  Te  Te184  1  0.66641126  0.49509420  0.33313940  1
  Te  Te185  1  0.67146879  0.49811273  0.67165850  1
  Te  Te186  1  0.66177308  0.83706106  -0.00282795  1
  Te  Te187  1  0.66602834  0.83340042  0.33516986  1
  Te  Te188  1  0.66636053  0.83436486  0.66729146  1
  Te  Te189  1  0.00219546  0.00563036  0.16569260  1
  Te  Te190  1  0.00081052  -0.00734327  0.50093573  1
  Te  Te191  1  0.00055702  0.00055058  0.83312448  1
  Te  Te192  1  0.00064566  0.33128488  0.17020938  1
  Te  Te193  1  0.00520413  0.33705981  0.49499393  1
  Te  Te194  1  -0.00571314  0.32863226  0.83304002  1
  Te  Te195  1  -0.00439672  0.66350735  0.16597711  1
  Te  Te196  1  -0.00251223  0.66507069  0.50336470  1
  Te  Te197  1  0.00059596  0.66985560  0.82735846  1
  Te  Te198  1  0.33372101  -0.00034566  0.16740153  1
  Te  Te199  1  0.33714843  0.00247958  0.50669265  1
  Te  Te200  1  0.33176271  0.00002087  0.83008917  1
  Te  Te201  1  0.33139428  0.33380985  0.16056047  1
  Te  Te202  1  0.33025030  0.33400792  0.50281512  1
  Te  Te203  1  0.33555853  0.33312650  0.83128157  1
  Te  Te204  1  0.33323148  0.66645583  0.16626002  1
  Te  Te205  1  0.33394744  0.66415537  0.50259169  1
  Te  Te206  1  0.33698730  0.66449730  0.83295349  1
  Te  Te207  1  0.66282759  0.00675172  0.15870063  1
  Te  Te208  1  0.66211577  0.00031224  0.50190469  1
  Te  Te209  1  0.66738479  0.00069913  0.83495868  1
  Te  Te210  1  0.66695611  0.32475694  0.17292559  1
  Te  Te211  1  0.66642484  0.32832817  0.49586254  1
  Te  Te212  1  0.66628096  0.33078677  0.83251846  1
  Te  Te213  1  0.67494210  0.66652149  0.16570621  1
  Te  Te214  1  0.67156710  0.67207259  0.50044939  1
  Te  Te215  1  0.66056894  0.67322446  0.83350127  1
