# generated using pymatgen
data_AgSbTe2
_symmetry_space_group_name_H-M   'P 1'
_cell_length_a   18.34055648
_cell_length_b   18.33502143
_cell_length_c   18.33074750
_cell_angle_alpha   90.00343126
_cell_angle_beta   89.99771762
_cell_angle_gamma   89.99930098
_symmetry_Int_Tables_number   1
_chemical_formula_structural   AgSbTe2
_chemical_formula_sum   'Ag54 Sb54 Te108'
_cell_volume   6164.16286318
_cell_formula_units_Z   54
loop_
 _symmetry_equiv_pos_site_id
 _symmetry_equiv_pos_as_xyz
  1  'x, y, z'
loop_
 _atom_site_type_symbol
 _atom_site_label
 _atom_site_symmetry_multiplicity
 _atom_site_fract_x
 _atom_site_fract_y
 _atom_site_fract_z
 _atom_site_occupancy
  Ag  Ag0  1  0.16810985  0.17222935  0.34491583  1
  Ag  Ag1  1  0.32132332  0.16423857  0.49532349  1
  Ag  Ag2  1  0.32785286  0.16456136  0.17045359  1
  Ag  Ag3  1  0.83545450  -0.00732717  0.83598557  1
  Ag  Ag4  1  0.66713850  -0.00827133  -0.00031207  1
  Ag  Ag5  1  0.00875880  0.16658778  0.50178379  1
  Ag  Ag6  1  0.83453148  0.67114831  0.83867686  1
  Ag  Ag7  1  0.16717146  0.32260355  0.49723641  1
  Ag  Ag8  1  0.16687904  0.66942362  0.49416942  1
  Ag  Ag9  1  0.66967558  0.17186841  0.83469764  1
  Ag  Ag10  1  0.16675506  0.49898030  0.32445693  1
  Ag  Ag11  1  0.82985807  0.82310659  -0.00397753  1
  Ag  Ag12  1  0.67009841  0.66458428  0.00297469  1
  Ag  Ag13  1  0.49518667  0.33198622  0.50537441  1
  Ag  Ag14  1  0.16049329  0.83709289  0.66033992  1
  Ag  Ag15  1  0.16612772  0.00902692  0.50421272  1
  Ag  Ag16  1  0.50920592  0.17008180  0.00114676  1
  Ag  Ag17  1  0.83700012  0.83478784  0.67720828  1
  Ag  Ag18  1  0.15766439  0.16438399  0.65729200  1
  Ag  Ag19  1  0.83563842  0.67020005  0.50455226  1
  Ag  Ag20  1  -0.00982257  0.65635187  -0.00037512  1
  Ag  Ag21  1  0.66739575  0.16837449  0.50658408  1
  Ag  Ag22  1  0.51098431  0.82893533  0.00939831  1
  Ag  Ag23  1  0.50422969  0.33662332  0.83217922  1
  Ag  Ag24  1  0.50320038  0.83029572  0.66576929  1
  Ag  Ag25  1  0.00101403  0.49418208  0.15704462  1
  Ag  Ag26  1  -0.00249370  0.50257387  0.84467661  1
  Ag  Ag27  1  0.84384483  0.33492228  0.16072646  1
  Ag  Ag28  1  0.50090410  -0.01613642  0.16216189  1
  Ag  Ag29  1  0.66852821  0.50483989  0.15800417  1
  Ag  Ag30  1  0.32921435  0.83137095  0.49707182  1
  Ag  Ag31  1  0.67023684  0.32942505  0.66909783  1
  Ag  Ag32  1  -0.00242154  0.33063808  0.67055390  1
  Ag  Ag33  1  0.82890122  0.17026935  -0.00765922  1
  Ag  Ag34  1  -0.00211085  0.34283192  0.00050968  1
  Ag  Ag35  1  0.33660256  0.66901732  0.33195366  1
  Ag  Ag36  1  0.33141418  0.50070550  0.83752659  1
  Ag  Ag37  1  0.66113268  0.66745565  0.32159521  1
  Ag  Ag38  1  0.50211008  0.67136180  0.16955613  1
  Ag  Ag39  1  0.01208426  0.83274100  0.50772931  1
  Ag  Ag40  1  0.34369550  0.83050866  0.17153928  1
  Ag  Ag41  1  0.00623584  0.17620076  0.16538928  1
  Ag  Ag42  1  0.15124130  0.50181932  0.00565766  1
  Ag  Ag43  1  0.83609113  0.16687853  0.67126293  1
  Ag  Ag44  1  0.65623311  0.82230038  0.15993429  1
  Ag  Ag45  1  -0.00582645  0.82841016  0.82900016  1
  Ag  Ag46  1  0.49840253  0.82725746  0.32235899  1
  Ag  Ag47  1  0.16041596  -0.00057160  0.82780039  1
  Ag  Ag48  1  0.50784162  0.50166498  -0.00114380  1
  Ag  Ag49  1  0.49939557  0.67180933  0.49115320  1
  Ag  Ag50  1  0.66935581  0.49631741  0.84134292  1
  Ag  Ag51  1  0.16106994  0.34115474  0.16921281  1
  Ag  Ag52  1  0.83527829  0.50405051  -0.00056388  1
  Ag  Ag53  1  0.17083995  0.66035132  0.17108081  1
  Sb  Sb54  1  0.33620337  0.66593397  0.00575140  1
  Sb  Sb55  1  0.33609960  0.16936526  0.83332250  1
  Sb  Sb56  1  0.66625047  0.49938532  0.50033226  1
  Sb  Sb57  1  0.83675655  0.33510929  0.49981086  1
  Sb  Sb58  1  0.66384900  0.33770545  0.33661117  1
  Sb  Sb59  1  0.16622377  0.33148523  0.83262680  1
  Sb  Sb60  1  -0.00598611  0.00039684  -0.00208395  1
  Sb  Sb61  1  0.66426145  0.83453769  0.49789678  1
  Sb  Sb62  1  0.00170896  0.66668588  0.32974128  1
  Sb  Sb63  1  0.00311106  0.33322177  0.32955401  1
  Sb  Sb64  1  0.50185658  0.16492541  0.66806421  1
  Sb  Sb65  1  0.00009128  0.83035861  0.16353614  1
  Sb  Sb66  1  0.17158209  0.83138655  0.33946637  1
  Sb  Sb67  1  0.67235773  0.83224457  0.83979249  1
  Sb  Sb68  1  0.33118401  0.33747458  0.33320266  1
  Sb  Sb69  1  0.83011548  0.66341751  0.16096797  1
  Sb  Sb70  1  0.33318435  0.66841125  0.66059341  1
  Sb  Sb71  1  0.50403786  0.00124736  0.83920959  1
  Sb  Sb72  1  0.49674175  -0.00221334  0.49721842  1
  Sb  Sb73  1  -0.00103706  0.66632542  0.66987480  1
  Sb  Sb74  1  0.16302931  0.17011807  -0.00010669  1
  Sb  Sb75  1  0.16412962  0.49893610  0.66837281  1
  Sb  Sb76  1  0.00165031  0.00289491  0.66791215  1
  Sb  Sb77  1  0.49817101  0.33668069  0.16283658  1
  Sb  Sb78  1  0.83693001  0.16746164  0.33464172  1
  Sb  Sb79  1  0.49509036  0.16410468  0.33037250  1
  Sb  Sb80  1  0.17034207  0.00073182  0.16668698  1
  Sb  Sb81  1  0.16134681  0.66795170  0.83469610  1
  Sb  Sb82  1  0.32985923  0.50262456  0.16238471  1
  Sb  Sb83  1  0.32983799  0.33474146  0.00073499  1
  Sb  Sb84  1  0.67165004  0.33857935  -0.00354633  1
  Sb  Sb85  1  0.00263681  0.00017168  0.33451925  1
  Sb  Sb86  1  0.00173259  0.49944939  0.49913888  1
  Sb  Sb87  1  0.82865168  0.00409035  0.15746332  1
  Sb  Sb88  1  0.33292244  -0.00560463  0.33367536  1
  Sb  Sb89  1  0.66425997  -0.00366953  0.32772395  1
  Sb  Sb90  1  0.83724258  -0.00267890  0.50781997  1
  Sb  Sb91  1  0.16448989  0.82847411  -0.00236266  1
  Sb  Sb92  1  0.49650191  0.50674545  0.32828162  1
  Sb  Sb93  1  0.83393339  0.49920083  0.67441327  1
  Sb  Sb94  1  0.66650415  0.17040826  0.16239910  1
  Sb  Sb95  1  0.83654147  0.50281383  0.32554732  1
  Sb  Sb96  1  0.33237923  0.50212600  0.50135908  1
  Sb  Sb97  1  0.66765727  0.66490801  0.66986698  1
  Sb  Sb98  1  0.33132943  -0.00019560  0.66591354  1
  Sb  Sb99  1  0.66855025  0.00284387  0.67311674  1
  Sb  Sb100  1  -0.00560555  0.16860373  0.83263715  1
  Sb  Sb101  1  0.33211808  0.33213587  0.66498835  1
  Sb  Sb102  1  0.50151790  0.50195766  0.67162275  1
  Sb  Sb103  1  0.83014801  0.33495016  0.83783308  1
  Sb  Sb104  1  0.82852535  0.82871123  0.33160557  1
  Sb  Sb105  1  0.50562685  0.66407482  0.83941817  1
  Sb  Sb106  1  0.33951375  -0.00037179  0.00144943  1
  Sb  Sb107  1  0.33034341  0.82907581  0.83280400  1
  Te  Te108  1  0.16657078  0.16551912  0.16407880  1
  Te  Te109  1  0.16552016  0.16657025  0.50143693  1
  Te  Te110  1  0.16741547  0.16266131  0.83003895  1
  Te  Te111  1  0.16861955  0.50024203  0.16486178  1
  Te  Te112  1  0.16736132  0.50701007  0.49906673  1
  Te  Te113  1  0.16292894  0.49962709  0.83684399  1
  Te  Te114  1  0.16800821  0.83095317  0.16785606  1
  Te  Te115  1  0.16851603  0.82891294  0.50017196  1
  Te  Te116  1  0.16282678  0.83602643  0.82874433  1
  Te  Te117  1  0.49687468  0.17100470  0.16237443  1
  Te  Te118  1  0.50260127  0.16654900  0.49925003  1
  Te  Te119  1  0.50290242  0.16945158  0.83700698  1
  Te  Te120  1  0.50097360  0.50278373  0.16190269  1
  Te  Te121  1  0.49911087  0.49886155  0.50002661  1
  Te  Te122  1  0.50653764  0.49813246  0.83703092  1
  Te  Te123  1  0.49965512  0.82801966  0.16451504  1
  Te  Te124  1  0.49756125  0.83296677  0.50470671  1
  Te  Te125  1  0.49868371  0.83304998  0.82808222  1
  Te  Te126  1  0.83638093  0.17168860  0.16659135  1
  Te  Te127  1  0.83239755  0.16609665  0.50300008  1
  Te  Te128  1  0.83092403  0.16768942  0.83160322  1
  Te  Te129  1  0.83528322  0.49746561  0.16211772  1
  Te  Te130  1  0.83398995  0.50675853  0.49955975  1
  Te  Te131  1  0.83425669  0.50275381  0.83744345  1
  Te  Te132  1  0.83194496  0.83518971  0.16095446  1
  Te  Te133  1  0.83254653  0.83087885  0.50077118  1
  Te  Te134  1  0.83307330  0.83224060  0.83513788  1
  Te  Te135  1  0.16649783  -0.00079971  -0.00360797  1
  Te  Te136  1  0.16713650  0.00933758  0.33778706  1
  Te  Te137  1  0.16678416  -0.00083736  0.66524254  1
  Te  Te138  1  0.16103123  0.33815095  0.00154197  1
  Te  Te139  1  0.16764829  0.33385388  0.33414508  1
  Te  Te140  1  0.16357892  0.33058748  0.66345676  1
  Te  Te141  1  0.16624794  0.66189152  0.00282236  1
  Te  Te142  1  0.16695030  0.66628959  0.33206759  1
  Te  Te143  1  0.16603223  0.67067332  0.66177784  1
  Te  Te144  1  0.50560077  0.00024011  0.00229478  1
  Te  Te145  1  0.50022067  -0.00738669  0.32548543  1
  Te  Te146  1  0.50073902  -0.00754984  0.66742197  1
  Te  Te147  1  0.49811073  0.33312017  -0.00314677  1
  Te  Te148  1  0.49866285  0.33419254  0.34352281  1
  Te  Te149  1  0.50343504  0.33310413  0.66624287  1
  Te  Te150  1  0.50289440  0.66814511  0.00335776  1
  Te  Te151  1  0.50083123  0.66758170  0.33187201  1
  Te  Te152  1  0.50088607  0.67058559  0.66238513  1
  Te  Te153  1  0.82797107  0.00575187  -0.00555235  1
  Te  Te154  1  0.83217893  -0.00131051  0.33287630  1
  Te  Te155  1  0.83343219  0.00058157  0.67439058  1
  Te  Te156  1  0.83751192  0.33069488  0.00255318  1
  Te  Te157  1  0.83165083  0.33445538  0.32478646  1
  Te  Te158  1  0.83420406  0.32922321  0.66464436  1
  Te  Te159  1  0.83186148  0.66485680  0.00009847  1
  Te  Te160  1  0.82790416  0.66604539  0.34204056  1
  Te  Te161  1  0.83320587  0.66996382  0.66591902  1
  Te  Te162  1  -0.00461288  0.16813608  0.00194361  1
  Te  Te163  1  0.00451211  0.16656996  0.33537578  1
  Te  Te164  1  -0.00152848  0.17008570  0.66660827  1
  Te  Te165  1  -0.00400917  0.49996178  0.00107868  1
  Te  Te166  1  0.00638114  0.50091661  0.32728824  1
  Te  Te167  1  -0.00060197  0.49213493  0.66983650  1
  Te  Te168  1  -0.00435811  0.83153868  -0.00381876  1
  Te  Te169  1  -0.00153514  0.83317587  0.34037224  1
  Te  Te170  1  -0.00220049  0.83085826  0.66692168  1
  Te  Te171  1  0.33649197  0.16691564  0.00267836  1
  Te  Te172  1  0.32988619  0.16746664  0.33424766  1
  Te  Te173  1  0.33014274  0.16670287  0.66152284  1
  Te  Te174  1  0.34292430  0.49994372  -0.00427679  1
  Te  Te175  1  0.32719509  0.50802056  0.33305409  1
  Te  Te176  1  0.33301983  0.50037163  0.67735518  1
  Te  Te177  1  0.33664916  0.83349422  0.00317465  1
  Te  Te178  1  0.33678664  0.82890602  0.33405895  1
  Te  Te179  1  0.32982830  0.83337335  0.66360663  1
  Te  Te180  1  0.66820282  0.17073856  -0.00095588  1
  Te  Te181  1  0.66586348  0.16709549  0.33736496  1
  Te  Te182  1  0.66742550  0.16883132  0.66784299  1
  Te  Te183  1  0.66782712  0.50023218  0.00002239  1
  Te  Te184  1  0.66670469  0.50598475  0.33014372  1
  Te  Te185  1  0.66791771  0.49203437  0.67110940  1
  Te  Te186  1  0.66820842  0.83115876  -0.00015181  1
  Te  Te187  1  0.66106279  0.82889941  0.32760657  1
  Te  Te188  1  0.67078697  0.83440648  0.66757602  1
  Te  Te189  1  0.00011962  0.00474225  0.16650566  1
  Te  Te190  1  0.00451692  -0.00015024  0.50068471  1
  Te  Te191  1  -0.00071554  -0.00502302  0.83398567  1
  Te  Te192  1  0.00366130  0.33355140  0.16547348  1
  Te  Te193  1  0.00419451  0.33078009  0.50336546  1
  Te  Te194  1  0.00086144  0.33624886  0.83458541  1
  Te  Te195  1  0.00323305  0.66520261  0.16207018  1
  Te  Te196  1  0.00028285  0.66792218  0.49952253  1
  Te  Te197  1  -0.00367872  0.66636328  0.83666292  1
  Te  Te198  1  0.33815683  0.00053588  0.16738890  1
  Te  Te199  1  0.32858833  -0.00071313  0.49952826  1
  Te  Te200  1  0.32630009  -0.00032876  0.83407642  1
  Te  Te201  1  0.32685595  0.32648782  0.16773955  1
  Te  Te202  1  0.33175985  0.33124392  0.49995661  1
  Te  Te203  1  0.34009201  0.33777608  0.83258763  1
  Te  Te204  1  0.33245898  0.66861410  0.17055228  1
  Te  Te205  1  0.33552408  0.66874523  0.49539305  1
  Te  Te206  1  0.33354310  0.66072508  0.83314758  1
  Te  Te207  1  0.66176444  0.00049007  0.16061208  1
  Te  Te208  1  0.66707554  0.00712786  0.49885024  1
  Te  Te209  1  0.67054697  0.00662089  0.83974612  1
  Te  Te210  1  0.66653873  0.33999253  0.16982299  1
  Te  Te211  1  0.66722114  0.33139182  0.50405539  1
  Te  Te212  1  0.66434722  0.33297544  0.83070331  1
  Te  Te213  1  0.66824302  0.66514433  0.16428184  1
  Te  Te214  1  0.66216964  0.66702811  0.50214993  1
  Te  Te215  1  0.67240213  0.66133087  0.83701619  1
