# generated using pymatgen
data_AgSbTe2
_symmetry_space_group_name_H-M   'P 1'
_cell_length_a   18.33496038
_cell_length_b   18.33619804
_cell_length_c   18.33276946
_cell_angle_alpha   90.00031310
_cell_angle_beta   89.99771808
_cell_angle_gamma   89.99982596
_symmetry_Int_Tables_number   1
_chemical_formula_structural   AgSbTe2
_chemical_formula_sum   'Ag54 Sb54 Te108'
_cell_volume   6163.35727632
_cell_formula_units_Z   54
loop_
 _symmetry_equiv_pos_site_id
 _symmetry_equiv_pos_as_xyz
  1  'x, y, z'
loop_
 _atom_site_type_symbol
 _atom_site_label
 _atom_site_symmetry_multiplicity
 _atom_site_fract_x
 _atom_site_fract_y
 _atom_site_fract_z
 _atom_site_occupancy
  Ag  Ag0  1  0.16488483  0.66480606  0.82811937  1
  Ag  Ag1  1  0.16516647  -0.00755407  0.83109809  1
  Ag  Ag2  1  0.82667913  0.83474170  0.66644800  1
  Ag  Ag3  1  0.01113517  0.33677239  0.66559052  1
  Ag  Ag4  1  0.66445695  0.33401433  0.32893005  1
  Ag  Ag5  1  0.82897919  -0.00302438  0.16505209  1
  Ag  Ag6  1  0.67149151  0.00465657  -0.00101628  1
  Ag  Ag7  1  0.00141203  0.17663709  0.50672419  1
  Ag  Ag8  1  0.50169082  0.33283005  0.16425350  1
  Ag  Ag9  1  0.49527698  0.33980088  0.83222845  1
  Ag  Ag10  1  0.51243081  0.83077208  0.66911747  1
  Ag  Ag11  1  0.66915714  0.49356820  0.16350938  1
  Ag  Ag12  1  0.16782176  0.33930968  0.82524586  1
  Ag  Ag13  1  -0.00025471  0.00105893  -0.00122819  1
  Ag  Ag14  1  0.32515666  0.49961606  0.82465276  1
  Ag  Ag15  1  0.66857917  0.82814102  0.82662165  1
  Ag  Ag16  1  0.83378143  0.66475299  0.16827625  1
  Ag  Ag17  1  0.16642799  0.50008008  0.66826027  1
  Ag  Ag18  1  0.32428269  0.34050641  0.66246031  1
  Ag  Ag19  1  0.49476476  0.33425104  0.50391710  1
  Ag  Ag20  1  0.49918601  0.17025484  0.00170317  1
  Ag  Ag21  1  -0.00126577  0.49811912  0.16032900  1
  Ag  Ag22  1  0.00830604  0.67028052  0.66976434  1
  Ag  Ag23  1  0.66822435  0.67414669  0.67077361  1
  Ag  Ag24  1  0.33228432  0.65316481  0.33800273  1
  Ag  Ag25  1  0.16423265  0.18476389  0.67157237  1
  Ag  Ag26  1  0.33096966  0.49679768  0.50828282  1
  Ag  Ag27  1  -0.00069814  0.83402222  0.51326810  1
  Ag  Ag28  1  0.66885878  0.00453157  0.32759777  1
  Ag  Ag29  1  0.32103977  0.66350805  0.66703341  1
  Ag  Ag30  1  0.16288599  0.81542917  0.67005548  1
  Ag  Ag31  1  0.00069662  0.33593264  -0.00468389  1
  Ag  Ag32  1  0.66482375  0.17603370  0.16328787  1
  Ag  Ag33  1  0.66536823  0.50174671  0.83296865  1
  Ag  Ag34  1  0.16594620  0.16667293  -0.00785065  1
  Ag  Ag35  1  0.16782208  0.66058602  0.51390831  1
  Ag  Ag36  1  0.16287204  0.83656126  -0.01328970  1
  Ag  Ag37  1  0.84358737  0.33429096  0.50013853  1
  Ag  Ag38  1  0.67081543  0.83291594  0.51424323  1
  Ag  Ag39  1  0.49430429  0.66095144  0.82903185  1
  Ag  Ag40  1  0.83456651  0.49651509  0.33129346  1
  Ag  Ag41  1  0.00019758  0.33620074  0.34493655  1
  Ag  Ag42  1  0.66642733  -0.01042694  0.67044679  1
  Ag  Ag43  1  0.00198107  0.66490852  -0.01352103  1
  Ag  Ag44  1  0.66532752  0.32951774  0.00503232  1
  Ag  Ag45  1  0.00799373  0.82535290  0.82927082  1
  Ag  Ag46  1  0.33368398  0.33792435  0.33930202  1
  Ag  Ag47  1  0.33130671  0.49622407  0.16869243  1
  Ag  Ag48  1  0.16473028  0.33695819  0.51156820  1
  Ag  Ag49  1  0.32703229  -0.00453059  0.66766480  1
  Ag  Ag50  1  0.33165341  0.82847593  0.16740486  1
  Ag  Ag51  1  0.00729021  0.50352567  0.83311883  1
  Ag  Ag52  1  0.33871343  0.17508157  0.16476061  1
  Ag  Ag53  1  0.84192376  0.16473579  0.66342653  1
  Sb  Sb54  1  0.49687070  0.16676644  0.67148323  1
  Sb  Sb55  1  0.67033964  0.16642375  0.49806409  1
  Sb  Sb56  1  0.16589471  0.00120578  0.51188924  1
  Sb  Sb57  1  0.16513646  0.66466005  0.16259022  1
  Sb  Sb58  1  -0.00512109  0.00488233  0.32908118  1
  Sb  Sb59  1  0.83823126  0.83346329  -0.00531596  1
  Sb  Sb60  1  0.83191249  0.17283738  0.33596559  1
  Sb  Sb61  1  0.50342130  0.00523381  0.16434726  1
  Sb  Sb62  1  0.33059572  0.00129537  -0.00504017  1
  Sb  Sb63  1  0.00220328  -0.00380867  0.67362771  1
  Sb  Sb64  1  0.83554888  0.49970249  0.00456394  1
  Sb  Sb65  1  0.66518751  0.16775184  0.83696270  1
  Sb  Sb66  1  0.50027251  0.66043605  0.15938772  1
  Sb  Sb67  1  0.33406248  0.33286397  -0.00146479  1
  Sb  Sb68  1  0.82893716  0.33508544  0.17131036  1
  Sb  Sb69  1  0.49699146  0.83802110  -0.00554506  1
  Sb  Sb70  1  0.00408803  0.17008536  0.82922907  1
  Sb  Sb71  1  0.00520277  0.49757579  0.50386680  1
  Sb  Sb72  1  0.83667124  -0.00214090  0.83388247  1
  Sb  Sb73  1  0.66578630  0.33452907  0.66817228  1
  Sb  Sb74  1  0.49235235  0.50373622  0.67079559  1
  Sb  Sb75  1  0.67210008  0.66491489  -0.00628715  1
  Sb  Sb76  1  0.66264656  0.50076009  0.50252642  1
  Sb  Sb77  1  0.66313949  0.66238412  0.33616162  1
  Sb  Sb78  1  0.33007886  0.17437649  0.83432872  1
  Sb  Sb79  1  0.16649740  0.17012956  0.33545557  1
  Sb  Sb80  1  0.49915273  0.49783264  0.33236543  1
  Sb  Sb81  1  0.16682093  0.49833207  0.33824730  1
  Sb  Sb82  1  0.50329361  0.00395291  0.50245283  1
  Sb  Sb83  1  0.83530055  0.16730567  -0.00219392  1
  Sb  Sb84  1  0.00480057  0.65939072  0.33780438  1
  Sb  Sb85  1  0.17043209  0.33440699  0.16423233  1
  Sb  Sb86  1  0.66335637  0.83266412  0.16325883  1
  Sb  Sb87  1  0.32905262  0.82716105  0.83045706  1
  Sb  Sb88  1  0.83257042  0.82955157  0.33726411  1
  Sb  Sb89  1  0.49459259  0.66302971  0.50934564  1
  Sb  Sb90  1  0.32716876  0.66602724  -0.00512268  1
  Sb  Sb91  1  0.50083273  0.17192967  0.32848343  1
  Sb  Sb92  1  0.83807931  0.50053428  0.66403020  1
  Sb  Sb93  1  0.50090467  0.49364382  -0.00288035  1
  Sb  Sb94  1  0.32815442  0.17612070  0.50022712  1
  Sb  Sb95  1  0.49720971  -0.00104065  0.83150603  1
  Sb  Sb96  1  0.50020177  0.83190691  0.33978119  1
  Sb  Sb97  1  0.83426273  0.00224173  0.49988258  1
  Sb  Sb98  1  0.33117561  0.82642008  0.50406727  1
  Sb  Sb99  1  0.16675624  0.83140726  0.33828737  1
  Sb  Sb100  1  0.83782523  0.66323239  0.49985265  1
  Sb  Sb101  1  0.00284098  0.82801842  0.16255894  1
  Sb  Sb102  1  0.83629020  0.33507221  0.82842745  1
  Sb  Sb103  1  0.33710223  0.00371638  0.33508270  1
  Sb  Sb104  1  0.83877562  0.66684170  0.83236366  1
  Sb  Sb105  1  -0.00229387  0.17359069  0.16650286  1
  Sb  Sb106  1  0.16502208  0.49714162  -0.00805222  1
  Sb  Sb107  1  0.16356260  0.00050972  0.15733355  1
  Te  Te108  1  0.16758717  0.16625407  0.16202007  1
  Te  Te109  1  0.16138481  0.17025192  0.50518707  1
  Te  Te110  1  0.16703497  0.17102262  0.83186387  1
  Te  Te111  1  0.16597105  0.50023326  0.16627183  1
  Te  Te112  1  0.17042643  0.49912772  0.50357393  1
  Te  Te113  1  0.16626778  0.49998340  0.83197755  1
  Te  Te114  1  0.17177031  0.83294285  0.16769878  1
  Te  Te115  1  0.16306806  0.83185653  0.50530128  1
  Te  Te116  1  0.16767474  0.83012764  0.83062076  1
  Te  Te117  1  0.50238039  0.17099988  0.16236934  1
  Te  Te118  1  0.49979745  0.17477670  0.50160345  1
  Te  Te119  1  0.49760114  0.17395574  0.84012946  1
  Te  Te120  1  0.50292425  0.49461738  0.16520767  1
  Te  Te121  1  0.49387084  0.49397899  0.50029349  1
  Te  Te122  1  0.50363190  0.49991801  0.83407636  1
  Te  Te123  1  0.49361825  0.83152970  0.16518528  1
  Te  Te124  1  0.50355210  0.83360358  0.50714500  1
  Te  Te125  1  0.50149045  0.83101144  0.82948354  1
  Te  Te126  1  0.82904613  0.16134256  0.16646485  1
  Te  Te127  1  0.83805556  0.17148629  0.50448038  1
  Te  Te128  1  0.83353076  0.16614080  0.82294174  1
  Te  Te129  1  0.83275729  0.50038574  0.17008315  1
  Te  Te130  1  0.83174054  0.49516158  0.49432110  1
  Te  Te131  1  0.82832951  0.50026965  0.83281640  1
  Te  Te132  1  0.83357232  0.83256867  0.16751945  1
  Te  Te133  1  0.83497196  0.83161315  0.50446474  1
  Te  Te134  1  0.83133064  0.83305295  0.82752600  1
  Te  Te135  1  0.16395235  0.00042662  -0.00692325  1
  Te  Te136  1  0.16698704  0.00075090  0.33347806  1
  Te  Te137  1  0.16864422  0.00105999  0.67263272  1
  Te  Te138  1  0.16318686  0.32932883  -0.00266120  1
  Te  Te139  1  0.16676670  0.33231154  0.33539303  1
  Te  Te140  1  0.16757867  0.33982970  0.66808753  1
  Te  Te141  1  0.16092465  0.67126276  -0.00423867  1
  Te  Te142  1  0.17393421  0.66670692  0.33535508  1
  Te  Te143  1  0.16499189  0.65975285  0.66907591  1
  Te  Te144  1  0.50517067  0.00686731  -0.00178573  1
  Te  Te145  1  0.50894902  0.00042439  0.33378263  1
  Te  Te146  1  0.50079548  -0.00376834  0.66722982  1
  Te  Te147  1  0.50203191  0.32928447  -0.00007562  1
  Te  Te148  1  0.49974786  0.33356966  0.33127593  1
  Te  Te149  1  0.49729204  0.33259396  0.66971394  1
  Te  Te150  1  0.50091054  0.66886825  -0.00996717  1
  Te  Te151  1  0.49073458  0.66720549  0.33273344  1
  Te  Te152  1  0.50659921  0.67010179  0.67149260  1
  Te  Te153  1  0.83269229  0.00029363  0.00283206  1
  Te  Te154  1  0.82790526  -0.00043397  0.32862761  1
  Te  Te155  1  0.83015861  -0.00048917  0.66669633  1
  Te  Te156  1  0.83504522  0.33213654  -0.00105729  1
  Te  Te157  1  0.83460282  0.33603371  0.33744631  1
  Te  Te158  1  0.83407485  0.33083099  0.66065540  1
  Te  Te159  1  0.84176537  0.66739808  0.00830141  1
  Te  Te160  1  0.83282758  0.66073710  0.32991162  1
  Te  Te161  1  0.83139565  0.67075817  0.66476671  1
  Te  Te162  1  0.00327590  0.16758630  -0.00060566  1
  Te  Te163  1  -0.00039342  0.17434407  0.33882873  1
  Te  Te164  1  0.00243276  0.16433831  0.66507730  1
  Te  Te165  1  0.00096249  0.49895131  -0.00240678  1
  Te  Te166  1  -0.00177812  0.49482519  0.32979717  1
  Te  Te167  1  0.00119661  0.49916827  0.67029408  1
  Te  Te168  1  0.00393615  0.83247046  -0.00179414  1
  Te  Te169  1  -0.00055151  0.83366205  0.33558324  1
  Te  Te170  1  0.00444502  0.83534610  0.66962715  1
  Te  Te171  1  0.33057977  0.16565086  0.00487031  1
  Te  Te172  1  0.33336722  0.17189097  0.32591518  1
  Te  Te173  1  0.32862524  0.16742459  0.66675782  1
  Te  Te174  1  0.33280674  0.50086257  0.00754823  1
  Te  Te175  1  0.33271031  0.49634849  0.32857328  1
  Te  Te176  1  0.33231827  0.50057380  0.66779614  1
  Te  Te177  1  0.32803756  0.83454443  0.00540535  1
  Te  Te178  1  0.33420891  0.83574785  0.33006606  1
  Te  Te179  1  0.32316908  0.83029496  0.66612438  1
  Te  Te180  1  0.66859503  0.16777525  0.00317365  1
  Te  Te181  1  0.66708319  0.16837069  0.32865941  1
  Te  Te182  1  0.66615466  0.16448498  0.66671235  1
  Te  Te183  1  0.66805849  0.49654237  -0.00000718  1
  Te  Te184  1  0.66956449  0.49642161  0.33199369  1
  Te  Te185  1  0.66867488  0.50272968  0.67065822  1
  Te  Te186  1  0.66631230  0.83668261  -0.00601405  1
  Te  Te187  1  0.66591988  0.83514767  0.33423613  1
  Te  Te188  1  0.66923964  0.83383096  0.66972203  1
  Te  Te189  1  -0.00490872  0.00047548  0.16091758  1
  Te  Te190  1  -0.00043673  -0.00414183  0.49520628  1
  Te  Te191  1  0.00351846  -0.00454119  0.83990797  1
  Te  Te192  1  -0.00079197  0.33725926  0.16146192  1
  Te  Te193  1  0.00300609  0.33628659  0.50375284  1
  Te  Te194  1  0.00182463  0.33655245  0.83149648  1
  Te  Te195  1  -0.00258305  0.66047863  0.17028492  1
  Te  Te196  1  0.00506508  0.66846601  0.50463778  1
  Te  Te197  1  0.00100194  0.66559046  0.83020357  1
  Te  Te198  1  0.33346518  0.00258135  0.16827497  1
  Te  Te199  1  0.33473107  0.00144239  0.50444332  1
  Te  Te200  1  0.32840871  0.00000858  0.82736407  1
  Te  Te201  1  0.33616486  0.33376078  0.16575420  1
  Te  Te202  1  0.33186871  0.33543099  0.50022980  1
  Te  Te203  1  0.33258213  0.33918372  0.83189052  1
  Te  Te204  1  0.33409053  0.66334285  0.16677758  1
  Te  Te205  1  0.32975637  0.66203027  0.50251457  1
  Te  Te206  1  0.33229441  0.66109993  0.82947722  1
  Te  Te207  1  0.66838044  -0.00258698  0.16416405  1
  Te  Te208  1  0.66815832  -0.00370924  0.50320200  1
  Te  Te209  1  0.66555519  -0.00069223  0.83364542  1
  Te  Te210  1  0.66712570  0.33489985  0.16682607  1
  Te  Te211  1  0.66133228  0.33418309  0.49597097  1
  Te  Te212  1  0.66505504  0.33591658  0.83667702  1
  Te  Te213  1  0.66931657  0.66138829  0.16590326  1
  Te  Te214  1  0.66521399  0.67025602  0.50374447  1
  Te  Te215  1  0.67010160  0.66594344  0.83187402  1
