# generated using pymatgen
data_AgSbTe2
_symmetry_space_group_name_H-M   'P 1'
_cell_length_a   18.30243936
_cell_length_b   18.30229880
_cell_length_c   18.30166693
_cell_angle_alpha   90.00148879
_cell_angle_beta   90.00285610
_cell_angle_gamma   90.00141633
_symmetry_Int_Tables_number   1
_chemical_formula_structural   AgSbTe2
_chemical_formula_sum   'Ag54 Sb54 Te108'
_cell_volume   6130.63223563
_cell_formula_units_Z   54
loop_
 _symmetry_equiv_pos_site_id
 _symmetry_equiv_pos_as_xyz
  1  'x, y, z'
loop_
 _atom_site_type_symbol
 _atom_site_label
 _atom_site_symmetry_multiplicity
 _atom_site_fract_x
 _atom_site_fract_y
 _atom_site_fract_z
 _atom_site_occupancy
  Ag  Ag0  1  0.16575032  -0.00653959  0.16885783  1
  Ag  Ag1  1  0.32654426  -0.00183270  0.66263890  1
  Ag  Ag2  1  0.17054883  0.66907310  0.16763640  1
  Ag  Ag3  1  0.50768683  0.15728364  0.33237646  1
  Ag  Ag4  1  0.33540619  0.66354678  0.66777181  1
  Ag  Ag5  1  0.83177282  0.66903325  0.83625787  1
  Ag  Ag6  1  0.84235890  0.49625860  0.00265409  1
  Ag  Ag7  1  0.66900728  0.16205674  0.49311975  1
  Ag  Ag8  1  0.83469802  0.66560212  0.16205740  1
  Ag  Ag9  1  0.33253509  0.50587459  0.16002311  1
  Ag  Ag10  1  0.83058451  0.16915259  0.00351897  1
  Ag  Ag11  1  0.33381750  0.82846028  0.16365601  1
  Ag  Ag12  1  0.66700292  0.16132456  0.83518678  1
  Ag  Ag13  1  0.82689043  0.16314159  0.32729427  1
  Ag  Ag14  1  0.33417154  0.33948881  0.67542592  1
  Ag  Ag15  1  0.33240845  0.49594781  0.83236401  1
  Ag  Ag16  1  0.33552594  0.17491611  0.83078632  1
  Ag  Ag17  1  0.49593287  0.67055184  0.50386690  1
  Ag  Ag18  1  0.83359619  0.32516300  0.49730174  1
  Ag  Ag19  1  0.50001743  -0.00426505  0.49559178  1
  Ag  Ag20  1  0.00552259  0.50094754  0.83978555  1
  Ag  Ag21  1  0.00265096  0.83516724  0.50796597  1
  Ag  Ag22  1  0.16886404  0.82940920  -0.00005227  1
  Ag  Ag23  1  0.50188933  0.66336560  0.82607457  1
  Ag  Ag24  1  0.66998875  0.16261193  0.17017102  1
  Ag  Ag25  1  0.49921054  0.83526107  0.33050172  1
  Ag  Ag26  1  0.65886606  0.66865810  0.66904863  1
  Ag  Ag27  1  0.66167726  0.00300156  0.33204249  1
  Ag  Ag28  1  0.66752785  0.00133702  0.00448066  1
  Ag  Ag29  1  -0.00243277  0.83187248  0.82816356  1
  Ag  Ag30  1  0.33239478  0.33592450  -0.00625750  1
  Ag  Ag31  1  0.49173577  0.50567227  0.66834350  1
  Ag  Ag32  1  0.49543185  0.33728411  0.83697832  1
  Ag  Ag33  1  0.84110207  0.83333062  0.66938950  1
  Ag  Ag34  1  0.16680541  -0.00648644  0.50500702  1
  Ag  Ag35  1  0.17019983  0.15492925  0.66833430  1
  Ag  Ag36  1  0.49583704  0.66498623  0.16899179  1
  Ag  Ag37  1  0.83049969  0.00325471  0.49613907  1
  Ag  Ag38  1  0.17006818  0.67357972  0.50364828  1
  Ag  Ag39  1  0.82939955  0.32813324  0.16326261  1
  Ag  Ag40  1  -0.00042002  0.66741108  0.33046672  1
  Ag  Ag41  1  0.16318810  0.50393702  -0.00230800  1
  Ag  Ag42  1  0.16312239  0.83528597  0.66760003  1
  Ag  Ag43  1  0.66827872  0.83380865  0.83274644  1
  Ag  Ag44  1  0.49534871  0.83229635  0.00375256  1
  Ag  Ag45  1  0.00056359  0.33758076  -0.00183335  1
  Ag  Ag46  1  0.17345622  0.50609115  0.67393546  1
  Ag  Ag47  1  0.34162302  -0.00057976  0.33645135  1
  Ag  Ag48  1  0.83212845  0.00514158  0.17006608  1
  Ag  Ag49  1  0.00328700  0.50349257  0.15844950  1
  Ag  Ag50  1  0.49767189  0.50521024  0.33165717  1
  Ag  Ag51  1  0.00665189  -0.00487246  0.66501604  1
  Ag  Ag52  1  -0.00187961  0.16710527  0.83325290  1
  Ag  Ag53  1  0.50127993  0.33843974  0.16249913  1
  Sb  Sb54  1  0.17070160  0.83302175  0.33372176  1
  Sb  Sb55  1  0.00357214  0.33027720  0.67385057  1
  Sb  Sb56  1  0.00403099  0.82860974  0.16474610  1
  Sb  Sb57  1  0.33583637  0.00223446  -0.00037752  1
  Sb  Sb58  1  0.16633245  0.66534778  0.83154503  1
  Sb  Sb59  1  0.82956051  0.49731277  0.32618072  1
  Sb  Sb60  1  0.16739361  0.16164551  0.33712730  1
  Sb  Sb61  1  0.66389950  0.50292924  0.83400968  1
  Sb  Sb62  1  0.83586784  0.83388558  -0.00366162  1
  Sb  Sb63  1  0.66771750  0.83805295  0.50524618  1
  Sb  Sb64  1  0.66599815  -0.00321264  0.66534162  1
  Sb  Sb65  1  0.50008497  -0.00198387  0.82878528  1
  Sb  Sb66  1  0.49583327  0.16840056  0.66568400  1
  Sb  Sb67  1  0.83015166  0.33533277  0.83707641  1
  Sb  Sb68  1  0.33752046  0.16254982  0.50526401  1
  Sb  Sb69  1  0.17434239  0.33533106  0.83366271  1
  Sb  Sb70  1  0.33042428  0.83477112  0.49919675  1
  Sb  Sb71  1  0.17064716  0.50374567  0.33017453  1
  Sb  Sb72  1  0.16269410  0.33221739  0.50534162  1
  Sb  Sb73  1  0.33742843  0.33042019  0.33110294  1
  Sb  Sb74  1  0.00443774  0.67330868  0.66594710  1
  Sb  Sb75  1  0.00056880  0.66104242  0.00214061  1
  Sb  Sb76  1  -0.00691697  0.16951483  0.16139968  1
  Sb  Sb77  1  0.33396051  0.50161307  0.50540343  1
  Sb  Sb78  1  0.66528168  0.67224341  -0.00401739  1
  Sb  Sb79  1  -0.00335108  0.33735718  0.32789404  1
  Sb  Sb80  1  -0.00163619  -0.00353770  0.33675891  1
  Sb  Sb81  1  0.50117225  -0.00218460  0.17359783  1
  Sb  Sb82  1  0.66263344  0.33581578  0.66805227  1
  Sb  Sb83  1  0.82983644  0.83833382  0.33538487  1
  Sb  Sb84  1  0.00175129  0.50441946  0.50212390  1
  Sb  Sb85  1  0.66600147  0.32399389  0.33215040  1
  Sb  Sb86  1  -0.00394048  0.16015010  0.50529164  1
  Sb  Sb87  1  0.16637406  -0.00090085  0.82935642  1
  Sb  Sb88  1  0.33308376  0.66113899  -0.00144562  1
  Sb  Sb89  1  0.49634617  0.82761823  0.66618035  1
  Sb  Sb90  1  0.66530964  0.49805653  0.50027319  1
  Sb  Sb91  1  0.50515624  0.16388106  0.00234331  1
  Sb  Sb92  1  0.16365508  0.16618716  -0.00400064  1
  Sb  Sb93  1  0.50318643  0.33325727  0.49962959  1
  Sb  Sb94  1  0.83579577  0.50586958  0.67215840  1
  Sb  Sb95  1  0.33749316  0.16638233  0.16295786  1
  Sb  Sb96  1  0.83343696  0.67009002  0.50102853  1
  Sb  Sb97  1  0.16754706  0.33667906  0.16320884  1
  Sb  Sb98  1  0.33331330  0.83025950  0.83586875  1
  Sb  Sb99  1  0.49647005  0.50200068  -0.00075708  1
  Sb  Sb100  1  0.66497239  0.67306974  0.33523390  1
  Sb  Sb101  1  -0.00225808  0.00279332  -0.00294182  1
  Sb  Sb102  1  0.83324850  -0.00360103  0.83268678  1
  Sb  Sb103  1  0.66290199  0.83761971  0.16138009  1
  Sb  Sb104  1  0.83515468  0.16165163  0.66809216  1
  Sb  Sb105  1  0.66462563  0.49809256  0.16519526  1
  Sb  Sb106  1  0.33481065  0.67059436  0.33335853  1
  Sb  Sb107  1  0.66680749  0.32757532  0.00073601  1
  Te  Te108  1  0.16622173  0.16129942  0.16686744  1
  Te  Te109  1  0.16540733  0.16207422  0.50596811  1
  Te  Te110  1  0.16514115  0.16650082  0.82935810  1
  Te  Te111  1  0.16770776  0.50265656  0.16409393  1
  Te  Te112  1  0.16607543  0.50546556  0.50261594  1
  Te  Te113  1  0.16708429  0.50153539  0.83536491  1
  Te  Te114  1  0.16941515  0.83145382  0.16633565  1
  Te  Te115  1  0.16469980  0.83301464  0.50060594  1
  Te  Te116  1  0.16413924  0.83144879  0.83489161  1
  Te  Te117  1  0.50414365  0.17039495  0.17024027  1
  Te  Te118  1  0.50529489  0.16510256  0.49548220  1
  Te  Te119  1  0.50016046  0.16803216  0.83398328  1
  Te  Te120  1  0.49780413  0.50094451  0.16510057  1
  Te  Te121  1  0.50003145  0.50296173  0.50053049  1
  Te  Te122  1  0.49722908  0.50250293  0.83257001  1
  Te  Te123  1  0.49768972  0.83090884  0.16549362  1
  Te  Te124  1  0.49990073  0.83214052  0.49683522  1
  Te  Te125  1  0.50208720  0.82966010  0.83678291  1
  Te  Te126  1  0.83206881  0.16581056  0.16561252  1
  Te  Te127  1  0.83041995  0.16364237  0.50148241  1
  Te  Te128  1  0.83281674  0.16679613  0.83663845  1
  Te  Te129  1  0.83356078  0.50161565  0.16339777  1
  Te  Te130  1  0.83360516  0.49610669  0.49881016  1
  Te  Te131  1  0.83541395  0.50441687  0.83770517  1
  Te  Te132  1  0.83409435  0.83121558  0.16584969  1
  Te  Te133  1  0.83700036  0.83757463  0.50368894  1
  Te  Te134  1  0.83397252  0.82990571  0.83085763  1
  Te  Te135  1  0.16681216  -0.00375277  0.00646455  1
  Te  Te136  1  0.16982661  -0.00031940  0.33359146  1
  Te  Te137  1  0.16722826  -0.00331858  0.66546890  1
  Te  Te138  1  0.16643561  0.33603014  0.00041318  1
  Te  Te139  1  0.16664591  0.33155655  0.33487138  1
  Te  Te140  1  0.17196227  0.33724015  0.66642244  1
  Te  Te141  1  0.16755485  0.66794597  0.00541153  1
  Te  Te142  1  0.16454956  0.66669725  0.33334867  1
  Te  Te143  1  0.17042596  0.66815820  0.66526739  1
  Te  Te144  1  0.50433962  -0.00559322  -0.00018694  1
  Te  Te145  1  0.49984152  -0.00032932  0.33554820  1
  Te  Te146  1  0.49537773  -0.00083169  0.65841852  1
  Te  Te147  1  0.49741076  0.33319671  0.00159792  1
  Te  Te148  1  0.49978000  0.33739919  0.32975761  1
  Te  Te149  1  0.49518253  0.33871355  0.66850307  1
  Te  Te150  1  0.49961691  0.67179444  0.00402330  1
  Te  Te151  1  0.50060608  0.66804653  0.33149746  1
  Te  Te152  1  0.49733875  0.66635146  0.66604015  1
  Te  Te153  1  0.83012942  0.00235341  0.00356595  1
  Te  Te154  1  0.83162774  0.00371099  0.33316192  1
  Te  Te155  1  0.83487049  -0.00548808  0.66304507  1
  Te  Te156  1  0.83382494  0.33240839  0.00251321  1
  Te  Te157  1  0.83300566  0.32849002  0.33034658  1
  Te  Te158  1  0.83368274  0.33533777  0.66293692  1
  Te  Te159  1  0.83198077  0.66525314  0.00121059  1
  Te  Te160  1  0.83472801  0.66626762  0.33019581  1
  Te  Te161  1  0.83043721  0.67087195  0.66955764  1
  Te  Te162  1  -0.00430497  0.17116847  -0.00634508  1
  Te  Te163  1  -0.00503867  0.16742723  0.33374619  1
  Te  Te164  1  0.00439881  0.16270269  0.67287105  1
  Te  Te165  1  0.00218815  0.49762899  -0.00092844  1
  Te  Te166  1  -0.00044656  0.50535509  0.33006505  1
  Te  Te167  1  0.00563835  0.49975493  0.67179354  1
  Te  Te168  1  0.00650545  0.83463718  -0.00631286  1
  Te  Te169  1  -0.00143136  0.82823410  0.33558036  1
  Te  Te170  1  0.00207649  0.83394112  0.66836804  1
  Te  Te171  1  0.33288746  0.17265099  -0.00649434  1
  Te  Te172  1  0.33736022  0.16126564  0.33296714  1
  Te  Te173  1  0.33063514  0.16385354  0.67088586  1
  Te  Te174  1  0.33038464  0.49563832  -0.00057890  1
  Te  Te175  1  0.33860866  0.49921230  0.32719793  1
  Te  Te176  1  0.33261489  0.50158781  0.66804629  1
  Te  Te177  1  0.33137089  0.83496463  0.00372903  1
  Te  Te178  1  0.33868396  0.83793512  0.32698197  1
  Te  Te179  1  0.32760150  0.83465987  0.66816495  1
  Te  Te180  1  0.67066881  0.16171253  -0.00155911  1
  Te  Te181  1  0.66745228  0.16272214  0.33269119  1
  Te  Te182  1  0.66593212  0.16658280  0.67273432  1
  Te  Te183  1  0.67669619  0.49980153  -0.00075071  1
  Te  Te184  1  0.65808047  0.50137720  0.33358839  1
  Te  Te185  1  0.66275717  0.50595263  0.66683161  1
  Te  Te186  1  0.66515346  0.83940805  -0.00637993  1
  Te  Te187  1  0.66056721  0.84145645  0.33379522  1
  Te  Te188  1  0.66845404  0.82946290  0.67245365  1
  Te  Te189  1  -0.00064597  -0.00059915  0.16739289  1
  Te  Te190  1  0.00124430  -0.00456284  0.50324719  1
  Te  Te191  1  -0.00055693  -0.00044416  0.82865168  1
  Te  Te192  1  -0.00327716  0.33894138  0.16075882  1
  Te  Te193  1  -0.00675139  0.33365355  0.49997191  1
  Te  Te194  1  -0.00241332  0.33445758  0.83793409  1
  Te  Te195  1  -0.00097007  0.66371168  0.16935200  1
  Te  Te196  1  0.00203842  0.67169507  0.49525158  1
  Te  Te197  1  -0.00380913  0.66641395  0.83261330  1
  Te  Te198  1  0.32998060  -0.00128713  0.16753860  1
  Te  Te199  1  0.33352480  -0.00024798  0.50019571  1
  Te  Te200  1  0.33393244  0.00482083  0.82953171  1
  Te  Te201  1  0.33697841  0.33566276  0.16299745  1
  Te  Te202  1  0.33207959  0.33224867  0.50606882  1
  Te  Te203  1  0.33775015  0.33499568  0.83256611  1
  Te  Te204  1  0.33443928  0.66632556  0.16720822  1
  Te  Te205  1  0.33433309  0.66749109  0.50298493  1
  Te  Te206  1  0.33759842  0.66236448  0.82969090  1
  Te  Te207  1  0.66960642  0.00255551  0.16734081  1
  Te  Te208  1  0.66699787  0.00325460  0.49835263  1
  Te  Te209  1  0.66627716  -0.00010927  0.83513712  1
  Te  Te210  1  0.66643671  0.32774897  0.16622405  1
  Te  Te211  1  0.67352048  0.32610329  0.50125544  1
  Te  Te212  1  0.65852876  0.32805344  0.83315148  1
  Te  Te213  1  0.66623338  0.66806249  0.16685654  1
  Te  Te214  1  0.66249628  0.66683097  0.50491085  1
  Te  Te215  1  0.66546212  0.66929187  0.83067203  1
