# generated using pymatgen
data_AgSbTe2
_symmetry_space_group_name_H-M   'P 1'
_cell_length_a   18.32218399
_cell_length_b   18.32225573
_cell_length_c   18.32662328
_cell_angle_alpha   90.00043958
_cell_angle_beta   90.00098143
_cell_angle_gamma   89.99803611
_symmetry_Int_Tables_number   1
_chemical_formula_structural   AgSbTe2
_chemical_formula_sum   'Ag54 Sb54 Te108'
_cell_volume   6152.31598159
_cell_formula_units_Z   54
loop_
 _symmetry_equiv_pos_site_id
 _symmetry_equiv_pos_as_xyz
  1  'x, y, z'
loop_
 _atom_site_type_symbol
 _atom_site_label
 _atom_site_symmetry_multiplicity
 _atom_site_fract_x
 _atom_site_fract_y
 _atom_site_fract_z
 _atom_site_occupancy
  Ag  Ag0  1  0.50096742  -0.00245127  0.83134127  1
  Ag  Ag1  1  0.00029598  0.00497531  0.66582564  1
  Ag  Ag2  1  -0.01015127  0.33089088  0.66602525  1
  Ag  Ag3  1  0.17644107  0.66746854  0.84589834  1
  Ag  Ag4  1  0.33622899  0.17006054  0.83712688  1
  Ag  Ag5  1  0.82856934  0.49448059  -0.00351579  1
  Ag  Ag6  1  0.49867806  0.16635307  -0.00074205  1
  Ag  Ag7  1  0.65992690  0.50367232  0.83599910  1
  Ag  Ag8  1  0.32558331  0.82281873  0.16804155  1
  Ag  Ag9  1  0.83361414  0.32944504  0.50146924  1
  Ag  Ag10  1  0.66186346  0.82934985  0.83997831  1
  Ag  Ag11  1  0.16934975  0.84177843  0.32135207  1
  Ag  Ag12  1  0.83354743  0.00613481  0.49140201  1
  Ag  Ag13  1  0.49655682  0.66224213  0.84126269  1
  Ag  Ag14  1  0.67098386  0.33530971  0.66575347  1
  Ag  Ag15  1  0.50170202  0.83618355  0.67198073  1
  Ag  Ag16  1  0.66231109  0.00518947  0.32759189  1
  Ag  Ag17  1  0.33492606  0.50976318  0.16021162  1
  Ag  Ag18  1  0.49901715  0.66731947  0.49862759  1
  Ag  Ag19  1  -0.00126762  0.49998019  0.50050544  1
  Ag  Ag20  1  0.33235009  0.00165542  0.33054490  1
  Ag  Ag21  1  0.48930086  0.66584958  0.16081723  1
  Ag  Ag22  1  0.83269303  0.32300029  0.16687728  1
  Ag  Ag23  1  0.49897044  0.16441943  0.33054593  1
  Ag  Ag24  1  0.16841989  0.16422371  0.66864883  1
  Ag  Ag25  1  0.34284230  0.50063003  0.84132194  1
  Ag  Ag26  1  0.16966159  0.16342542  0.00482869  1
  Ag  Ag27  1  0.17856943  0.51246051  0.00055503  1
  Ag  Ag28  1  0.83782205  0.00473430  0.17014784  1
  Ag  Ag29  1  0.50421779  0.50056271  0.67678285  1
  Ag  Ag30  1  0.50008927  -0.00034618  0.49857139  1
  Ag  Ag31  1  0.33809589  0.66337180  0.00596709  1
  Ag  Ag32  1  0.33353579  0.66758458  0.32028938  1
  Ag  Ag33  1  0.34140082  0.32830706  0.33081218  1
  Ag  Ag34  1  0.00897075  0.66658396  0.33026501  1
  Ag  Ag35  1  0.00004126  0.83335354  0.83828008  1
  Ag  Ag36  1  0.16717254  0.00141601  0.48617719  1
  Ag  Ag37  1  0.65683851  0.66878807  -0.00113900  1
  Ag  Ag38  1  0.16441392  -0.00900141  0.17006827  1
  Ag  Ag39  1  -0.00088771  0.15860584  0.16716220  1
  Ag  Ag40  1  0.82687828  0.49244900  0.67368438  1
  Ag  Ag41  1  0.49669210  0.16530427  0.67196509  1
  Ag  Ag42  1  0.16682558  0.82812041  0.00988030  1
  Ag  Ag43  1  0.16965615  0.15856169  0.32612454  1
  Ag  Ag44  1  0.83149751  0.33489946  0.82994524  1
  Ag  Ag45  1  0.01144489  0.83783411  0.16438924  1
  Ag  Ag46  1  0.66456045  0.32497003  0.33419838  1
  Ag  Ag47  1  0.17900503  0.68001821  0.16142748  1
  Ag  Ag48  1  0.83176855  0.17026803  0.00774903  1
  Ag  Ag49  1  0.49737771  0.50104001  0.33168040  1
  Ag  Ag50  1  0.83291899  0.16654441  0.32619843  1
  Ag  Ag51  1  0.49755803  0.50817985  -0.00406864  1
  Ag  Ag52  1  0.66509336  0.83532475  0.16077596  1
  Ag  Ag53  1  0.66467712  -0.00391727  0.00484595  1
  Sb  Sb54  1  0.66130692  0.16819968  0.83574782  1
  Sb  Sb55  1  0.82896146  0.00442095  0.83585916  1
  Sb  Sb56  1  0.33350231  0.00189936  0.66324010  1
  Sb  Sb57  1  0.16812599  0.49534853  0.67247220  1
  Sb  Sb58  1  0.66573481  0.00407341  0.66696325  1
  Sb  Sb59  1  0.83268671  0.17196890  0.66631839  1
  Sb  Sb60  1  0.00297446  0.16326484  0.83562922  1
  Sb  Sb61  1  0.83420100  0.66793055  0.16517976  1
  Sb  Sb62  1  -0.00084551  0.50377129  0.83112141  1
  Sb  Sb63  1  0.82758335  0.49266875  0.33159980  1
  Sb  Sb64  1  0.83701365  0.84101876  0.32988377  1
  Sb  Sb65  1  0.16208677  0.32811319  0.49928115  1
  Sb  Sb66  1  0.50425888  0.33599407  0.83306666  1
  Sb  Sb67  1  -0.00193108  -0.00025301  0.00059894  1
  Sb  Sb68  1  0.33351855  0.50146570  0.49795115  1
  Sb  Sb69  1  0.16367469  0.33546554  0.83426976  1
  Sb  Sb70  1  0.16966017  0.83849532  0.66917667  1
  Sb  Sb71  1  0.67206807  0.16150731  0.16714964  1
  Sb  Sb72  1  0.17348307  0.50027270  0.32795764  1
  Sb  Sb73  1  0.17138736  0.67121198  0.49391659  1
  Sb  Sb74  1  0.33621399  0.33163277  0.66403000  1
  Sb  Sb75  1  0.33655104  -0.00278929  0.00491962  1
  Sb  Sb76  1  0.49557901  0.83473024  0.33292061  1
  Sb  Sb77  1  0.66749835  0.49920918  0.50491009  1
  Sb  Sb78  1  0.50377281  0.33681919  0.16891851  1
  Sb  Sb79  1  0.00291753  0.50186356  0.16920857  1
  Sb  Sb80  1  0.82952587  0.66520534  0.49848831  1
  Sb  Sb81  1  0.33354077  0.16562222  0.49785604  1
  Sb  Sb82  1  0.50030205  -0.00364070  0.16728642  1
  Sb  Sb83  1  0.33475966  0.83418701  0.49267954  1
  Sb  Sb84  1  0.83049335  0.66150893  0.83588273  1
  Sb  Sb85  1  0.66200019  0.66234238  0.67381654  1
  Sb  Sb86  1  0.16417945  0.33152710  0.16714550  1
  Sb  Sb87  1  0.33619396  0.83082091  0.84040599  1
  Sb  Sb88  1  0.33387253  0.33847937  0.00471390  1
  Sb  Sb89  1  0.66840382  0.33387675  0.00143255  1
  Sb  Sb90  1  0.17179523  -0.00276507  0.83744128  1
  Sb  Sb91  1  0.50521595  0.33188572  0.49831973  1
  Sb  Sb92  1  0.00119179  0.83290830  0.49702851  1
  Sb  Sb93  1  0.66136474  0.50427498  0.16037706  1
  Sb  Sb94  1  0.66367495  0.83551815  0.49827973  1
  Sb  Sb95  1  0.82960688  0.83224157  0.66849133  1
  Sb  Sb96  1  0.66634063  0.16633464  0.49696101  1
  Sb  Sb97  1  0.33685296  0.66606983  0.67078970  1
  Sb  Sb98  1  0.00088633  0.66628313  0.66516202  1
  Sb  Sb99  1  -0.00037733  0.16697862  0.49686909  1
  Sb  Sb100  1  0.66024855  0.66829836  0.32656635  1
  Sb  Sb101  1  -0.00281712  0.33278600  -0.00228698  1
  Sb  Sb102  1  -0.00258779  0.33475835  0.33605042  1
  Sb  Sb103  1  0.83359012  0.83361684  0.00140462  1
  Sb  Sb104  1  0.00497686  0.66720895  0.00429334  1
  Sb  Sb105  1  0.32931903  0.16602603  0.16513760  1
  Sb  Sb106  1  0.00258958  -0.00157332  0.33256778  1
  Sb  Sb107  1  0.49963245  0.83068828  -0.00169636  1
  Te  Te108  1  0.16269624  0.16618073  0.16707323  1
  Te  Te109  1  0.16665840  0.16060985  0.50070558  1
  Te  Te110  1  0.17079443  0.16622461  0.83454626  1
  Te  Te111  1  0.17017670  0.49988604  0.16058944  1
  Te  Te112  1  0.16142334  0.50098977  0.50189743  1
  Te  Te113  1  0.16813128  0.50444144  0.83923038  1
  Te  Te114  1  0.16660165  0.83431787  0.16631579  1
  Te  Te115  1  0.16672723  0.84104590  0.49954781  1
  Te  Te116  1  0.16610145  0.82920332  0.83498915  1
  Te  Te117  1  0.49792740  0.16734508  0.16811994  1
  Te  Te118  1  0.49934411  0.16194940  0.49702691  1
  Te  Te119  1  0.49739085  0.16765517  0.83411106  1
  Te  Te120  1  0.49639380  0.50306830  0.16634143  1
  Te  Te121  1  0.49968893  0.50208924  0.49682087  1
  Te  Te122  1  0.50008616  0.50031294  0.83543678  1
  Te  Te123  1  0.50276634  0.82844596  0.16615017  1
  Te  Te124  1  0.50018568  0.83566511  0.50706646  1
  Te  Te125  1  0.50089559  0.83412231  0.83214947  1
  Te  Te126  1  0.83529276  0.16488869  0.16606812  1
  Te  Te127  1  0.83420825  0.16567932  0.49655443  1
  Te  Te128  1  0.83387031  0.17252507  0.83936692  1
  Te  Te129  1  0.83363746  0.49897268  0.16209147  1
  Te  Te130  1  0.83595140  0.49708700  0.50029045  1
  Te  Te131  1  0.83291504  0.49599843  0.83390343  1
  Te  Te132  1  0.82911009  0.83954067  0.16567421  1
  Te  Te133  1  0.83243772  0.84100309  0.50078844  1
  Te  Te134  1  0.83323248  0.83413368  0.83322333  1
  Te  Te135  1  0.16695985  0.00294059  0.00469658  1
  Te  Te136  1  0.16563256  0.00124815  0.33098551  1
  Te  Te137  1  0.16482144  0.00501538  0.66956842  1
  Te  Te138  1  0.16572041  0.32490280  -0.00048582  1
  Te  Te139  1  0.16975851  0.32844088  0.33457597  1
  Te  Te140  1  0.16457877  0.32546583  0.66614809  1
  Te  Te141  1  0.16630055  0.66791265  0.00158644  1
  Te  Te142  1  0.16980443  0.66614464  0.33144763  1
  Te  Te143  1  0.16806700  0.66710048  0.66714077  1
  Te  Te144  1  0.50336965  0.00348102  -0.00195956  1
  Te  Te145  1  0.50129505  0.00057319  0.33463881  1
  Te  Te146  1  0.50038921  0.00389176  0.66516761  1
  Te  Te147  1  0.50085632  0.32623090  0.00122679  1
  Te  Te148  1  0.50218986  0.32950049  0.33434872  1
  Te  Te149  1  0.50409838  0.33283406  0.66481711  1
  Te  Te150  1  0.49874911  0.66728301  0.00043900  1
  Te  Te151  1  0.49725011  0.66731115  0.33139510  1
  Te  Te152  1  0.50019632  0.66202550  0.66606810  1
  Te  Te153  1  0.82864141  0.00393389  0.00338268  1
  Te  Te154  1  0.83273678  0.00547948  0.33224513  1
  Te  Te155  1  0.83609383  0.00122867  0.66514952  1
  Te  Te156  1  0.83199195  0.33218184  0.00289469  1
  Te  Te157  1  0.83007478  0.32859813  0.33385225  1
  Te  Te158  1  0.83188296  0.33368204  0.66475852  1
  Te  Te159  1  0.82806187  0.66068454  0.00035176  1
  Te  Te160  1  0.83420300  0.66572629  0.33420700  1
  Te  Te161  1  0.83291061  0.65722302  0.66507785  1
  Te  Te162  1  0.00042721  0.16582637  0.00436250  1
  Te  Te163  1  0.00105882  0.16758176  0.32871750  1
  Te  Te164  1  0.00155746  0.16652909  0.66731185  1
  Te  Te165  1  -0.00410580  0.49939628  -0.00000017  1
  Te  Te166  1  0.00026991  0.50348596  0.33716193  1
  Te  Te167  1  -0.00041156  0.49706357  0.66339092  1
  Te  Te168  1  0.00352274  0.83400327  0.00083451  1
  Te  Te169  1  0.00411552  0.82855993  0.32927856  1
  Te  Te170  1  -0.00040028  0.83642068  0.66957632  1
  Te  Te171  1  0.33491805  0.16688405  -0.00152611  1
  Te  Te172  1  0.33394430  0.16457203  0.33159518  1
  Te  Te173  1  0.33474755  0.16792909  0.67202032  1
  Te  Te174  1  0.33550814  0.50060956  -0.00028295  1
  Te  Te175  1  0.33772495  0.50284771  0.33280612  1
  Te  Te176  1  0.33857753  0.49765100  0.67121129  1
  Te  Te177  1  0.32756310  0.82925643  0.00602106  1
  Te  Te178  1  0.32971505  0.83403340  0.32777279  1
  Te  Te179  1  0.34125570  0.83420155  0.66689628  1
  Te  Te180  1  0.66475620  0.16298389  0.00048408  1
  Te  Te181  1  0.66411970  0.16547610  0.33202281  1
  Te  Te182  1  0.66106602  0.17264057  0.66768739  1
  Te  Te183  1  0.66445401  0.50050615  -0.00405498  1
  Te  Te184  1  0.65855399  0.49942252  0.33282354  1
  Te  Te185  1  0.66583343  0.49659367  0.67107445  1
  Te  Te186  1  0.66737277  0.83469666  -0.00109470  1
  Te  Te187  1  0.66772071  0.83727317  0.32876791  1
  Te  Te188  1  0.66139084  0.83393834  0.67215012  1
  Te  Te189  1  -0.00024840  -0.00146155  0.16636194  1
  Te  Te190  1  -0.00053456  -0.00032759  0.50435333  1
  Te  Te191  1  -0.00017086  -0.00472489  0.82901512  1
  Te  Te192  1  -0.00719796  0.33216904  0.16760475  1
  Te  Te193  1  -0.00466771  0.33627073  0.50400716  1
  Te  Te194  1  -0.00565370  0.33325121  0.82578924  1
  Te  Te195  1  0.00213335  0.67058733  0.17094256  1
  Te  Te196  1  -0.00053394  0.66363987  0.49501346  1
  Te  Te197  1  0.00179595  0.67282738  0.83306237  1
  Te  Te198  1  0.32973434  -0.00218197  0.17132929  1
  Te  Te199  1  0.33444105  0.00020359  0.49339044  1
  Te  Te200  1  0.34018342  0.00294530  0.83369612  1
  Te  Te201  1  0.33280593  0.33792787  0.17321711  1
  Te  Te202  1  0.33242685  0.33422985  0.49077590  1
  Te  Te203  1  0.33249170  0.33373221  0.83293333  1
  Te  Te204  1  0.33343147  0.66541575  0.16544720  1
  Te  Te205  1  0.33980214  0.66694406  0.49590290  1
  Te  Te206  1  0.33510615  0.66429806  0.83672601  1
  Te  Te207  1  0.66679343  -0.00386686  0.16666192  1
  Te  Te208  1  0.66617117  -0.00045869  0.49537097  1
  Te  Te209  1  0.66183500  -0.00312140  0.83539817  1
  Te  Te210  1  0.67312405  0.33647923  0.17305976  1
  Te  Te211  1  0.67321266  0.33427771  0.49798627  1
  Te  Te212  1  0.67184328  0.33841528  0.83164218  1
  Te  Te213  1  0.66654661  0.67294596  0.15981892  1
  Te  Te214  1  0.65861540  0.66755269  0.49900596  1
  Te  Te215  1  0.66360126  0.66726663  0.83846593  1
