# generated using pymatgen
data_AgSbTe2
_symmetry_space_group_name_H-M   'P 1'
_cell_length_a   18.33121912
_cell_length_b   18.33856693
_cell_length_c   18.33676441
_cell_angle_alpha   90.00094631
_cell_angle_beta   90.00099998
_cell_angle_gamma   89.99838051
_symmetry_Int_Tables_number   1
_chemical_formula_structural   AgSbTe2
_chemical_formula_sum   'Ag54 Sb54 Te108'
_cell_volume   6164.23871020
_cell_formula_units_Z   54
loop_
 _symmetry_equiv_pos_site_id
 _symmetry_equiv_pos_as_xyz
  1  'x, y, z'
loop_
 _atom_site_type_symbol
 _atom_site_label
 _atom_site_symmetry_multiplicity
 _atom_site_fract_x
 _atom_site_fract_y
 _atom_site_fract_z
 _atom_site_occupancy
  Ag  Ag0  1  0.67067235  0.17288909  0.83099217  1
  Ag  Ag1  1  0.48997017  0.66267921  0.83992004  1
  Ag  Ag2  1  0.32940554  0.82674313  0.16142354  1
  Ag  Ag3  1  0.33515742  0.82727355  0.50107551  1
  Ag  Ag4  1  0.33016363  -0.01245642  -0.00320963  1
  Ag  Ag5  1  0.83448317  0.82923271  0.00882333  1
  Ag  Ag6  1  0.66234447  0.49781661  0.83021170  1
  Ag  Ag7  1  0.83095383  0.83117257  0.66445458  1
  Ag  Ag8  1  0.17143505  -0.00854092  0.83658516  1
  Ag  Ag9  1  0.33296508  0.50410789  0.51182156  1
  Ag  Ag10  1  0.49260312  0.82668279  0.66798280  1
  Ag  Ag11  1  0.17211815  0.16948960  0.66788719  1
  Ag  Ag12  1  0.16845133  -0.01046890  0.16392776  1
  Ag  Ag13  1  -0.00652538  -0.00589551  0.33212863  1
  Ag  Ag14  1  0.83425884  0.00187652  0.49498695  1
  Ag  Ag15  1  0.50105439  0.50637047  0.32646051  1
  Ag  Ag16  1  0.83657402  0.66812820  0.16408801  1
  Ag  Ag17  1  0.83174552  0.16459315  0.00702518  1
  Ag  Ag18  1  0.83230095  0.83442189  0.33124633  1
  Ag  Ag19  1  0.66513574  0.33102180  0.66731070  1
  Ag  Ag20  1  0.17134294  0.66925095  0.15952986  1
  Ag  Ag21  1  0.16828604  0.33610682  0.16755677  1
  Ag  Ag22  1  0.83016366  0.33493405  0.17085131  1
  Ag  Ag23  1  0.00517400  0.67018838  0.00549717  1
  Ag  Ag24  1  0.83504601  0.66484124  0.83818507  1
  Ag  Ag25  1  0.17404534  0.82992825  0.00411400  1
  Ag  Ag26  1  0.83111806  0.17019997  0.66714849  1
  Ag  Ag27  1  0.48949545  0.66264880  0.15959996  1
  Ag  Ag28  1  0.67079653  0.17069944  0.16678935  1
  Ag  Ag29  1  0.49921774  0.34362195  0.16890466  1
  Ag  Ag30  1  0.00014863  0.50310579  0.49944429  1
  Ag  Ag31  1  0.17817447  0.50107488  0.66788435  1
  Ag  Ag32  1  0.82821115  0.33736767  0.82977472  1
  Ag  Ag33  1  0.00133919  0.82882396  0.16678232  1
  Ag  Ag34  1  0.00559567  0.66627574  0.66948467  1
  Ag  Ag35  1  0.49909699  0.17790276  0.67056815  1
  Ag  Ag36  1  0.83257688  0.16784414  0.33134544  1
  Ag  Ag37  1  0.33299581  0.66902109  -0.00062005  1
  Ag  Ag38  1  0.33965653  0.50417837  0.82488740  1
  Ag  Ag39  1  0.67170182  0.33093190  0.33119742  1
  Ag  Ag40  1  0.16008544  0.16563232  0.32854078  1
  Ag  Ag41  1  0.48929029  0.82542179  0.00668759  1
  Ag  Ag42  1  0.49639803  0.50859098  -0.00082987  1
  Ag  Ag43  1  0.50193442  0.82607878  0.32447686  1
  Ag  Ag44  1  -0.00348107  0.67025009  0.32189742  1
  Ag  Ag45  1  0.82937430  0.49578285  0.33131697  1
  Ag  Ag46  1  0.67622507  0.00450753  0.33115839  1
  Ag  Ag47  1  0.33184635  0.66147672  0.67561744  1
  Ag  Ag48  1  0.34192816  0.34847422  0.66687355  1
  Ag  Ag49  1  0.33735741  0.50810870  0.16560778  1
  Ag  Ag50  1  0.17338699  0.66869344  0.83907364  1
  Ag  Ag51  1  0.49153501  0.50347912  0.67115643  1
  Ag  Ag52  1  0.33274256  -0.00421195  0.67039907  1
  Ag  Ag53  1  0.83227844  0.33105046  0.49693504  1
  Sb  Sb54  1  0.16653627  0.49777075  0.33398807  1
  Sb  Sb55  1  0.17258904  0.50953618  -0.00210513  1
  Sb  Sb56  1  0.49602225  -0.00426341  0.16679885  1
  Sb  Sb57  1  0.49591290  0.66586349  0.50069797  1
  Sb  Sb58  1  0.16505034  0.83485890  0.32472997  1
  Sb  Sb59  1  0.83642216  -0.00108637  0.82997214  1
  Sb  Sb60  1  -0.00713696  0.33577131  0.33213592  1
  Sb  Sb61  1  0.66622907  0.83186497  0.83250084  1
  Sb  Sb62  1  0.50569549  0.34251455  0.83386709  1
  Sb  Sb63  1  0.33486485  0.33892215  -0.00219244  1
  Sb  Sb64  1  0.00224848  0.82838244  0.49492988  1
  Sb  Sb65  1  0.67006904  0.16765962  0.49978816  1
  Sb  Sb66  1  -0.00026928  0.50528091  0.82949128  1
  Sb  Sb67  1  0.00295224  -0.00875823  0.00536028  1
  Sb  Sb68  1  0.50375483  0.33558013  0.50029208  1
  Sb  Sb69  1  0.66436399  0.00567998  0.66451261  1
  Sb  Sb70  1  0.16952451  0.82960248  0.67240336  1
  Sb  Sb71  1  0.33063155  0.66696585  0.32812933  1
  Sb  Sb72  1  -0.00485958  0.16658049  0.83230500  1
  Sb  Sb73  1  0.33800479  0.17147123  0.83020164  1
  Sb  Sb74  1  -0.00331585  0.16197995  0.16856496  1
  Sb  Sb75  1  0.66151344  0.66673133  -0.00021230  1
  Sb  Sb76  1  0.33189685  -0.00349432  0.33297448  1
  Sb  Sb77  1  0.33515394  0.16647374  0.16584260  1
  Sb  Sb78  1  0.66311278  0.66159497  0.67017503  1
  Sb  Sb79  1  -0.00212386  0.34112021  0.00262765  1
  Sb  Sb80  1  0.33194574  0.16811345  0.50400599  1
  Sb  Sb81  1  0.33731578  0.33594709  0.33580294  1
  Sb  Sb82  1  0.50472276  0.16755114  0.33511995  1
  Sb  Sb83  1  0.66500290  0.83474319  0.49928542  1
  Sb  Sb84  1  0.66554195  0.49734953  0.50186666  1
  Sb  Sb85  1  0.83660943  0.66539505  0.49848242  1
  Sb  Sb86  1  -0.00015108  0.82998819  0.83836627  1
  Sb  Sb87  1  0.66483767  0.00040990  0.00332802  1
  Sb  Sb88  1  -0.00344871  0.17042377  0.49830404  1
  Sb  Sb89  1  -0.00208765  0.33758448  0.66601032  1
  Sb  Sb90  1  0.16429180  0.33739351  0.83458862  1
  Sb  Sb91  1  0.50379167  0.16623920  -0.00353110  1
  Sb  Sb92  1  0.66976759  0.66432971  0.33087963  1
  Sb  Sb93  1  0.83200826  0.50042757  0.66461783  1
  Sb  Sb94  1  0.66638420  0.83519365  0.16829025  1
  Sb  Sb95  1  0.66152178  0.49546194  0.16426166  1
  Sb  Sb96  1  0.33414510  0.82461151  0.83624347  1
  Sb  Sb97  1  0.16812129  0.66567577  0.50125105  1
  Sb  Sb98  1  0.00195655  0.50841445  0.17065497  1
  Sb  Sb99  1  0.66746595  0.33342337  0.00046770  1
  Sb  Sb100  1  0.49436204  -0.00581565  0.83166604  1
  Sb  Sb101  1  0.83641140  -0.00191654  0.17271793  1
  Sb  Sb102  1  0.16203474  0.15990289  0.00042166  1
  Sb  Sb103  1  0.82784696  0.50435474  0.00363373  1
  Sb  Sb104  1  0.16338790  0.33498931  0.49779466  1
  Sb  Sb105  1  0.00217071  -0.00469762  0.66302907  1
  Sb  Sb106  1  0.50182914  -0.00162407  0.50054775  1
  Sb  Sb107  1  0.16409996  -0.00078155  0.49901712  1
  Te  Te108  1  0.16651210  0.17064639  0.16790338  1
  Te  Te109  1  0.16432014  0.16713630  0.50330835  1
  Te  Te110  1  0.16558726  0.16872160  0.82927894  1
  Te  Te111  1  0.17004398  0.50065220  0.16606516  1
  Te  Te112  1  0.16989909  0.49933555  0.50342557  1
  Te  Te113  1  0.16963367  0.50394484  0.82868729  1
  Te  Te114  1  0.16840732  0.83048888  0.16408046  1
  Te  Te115  1  0.17507383  0.83358573  0.49843248  1
  Te  Te116  1  0.16572124  0.83070357  0.83995192  1
  Te  Te117  1  0.50425808  0.16979101  0.16616378  1
  Te  Te118  1  0.49949196  0.16660234  0.51051835  1
  Te  Te119  1  0.50677793  0.16638469  0.82929478  1
  Te  Te120  1  0.50115601  0.50238147  0.16719478  1
  Te  Te121  1  0.49444719  0.49925572  0.50016520  1
  Te  Te122  1  0.50039487  0.50266173  0.83239041  1
  Te  Te123  1  0.49977686  0.82952126  0.16573043  1
  Te  Te124  1  0.49505084  0.83296430  0.50337510  1
  Te  Te125  1  0.50281843  0.82601606  0.83169270  1
  Te  Te126  1  0.83217142  0.16575343  0.16871967  1
  Te  Te127  1  0.83453754  0.16807323  0.49860918  1
  Te  Te128  1  0.83057709  0.16536590  0.82858736  1
  Te  Te129  1  0.83244007  0.50020092  0.17045702  1
  Te  Te130  1  0.83378626  0.49728081  0.49462250  1
  Te  Te131  1  0.83084288  0.50068708  0.83473201  1
  Te  Te132  1  0.83293750  0.83257409  0.17001283  1
  Te  Te133  1  0.83395742  0.83561091  0.49788553  1
  Te  Te134  1  0.83305694  0.83052586  0.82799297  1
  Te  Te135  1  0.16907019  -0.00446052  0.00030371  1
  Te  Te136  1  0.16463930  0.00493072  0.33051884  1
  Te  Te137  1  0.16866140  0.00096074  0.66831937  1
  Te  Te138  1  0.16628031  0.33122150  0.00571245  1
  Te  Te139  1  0.16645411  0.32884566  0.32913020  1
  Te  Te140  1  0.16667288  0.33245006  0.66728414  1
  Te  Te141  1  0.16815147  0.66951413  -0.00091597  1
  Te  Te142  1  0.15956765  0.66632077  0.32748885  1
  Te  Te143  1  0.16839128  0.66501209  0.66853823  1
  Te  Te144  1  0.49340594  -0.00569393  -0.00106137  1
  Te  Te145  1  0.50364027  -0.00307825  0.33378524  1
  Te  Te146  1  0.49639581  -0.00882950  0.66719681  1
  Te  Te147  1  0.49922498  0.33402538  0.00785421  1
  Te  Te148  1  0.50536195  0.33495841  0.33023469  1
  Te  Te149  1  0.50077500  0.33508323  0.66760114  1
  Te  Te150  1  0.49761145  0.66849220  0.00010499  1
  Te  Te151  1  0.50058591  0.66639511  0.32902609  1
  Te  Te152  1  0.49740559  0.66587240  0.66822878  1
  Te  Te153  1  0.83432522  -0.00080352  -0.00074305  1
  Te  Te154  1  0.83383698  -0.00065690  0.33319052  1
  Te  Te155  1  0.83345522  -0.00116145  0.66228119  1
  Te  Te156  1  0.83472617  0.33108171  0.00387025  1
  Te  Te157  1  0.83207524  0.33225784  0.33098718  1
  Te  Te158  1  0.83222693  0.33204781  0.66833114  1
  Te  Te159  1  0.83247938  0.66772656  0.00074013  1
  Te  Te160  1  0.83506896  0.66897869  0.33192173  1
  Te  Te161  1  0.83145492  0.66877499  0.66760008  1
  Te  Te162  1  -0.00862579  0.16618201  0.00024125  1
  Te  Te163  1  -0.00136298  0.16317164  0.33360610  1
  Te  Te164  1  -0.00213446  0.16524386  0.66531873  1
  Te  Te165  1  0.00007742  0.51000886  -0.00065696  1
  Te  Te166  1  -0.00179126  0.50565116  0.33777890  1
  Te  Te167  1  0.00017693  0.50528730  0.66220421  1
  Te  Te168  1  -0.00690458  0.82749467  0.00501236  1
  Te  Te169  1  -0.00202312  0.83193876  0.33041015  1
  Te  Te170  1  -0.00312692  0.82787703  0.66380932  1
  Te  Te171  1  0.33302896  0.16242625  -0.00124786  1
  Te  Te172  1  0.32995749  0.16647950  0.33557750  1
  Te  Te173  1  0.33277557  0.15854203  0.66654339  1
  Te  Te174  1  0.33789059  0.50331573  0.00640374  1
  Te  Te175  1  0.33728800  0.50034562  0.32614490  1
  Te  Te176  1  0.33438837  0.50393978  0.66774046  1
  Te  Te177  1  0.33368617  0.83103181  0.00052134  1
  Te  Te178  1  0.33927140  0.83305618  0.33341884  1
  Te  Te179  1  0.33310185  0.83398520  0.66805016  1
  Te  Te180  1  0.67195577  0.16613079  0.00030095  1
  Te  Te181  1  0.66849363  0.16845646  0.33133383  1
  Te  Te182  1  0.66862761  0.16994854  0.66785358  1
  Te  Te183  1  0.65767422  0.49966175  -0.00915764  1
  Te  Te184  1  0.66621584  0.49584547  0.33433027  1
  Te  Te185  1  0.66340964  0.49347715  0.66932490  1
  Te  Te186  1  0.67511083  0.83582567  -0.00003298  1
  Te  Te187  1  0.66551534  0.83662020  0.33395012  1
  Te  Te188  1  0.67039838  0.83591821  0.66589728  1
  Te  Te189  1  0.00692981  -0.00634476  0.17148669  1
  Te  Te190  1  -0.00447436  -0.00208473  0.49397296  1
  Te  Te191  1  0.01035149  -0.00082167  0.83324733  1
  Te  Te192  1  0.00096548  0.33470403  0.16632831  1
  Te  Te193  1  -0.00681953  0.34193921  0.49967748  1
  Te  Te194  1  -0.01017005  0.33516332  0.83465161  1
  Te  Te195  1  -0.00246032  0.66911709  0.16521608  1
  Te  Te196  1  0.00189704  0.66169099  0.50653815  1
  Te  Te197  1  -0.00399815  0.66703021  0.82965084  1
  Te  Te198  1  0.32824490  -0.00192839  0.16421517  1
  Te  Te199  1  0.33287271  -0.00377231  0.50456337  1
  Te  Te200  1  0.32921959  0.00415909  0.83292523  1
  Te  Te201  1  0.33413250  0.33409884  0.16680177  1
  Te  Te202  1  0.33288440  0.33825306  0.50664528  1
  Te  Te203  1  0.33303214  0.34107851  0.82832624  1
  Te  Te204  1  0.33251663  0.66852246  0.16661573  1
  Te  Te205  1  0.33222424  0.66576708  0.50511554  1
  Te  Te206  1  0.33271029  0.66247487  0.83547975  1
  Te  Te207  1  0.66434809  0.00719850  0.17115967  1
  Te  Te208  1  0.67357461  0.00064102  0.49270894  1
  Te  Te209  1  0.66680938  0.00740946  0.83405843  1
  Te  Te210  1  0.67013898  0.33134574  0.16819454  1
  Te  Te211  1  0.67287261  0.33341714  0.50071442  1
  Te  Te212  1  0.66955614  0.33330128  0.83182424  1
  Te  Te213  1  0.67550726  0.66612286  0.16670042  1
  Te  Te214  1  0.66681834  0.66607029  0.50060345  1
  Te  Te215  1  0.67453769  0.66334338  0.83321189  1
