# generated using pymatgen
data_AgSbTe2
_symmetry_space_group_name_H-M   'P 1'
_cell_length_a   18.34701363
_cell_length_b   18.34562743
_cell_length_c   18.34787561
_cell_angle_alpha   90.00176157
_cell_angle_beta   90.00031049
_cell_angle_gamma   89.99896396
_symmetry_Int_Tables_number   1
_chemical_formula_structural   AgSbTe2
_chemical_formula_sum   'Ag54 Sb54 Te108'
_cell_volume   6175.66514971
_cell_formula_units_Z   54
loop_
 _symmetry_equiv_pos_site_id
 _symmetry_equiv_pos_as_xyz
  1  'x, y, z'
loop_
 _atom_site_type_symbol
 _atom_site_label
 _atom_site_symmetry_multiplicity
 _atom_site_fract_x
 _atom_site_fract_y
 _atom_site_fract_z
 _atom_site_occupancy
  Ag  Ag0  1  0.67111615  0.17161716  0.16691477  1
  Ag  Ag1  1  0.00782263  -0.00317410  0.00654786  1
  Ag  Ag2  1  0.33337059  0.15936397  0.84435653  1
  Ag  Ag3  1  0.83323793  0.34370712  0.17294390  1
  Ag  Ag4  1  0.68545724  0.66884715  0.33697362  1
  Ag  Ag5  1  0.00397194  0.83008357  0.49662448  1
  Ag  Ag6  1  0.50040151  0.33596849  0.83344633  1
  Ag  Ag7  1  0.66610563  0.34491796  0.66346004  1
  Ag  Ag8  1  0.00872410  0.83138913  0.82726255  1
  Ag  Ag9  1  0.67035917  0.82699519  0.49664789  1
  Ag  Ag10  1  0.49226836  0.16425648  0.00319484  1
  Ag  Ag11  1  0.83529422  0.17546517  0.32745878  1
  Ag  Ag12  1  0.83508072  0.66522536  0.49165468  1
  Ag  Ag13  1  0.83239813  0.16056612  0.00852566  1
  Ag  Ag14  1  0.83049736  0.34540538  0.48994703  1
  Ag  Ag15  1  0.49729296  0.66699183  0.49327978  1
  Ag  Ag16  1  0.33429879  0.15956464  0.16152487  1
  Ag  Ag17  1  0.31756927  0.66889868  0.33486654  1
  Ag  Ag18  1  0.17006866  0.67019815  0.81314291  1
  Ag  Ag19  1  0.49996347  0.50898548  0.00160126  1
  Ag  Ag20  1  0.66899932  0.66320674  0.65479460  1
  Ag  Ag21  1  0.49358655  -0.01659893  0.49701760  1
  Ag  Ag22  1  0.49778900  0.82701473  0.33369571  1
  Ag  Ag23  1  0.50727131  0.34085364  0.50096716  1
  Ag  Ag24  1  0.00093954  0.66807097  0.33590674  1
  Ag  Ag25  1  0.33328046  0.67619640  0.00813711  1
  Ag  Ag26  1  0.00241742  -0.01467394  0.65889137  1
  Ag  Ag27  1  0.66590620  0.50179512  0.83327036  1
  Ag  Ag28  1  0.16719213  -0.01261309  0.49372390  1
  Ag  Ag29  1  0.33315680  0.50862224  0.49957461  1
  Ag  Ag30  1  0.32936336  -0.00648894  0.00333938  1
  Ag  Ag31  1  0.49489659  0.66896083  0.17672204  1
  Ag  Ag32  1  0.16552135  0.66989920  0.49826036  1
  Ag  Ag33  1  0.67178817  0.50370477  0.16657334  1
  Ag  Ag34  1  0.01025317  0.66944859  0.65385817  1
  Ag  Ag35  1  0.16784182  -0.01074498  0.16899476  1
  Ag  Ag36  1  0.15794626  0.51370482  0.33494825  1
  Ag  Ag37  1  0.83755738  0.50653091  0.33396170  1
  Ag  Ag38  1  0.17757680  0.16063056  0.00257847  1
  Ag  Ag39  1  0.83425178  0.66355678  0.17815705  1
  Ag  Ag40  1  0.16258286  0.51310931  0.65730985  1
  Ag  Ag41  1  -0.00677150  0.50477428  0.17184465  1
  Ag  Ag42  1  0.16321331  0.82689424  0.65576389  1
  Ag  Ag43  1  0.00122321  -0.01356093  0.33245708  1
  Ag  Ag44  1  0.32763876  0.82967067  0.84260640  1
  Ag  Ag45  1  0.16056316  0.82626756  0.33777188  1
  Ag  Ag46  1  0.83334164  0.50519190  0.65328725  1
  Ag  Ag47  1  0.83446779  0.83340212  0.00776154  1
  Ag  Ag48  1  0.84353243  0.82118167  0.33084138  1
  Ag  Ag49  1  0.33263683  0.82903879  0.16355450  1
  Ag  Ag50  1  0.17072637  0.67079892  0.18343000  1
  Ag  Ag51  1  0.48937263  0.83000246  0.00527086  1
  Ag  Ag52  1  0.32236939  0.66780986  0.65493807  1
  Ag  Ag53  1  -0.00662196  0.34796849  0.33361717  1
  Sb  Sb54  1  -0.00557775  0.34358464  0.65790363  1
  Sb  Sb55  1  0.33578046  0.33155376  0.00037414  1
  Sb  Sb56  1  0.49368757  0.82916524  0.66390559  1
  Sb  Sb57  1  0.17202303  0.50424677  0.00394339  1
  Sb  Sb58  1  0.67277370  0.34192654  0.33676954  1
  Sb  Sb59  1  0.50306757  0.50318142  0.66658164  1
  Sb  Sb60  1  0.00504926  0.82838798  0.17017369  1
  Sb  Sb61  1  0.32968505  0.82675288  0.49519630  1
  Sb  Sb62  1  -0.00024400  0.15886543  0.49705439  1
  Sb  Sb63  1  0.33737791  0.34049386  0.66571823  1
  Sb  Sb64  1  0.33389016  0.50780904  0.17062768  1
  Sb  Sb65  1  0.16258113  0.16177442  0.32797016  1
  Sb  Sb66  1  0.33636936  0.50660187  0.83051735  1
  Sb  Sb67  1  0.83388084  0.17202750  0.66478117  1
  Sb  Sb68  1  0.49637902  0.00149047  0.83260271  1
  Sb  Sb69  1  0.00526894  0.15908759  0.83813401  1
  Sb  Sb70  1  -0.00111769  0.16754660  0.16823174  1
  Sb  Sb71  1  0.66665821  0.50825204  0.49861023  1
  Sb  Sb72  1  0.66803689  0.16503790  0.49444245  1
  Sb  Sb73  1  0.33456430  0.16872119  0.49636537  1
  Sb  Sb74  1  0.82949545  0.33508671  0.83449462  1
  Sb  Sb75  1  0.33101187  0.34087326  0.33340743  1
  Sb  Sb76  1  0.66149222  0.17359918  0.83994917  1
  Sb  Sb77  1  0.49422569  -0.00634491  0.16932798  1
  Sb  Sb78  1  0.67143515  -0.00711895  0.33209207  1
  Sb  Sb79  1  0.50367420  0.16264973  0.32801875  1
  Sb  Sb80  1  0.66538207  0.82468508  0.82932053  1
  Sb  Sb81  1  0.50409273  0.33745848  0.16854284  1
  Sb  Sb82  1  -0.00348135  0.32856567  0.00525119  1
  Sb  Sb83  1  0.83795827  0.66775135  0.83316766  1
  Sb  Sb84  1  0.00024530  0.51169862  0.49175986  1
  Sb  Sb85  1  0.84184251  0.82311385  0.66050420  1
  Sb  Sb86  1  0.16763933  0.16023448  0.67104097  1
  Sb  Sb87  1  0.50331852  0.50986527  0.33181488  1
  Sb  Sb88  1  0.67160021  -0.00580668  0.66199233  1
  Sb  Sb89  1  0.49428559  0.66425351  0.83377320  1
  Sb  Sb90  1  0.00510770  0.67315081  0.00429351  1
  Sb  Sb91  1  0.17188689  0.33830525  0.83255857  1
  Sb  Sb92  1  -0.00259978  0.50706960  0.83611546  1
  Sb  Sb93  1  0.16693303  -0.01057203  0.83706807  1
  Sb  Sb94  1  0.82950636  0.50423832  0.00686093  1
  Sb  Sb95  1  0.83987880  -0.00368639  0.16823762  1
  Sb  Sb96  1  0.32763275  -0.01008425  0.66860168  1
  Sb  Sb97  1  0.16773056  0.83495520  0.00499754  1
  Sb  Sb98  1  0.49949839  0.16824170  0.66935425  1
  Sb  Sb99  1  0.66587467  0.33436557  0.00025468  1
  Sb  Sb100  1  0.66137646  0.66697278  0.00429394  1
  Sb  Sb101  1  0.66436466  0.82860761  0.17184036  1
  Sb  Sb102  1  0.32773211  -0.00952508  0.32937517  1
  Sb  Sb103  1  0.83808521  -0.00800784  0.49628717  1
  Sb  Sb104  1  0.83573848  -0.00161362  0.83481261  1
  Sb  Sb105  1  0.16230787  0.33621813  0.16824650  1
  Sb  Sb106  1  0.16223901  0.34073292  0.49817528  1
  Sb  Sb107  1  0.66440381  -0.00053475  0.00198834  1
  Te  Te108  1  0.16961022  0.16837559  0.16203642  1
  Te  Te109  1  0.16843133  0.16549203  0.50114547  1
  Te  Te110  1  0.17249476  0.16844052  0.83925969  1
  Te  Te111  1  0.16575326  0.50404459  0.17157314  1
  Te  Te112  1  0.16890264  0.50206609  0.49814275  1
  Te  Te113  1  0.16679719  0.50646201  0.83157899  1
  Te  Te114  1  0.17056955  0.83157770  0.17164599  1
  Te  Te115  1  0.16755334  0.83145483  0.49759801  1
  Te  Te116  1  0.16751198  0.82824543  0.83511128  1
  Te  Te117  1  0.49972381  0.16758055  0.16341564  1
  Te  Te118  1  0.50095082  0.17342878  0.49951614  1
  Te  Te119  1  0.49502128  0.16983718  0.83865965  1
  Te  Te120  1  0.50305635  0.50372582  0.16276920  1
  Te  Te121  1  0.49683814  0.50174334  0.49959036  1
  Te  Te122  1  0.50344480  0.49657229  0.83665712  1
  Te  Te123  1  0.49822484  0.82912848  0.16550323  1
  Te  Te124  1  0.49766044  0.82702432  0.49959449  1
  Te  Te125  1  0.49670498  0.83345339  0.83821386  1
  Te  Te126  1  0.83335086  0.16248219  0.16751952  1
  Te  Te127  1  0.83224904  0.16794843  0.49611314  1
  Te  Te128  1  0.83269897  0.16749523  0.83951660  1
  Te  Te129  1  0.83214061  0.50250769  0.16741786  1
  Te  Te130  1  0.83275508  0.50217907  0.49687080  1
  Te  Te131  1  0.82748635  0.49965323  0.83613641  1
  Te  Te132  1  0.83147867  0.82982814  0.16987252  1
  Te  Te133  1  0.83405735  0.82828153  0.49470287  1
  Te  Te134  1  0.83418412  0.83335423  0.83867896  1
  Te  Te135  1  0.16764917  0.00162081  0.00212204  1
  Te  Te136  1  0.16264920  -0.00208907  0.33232888  1
  Te  Te137  1  0.16120393  -0.00535917  0.66252585  1
  Te  Te138  1  0.16480230  0.32723777  -0.00055453  1
  Te  Te139  1  0.15895645  0.33345914  0.33416756  1
  Te  Te140  1  0.16506787  0.33643961  0.66625470  1
  Te  Te141  1  0.17280542  0.66514415  0.00731777  1
  Te  Te142  1  0.16199032  0.66850771  0.33876117  1
  Te  Te143  1  0.16643603  0.66855084  0.65858944  1
  Te  Te144  1  0.49530452  -0.00100318  0.00051456  1
  Te  Te145  1  0.49971028  -0.00558157  0.33796625  1
  Te  Te146  1  0.50043318  -0.00012207  0.65851255  1
  Te  Te147  1  0.50140771  0.32903900  -0.00131734  1
  Te  Te148  1  0.50034066  0.33277036  0.33897499  1
  Te  Te149  1  0.50469921  0.33430643  0.66485537  1
  Te  Te150  1  0.49586538  0.66942184  -0.00042036  1
  Te  Te151  1  0.49598203  0.66665155  0.33301234  1
  Te  Te152  1  0.50602245  0.66672557  0.66158501  1
  Te  Te153  1  0.83473397  -0.00224211  0.00149002  1
  Te  Te154  1  0.83946109  0.00099059  0.33388698  1
  Te  Te155  1  0.84097956  0.00172723  0.66560389  1
  Te  Te156  1  0.83302568  0.32922186  0.00683221  1
  Te  Te157  1  0.83368932  0.33450458  0.33289086  1
  Te  Te158  1  0.82791849  0.33987570  0.66528334  1
  Te  Te159  1  0.83363523  0.67155954  0.00223876  1
  Te  Te160  1  0.84046021  0.66614115  0.33340307  1
  Te  Te161  1  0.82865648  0.66258816  0.66728131  1
  Te  Te162  1  -0.00599561  0.16052452  0.00076256  1
  Te  Te163  1  -0.00507044  0.16514808  0.33308305  1
  Te  Te164  1  0.00020094  0.16487652  0.66879648  1
  Te  Te165  1  0.00089036  0.49773808  0.00638241  1
  Te  Te166  1  -0.00178687  0.50375708  0.33131106  1
  Te  Te167  1  -0.00144696  0.50763130  0.66983688  1
  Te  Te168  1  -0.00288268  0.83772984  -0.00070103  1
  Te  Te169  1  0.00094175  0.83049264  0.33289983  1
  Te  Te170  1  0.00168473  0.82907336  0.66674198  1
  Te  Te171  1  0.33549545  0.16830557  0.00129925  1
  Te  Te172  1  0.33349826  0.16794518  0.32709850  1
  Te  Te173  1  0.33303810  0.16566942  0.67162488  1
  Te  Te174  1  0.33964076  0.50168126  -0.00002010  1
  Te  Te175  1  0.32974573  0.50565902  0.33749357  1
  Te  Te176  1  0.32867650  0.50689082  0.66300223  1
  Te  Te177  1  0.33214163  0.83366481  0.00259966  1
  Te  Te178  1  0.33656239  0.82879112  0.32826004  1
  Te  Te179  1  0.32745711  0.82749950  0.67564498  1
  Te  Te180  1  0.67025109  0.16661176  0.00533134  1
  Te  Te181  1  0.67203241  0.16507965  0.32729486  1
  Te  Te182  1  0.66805916  0.16797715  0.66864124  1
  Te  Te183  1  0.66166018  0.50046649  0.00061017  1
  Te  Te184  1  0.67125638  0.50690931  0.32758092  1
  Te  Te185  1  0.66882816  0.50246559  0.66586137  1
  Te  Te186  1  0.67042330  0.83477498  -0.00114049  1
  Te  Te187  1  0.66160885  0.82840875  0.33667684  1
  Te  Te188  1  0.66758805  0.82769328  0.66072210  1
  Te  Te189  1  0.00661000  0.00055555  0.16704077  1
  Te  Te190  1  0.00423331  -0.00715209  0.49804026  1
  Te  Te191  1  0.00166199  -0.00761565  0.83530862  1
  Te  Te192  1  -0.00532492  0.33839633  0.17195358  1
  Te  Te193  1  -0.00654851  0.32945580  0.49451642  1
  Te  Te194  1  0.00033838  0.33299332  0.83090396  1
  Te  Te195  1  -0.00023409  0.66449703  0.16772516  1
  Te  Te196  1  -0.00255591  0.67005548  0.49882821  1
  Te  Te197  1  0.00658827  0.67195695  0.83592117  1
  Te  Te198  1  0.32880809  -0.00046690  0.16393684  1
  Te  Te199  1  0.33187906  0.00241902  0.50003708  1
  Te  Te200  1  0.33291867  -0.00095091  0.83750862  1
  Te  Te201  1  0.33367322  0.32822987  0.16862122  1
  Te  Te202  1  0.33618917  0.33792116  0.50030832  1
  Te  Te203  1  0.33996504  0.33160552  0.83144972  1
  Te  Te204  1  0.33332891  0.66784659  0.16898843  1
  Te  Te205  1  0.33390891  0.66656224  0.49741612  1
  Te  Te206  1  0.32960284  0.67009807  0.83556100  1
  Te  Te207  1  0.66494841  0.00811696  0.16732456  1
  Te  Te208  1  0.65959877  -0.00615406  0.49960550  1
  Te  Te209  1  0.66520180  0.00027768  0.83077965  1
  Te  Te210  1  0.67123079  0.33539792  0.16830963  1
  Te  Te211  1  0.66872982  0.33189252  0.50259367  1
  Te  Te212  1  0.66200041  0.33907460  0.82768040  1
  Te  Te213  1  0.66817279  0.66516234  0.16956665  1
  Te  Te214  1  0.66810001  0.66804992  0.49634677  1
  Te  Te215  1  0.66578124  0.66103616  0.83116202  1
